AV-unprocessed.smi:2093|AV-procd|sdf|8547|dock4
  -GOLD-   2272011273D 1   1.00000     0.00000
 Structure written by MMmdl.
 31 32  0  0  0  0  0  0  0  0  1 V2000
  152.1915  144.8892  159.2101 C   0  0  0  0  0  0  0  0  0  0  0  0
  151.8556  143.3900  159.2170 C   0  0  1  0  0  0  0  0  0  0  0  0
  151.5073  142.9795  157.8583 N   0  0  0  0  0  0  0  0  0  0  0  0
  150.3559  142.4041  157.4813 C   0  0  0  0  0  0  0  0  0  0  0  0
  149.4256  142.1660  158.2521 O   0  0  0  0  0  0  0  0  0  0  0  0
  150.3624  142.1281  156.1654 N   0  0  0  0  0  0  0  0  0  0  0  0
  149.3391  141.5236  155.3893 C   0  0  0  0  0  0  0  0  0  0  0  0
  149.4540  141.2219  154.0905 N   0  0  0  0  0  0  0  0  0  0  0  0
  148.2919  140.6348  153.5836 C   0  0  0  0  0  0  0  0  0  0  0  0
  147.2952  140.4955  154.5169 C   0  0  0  0  0  0  0  0  0  0  0  0
  147.7792  141.0993  156.0793 S   0  0  0  0  0  0  0  0  0  0  0  0
  153.0270  142.5264  159.7239 C   0  0  1  0  0  0  0  0  0  0  0  0
  153.2542  142.5761  161.2363 C   0  0  0  0  0  0  0  0  0  0  0  0
  153.9140  141.2413  161.5494 C   0  0  0  0  0  0  0  0  0  0  0  0
  153.7033  140.4122  160.2801 C   0  0  0  0  0  0  0  0  0  0  0  0
  152.7611  141.1478  159.5140 O   0  0  0  0  0  0  0  0  0  0  0  0
  152.4154  145.2509  160.2138 H   0  0  0  0  0  0  0  0  0  0  0  0
  151.3528  145.4761  158.8336 H   0  0  0  0  0  0  0  0  0  0  0  0
  153.0556  145.1002  158.5791 H   0  0  0  0  0  0  0  0  0  0  0  0
  151.0068  143.2417  159.8868 H   0  0  0  0  0  0  0  0  0  0  0  0
  152.2108  143.1307  157.1506 H   0  0  0  0  0  0  0  0  0  0  0  0
  151.1994  142.3770  155.6595 H   0  0  0  0  0  0  0  0  0  0  0  0
  148.2606  140.3458  152.5434 H   0  0  0  0  0  0  0  0  0  0  0  0
  146.3097  140.0760  154.3803 H   0  0  0  0  0  0  0  0  0  0  0  0
  153.9494  142.7893  159.2019 H   0  0  0  0  0  0  0  0  0  0  0  0
  153.8619  143.4285  161.5411 H   0  0  0  0  0  0  0  0  0  0  0  0
  152.2993  142.6403  161.7600 H   0  0  0  0  0  0  0  0  0  0  0  0
  154.9771  141.3574  161.7632 H   0  0  0  0  0  0  0  0  0  0  0  0
  153.4461  140.7731  162.4163 H   0  0  0  0  0  0  0  0  0  0  0  0
  154.6345  140.3277  159.7180 H   0  0  0  0  0  0  0  0  0  0  0  0
  153.3402  139.4060  160.4910 H   0  0  0  0  0  0  0  0  0  0  0  0
  1  2  1  0  0  0  0
  1 17  1  0  0  0  0
  1 18  1  0  0  0  0
  1 19  1  0  0  0  0
  2  3  1  0  0  0  0
  2 12  1  0  0  0  0
  2 20  1  0  0  0  0
  3  4  1  0  0  0  0
  3 21  1  0  0  0  0
  4  5  2  0  0  0  0
  4  6  1  0  0  0  0
  6  7  1  0  0  0  0
  6 22  1  0  0  0  0
  7 11  1  0  0  0  0
  7  8  2  0  0  0  0
  8  9  1  0  0  0  0
  9 10  2  0  0  0  0
  9 23  1  0  0  0  0
 10 11  1  0  0  0  0
 10 24  1  0  0  0  0
 12 16  1  0  0  0  0
 12 13  1  0  0  0  0
 12 25  1  0  0  0  0
 13 14  1  0  0  0  0
 13 26  1  0  0  0  0
 13 27  1  0  0  0  0
 14 15  1  0  0  0  0
 14 28  1  0  0  0  0
 14 29  1  0  0  0  0
 15 16  1  0  0  0  0
 15 30  1  0  0  0  0
 15 31  1  0  0  0  0
M  END
> <s_m_source_file>
AV-unprocessed.smi

> <i_m_source_file_index>
2093

> <i_lp_mmshare_version>
43012

> <i_f3d_flags>
0

> <s_epik_input>
TzFbQ0gyXVtDSDJdW0NIMl1bQ0BIXTFbQ0BIXShbQ0gzXSlbTkhdQyg9TylbTkhdYzJuW2NIXVtjSF1zMg==

> <s_epik_cmdline>
J2VwaWtfcHl0aG9uJywgJy1waCcsICc3LjAnLCAnLXRuJywgJzgnLCAnLW1hJywgJzIwMCcsICctbWV0YWxfYmluZGluZycsICctaW1hZScsICc8aW5maWxlLm1hZT4nLCAnLW9tYWUnLCAnPG91dGZpbGUubWFlPic=

> <r_lp_tautomer_probability>
0.999

> <r_epik_Ionization_Penalty>
0.000334433

> <r_epik_Ionization_Penalty_Charging>
0

> <r_epik_Ionization_Penalty_Neutral>
0.000334433

> <r_epik_State_Penalty>
0.000177984

> <r_epik_Charging_Adjusted_Penalty>
0.000177984

> <i_epik_Tot_Q>
0

> <i_epik_Tot_abs_Q>
0

> <r_epik_Metal_State_Penalty>
0.00767616

> <b_epik_Metal_Only>
0

> <s_lp_Force_Field>
OPLS_2005

> <r_lp_Energy>
16.8099

> <b_lp_Chiralities_Consistent>
1

> <s_lp_Variant>
AV-unprocessed.smi:2093-4

> <Gold.Version>
5.8.1

> <Gold.Id.Protein>
6NUR|6NUR_protein|mol2

> <Gold.PLP.Fitness>
37.1775

> <Gold.PLP.PLP>
-32.9989

> <Gold.PLP.part.hbond>
-3.0000

> <Gold.PLP.part.metal>
0.0000

> <Gold.PLP.part.buried>
-1.1038

> <Gold.PLP.part.nonpolar>
-28.9149

> <Gold.PLP.part.repulsive>
0.4289

> <Gold.PLP.ligand.clash>
0.0000

> <Gold.PLP.ligand.torsion>
0.1866

> <Gold.PLP.Chemscore.Hbond>
0.5093

> <Gold.PLP.Chemscore.CHOScore>
1.0000

> <Gold.PLP.Chemscore.Metal>
0.0000

> <Gold.Chemscore.Hbonds>
donor molecule, donor type, donor heavy atom, donor atom, acceptor molecule, acceptor atom, score
      P1  H  7989  7998       L1     8  0.16
      P1  H  8011  8017       L1     8  0.38
      L1  C     9    23       P1  7957  0.78

> <Gold.PLP.Chemscore.Internal.Correction>
0.0239

> <Gold.Rescore>
     Score         DG    S(hbond)    S(metal)    S(lipo)     H(rot)  DE(clash)    DE(int)     intcor
     10.47     -11.85       0.09        0.00      80.18       1.29       0.07       1.30       ----

> <Gold.Chemscore.Fitness>
10.4732

> <Gold.Chemscore.DG>
-11.8472

> <Gold.Chemscore.ZeroCoef>
-5.4800

> <Gold.Chemscore.Hbond>
0.0894

> <Gold.Chemscore.Metal>
0.0000

> <Gold.Chemscore.Lipo>
80.1771

> <Gold.Chemscore.Internal_Hbond>
0.0000

> <Gold.Chemscore.DEClash>
0.0693

> <Gold.Chemscore.DEInternal>
1.3047

> <Gold.Chemscore.Rot>
1.2938

> <Gold.Chemscore.Internal.Correction>
   9.000000E+99

> <Gold.Chemscore.Hbonds>
donor molecule, donor type, donor heavy atom, donor atom, acceptor molecule, acceptor atom, score
      P1  H  7989  7998       L1     8  0.13
      P1  H  8011  8017       L1     8  0.04

> <Gold.Chemscore.Hbond.Weighted>
-0.2986

> <Gold.Chemscore.Metal.Weighted>
-0.0000

> <Gold.Chemscore.Lipo.Weighted>
-9.3807

> <Gold.Chemscore.Internal_Hbond.Weighted>
0.0000

> <Gold.Chemscore.DEClash.Weighted>
0.0693

> <Gold.Chemscore.DEInternal.Weighted>
1.3047

> <Gold.Chemscore.Rot.Weighted>
3.3122

> <Gold.Chemscore.Internal.Correction.Weighted>
   9.000000E+99

> <Gold.Protein.RotatedTorsions>
[ 6907 6896 6895 6894 ] final -105.00 input  -60.11 | X-H torsion
[ 7974 7965 7964 7962 ] final  -34.36 input  175.53 | X-H torsion
[ 8008 7997 7996 7995 ] final   47.36 input   59.86 | X-H torsion
[ 10167 10162 10161 10158 ] final  -42.82 input  -65.29 | X-H torsion
[ 10718 10713 10712 10709 ] final  -82.31 input   66.30 | X-H torsion
[ 10763 10752 10751 10750 ] final   77.40 input  -60.55 | X-H torsion
[ 11005 11000 10999 10996 ] final -135.88 input  -57.11 | X-H torsion

> <Gold.Protein.ActiveResidues>
 VAL166  LYS551  ARG553  GLY616  TRP617  ASP618  TYR619  PRO620  LYS621  CYS622 
 ASP623  PHE694  ASN695  SER759  ASP760  ASP761  ALA762  ILE779  LEU786  VAL792 
 PHE793  MET794  SER795  GLU796  ALA797  LYS798  CYS799  TRP800  GLU811  SER814 

> <Gold.Protein.RotatedAtoms>
  150.7315  134.0192  159.3695 H   0  0  0  0  0  0  0  0  0  0  0  0  # atno 6907 bound_to 6896
  151.8156  135.0665  160.0428 H   0  0  0  0  0  0  0  0  0  0  0  0  # atno 6908 bound_to 6896
  152.3041  133.5649  159.5674 H   0  0  0  0  0  0  0  0  0  0  0  0  # atno 6909 bound_to 6896
  146.0836  140.6028  142.8897 H   0  0  0  0  0  0  0  0  0  0  0  0  # atno 7974 bound_to 7965
  155.3678  140.3422  155.4242 H   0  0  0  0  0  0  0  0  0  0  0  0  # atno 8008 bound_to 7997
  156.1679  140.1622  156.8534 H   0  0  0  0  0  0  0  0  0  0  0  0  # atno 8009 bound_to 7997
  154.5203  140.0768  156.8141 H   0  0  0  0  0  0  0  0  0  0  0  0  # atno 8010 bound_to 7997
  140.6956  143.3017  151.3263 H   0  0  0  0  0  0  0  0  0  0  0  0  # atno 10167 bound_to 10162
  156.0035  130.4630  150.4086 H   0  0  0  0  0  0  0  0  0  0  0  0  # atno 10718 bound_to 10713
  153.0796  135.4915  154.8476 H   0  0  0  0  0  0  0  0  0  0  0  0  # atno 10763 bound_to 10752
  154.7133  135.3024  154.9165 H   0  0  0  0  0  0  0  0  0  0  0  0  # atno 10764 bound_to 10752
  153.9852  135.6785  153.4804 H   0  0  0  0  0  0  0  0  0  0  0  0  # atno 10765 bound_to 10752
  140.8857  134.1876  157.4562 H   0  0  0  0  0  0  0  0  0  0  0  0  # atno 11005 bound_to 11000
  144.7310  140.4671  143.6938 LP  0  0  0  0  0  0  0  0  0  0  0  0  # atno 17320 bound_to 7965
  145.6172  139.1520  143.3043 LP  0  0  0  0  0  0  0  0  0  0  0  0  # atno 17321 bound_to 7965
  139.6407  144.0545  152.2552 LP  0  0  0  0  0  0  0  0  0  0  0  0  # atno 17342 bound_to 10162
  140.0049  144.6266  150.7697 LP  0  0  0  0  0  0  0  0  0  0  0  0  # atno 17343 bound_to 10162
  157.2150  131.0469  151.2578 LP  0  0  0  0  0  0  0  0  0  0  0  0  # atno 17370 bound_to 10713
  157.3853  130.7253  149.6659 LP  0  0  0  0  0  0  0  0  0  0  0  0  # atno 17371 bound_to 10713
  139.8724  134.9836  156.5207 LP  0  0  0  0  0  0  0  0  0  0  0  0  # atno 17394 bound_to 11000
  140.8408  133.8206  155.9073 LP  0  0  0  0  0  0  0  0  0  0  0  0  # atno 17395 bound_to 11000

$$$$
