AV-unprocessed.smi:1389|AV-procd|sdf|5652|dock2
  -GOLD-   22720 5273D 1   1.00000     0.00000
 Structure written by MMmdl.
 53 55  0  0  0  0  0  0  0  0  3 V2000
  150.3156  134.4813  155.2635 C   0  0  0  0  0  0  0  0  0  0  0  0
  150.0016  133.0188  154.8607 C   0  0  2  0  0  0  0  0  0  0  0  0
  148.5852  132.6072  155.3514 C   0  0  0  0  0  0  0  0  0  0  0  0
  147.5052  133.1335  154.5184 N   0  0  0  0  0  0  0  0  0  0  0  0
  147.1058  132.6151  153.3476 C   0  0  0  0  0  0  0  0  0  0  0  0
  147.5935  131.5998  152.8515 O   0  0  0  0  0  0  0  0  0  0  0  0
  146.1279  133.3512  152.7934 N   0  0  0  0  0  0  0  0  0  0  0  0
  145.4712  133.1352  151.5483 C   0  0  0  0  0  0  0  0  0  0  0  0
  146.0165  132.3072  150.5339 C   0  0  0  0  0  0  0  0  0  0  0  0
  145.3084  132.1179  149.3307 C   0  0  0  0  0  0  0  0  0  0  0  0
  144.0626  132.7495  149.1626 C   0  0  0  0  0  0  0  0  0  0  0  0
  143.5634  133.5182  150.1532 N   0  3  0  0  0  0  0  0  0  0  0  0
  144.2045  133.7343  151.3282 C   0  0  0  0  0  0  0  0  0  0  0  0
  143.5928  134.5483  152.2974 N   0  0  0  0  0  0  0  0  0  0  0  0
  143.5762  135.9741  152.0123 C   0  0  0  0  0  0  0  0  0  0  0  0
  142.5478  136.5697  152.9769 C   0  0  0  0  0  0  0  0  0  0  0  0
  141.6438  135.3928  153.3640 C   0  0  0  0  0  0  0  0  0  0  0  0
  142.2223  134.1872  152.6179 C   0  0  0  0  0  0  0  0  0  0  0  0
  151.0482  132.0553  155.3453 N   0  3  0  0  0  0  0  0  0  0  0  0
  151.2840  132.1292  156.8151 C   0  0  0  0  0  0  0  0  0  0  0  0
  152.3811  131.1487  157.2609 C   0  0  0  0  0  0  0  0  0  0  0  0
  152.0200  129.8290  156.8874 O   0  0  0  0  0  0  0  0  0  0  0  0
  151.9154  129.7065  155.4781 C   0  0  0  0  0  0  0  0  0  0  0  0
  150.8090  130.6372  154.9519 C   0  0  0  0  0  0  0  0  0  0  0  0
  149.5394  135.1719  154.9369 H   0  0  0  0  0  0  0  0  0  0  0  0
  151.2297  134.8519  154.8008 H   0  0  0  0  0  0  0  0  0  0  0  0
  150.4121  134.5837  156.3448 H   0  0  0  0  0  0  0  0  0  0  0  0
  150.0042  132.9808  153.7702 H   0  0  0  0  0  0  0  0  0  0  0  0
  148.4557  131.5275  155.3154 H   0  0  0  0  0  0  0  0  0  0  0  0
  148.4529  132.8939  156.3962 H   0  0  0  0  0  0  0  0  0  0  0  0
  147.0451  133.9693  154.8491 H   0  0  0  0  0  0  0  0  0  0  0  0
  145.8933  134.2118  153.2664 H   0  0  0  0  0  0  0  0  0  0  0  0
  146.9613  131.8018  150.6636 H   0  0  0  0  0  0  0  0  0  0  0  0
  145.7142  131.4918  148.5492 H   0  0  0  0  0  0  0  0  0  0  0  0
  143.4518  132.6590  148.2761 H   0  0  0  0  0  0  0  0  0  0  0  0
  144.5631  136.4149  152.1560 H   0  0  0  0  0  0  0  0  0  0  0  0
  143.2709  136.1603  150.9817 H   0  0  0  0  0  0  0  0  0  0  0  0
  143.0445  136.9632  153.8647 H   0  0  0  0  0  0  0  0  0  0  0  0
  141.9919  137.3876  152.5176 H   0  0  0  0  0  0  0  0  0  0  0  0
  141.6866  135.2304  154.4417 H   0  0  0  0  0  0  0  0  0  0  0  0
  140.6012  135.5661  153.0960 H   0  0  0  0  0  0  0  0  0  0  0  0
  141.6544  134.0022  151.7049 H   0  0  0  0  0  0  0  0  0  0  0  0
  142.1860  133.2832  153.2265 H   0  0  0  0  0  0  0  0  0  0  0  0
  151.6018  133.1245  157.1177 H   0  0  0  0  0  0  0  0  0  0  0  0
  150.3552  131.9122  157.3449 H   0  0  0  0  0  0  0  0  0  0  0  0
  153.3458  131.4166  156.8261 H   0  0  0  0  0  0  0  0  0  0  0  0
  152.5003  131.1873  158.3437 H   0  0  0  0  0  0  0  0  0  0  0  0
  152.8734  129.9333  155.0072 H   0  0  0  0  0  0  0  0  0  0  0  0
  151.6802  128.6706  155.2332 H   0  0  0  0  0  0  0  0  0  0  0  0
  149.8375  130.3126  155.3278 H   0  0  0  0  0  0  0  0  0  0  0  0
  150.7943  130.5290  153.8685 H   0  0  0  0  0  0  0  0  0  0  0  0
  151.9138  132.3261  154.9002 H   0  0  0  0  0  0  0  0  0  0  0  0
  142.6551  133.9598  150.0090 H   0  0  0  0  0  0  0  0  0  0  0  0
  1  2  1  0  0  0  0
  1 25  1  0  0  0  0
  1 26  1  0  0  0  0
  1 27  1  0  0  0  0
  2  3  1  0  0  0  0
  2 19  1  0  0  0  0
  2 28  1  0  0  0  0
  3  4  1  0  0  0  0
  3 29  1  0  0  0  0
  3 30  1  0  0  0  0
  4  5  1  0  0  0  0
  4 31  1  0  0  0  0
  5  6  2  0  0  0  0
  5  7  1  0  0  0  0
  7  8  1  0  0  0  0
  7 32  1  0  0  0  0
  8 13  1  0  0  0  0
  8  9  2  0  0  0  0
  9 10  1  0  0  0  0
  9 33  1  0  0  0  0
 10 11  2  0  0  0  0
 10 34  1  0  0  0  0
 11 12  1  0  0  0  0
 11 35  1  0  0  0  0
 12 13  2  0  0  0  0
 12 53  1  0  0  0  0
 13 14  1  0  0  0  0
 14 18  1  0  0  0  0
 14 15  1  0  0  0  0
 15 16  1  0  0  0  0
 15 36  1  0  0  0  0
 15 37  1  0  0  0  0
 16 17  1  0  0  0  0
 16 38  1  0  0  0  0
 16 39  1  0  0  0  0
 17 18  1  0  0  0  0
 17 40  1  0  0  0  0
 17 41  1  0  0  0  0
 18 42  1  0  0  0  0
 18 43  1  0  0  0  0
 19 24  1  0  0  0  0
 19 20  1  0  0  0  0
 19 52  1  0  0  0  0
 20 21  1  0  0  0  0
 20 44  1  0  0  0  0
 20 45  1  0  0  0  0
 21 22  1  0  0  0  0
 21 46  1  0  0  0  0
 21 47  1  0  0  0  0
 22 23  1  0  0  0  0
 23 24  1  0  0  0  0
 23 48  1  0  0  0  0
 23 49  1  0  0  0  0
 24 50  1  0  0  0  0
 24 51  1  0  0  0  0
M  CHG  1  12   1
M  CHG  1  19   1
M  END
> <s_m_source_file>
AV-unprocessed.smi

> <i_m_source_file_index>
1389

> <i_lp_mmshare_version>
43012

> <i_f3d_flags>
0

> <s_epik_input>
W0NIMl0xW0NIMl1PW0NIMl1bQ0gyXU4xW0NASF0oW0NIM10pW0NIMl1bTkhdQyg9TylbTkhdYzJbY0hdW2NIXVtjSF1uYzJOM1tDSDJdW0NIMl1bQ0gyXVtDSDJdMw==

> <s_epik_cmdline>
J2VwaWtfcHl0aG9uJywgJy1waCcsICc3LjAnLCAnLXRuJywgJzgnLCAnLW1hJywgJzIwMCcsICctbWV0YWxfYmluZGluZycsICctaW1hZScsICc8aW5maWxlLm1hZT4nLCAnLW9tYWUnLCAnPG91dGZpbGUubWFlPic=

> <r_lp_tautomer_probability>
0.999994

> <r_epik_Ionization_Penalty>
1.80872

> <r_epik_Ionization_Penalty_Charging>
1.8087

> <r_epik_Ionization_Penalty_Neutral>
2.02981e-05

> <r_epik_State_Penalty>
1.84892

> <r_epik_Charging_Adjusted_Penalty>
3.65762

> <i_epik_Tot_Q>
2

> <i_epik_Tot_abs_Q>
2

> <r_epik_Metal_State_Penalty>
1.9311

> <b_epik_Metal_Only>
0

> <s_lp_Force_Field>
OPLS_2005

> <r_lp_Energy>
59.2072

> <b_lp_Chiralities_Consistent>
1

> <s_lp_Variant>
AV-unprocessed.smi:1389-7

> <Gold.Version>
5.8.1

> <Gold.Id.Protein>
6NUR|6NUR_protein|mol2

> <Gold.PLP.Fitness>
43.1209

> <Gold.PLP.PLP>
-38.3982

> <Gold.PLP.part.hbond>
-1.0000

> <Gold.PLP.part.metal>
0.0000

> <Gold.PLP.part.buried>
-6.3243

> <Gold.PLP.part.nonpolar>
-31.6351

> <Gold.PLP.part.repulsive>
0.9290

> <Gold.PLP.ligand.clash>
0.0000

> <Gold.PLP.ligand.torsion>
0.6777

> <Gold.PLP.Chemscore.Hbond>
2.0000

> <Gold.PLP.Chemscore.CHOScore>
0.0000

> <Gold.PLP.Chemscore.Metal>
0.0000

> <Gold.Chemscore.Hbonds>
donor molecule, donor type, donor heavy atom, donor atom, acceptor molecule, acceptor atom, score
      L1  H    12    53       P1 10186  2.00

> <Gold.PLP.Chemscore.Internal.Correction>
0.0780

> <Gold.Rescore>
     Score         DG    S(hbond)    S(metal)    S(lipo)     H(rot)  DE(clash)    DE(int)     intcor
     13.38     -15.84       0.98        0.00      96.86       1.66       0.59       1.87       ----

> <Gold.Chemscore.Fitness>
13.3801

> <Gold.Chemscore.DG>
-15.8396

> <Gold.Chemscore.ZeroCoef>
-5.4800

> <Gold.Chemscore.Hbond>
0.9826

> <Gold.Chemscore.Metal>
0.0000

> <Gold.Chemscore.Lipo>
96.8564

> <Gold.Chemscore.Internal_Hbond>
0.0000

> <Gold.Chemscore.DEClash>
0.5884

> <Gold.Chemscore.DEInternal>
1.8711

> <Gold.Chemscore.Rot>
1.6620

> <Gold.Chemscore.Internal.Correction>
   9.000000E+99

> <Gold.Chemscore.Hbonds>
donor molecule, donor type, donor heavy atom, donor atom, acceptor molecule, acceptor atom, score
      L1  H    12    53       P1 10186  1.00

> <Gold.Chemscore.Hbond.Weighted>
-3.2820

> <Gold.Chemscore.Metal.Weighted>
-0.0000

> <Gold.Chemscore.Lipo.Weighted>
-11.3322

> <Gold.Chemscore.Internal_Hbond.Weighted>
0.0000

> <Gold.Chemscore.DEClash.Weighted>
0.5884

> <Gold.Chemscore.DEInternal.Weighted>
1.8711

> <Gold.Chemscore.Rot.Weighted>
4.2547

> <Gold.Chemscore.Internal.Correction.Weighted>
   9.000000E+99

> <Gold.Protein.RotatedTorsions>
[ 6907 6896 6895 6894 ] final  139.18 input  -60.11 | X-H torsion
[ 7974 7965 7964 7962 ] final  144.31 input  175.53 | X-H torsion
[ 8008 7997 7996 7995 ] final    7.15 input   59.86 | X-H torsion
[ 10167 10162 10161 10158 ] final -112.33 input  -65.29 | X-H torsion
[ 10718 10713 10712 10709 ] final   80.87 input   66.30 | X-H torsion
[ 10763 10752 10751 10750 ] final    7.29 input  -60.55 | X-H torsion
[ 11005 11000 10999 10996 ] final    0.55 input  -57.11 | X-H torsion

> <Gold.Protein.ActiveResidues>
 VAL166  LYS551  ARG553  GLY616  TRP617  ASP618  TYR619  PRO620  LYS621  CYS622 
 ASP623  PHE694  ASN695  SER759  ASP760  ASP761  ALA762  ILE779  LEU786  VAL792 
 PHE793  MET794  SER795  GLU796  ALA797  LYS798  CYS799  TRP800  GLU811  SER814 

> <Gold.Protein.RotatedAtoms>
  152.2579  133.5272  159.5364 H   0  0  0  0  0  0  0  0  0  0  0  0  # atno 6907 bound_to 6896
  150.7115  134.0870  159.3927 H   0  0  0  0  0  0  0  0  0  0  0  0  # atno 6908 bound_to 6896
  151.8788  135.0461  160.0537 H   0  0  0  0  0  0  0  0  0  0  0  0  # atno 6909 bound_to 6896
  144.8847  139.5647  143.5826 H   0  0  0  0  0  0  0  0  0  0  0  0  # atno 7974 bound_to 7965
  154.7501  140.2765  155.6300 H   0  0  0  0  0  0  0  0  0  0  0  0  # atno 8008 bound_to 7997
  156.2893  140.2680  156.2178 H   0  0  0  0  0  0  0  0  0  0  0  0  # atno 8009 bound_to 7997
  155.0148  140.0372  157.2403 H   0  0  0  0  0  0  0  0  0  0  0  0  # atno 8010 bound_to 7997
  140.1239  143.4419  152.1672 H   0  0  0  0  0  0  0  0  0  0  0  0  # atno 10167 bound_to 10162
  157.6818  130.9978  150.2142 H   0  0  0  0  0  0  0  0  0  0  0  0  # atno 10718 bound_to 10713
  153.2380  135.6900  153.7815 H   0  0  0  0  0  0  0  0  0  0  0  0  # atno 10763 bound_to 10752
  153.6955  135.3306  155.3213 H   0  0  0  0  0  0  0  0  0  0  0  0  # atno 10764 bound_to 10752
  154.8343  135.4555  154.1291 H   0  0  0  0  0  0  0  0  0  0  0  0  # atno 10765 bound_to 10752
  140.6253  133.9624  155.8246 H   0  0  0  0  0  0  0  0  0  0  0  0  # atno 11005 bound_to 11000
  146.3016  139.7446  142.9087 LP  0  0  0  0  0  0  0  0  0  0  0  0  # atno 17320 bound_to 7965
  145.3891  141.0370  143.3134 LP  0  0  0  0  0  0  0  0  0  0  0  0  # atno 17321 bound_to 7965
  139.5554  144.7369  151.4309 LP  0  0  0  0  0  0  0  0  0  0  0  0  # atno 17342 bound_to 10162
  140.6856  143.7982  150.7181 LP  0  0  0  0  0  0  0  0  0  0  0  0  # atno 17343 bound_to 10162
  156.2807  130.3733  149.7938 LP  0  0  0  0  0  0  0  0  0  0  0  0  # atno 17370 bound_to 10713
  156.5628  130.8390  151.3333 LP  0  0  0  0  0  0  0  0  0  0  0  0  # atno 17371 bound_to 10713
  141.0714  134.0200  157.3521 LP  0  0  0  0  0  0  0  0  0  0  0  0  # atno 17394 bound_to 11000
  139.9137  135.0194  156.7796 LP  0  0  0  0  0  0  0  0  0  0  0  0  # atno 17395 bound_to 11000

$$$$
