AV-unprocessed.smi:47|AV-procd|sdf|433|dock4
  -GOLD-   2262016303D 1   1.00000     0.00000
 Structure written by MMmdl.
 32 34  0  0  0  0  0  0  0  0  2 V2000
  146.1552  139.6672  153.9612 O   0  0  0  0  0  0  0  0  0  0  0  0
  147.2788  140.4805  153.6990 C   0  0  1  0  0  0  0  0  0  0  0  0
  147.0943  141.9096  154.2218 C   0  0  0  0  0  0  0  0  0  0  0  0
  148.4447  142.3985  154.5667 N   0  3  0  0  0  0  0  0  0  0  0  0
  149.3853  141.2613  154.4795 C   0  0  1  0  0  0  0  0  0  0  0  0
  150.2710  141.3827  155.6839 C   0  0  0  0  0  0  0  0  0  0  0  0
  151.2194  140.4792  155.9527 N   0  0  0  0  0  0  0  0  0  0  0  0
  151.8566  140.8188  157.0937 N   0  0  0  0  0  0  0  0  0  0  0  0
  151.2164  141.9352  157.4366 C   0  0  0  0  0  0  0  0  0  0  0  0
  151.5712  142.6947  158.6584 C   0  0  0  0  0  0  0  0  0  0  0  0
  152.4348  142.1429  159.6362 C   0  0  0  0  0  0  0  0  0  0  0  0
  152.7741  142.8613  160.7991 C   0  0  0  0  0  0  0  0  0  0  0  0
  152.2538  144.1508  161.0074 C   0  0  0  0  0  0  0  0  0  0  0  0
  151.3951  144.7175  160.0491 C   0  0  0  0  0  0  0  0  0  0  0  0
  151.0587  143.9952  158.8877 C   0  0  0  0  0  0  0  0  0  0  0  0
  150.2137  142.3462  156.6023 N   0  0  0  0  0  0  0  0  0  0  0  0
  148.5241  139.9970  154.4357 C   0  0  0  0  0  0  0  0  0  0  0  0
  147.4711  140.5013  152.6252 H   0  0  0  0  0  0  0  0  0  0  0  0
  149.9688  141.3602  153.5628 H   0  0  0  0  0  0  0  0  0  0  0  0
  145.4485  139.9316  153.3916 H   0  0  0  0  0  0  0  0  0  0  0  0
  146.6036  142.5591  153.4966 H   0  0  0  0  0  0  0  0  0  0  0  0
  146.4971  141.9132  155.1350 H   0  0  0  0  0  0  0  0  0  0  0  0
  148.7324  143.1323  153.9355 H   0  0  0  0  0  0  0  0  0  0  0  0
  152.8512  141.1552  159.5041 H   0  0  0  0  0  0  0  0  0  0  0  0
  153.4348  142.4216  161.5317 H   0  0  0  0  0  0  0  0  0  0  0  0
  152.5129  144.7035  161.8986 H   0  0  0  0  0  0  0  0  0  0  0  0
  150.9931  145.7078  160.2036 H   0  0  0  0  0  0  0  0  0  0  0  0
  150.3964  144.4569  158.1702 H   0  0  0  0  0  0  0  0  0  0  0  0
  148.2524  139.6933  155.4487 H   0  0  0  0  0  0  0  0  0  0  0  0
  149.0212  139.1545  153.9540 H   0  0  0  0  0  0  0  0  0  0  0  0
  148.4340  142.7481  155.5146 H   0  0  0  0  0  0  0  0  0  0  0  0
  151.4554  139.6560  155.4164 H   0  0  0  0  0  0  0  0  0  0  0  0
  1  2  1  0  0  0  0
  1 20  1  0  0  0  0
  2 18  1  0  0  0  0
  2 17  1  0  0  0  0
  2  3  1  0  0  0  0
  3  4  1  0  0  0  0
  3 21  1  0  0  0  0
  3 22  1  0  0  0  0
  4  5  1  0  0  0  0
  4 23  1  0  0  0  0
  4 31  1  0  0  0  0
  5 19  1  0  0  0  0
  5  6  1  0  0  0  0
  5 17  1  0  0  0  0
  6 16  2  0  0  0  0
  6  7  1  0  0  0  0
  7  8  1  0  0  0  0
  7 32  1  0  0  0  0
  8  9  2  0  0  0  0
  9 10  1  0  0  0  0
  9 16  1  0  0  0  0
 10 15  1  0  0  0  0
 10 11  2  0  0  0  0
 11 12  1  0  0  0  0
 11 24  1  0  0  0  0
 12 13  2  0  0  0  0
 12 25  1  0  0  0  0
 13 14  1  0  0  0  0
 13 26  1  0  0  0  0
 14 15  2  0  0  0  0
 14 27  1  0  0  0  0
 15 28  1  0  0  0  0
 17 29  1  0  0  0  0
 17 30  1  0  0  0  0
M  CHG  1   4   1
M  END
> <s_m_source_file>
AV-unprocessed.smi

> <i_m_source_file_index>
47

> <i_lp_mmshare_version>
43012

> <i_f3d_flags>
0

> <s_epik_input>
W09IXVtDQEhdMVtDSDJdW05IXVtDQEBIXShbQ0gyXTEpYzJuW25IXWMobjIpLWMzW2NIXVtjSF1bY0hdW2NIXVtjSF0z

> <s_epik_cmdline>
J2VwaWtfcHl0aG9uJywgJy1waCcsICc3LjAnLCAnLXRuJywgJzgnLCAnLW1hJywgJzIwMCcsICctbWV0YWxfYmluZGluZycsICctaW1hZScsICc8aW5maWxlLm1hZT4nLCAnLW9tYWUnLCAnPG91dGZpbGUubWFlPic=

> <r_epik_Ionization_Penalty>
1.14296

> <r_epik_Ionization_Penalty_Charging>
0.0688988

> <r_epik_Ionization_Penalty_Neutral>
1.07406

> <r_epik_State_Penalty>
1.72347

> <r_epik_Charging_Adjusted_Penalty>
1.79237

> <i_epik_Tot_Q>
1

> <i_epik_Tot_abs_Q>
1

> <r_epik_Metal_State_Penalty>
2.22085

> <b_epik_Metal_Only>
0

> <s_lp_Force_Field>
OPLS_2005

> <r_lp_Energy>
30.8137

> <b_lp_Chiralities_Consistent>
1

> <s_lp_Variant>
AV-unprocessed.smi:47-11

> <Gold.Version>
5.8.1

> <Gold.Id.Protein>
6NUR|6NUR_protein|mol2

> <Gold.PLP.Fitness>
42.7313

> <Gold.PLP.PLP>
-36.6851

> <Gold.PLP.part.hbond>
-2.0000

> <Gold.PLP.part.metal>
0.0000

> <Gold.PLP.part.buried>
-6.5133

> <Gold.PLP.part.nonpolar>
-31.0605

> <Gold.PLP.part.repulsive>
3.1624

> <Gold.PLP.ligand.clash>
0.0000

> <Gold.PLP.ligand.torsion>
0.0675

> <Gold.PLP.Chemscore.Hbond>
2.0560

> <Gold.PLP.Chemscore.CHOScore>
0.0000

> <Gold.PLP.Chemscore.Metal>
0.0000

> <Gold.Chemscore.Hbonds>
donor molecule, donor type, donor heavy atom, donor atom, acceptor molecule, acceptor atom, score
      L1  H     1    20       P1 10175  0.91
      L1  H     4    31       P1  8028  0.51

> <Gold.PLP.Chemscore.Internal.Correction>
0.0133

> <Gold.Rescore>
     Score         DG    S(hbond)    S(metal)    S(lipo)     H(rot)  DE(clash)    DE(int)     intcor
     16.89     -17.49       1.55        0.00      91.08       1.50       0.57       0.04       ----

> <Gold.Chemscore.Fitness>
16.8876

> <Gold.Chemscore.DG>
-17.4928

> <Gold.Chemscore.ZeroCoef>
-5.4800

> <Gold.Chemscore.Hbond>
1.5532

> <Gold.Chemscore.Metal>
0.0000

> <Gold.Chemscore.Lipo>
91.0791

> <Gold.Chemscore.Internal_Hbond>
0.0000

> <Gold.Chemscore.DEClash>
0.5696

> <Gold.Chemscore.DEInternal>
0.0355

> <Gold.Chemscore.Rot>
1.4966

> <Gold.Chemscore.Internal.Correction>
   9.000000E+99

> <Gold.Chemscore.Hbonds>
donor molecule, donor type, donor heavy atom, donor atom, acceptor molecule, acceptor atom, score
      L1  H     1    20       P1 10175  0.89
      L1  H     4    31       P1  8028  0.25

> <Gold.Chemscore.Hbond.Weighted>
-5.1878

> <Gold.Chemscore.Metal.Weighted>
-0.0000

> <Gold.Chemscore.Lipo.Weighted>
-10.6563

> <Gold.Chemscore.Internal_Hbond.Weighted>
0.0000

> <Gold.Chemscore.DEClash.Weighted>
0.5696

> <Gold.Chemscore.DEInternal.Weighted>
0.0355

> <Gold.Chemscore.Rot.Weighted>
3.8312

> <Gold.Chemscore.Internal.Correction.Weighted>
   9.000000E+99

> <Gold.Protein.RotatedTorsions>
[ 6907 6896 6895 6894 ] final  -56.15 input  -60.11 | X-H torsion
[ 7974 7965 7964 7962 ] final   58.37 input  175.53 | X-H torsion
[ 8008 7997 7996 7995 ] final  146.30 input   59.86 | X-H torsion
[ 10167 10162 10161 10158 ] final   37.00 input  -65.29 | X-H torsion
[ 10718 10713 10712 10709 ] final  167.15 input   66.30 | X-H torsion
[ 10763 10752 10751 10750 ] final   64.95 input  -60.55 | X-H torsion
[ 11005 11000 10999 10996 ] final  120.58 input  -57.11 | X-H torsion

> <Gold.Protein.ActiveResidues>
 VAL166  LYS551  ARG553  GLY616  TRP617  ASP618  TYR619  PRO620  LYS621  CYS622 
 ASP623  PHE694  ASN695  SER759  ASP760  ASP761  ALA762  ILE779  LEU786  VAL792 
 PHE793  MET794  SER795  GLU796  ALA797  LYS798  CYS799  TRP800  GLU811  SER814 

> <Gold.Protein.RotatedAtoms>
  150.8191  134.7389  159.6756 H   0  0  0  0  0  0  0  0  0  0  0  0  # atno 6907 bound_to 6896
  152.4308  134.5778  159.9949 H   0  0  0  0  0  0  0  0  0  0  0  0  # atno 6908 bound_to 6896
  151.5967  133.3323  159.3075 H   0  0  0  0  0  0  0  0  0  0  0  0  # atno 6909 bound_to 6896
  145.9189  139.3713  143.0490 H   0  0  0  0  0  0  0  0  0  0  0  0  # atno 7974 bound_to 7965
  156.2859  140.2186  156.5354 H   0  0  0  0  0  0  0  0  0  0  0  0  # atno 8008 bound_to 7997
  154.7414  140.0487  157.0836 H   0  0  0  0  0  0  0  0  0  0  0  0  # atno 8009 bound_to 7997
  155.0226  140.3126  155.4791 H   0  0  0  0  0  0  0  0  0  0  0  0  # atno 8010 bound_to 7997
  140.4074  144.1639  150.6137 H   0  0  0  0  0  0  0  0  0  0  0  0  # atno 10167 bound_to 10162
  157.0556  131.0326  151.2665 H   0  0  0  0  0  0  0  0  0  0  0  0  # atno 10718 bound_to 10713
  153.0076  135.5374  154.6590 H   0  0  0  0  0  0  0  0  0  0  0  0  # atno 10763 bound_to 10752
  154.5803  135.2849  155.0741 H   0  0  0  0  0  0  0  0  0  0  0  0  # atno 10764 bound_to 10752
  154.1873  135.6506  153.5103 H   0  0  0  0  0  0  0  0  0  0  0  0  # atno 10765 bound_to 10752
  139.9191  134.9635  156.7828 H   0  0  0  0  0  0  0  0  0  0  0  0  # atno 11005 bound_to 11000
  145.8575  140.9494  143.0717 LP  0  0  0  0  0  0  0  0  0  0  0  0  # atno 17320 bound_to 7965
  144.6751  140.0487  143.7479 LP  0  0  0  0  0  0  0  0  0  0  0  0  # atno 17321 bound_to 7965
  140.4674  143.2425  151.9136 LP  0  0  0  0  0  0  0  0  0  0  0  0  # atno 17342 bound_to 10162
  139.4783  144.5405  151.8535 LP  0  0  0  0  0  0  0  0  0  0  0  0  # atno 17343 bound_to 10162
  157.4995  130.7871  149.7590 LP  0  0  0  0  0  0  0  0  0  0  0  0  # atno 17370 bound_to 10713
  155.9994  130.3889  150.2666 LP  0  0  0  0  0  0  0  0  0  0  0  0  # atno 17371 bound_to 10713
  140.6530  133.9714  155.7765 LP  0  0  0  0  0  0  0  0  0  0  0  0  # atno 17394 bound_to 11000
  141.0695  134.0227  157.3546 LP  0  0  0  0  0  0  0  0  0  0  0  0  # atno 17395 bound_to 11000

$$$$
