AV-unprocessed.smi:1912|AV-procd|sdf|7751|dock8
  -GOLD-   22720 9493D 1   1.00000     0.00000
 Structure written by MMmdl.
 44 46  0  0  0  0  0  0  0  0  2 V2000
  156.1558  141.9594  164.3650 C   0  0  0  0  0  0  0  0  0  0  0  0
  155.5842  142.0830  163.0707 O   0  0  0  0  0  0  0  0  0  0  0  0
  155.2114  140.9301  162.4141 C   0  0  0  0  0  0  0  0  0  0  0  0
  155.4105  139.6250  162.9214 C   0  0  0  0  0  0  0  0  0  0  0  0
  155.0106  138.5014  162.1753 C   0  0  0  0  0  0  0  0  0  0  0  0
  154.4046  138.6516  160.9032 C   0  0  0  0  0  0  0  0  0  0  0  0
  154.0175  137.5854  160.1170 O   0  0  0  0  0  0  0  0  0  0  0  0
  154.2936  136.2702  160.5758 C   0  0  0  0  0  0  0  0  0  0  0  0
  154.1960  139.9570  160.3956 C   0  0  0  0  0  0  0  0  0  0  0  0
  153.5721  140.1517  159.0141 C   0  0  1  0  0  0  0  0  0  0  0  0
  153.8505  139.0881  158.1237 O   0  0  0  0  0  0  0  0  0  0  0  0
  152.0467  140.3978  159.0810 C   0  0  0  0  0  0  0  0  0  0  0  0
  151.6178  141.6656  158.4596 N   0  0  0  0  0  0  0  0  0  0  0  0
  150.9556  141.8956  157.2877 C   0  0  0  0  0  0  0  0  0  0  0  0
  150.4915  140.8808  156.2962 C   0  0  0  0  0  0  0  0  0  0  0  0
  150.7785  143.2422  157.1808 N   0  3  0  0  0  0  0  0  0  0  0  0
  151.3365  143.8827  158.2866 C   0  0  0  0  0  0  0  0  0  0  0  0
  151.3958  145.2320  158.6210 C   0  0  0  0  0  0  0  0  0  0  0  0
  152.0412  145.5561  159.8322 C   0  0  0  0  0  0  0  0  0  0  0  0
  152.6012  144.5575  160.6547 C   0  0  0  0  0  0  0  0  0  0  0  0
  152.5386  143.1936  160.3020 C   0  0  0  0  0  0  0  0  0  0  0  0
  151.8896  142.8786  159.1075 C   0  0  0  0  0  0  0  0  0  0  0  0
  154.5996  141.0787  161.1555 C   0  0  0  0  0  0  0  0  0  0  0  0
  156.3955  142.9511  164.7484 H   0  0  0  0  0  0  0  0  0  0  0  0
  157.0820  141.3836  164.3387 H   0  0  0  0  0  0  0  0  0  0  0  0
  155.4609  141.4945  165.0656 H   0  0  0  0  0  0  0  0  0  0  0  0
  155.8738  139.4567  163.8817 H   0  0  0  0  0  0  0  0  0  0  0  0
  155.1892  137.5273  162.6040 H   0  0  0  0  0  0  0  0  0  0  0  0
  153.9205  135.5507  159.8473 H   0  0  0  0  0  0  0  0  0  0  0  0
  153.7951  136.0666  161.5246 H   0  0  0  0  0  0  0  0  0  0  0  0
  155.3657  136.1015  160.6855 H   0  0  0  0  0  0  0  0  0  0  0  0
  154.0333  141.0280  158.5579 H   0  0  0  0  0  0  0  0  0  0  0  0
  154.3748  138.4471  158.5795 H   0  0  0  0  0  0  0  0  0  0  0  0
  151.4973  139.5715  158.6298 H   0  0  0  0  0  0  0  0  0  0  0  0
  151.7265  140.4253  160.1227 H   0  0  0  0  0  0  0  0  0  0  0  0
  150.4116  141.3276  155.3050 H   0  0  0  0  0  0  0  0  0  0  0  0
  149.5118  140.4981  156.5820 H   0  0  0  0  0  0  0  0  0  0  0  0
  151.1903  140.0467  156.2394 H   0  0  0  0  0  0  0  0  0  0  0  0
  150.9686  145.9983  157.9912 H   0  0  0  0  0  0  0  0  0  0  0  0
  152.1085  146.5907  160.1354 H   0  0  0  0  0  0  0  0  0  0  0  0
  153.0881  144.8427  161.5761 H   0  0  0  0  0  0  0  0  0  0  0  0
  152.9676  142.4395  160.9442 H   0  0  0  0  0  0  0  0  0  0  0  0
  154.4590  142.0755  160.7637 H   0  0  0  0  0  0  0  0  0  0  0  0
  150.3068  143.6884  156.4049 H   0  0  0  0  0  0  0  0  0  0  0  0
  1  2  1  0  0  0  0
  1 24  1  0  0  0  0
  1 25  1  0  0  0  0
  1 26  1  0  0  0  0
  2  3  1  0  0  0  0
  3 23  1  0  0  0  0
  3  4  2  0  0  0  0
  4  5  1  0  0  0  0
  4 27  1  0  0  0  0
  5  6  2  0  0  0  0
  5 28  1  0  0  0  0
  6  7  1  0  0  0  0
  6  9  1  0  0  0  0
  7  8  1  0  0  0  0
  8 29  1  0  0  0  0
  8 30  1  0  0  0  0
  8 31  1  0  0  0  0
  9 10  1  0  0  0  0
  9 23  2  0  0  0  0
 10 11  1  0  0  0  0
 10 12  1  0  0  0  0
 10 32  1  0  0  0  0
 11 33  1  0  0  0  0
 12 13  1  0  0  0  0
 12 34  1  0  0  0  0
 12 35  1  0  0  0  0
 13 22  1  0  0  0  0
 13 14  1  0  0  0  0
 14 15  1  0  0  0  0
 14 16  2  0  0  0  0
 15 36  1  0  0  0  0
 15 37  1  0  0  0  0
 15 38  1  0  0  0  0
 16 17  1  0  0  0  0
 16 44  1  0  0  0  0
 17 22  2  0  0  0  0
 17 18  1  0  0  0  0
 18 19  2  0  0  0  0
 18 39  1  0  0  0  0
 19 20  1  0  0  0  0
 19 40  1  0  0  0  0
 20 21  2  0  0  0  0
 20 41  1  0  0  0  0
 21 22  1  0  0  0  0
 21 42  1  0  0  0  0
 23 43  1  0  0  0  0
M  CHG  1  16   1
M  END
> <s_m_source_file>
AV-unprocessed.smi

> <i_m_source_file_index>
1912

> <i_lp_mmshare_version>
43012

> <i_f3d_flags>
0

> <s_epik_input>
W0NIM11PYzFbY0hdW2NIXWMoT1tDSDNdKWMoW2NIXTEpW0NASF0oW09IXSlbQ0gyXW4oYyhuMilbQ0gzXSljKGMyMylbY0hdW2NIXVtjSF1bY0hdMw==

> <s_epik_cmdline>
J2VwaWtfcHl0aG9uJywgJy1waCcsICc3LjAnLCAnLXRuJywgJzgnLCAnLW1hJywgJzIwMCcsICctbWV0YWxfYmluZGluZycsICctaW1hZScsICc8aW5maWxlLm1hZT4nLCAnLW9tYWUnLCAnPG91dGZpbGUubWFlPic=

> <r_lp_tautomer_probability>
1

> <r_epik_Ionization_Penalty>
0.963869

> <r_epik_Ionization_Penalty_Charging>
0.963868

> <r_epik_Ionization_Penalty_Neutral>
1.34362e-06

> <r_epik_State_Penalty>
1.00924

> <r_epik_Charging_Adjusted_Penalty>
1.9731

> <i_epik_Tot_Q>
1

> <i_epik_Tot_abs_Q>
1

> <r_epik_Metal_State_Penalty>
4.98304

> <b_epik_Metal_Only>
0

> <s_lp_Force_Field>
OPLS_2005

> <r_lp_Energy>
21.1539

> <b_lp_Chiralities_Consistent>
1

> <s_lp_Variant>
AV-unprocessed.smi:1912-4

> <Gold.Version>
5.8.1

> <Gold.Id.Protein>
6NUR|6NUR_protein|mol2

> <Gold.PLP.Fitness>
54.3711

> <Gold.PLP.PLP>
-48.5765

> <Gold.PLP.part.hbond>
-2.9878

> <Gold.PLP.part.metal>
0.0000

> <Gold.PLP.part.buried>
-4.3433

> <Gold.PLP.part.nonpolar>
-41.4622

> <Gold.PLP.part.repulsive>
0.0042

> <Gold.PLP.ligand.clash>
0.0000

> <Gold.PLP.ligand.torsion>
1.6129

> <Gold.PLP.Chemscore.Hbond>
2.9840

> <Gold.PLP.Chemscore.CHOScore>
0.0000

> <Gold.PLP.Chemscore.Metal>
0.0000

> <Gold.Chemscore.Hbonds>
donor molecule, donor type, donor heavy atom, donor atom, acceptor molecule, acceptor atom, score
      L1  H    16    44       P1  8028  2.00
      P1  H  7997  8008       L1    11  0.75

> <Gold.PLP.Chemscore.Internal.Correction>
0.0685

> <Gold.Rescore>
     Score         DG    S(hbond)    S(metal)    S(lipo)     H(rot)  DE(clash)    DE(int)     intcor
     19.99     -22.10       1.80        0.00     139.89       2.24       0.65       1.46       ----

> <Gold.Chemscore.Fitness>
19.9930

> <Gold.Chemscore.DG>
-22.1009

> <Gold.Chemscore.ZeroCoef>
-5.4800

> <Gold.Chemscore.Hbond>
1.7965

> <Gold.Chemscore.Metal>
0.0000

> <Gold.Chemscore.Lipo>
139.8912

> <Gold.Chemscore.Internal_Hbond>
0.0000

> <Gold.Chemscore.DEClash>
0.6465

> <Gold.Chemscore.DEInternal>
1.4614

> <Gold.Chemscore.Rot>
2.2448

> <Gold.Chemscore.Internal.Correction>
   9.000000E+99

> <Gold.Chemscore.Hbonds>
donor molecule, donor type, donor heavy atom, donor atom, acceptor molecule, acceptor atom, score
      L1  H    16    44       P1  8028  0.96
      P1  H  7997  8008       L1    11  0.09

> <Gold.Chemscore.Hbond.Weighted>
-6.0004

> <Gold.Chemscore.Metal.Weighted>
-0.0000

> <Gold.Chemscore.Lipo.Weighted>
-16.3673

> <Gold.Chemscore.Internal_Hbond.Weighted>
0.0000

> <Gold.Chemscore.DEClash.Weighted>
0.6465

> <Gold.Chemscore.DEInternal.Weighted>
1.4614

> <Gold.Chemscore.Rot.Weighted>
5.7467

> <Gold.Chemscore.Internal.Correction.Weighted>
   9.000000E+99

> <Gold.Protein.RotatedTorsions>
[ 6907 6896 6895 6894 ] final    4.83 input  -60.11 | X-H torsion
[ 7974 7965 7964 7962 ] final  -87.88 input  175.53 | X-H torsion
[ 8008 7997 7996 7995 ] final  -86.28 input   59.86 | X-H torsion
[ 10167 10162 10161 10158 ] final -137.96 input  -65.29 | X-H torsion
[ 10718 10713 10712 10709 ] final  171.73 input   66.30 | X-H torsion
[ 10763 10752 10751 10750 ] final   42.23 input  -60.55 | X-H torsion
[ 11005 11000 10999 10996 ] final   12.83 input  -57.11 | X-H torsion

> <Gold.Protein.ActiveResidues>
 VAL166  LYS551  ARG553  GLY616  TRP617  ASP618  TYR619  PRO620  LYS621  CYS622 
 ASP623  PHE694  ASN695  SER759  ASP760  ASP761  ALA762  ILE779  LEU786  VAL792 
 PHE793  MET794  SER795  GLU796  ALA797  LYS798  CYS799  TRP800  GLU811  SER814 

> <Gold.Protein.RotatedAtoms>
  151.6477  135.1005  160.0154 H   0  0  0  0  0  0  0  0  0  0  0  0  # atno 6907 bound_to 6896
  152.4018  133.6826  159.6331 H   0  0  0  0  0  0  0  0  0  0  0  0  # atno 6908 bound_to 6896
  150.7917  133.8694  159.3295 H   0  0  0  0  0  0  0  0  0  0  0  0  # atno 6909 bound_to 6896
  145.4606  140.9561  143.1972 H   0  0  0  0  0  0  0  0  0  0  0  0  # atno 7974 bound_to 7965
  154.6501  140.0580  156.9945 H   0  0  0  0  0  0  0  0  0  0  0  0  # atno 8008 bound_to 7997
  155.1385  140.3263  155.4439 H   0  0  0  0  0  0  0  0  0  0  0  0  # atno 8009 bound_to 7997
  156.2572  140.1968  156.6501 H   0  0  0  0  0  0  0  0  0  0  0  0  # atno 8010 bound_to 7997
  139.8525  143.7180  152.2657 H   0  0  0  0  0  0  0  0  0  0  0  0  # atno 10167 bound_to 10162
  156.9893  131.0143  151.2861 H   0  0  0  0  0  0  0  0  0  0  0  0  # atno 10718 bound_to 10713
  152.9888  135.6138  154.2915 H   0  0  0  0  0  0  0  0  0  0  0  0  # atno 10763 bound_to 10752
  154.2640  135.2781  155.2768 H   0  0  0  0  0  0  0  0  0  0  0  0  # atno 10764 bound_to 10752
  154.5181  135.5822  153.6715 H   0  0  0  0  0  0  0  0  0  0  0  0  # atno 10765 bound_to 10752
  140.4876  134.0872  155.7764 H   0  0  0  0  0  0  0  0  0  0  0  0  # atno 11005 bound_to 11000
  144.8005  139.6149  143.7073 LP  0  0  0  0  0  0  0  0  0  0  0  0  # atno 17320 bound_to 7965
  146.2453  139.6086  142.9463 LP  0  0  0  0  0  0  0  0  0  0  0  0  # atno 17321 bound_to 7965
  139.7451  144.7549  151.0592 LP  0  0  0  0  0  0  0  0  0  0  0  0  # atno 17342 bound_to 10162
  140.7785  143.4925  150.9874 LP  0  0  0  0  0  0  0  0  0  0  0  0  # atno 17343 bound_to 10162
  157.5470  130.8157  149.8098 LP  0  0  0  0  0  0  0  0  0  0  0  0  # atno 17370 bound_to 10713
  156.0213  130.3794  150.1952 LP  0  0  0  0  0  0  0  0  0  0  0  0  # atno 17371 bound_to 10713
  141.1500  133.8986  157.2121 LP  0  0  0  0  0  0  0  0  0  0  0  0  # atno 17394 bound_to 11000
  139.9788  135.0105  156.9699 LP  0  0  0  0  0  0  0  0  0  0  0  0  # atno 17395 bound_to 11000

$$$$
