#       Name:                AV-unprocessed.smi:1645
#       Creating user name   scv26
#       Creation time:       Fri Mar 27 07:31:23 2020


#       File generated by GOLD software.
#

@<TRIPOS>MOLECULE
AV-unprocessed.smi:1645
    58    61     1
SMALL
NO_CHARGES


@<TRIPOS>ATOM
      1 ****        -0.9269   1.5465   0.1953 O.2            1 S1                 0.0000
      2 ****        -1.2330   0.4598   0.6849 C.2            1 S1                 0.0000
      3 ****        -0.3839  -0.5556   0.9202 N.am           1 S1                 0.0000
      4 ****         1.0248  -0.5934   0.7329 C.ar           1 S1                 0.0000
      5 ****         1.6533  -1.8556   0.7120 C.ar           1 S1                 0.0000
      6 ****         3.0509  -1.9430   0.5469 C.ar           1 S1                 0.0000
      7 ****         3.8223  -0.7609   0.4123 C.ar           1 S1                 0.0000
      8 ****         5.2253  -0.7485   0.2371 N.pl3          1 S1                 0.0000
      9 ****         5.9685   0.2704   0.9864 C.3            1 S1                 0.0000
     10 ****         7.3765   0.4818   0.4049 C.3            1 S1                 0.0000
     11 ****         8.1362  -0.8472   0.2992 C.3            1 S1                 0.0000
     12 ****         7.3170  -1.8473  -0.5279 C.3            1 S1                 0.0000
     13 ****         5.9066  -2.0326   0.0583 C.3            1 S1                 0.0000
     14 ****         3.1722   0.4276   0.4496 N.pl3          1 S1                 1.0000
     15 ****         1.8373   0.5577   0.6040 C.ar           1 S1                 0.0000
     16 ****        -2.4870   0.1383   1.0326 N.am           1 S1                 0.0000
     17 ****        -3.6372   1.0313   0.9104 C.3            1 S1                 0.0000
     18 ****        -4.8684   0.5479   1.6886 C.3            1 S1                 0.0000
     19 ****        -6.0769   1.0494   0.8773 C.3            1 S1                 0.0000
     20 ****        -5.5202   1.7424  -0.3060 N.4            1 S1                 1.0000
     21 ****        -6.3947   1.8121  -1.5047 C.3            1 S1                 0.0000
     22 ****        -6.4136   0.4982  -2.3035 C.3            1 S1                 0.0000
     23 ****        -4.9884   0.0539  -2.6480 C.3            1 S1                 0.0000
     24 ****        -4.1728  -0.1019  -1.3603 C.3            1 S1                 0.0000
     25 ****        -4.1588   1.2051  -0.5263 C.3            1 S1                 0.0000
     26 ****        -0.7995  -1.4146   1.2499 H              1 S1                 0.0000
     27 ****         1.0694  -2.7582   0.8201 H              1 S1                 0.0000
     28 ****         3.5053  -2.9222   0.5395 H              1 S1                 0.0000
     29 ****         5.4518   1.2300   0.9886 H              1 S1                 0.0000
     30 ****         6.0401  -0.0491   2.0269 H              1 S1                 0.0000
     31 ****         7.2982   0.9371  -0.5834 H              1 S1                 0.0000
     32 ****         7.9345   1.1841   1.0248 H              1 S1                 0.0000
     33 ****         9.1126  -0.6884  -0.1594 H              1 S1                 0.0000
     34 ****         8.3188  -1.2505   1.2961 H              1 S1                 0.0000
     35 ****         7.2401  -1.4903  -1.5560 H              1 S1                 0.0000
     36 ****         7.8317  -2.8075  -0.5725 H              1 S1                 0.0000
     37 ****         5.9640  -2.5426   1.0208 H              1 S1                 0.0000
     38 ****         5.3396  -2.6726  -0.6179 H              1 S1                 0.0000
     39 ****         1.4843   1.5775   0.6291 H              1 S1                 0.0000
     40 ****        -2.6571  -0.7777   1.4217 H              1 S1                 0.0000
     41 ****        -3.3640   2.0145   1.2999 H              1 S1                 0.0000
     42 ****        -4.8923  -0.5415   1.7445 H              1 S1                 0.0000
     43 ****        -4.8723   0.9285   2.7106 H              1 S1                 0.0000
     44 ****        -6.7001   0.2056   0.5793 H              1 S1                 0.0000
     45 ****        -6.6990   1.7356   1.4526 H              1 S1                 0.0000
     46 ****        -7.4046   2.0988  -1.2088 H              1 S1                 0.0000
     47 ****        -6.0209   2.6127  -2.1440 H              1 S1                 0.0000
     48 ****        -6.9170  -0.2830  -1.7331 H              1 S1                 0.0000
     49 ****        -6.9926   0.6302  -3.2180 H              1 S1                 0.0000
     50 ****        -5.0107  -0.8890  -3.1953 H              1 S1                 0.0000
     51 ****        -4.5157   0.7867  -3.3034 H              1 S1                 0.0000
     52 ****        -4.5932  -0.9199  -0.7739 H              1 S1                 0.0000
     53 ****        -3.1541  -0.3987  -1.6112 H              1 S1                 0.0000
     54 ****        -3.5683   1.9531  -1.0572 H              1 S1                 0.0000
     55 ****        -5.3834   2.6963  -0.0029 H              1 S1                 0.0000
     56 ****         3.7258   1.2793   0.3554 H              1 S1                 0.0000
     57 ****         0.0218   1.7292  -0.0626 LP             1 S1                 0.0000
     58 ****        -1.6269   2.2468   0.0554 LP             1 S1                 0.0000
@<TRIPOS>BOND
    1    1    2 2     
    2    2    3 am    
    3    2   16 am    
    4    3    4 1     
    5    3   26 1     
    6    4   15 ar    
    7    4    5 ar    
    8    5    6 ar    
    9    5   27 1     
   10    6    7 ar    
   11    6   28 1     
   12    7    8 1     
   13    7   14 ar    
   14    8   13 1     
   15    8    9 1     
   16    9   10 1     
   17    9   29 1     
   18    9   30 1     
   19   10   11 1     
   20   10   31 1     
   21   10   32 1     
   22   11   12 1     
   23   11   33 1     
   24   11   34 1     
   25   12   13 1     
   26   12   35 1     
   27   12   36 1     
   28   13   37 1     
   29   13   38 1     
   30   14   15 ar    
   31   14   56 1     
   32   15   39 1     
   33   16   17 1     
   34   16   40 1     
   35   17   25 1     
   36   17   18 1     
   37   17   41 1     
   38   18   19 1     
   39   18   42 1     
   40   18   43 1     
   41   19   20 1     
   42   19   44 1     
   43   19   45 1     
   44   20   25 1     
   45   20   21 1     
   46   20   55 1     
   47   21   22 1     
   48   21   46 1     
   49   21   47 1     
   50   22   23 1     
   51   22   48 1     
   52   22   49 1     
   53   23   24 1     
   54   23   50 1     
   55   23   51 1     
   56   24   25 1     
   57   24   52 1     
   58   24   53 1     
   59   25   54 1     
   60    1   57 1     
   61    1   58 1     
@<TRIPOS>SUBSTRUCTURE
      1 S1             1
@<TRIPOS>SET
LONE_PAIRS      STATIC     ATOMS    <user>   **** ""
2 57 58
DONOR_HYDROGENS      STATIC     ATOMS    <user>   **** ""
4 26 56 40 55
ATOM$BLUE        STATIC     ATOMS    COLORGROUP SYSTEM
2 57 58
ATOM$RED        STATIC     ATOMS    COLORGROUP SYSTEM
4 26 56 40 55
