AV-unprocessed.smi:1288|AV-procd|sdf|5382|dock3
  -GOLD-   22720 4533D 1   1.00000     0.00000
 Structure written by MMmdl.
 42 44  0  0  0  0  0  0  0  0  1 V2000
  151.0827  138.3837  157.7535 C   0  0  0  0  0  0  0  0  0  0  0  0
  151.3267  139.8169  158.1060 C   0  0  0  0  0  0  0  0  0  0  0  0
  152.3355  140.1940  158.8917 N   0  0  0  0  0  0  0  0  0  0  0  0
  152.1862  141.5667  158.9386 C   0  0  0  0  0  0  0  0  0  0  0  0
  152.9462  142.5509  159.6106 C   0  0  0  0  0  0  0  0  0  0  0  0
  152.5969  143.9136  159.5112 C   0  0  0  0  0  0  0  0  0  0  0  0
  151.4855  144.3113  158.7402 C   0  0  0  0  0  0  0  0  0  0  0  0
  150.7150  143.3472  158.0621 C   0  0  0  0  0  0  0  0  0  0  0  0
  151.0676  141.9880  158.1646 C   0  0  0  0  0  0  0  0  0  0  0  0
  150.5341  140.8138  157.6409 N   0  0  0  0  0  0  0  0  0  0  0  0
  149.3692  140.7003  156.7732 C   0  0  0  0  0  0  0  0  0  0  0  0
  149.6627  141.1258  155.3203 C   0  0  1  0  0  0  0  0  0  0  0  0
  150.7464  140.3632  154.8260 O   0  0  0  0  0  0  0  0  0  0  0  0
  148.4503  140.9033  154.4022 C   0  0  0  0  0  0  0  0  0  0  0  0
  147.3921  141.7509  154.8184 O   0  0  0  0  0  0  0  0  0  0  0  0
  146.3607  141.8604  153.8523 C   0  0  0  0  0  0  0  0  0  0  0  0
  145.2558  142.7811  154.3318 C   0  0  0  0  0  0  0  0  0  0  0  0
  144.7746  143.8016  153.4847 C   0  0  0  0  0  0  0  0  0  0  0  0
  143.7430  144.6563  153.9200 C   0  0  0  0  0  0  0  0  0  0  0  0
  143.1887  144.4938  155.2041 C   0  0  0  0  0  0  0  0  0  0  0  0
  143.6652  143.4755  156.0520 C   0  0  0  0  0  0  0  0  0  0  0  0
  144.6954  142.6182  155.6178 C   0  0  0  0  0  0  0  0  0  0  0  0
  145.1408  141.6382  156.4402 F   0  0  0  0  0  0  0  0  0  0  0  0
  151.8175  137.7405  158.2387 H   0  0  0  0  0  0  0  0  0  0  0  0
  151.1623  138.2405  156.6758 H   0  0  0  0  0  0  0  0  0  0  0  0
  150.0899  138.0748  158.0800 H   0  0  0  0  0  0  0  0  0  0  0  0
  153.7990  142.2565  160.2042 H   0  0  0  0  0  0  0  0  0  0  0  0
  153.1844  144.6573  160.0295 H   0  0  0  0  0  0  0  0  0  0  0  0
  151.2240  145.3571  158.6703 H   0  0  0  0  0  0  0  0  0  0  0  0
  149.8617  143.6488  157.4730 H   0  0  0  0  0  0  0  0  0  0  0  0
  149.0136  139.6693  156.8009 H   0  0  0  0  0  0  0  0  0  0  0  0
  148.5638  141.3054  157.1898 H   0  0  0  0  0  0  0  0  0  0  0  0
  149.9400  142.1802  155.3052 H   0  0  0  0  0  0  0  0  0  0  0  0
  150.4766  139.4591  154.7717 H   0  0  0  0  0  0  0  0  0  0  0  0
  148.7106  141.0725  153.3556 H   0  0  0  0  0  0  0  0  0  0  0  0
  148.1106  139.8698  154.4871 H   0  0  0  0  0  0  0  0  0  0  0  0
  146.7650  142.2385  152.9119 H   0  0  0  0  0  0  0  0  0  0  0  0
  145.9408  140.8752  153.6427 H   0  0  0  0  0  0  0  0  0  0  0  0
  145.1937  143.9305  152.4976 H   0  0  0  0  0  0  0  0  0  0  0  0
  143.3767  145.4355  153.2680 H   0  0  0  0  0  0  0  0  0  0  0  0
  142.3977  145.1488  155.5384 H   0  0  0  0  0  0  0  0  0  0  0  0
  143.2389  143.3501  157.0365 H   0  0  0  0  0  0  0  0  0  0  0  0
  1  2  1  0  0  0  0
  1 24  1  0  0  0  0
  1 25  1  0  0  0  0
  1 26  1  0  0  0  0
  2 10  1  0  0  0  0
  2  3  2  0  0  0  0
  3  4  1  0  0  0  0
  4  9  2  0  0  0  0
  4  5  1  0  0  0  0
  5  6  2  0  0  0  0
  5 27  1  0  0  0  0
  6  7  1  0  0  0  0
  6 28  1  0  0  0  0
  7  8  2  0  0  0  0
  7 29  1  0  0  0  0
  8  9  1  0  0  0  0
  8 30  1  0  0  0  0
  9 10  1  0  0  0  0
 10 11  1  0  0  0  0
 11 12  1  0  0  0  0
 11 31  1  0  0  0  0
 11 32  1  0  0  0  0
 12 13  1  0  0  0  0
 12 14  1  0  0  0  0
 12 33  1  0  0  0  0
 13 34  1  0  0  0  0
 14 15  1  0  0  0  0
 14 35  1  0  0  0  0
 14 36  1  0  0  0  0
 15 16  1  0  0  0  0
 16 17  1  0  0  0  0
 16 37  1  0  0  0  0
 16 38  1  0  0  0  0
 17 22  1  0  0  0  0
 17 18  2  0  0  0  0
 18 19  1  0  0  0  0
 18 39  1  0  0  0  0
 19 20  2  0  0  0  0
 19 40  1  0  0  0  0
 20 21  1  0  0  0  0
 20 41  1  0  0  0  0
 21 22  2  0  0  0  0
 21 42  1  0  0  0  0
 22 23  1  0  0  0  0
M  END
> <s_m_source_file>
AV-unprocessed.smi

> <i_m_source_file_index>
1288

> <i_lp_mmshare_version>
43012

> <i_f3d_flags>
0

> <s_epik_input>
W2NIXTFbY0hdW2NIXVtjSF1jKGMxMiluKGMobjIpW0NIM10pW0NIMl1bQ0BIXShbT0hdKVtDSDJdT1tDSDJdYzNbY0hdW2NIXVtjSF1bY0hdYzNG

> <s_epik_cmdline>
J2VwaWtfcHl0aG9uJywgJy1waCcsICc3LjAnLCAnLXRuJywgJzgnLCAnLW1hJywgJzIwMCcsICctbWV0YWxfYmluZGluZycsICctaW1hZScsICc8aW5maWxlLm1hZT4nLCAnLW9tYWUnLCAnPG91dGZpbGUubWFlPic=

> <r_epik_Ionization_Penalty>
0.132603

> <r_epik_Ionization_Penalty_Charging>
0

> <r_epik_Ionization_Penalty_Neutral>
0.132603

> <r_epik_State_Penalty>
0.121982

> <r_epik_Charging_Adjusted_Penalty>
0.121982

> <i_epik_Tot_Q>
0

> <i_epik_Tot_abs_Q>
0

> <r_epik_Metal_State_Penalty>
0.000135431

> <b_epik_Metal_Only>
0

> <s_lp_Force_Field>
OPLS_2005

> <r_lp_Energy>
16.0492

> <b_lp_Chiralities_Consistent>
1

> <s_lp_Variant>
AV-unprocessed.smi:1288-2

> <Gold.Version>
5.8.1

> <Gold.Id.Protein>
6NUR|6NUR_protein|mol2

> <Gold.PLP.Fitness>
55.1501

> <Gold.PLP.PLP>
-52.8023

> <Gold.PLP.part.hbond>
-1.0000

> <Gold.PLP.part.metal>
0.0000

> <Gold.PLP.part.buried>
-8.7607

> <Gold.PLP.part.nonpolar>
-43.7519

> <Gold.PLP.part.repulsive>
0.4352

> <Gold.PLP.ligand.clash>
0.0000

> <Gold.PLP.ligand.torsion>
0.3860

> <Gold.PLP.Chemscore.Hbond>
1.0000

> <Gold.PLP.Chemscore.CHOScore>
0.0000

> <Gold.PLP.Chemscore.Metal>
0.0000

> <Gold.Chemscore.Hbonds>
donor molecule, donor type, donor heavy atom, donor atom, acceptor molecule, acceptor atom, score
      P1  H  7989  7998       L1    13  1.00

> <Gold.PLP.Chemscore.Internal.Correction>
0.1198

> <Gold.Rescore>
     Score         DG    S(hbond)    S(metal)    S(lipo)     H(rot)  DE(clash)    DE(int)     intcor
     16.91     -18.92       0.74        0.00     143.86       2.29       0.21       1.80       ----

> <Gold.Chemscore.Fitness>
16.9071

> <Gold.Chemscore.DG>
-18.9196

> <Gold.Chemscore.ZeroCoef>
-5.4800

> <Gold.Chemscore.Hbond>
0.7369

> <Gold.Chemscore.Metal>
0.0000

> <Gold.Chemscore.Lipo>
143.8582

> <Gold.Chemscore.Internal_Hbond>
0.0000

> <Gold.Chemscore.DEClash>
0.2136

> <Gold.Chemscore.DEInternal>
1.7989

> <Gold.Chemscore.Rot>
2.2863

> <Gold.Chemscore.Internal.Correction>
   9.000000E+99

> <Gold.Chemscore.Hbonds>
donor molecule, donor type, donor heavy atom, donor atom, acceptor molecule, acceptor atom, score
      P1  H  7989  7998       L1    13  0.86

> <Gold.Chemscore.Hbond.Weighted>
-2.4612

> <Gold.Chemscore.Metal.Weighted>
-0.0000

> <Gold.Chemscore.Lipo.Weighted>
-16.8314

> <Gold.Chemscore.Internal_Hbond.Weighted>
0.0000

> <Gold.Chemscore.DEClash.Weighted>
0.2136

> <Gold.Chemscore.DEInternal.Weighted>
1.7989

> <Gold.Chemscore.Rot.Weighted>
5.8530

> <Gold.Chemscore.Internal.Correction.Weighted>
   9.000000E+99

> <Gold.Protein.RotatedTorsions>
[ 6907 6896 6895 6894 ] final   65.29 input  -60.11 | X-H torsion
[ 7974 7965 7964 7962 ] final  -68.44 input  175.53 | X-H torsion
[ 8008 7997 7996 7995 ] final  113.86 input   59.86 | X-H torsion
[ 10167 10162 10161 10158 ] final  121.74 input  -65.29 | X-H torsion
[ 10718 10713 10712 10709 ] final  115.57 input   66.30 | X-H torsion
[ 10763 10752 10751 10750 ] final -174.73 input  -60.55 | X-H torsion
[ 11005 11000 10999 10996 ] final  174.01 input  -57.11 | X-H torsion

> <Gold.Protein.ActiveResidues>
 VAL166  LYS551  ARG553  GLY616  TRP617  ASP618  TYR619  PRO620  LYS621  CYS622 
 ASP623  PHE694  ASN695  SER759  ASP760  ASP761  ALA762  ILE779  LEU786  VAL792 
 PHE793  MET794  SER795  GLU796  ALA797  LYS798  CYS799  TRP800  GLU811  SER814 

> <Gold.Protein.RotatedAtoms>
  152.4397  134.5616  159.9895 H   0  0  0  0  0  0  0  0  0  0  0  0  # atno 6907 bound_to 6896
  151.5717  133.3383  159.2999 H   0  0  0  0  0  0  0  0  0  0  0  0  # atno 6908 bound_to 6896
  150.8300  134.7583  159.6910 H   0  0  0  0  0  0  0  0  0  0  0  0  # atno 6909 bound_to 6896
  145.7165  140.9057  143.0653 H   0  0  0  0  0  0  0  0  0  0  0  0  # atno 7974 bound_to 7965
  156.2285  140.2971  156.0128 H   0  0  0  0  0  0  0  0  0  0  0  0  # atno 8008 bound_to 7997
  155.2290  140.0418  157.2976 H   0  0  0  0  0  0  0  0  0  0  0  0  # atno 8009 bound_to 7997
  154.5955  140.2413  155.7870 H   0  0  0  0  0  0  0  0  0  0  0  0  # atno 8010 bound_to 7997
  139.5901  144.7022  151.3311 H   0  0  0  0  0  0  0  0  0  0  0  0  # atno 10167 bound_to 10162
  157.6214  131.1014  150.7348 H   0  0  0  0  0  0  0  0  0  0  0  0  # atno 10718 bound_to 10713
  154.5928  135.2847  155.0617 H   0  0  0  0  0  0  0  0  0  0  0  0  # atno 10763 bound_to 10752
  154.1911  135.6440  153.5064 H   0  0  0  0  0  0  0  0  0  0  0  0  # atno 10764 bound_to 10752
  153.0127  135.5446  154.6620 H   0  0  0  0  0  0  0  0  0  0  0  0  # atno 10765 bound_to 10752
  140.3467  134.7230  157.4240 H   0  0  0  0  0  0  0  0  0  0  0  0  # atno 11005 bound_to 11000
  144.6928  139.9144  143.7465 LP  0  0  0  0  0  0  0  0  0  0  0  0  # atno 17320 bound_to 7965
  146.0665  139.3656  143.0549 LP  0  0  0  0  0  0  0  0  0  0  0  0  # atno 17321 bound_to 7965
  140.7166  143.7251  150.7666 LP  0  0  0  0  0  0  0  0  0  0  0  0  # atno 17342 bound_to 10162
  140.0804  143.4974  152.2533 LP  0  0  0  0  0  0  0  0  0  0  0  0  # atno 17343 bound_to 10162
  156.7705  130.4827  149.5419 LP  0  0  0  0  0  0  0  0  0  0  0  0  # atno 17370 bound_to 10713
  156.1362  130.6212  151.0403 LP  0  0  0  0  0  0  0  0  0  0  0  0  # atno 17371 bound_to 10713
  140.0737  134.5827  155.8615 LP  0  0  0  0  0  0  0  0  0  0  0  0  # atno 17394 bound_to 11000
  141.2023  133.6624  156.6002 LP  0  0  0  0  0  0  0  0  0  0  0  0  # atno 17395 bound_to 11000

$$$$
