#       Name:                AV-unprocessed.smi:876
#       Creating user name   scv26
#       Creation time:       Fri Mar 27 01:51:38 2020


#       File generated by GOLD software.
#

@<TRIPOS>MOLECULE
AV-unprocessed.smi:876
    45    46     1
SMALL
NO_CHARGES


@<TRIPOS>ATOM
      1 ****        -6.4485   0.0190   0.9586 C.3            1 S1                 0.0000
      2 ****        -5.6425   1.0286   0.2833 N.pl3          1 S1                 0.0000
      3 ****        -6.2583   2.2765  -0.1566 C.3            1 S1                 0.0000
      4 ****        -4.2613   0.8126   0.0720 C.ar           1 S1                 0.0000
      5 ****        -3.6182  -0.3656   0.5262 C.ar           1 S1                 0.0000
      6 ****        -2.2397  -0.5352   0.2933 C.ar           1 S1                 0.0000
      7 ****        -1.5308   0.4743  -0.3980 C.ar           1 S1                 0.0000
      8 ****        -0.1382   0.4352  -0.6823 N.am           1 S1                 0.0000
      9 ****         0.6958  -0.6192  -0.6771 C.2            1 S1                 0.0000
     10 ****         0.3784  -1.7817  -0.4270 O.2            1 S1                 0.0000
     11 ****         1.9429  -0.2497  -1.0012 N.am           1 S1                 0.0000
     12 ****         3.0806  -1.1572  -1.1042 C.3            1 S1                 0.0000
     13 ****         4.2456  -0.4721  -1.7645 C.2            1 S1                 0.0000
     14 ****         5.3565  -0.5285  -1.0334 C.2            1 S1                 0.0000
     15 ****         5.1612  -1.2578   0.2713 C.3            1 S1                 0.0000
     16 ****         5.6154  -0.4391   1.4922 C.3            1 S1                 0.0000
     17 ****         7.0127  -0.2346   1.4622 O.3            1 S1                 0.0000
     18 ****         3.6444  -1.5779   0.2789 C.3            1 S1                 0.0000
     19 ****        -2.2527   1.6142  -0.8020 C.ar           1 S1                 0.0000
     20 ****        -3.5728   1.7811  -0.5802 N.ar           1 S1                 0.0000
     21 ****         2.8163  -2.0320  -1.7006 H              1 S1                 0.0000
     22 ****         5.7285  -2.1884   0.2211 H              1 S1                 0.0000
     23 ****        -6.0821  -0.1499   1.9716 H              1 S1                 0.0000
     24 ****        -6.4172  -0.9248   0.4132 H              1 S1                 0.0000
     25 ****        -7.4919   0.3263   1.0295 H              1 S1                 0.0000
     26 ****        -6.1635   2.3913  -1.2368 H              1 S1                 0.0000
     27 ****        -5.7808   3.1300   0.3258 H              1 S1                 0.0000
     28 ****        -7.3196   2.3056   0.0902 H              1 S1                 0.0000
     29 ****        -4.1519  -1.1413   1.0541 H              1 S1                 0.0000
     30 ****        -1.7592  -1.4275   0.6618 H              1 S1                 0.0000
     31 ****         0.2649   1.3137  -0.9734 H              1 S1                 0.0000
     32 ****         2.1182   0.7253  -1.1951 H              1 S1                 0.0000
     33 ****         4.1657  -0.0080  -2.7366 H              1 S1                 0.0000
     34 ****         6.3116  -0.1164  -1.3245 H              1 S1                 0.0000
     35 ****         5.1111   0.5275   1.5225 H              1 S1                 0.0000
     36 ****         5.3633  -0.9644   2.4137 H              1 S1                 0.0000
     37 ****         7.2608   0.2593   2.2287 H              1 S1                 0.0000
     38 ****         3.1455  -1.0327   1.0820 H              1 S1                 0.0000
     39 ****         3.4679  -2.6376   0.4666 H              1 S1                 0.0000
     40 ****        -1.7575   2.4200  -1.3241 H              1 S1                 0.0000
     41 ****        -0.5707  -2.0038  -0.2037 LP             1 S1                 0.0000
     42 ****         1.0696  -2.5041  -0.4471 LP             1 S1                 0.0000
     43 ****         7.2613   0.2745   0.6381 LP             1 S1                 0.0000
     44 ****         7.4827  -1.1172   1.4632 LP             1 S1                 0.0000
     45 ****        -4.0378   2.6093  -0.8932 LP             1 S1                 0.0000
@<TRIPOS>BOND
    1    1    2 1     
    2    1   23 1     
    3    1   24 1     
    4    1   25 1     
    5    2    3 1     
    6    2    4 1     
    7    3   26 1     
    8    3   27 1     
    9    3   28 1     
   10    4   20 ar    
   11    4    5 ar    
   12    5    6 ar    
   13    5   29 1     
   14    6    7 ar    
   15    6   30 1     
   16    7    8 1     
   17    7   19 ar    
   18    8    9 am    
   19    8   31 1     
   20    9   10 2     
   21    9   11 am    
   22   11   12 1     
   23   11   32 1     
   24   12   21 1     
   25   12   18 1     
   26   12   13 1     
   27   13   14 2     
   28   13   33 1     
   29   14   15 1     
   30   14   34 1     
   31   15   22 1     
   32   15   16 1     
   33   15   18 1     
   34   16   17 1     
   35   16   35 1     
   36   16   36 1     
   37   17   37 1     
   38   18   38 1     
   39   18   39 1     
   40   19   20 ar    
   41   19   40 1     
   42   10   41 1     
   43   10   42 1     
   44   17   43 1     
   45   17   44 1     
   46   20   45 1     
@<TRIPOS>SUBSTRUCTURE
      1 S1             1
@<TRIPOS>SET
LONE_PAIRS      STATIC     ATOMS    <user>   **** ""
5 41 42 43 44 45
DONOR_HYDROGENS      STATIC     ATOMS    <user>   **** ""
3 31 32 37
ATOM$BLUE        STATIC     ATOMS    COLORGROUP SYSTEM
5 41 42 43 44 45
ATOM$RED        STATIC     ATOMS    COLORGROUP SYSTEM
3 31 32 37
