AV-unprocessed.smi:256|AV-procd|sdf|1960|dock2
  -GOLD-   2262021103D 1   1.00000     0.00000
 Structure written by MMmdl.
 62 65  0  0  0  0  0  0  0  0  2 V2000
  145.6222  136.1680  152.2907 C   0  0  0  0  0  0  0  0  0  0  0  0
  144.5413  137.2173  152.5897 C   0  0  0  0  0  0  0  0  0  0  0  0
  144.4909  137.6680  154.0742 C   0  0  1  0  0  0  0  0  0  0  0  0
  145.8417  138.3357  154.4422 C   0  0  0  0  0  0  0  0  0  0  0  0
  145.8104  138.9836  155.7479 N   0  0  0  0  0  0  0  0  0  0  0  0
  146.9873  139.3094  156.3408 C   0  0  0  0  0  0  0  0  0  0  0  0
  147.9670  138.3742  156.4633 N   0  0  0  0  0  0  0  0  0  0  0  0
  149.1283  138.6858  157.0465 C   0  0  0  0  0  0  0  0  0  0  0  0
  149.5115  139.8504  157.5726 N   0  0  0  0  0  0  0  0  0  0  0  0
  148.5307  140.7910  157.4620 C   0  0  0  0  0  0  0  0  0  0  0  0
  147.2523  140.6072  156.8631 C   0  0  0  0  0  0  0  0  0  0  0  0
  146.5195  141.7854  156.9428 N   0  0  0  0  0  0  0  0  0  0  0  0
  147.3217  142.6200  157.5449 C   0  0  0  0  0  0  0  0  0  0  0  0
  148.5461  142.1030  157.9042 N   0  0  0  0  0  0  0  0  0  0  0  0
  149.6195  142.8055  158.5925 C   0  0  0  0  0  0  0  0  0  0  0  0
  150.9271  142.9309  157.7633 C   0  0  0  0  0  0  0  0  0  0  0  0
  150.5860  142.7618  156.3994 O   0  0  0  0  0  0  0  0  0  0  0  0
  151.6302  144.2988  157.9011 C   0  0  0  0  0  0  0  0  0  0  0  0
  152.3172  144.4403  159.2706 C   0  0  0  0  0  0  0  0  0  0  0  0
  153.2426  143.3754  159.4603 O   0  0  0  0  0  0  0  0  0  0  0  0
  152.6234  142.0936  159.4731 C   0  0  0  0  0  0  0  0  0  0  0  0
  151.9394  141.8240  158.1203 C   0  0  0  0  0  0  0  0  0  0  0  0
  144.7393  139.9553  155.8927 C   0  0  0  0  0  0  0  0  0  0  0  0
  143.3941  139.2665  155.6583 C   0  0  0  0  0  0  0  0  0  0  0  0
  143.3301  138.5796  154.3391 N   0  3  2  0  0  0  0  0  0  0  0  0
  141.9939  137.9475  154.1475 C   0  0  0  0  0  0  0  0  0  0  0  0
  142.0545  136.4382  154.4106 C   0  0  0  0  0  0  0  0  0  0  0  0
  140.7597  135.9786  154.7595 O   0  0  0  0  0  0  0  0  0  0  0  0
  139.7800  136.3379  153.8014 C   0  0  0  0  0  0  0  0  0  0  0  0
  145.5504  135.8264  151.2579 H   0  0  0  0  0  0  0  0  0  0  0  0
  145.5137  135.2953  152.9354 H   0  0  0  0  0  0  0  0  0  0  0  0
  146.6270  136.5674  152.4281 H   0  0  0  0  0  0  0  0  0  0  0  0
  144.6956  138.0858  151.9484 H   0  0  0  0  0  0  0  0  0  0  0  0
  143.5944  136.7883  152.2692 H   0  0  0  0  0  0  0  0  0  0  0  0
  144.3602  136.7920  154.7122 H   0  0  0  0  0  0  0  0  0  0  0  0
  146.6331  137.5853  154.4344 H   0  0  0  0  0  0  0  0  0  0  0  0
  146.1035  139.0845  153.6931 H   0  0  0  0  0  0  0  0  0  0  0  0
  149.8542  137.8875  157.1007 H   0  0  0  0  0  0  0  0  0  0  0  0
  147.0371  143.6409  157.7547 H   0  0  0  0  0  0  0  0  0  0  0  0
  149.2476  143.7888  158.8787 H   0  0  0  0  0  0  0  0  0  0  0  0
  149.8180  142.2803  159.5279 H   0  0  0  0  0  0  0  0  0  0  0  0
  150.0139  143.4691  156.1430 H   0  0  0  0  0  0  0  0  0  0  0  0
  152.3946  144.3948  157.1285 H   0  0  0  0  0  0  0  0  0  0  0  0
  150.9366  145.1235  157.7362 H   0  0  0  0  0  0  0  0  0  0  0  0
  152.8576  145.3857  159.3191 H   0  0  0  0  0  0  0  0  0  0  0  0
  151.5901  144.4520  160.0828 H   0  0  0  0  0  0  0  0  0  0  0  0
  153.3887  141.3396  159.6577 H   0  0  0  0  0  0  0  0  0  0  0  0
  151.9147  142.0274  160.2992 H   0  0  0  0  0  0  0  0  0  0  0  0
  151.4544  140.8471  158.1302 H   0  0  0  0  0  0  0  0  0  0  0  0
  152.7134  141.7726  157.3528 H   0  0  0  0  0  0  0  0  0  0  0  0
  144.7426  140.4243  156.8759 H   0  0  0  0  0  0  0  0  0  0  0  0
  144.8841  140.7551  155.1649 H   0  0  0  0  0  0  0  0  0  0  0  0
  143.2268  138.5386  156.4543 H   0  0  0  0  0  0  0  0  0  0  0  0
  142.5915  140.0018  155.7262 H   0  0  0  0  0  0  0  0  0  0  0  0
  141.2228  138.3963  154.7711 H   0  0  0  0  0  0  0  0  0  0  0  0
  141.6425  138.1165  153.1286 H   0  0  0  0  0  0  0  0  0  0  0  0
  142.3924  135.9254  153.5088 H   0  0  0  0  0  0  0  0  0  0  0  0
  142.7706  136.2128  155.2025 H   0  0  0  0  0  0  0  0  0  0  0  0
  138.8076  135.9552  154.1109 H   0  0  0  0  0  0  0  0  0  0  0  0
  140.0117  135.9166  152.8224 H   0  0  0  0  0  0  0  0  0  0  0  0
  139.7001  137.4216  153.7062 H   0  0  0  0  0  0  0  0  0  0  0  0
  143.4024  139.3057  153.6406 H   0  0  0  0  0  0  0  0  0  0  0  0
  1  2  1  0  0  0  0
  1 30  1  0  0  0  0
  1 31  1  0  0  0  0
  1 32  1  0  0  0  0
  2  3  1  0  0  0  0
  2 33  1  0  0  0  0
  2 34  1  0  0  0  0
  3 25  1  0  0  0  0
  3  4  1  0  0  0  0
  3 35  1  0  0  0  0
  4  5  1  0  0  0  0
  4 36  1  0  0  0  0
  4 37  1  0  0  0  0
  5  6  1  0  0  0  0
  5 23  1  0  0  0  0
  6 11  1  0  0  0  0
  6  7  2  0  0  0  0
  7  8  1  0  0  0  0
  8  9  2  0  0  0  0
  8 38  1  0  0  0  0
  9 10  1  0  0  0  0
 10 14  1  0  0  0  0
 10 11  2  0  0  0  0
 11 12  1  0  0  0  0
 12 13  2  0  0  0  0
 13 14  1  0  0  0  0
 13 39  1  0  0  0  0
 14 15  1  0  0  0  0
 15 16  1  0  0  0  0
 15 40  1  0  0  0  0
 15 41  1  0  0  0  0
 16 22  1  0  0  0  0
 16 17  1  0  0  0  0
 16 18  1  0  0  0  0
 17 42  1  0  0  0  0
 18 19  1  0  0  0  0
 18 43  1  0  0  0  0
 18 44  1  0  0  0  0
 19 20  1  0  0  0  0
 19 45  1  0  0  0  0
 19 46  1  0  0  0  0
 20 21  1  0  0  0  0
 21 22  1  0  0  0  0
 21 47  1  0  0  0  0
 21 48  1  0  0  0  0
 22 49  1  0  0  0  0
 22 50  1  0  0  0  0
 23 24  1  0  0  0  0
 23 51  1  0  0  0  0
 23 52  1  0  0  0  0
 24 25  1  0  0  0  0
 24 53  1  0  0  0  0
 24 54  1  0  0  0  0
 25 26  1  0  0  0  0
 25 62  1  0  0  0  0
 26 27  1  0  0  0  0
 26 55  1  0  0  0  0
 26 56  1  0  0  0  0
 27 28  1  0  0  0  0
 27 57  1  0  0  0  0
 27 58  1  0  0  0  0
 28 29  1  0  0  0  0
 29 59  1  0  0  0  0
 29 60  1  0  0  0  0
 29 61  1  0  0  0  0
M  CHG  1  25   1
M  END
> <s_m_source_file>
AV-unprocessed.smi

> <i_m_source_file_index>
256

> <i_lp_mmshare_version>
43012

> <i_f3d_flags>
0

> <s_epik_input>
W0NIM11PW0NIMl1bQ0gyXU4xW0NIMl1bQ0gyXU4oW0NIMl1bQ0BIXTFbQ0gyXVtDSDNdKWMobltjSF1uMiljKGMyMyluW2NIXW4zW0NIMl1DNChbT0hdKVtDSDJdW0NIMl1PW0NIMl1bQ0gyXTQ=

> <s_epik_cmdline>
J2VwaWtfcHl0aG9uJywgJy1waCcsICc3LjAnLCAnLXRuJywgJzgnLCAnLW1hJywgJzIwMCcsICctbWV0YWxfYmluZGluZycsICctaW1hZScsICc8aW5maWxlLm1hZT4nLCAnLW9tYWUnLCAnPG91dGZpbGUubWFlPic=

> <r_lp_tautomer_probability>
1

> <r_epik_Ionization_Penalty>
0.233023

> <r_epik_Ionization_Penalty_Charging>
0.23295

> <r_epik_Ionization_Penalty_Neutral>
7.2493e-05

> <r_epik_State_Penalty>
0.223667

> <r_epik_Charging_Adjusted_Penalty>
0.456618

> <i_epik_Tot_Q>
1

> <i_epik_Tot_abs_Q>
1

> <r_epik_Metal_State_Penalty>
0.226879

> <b_epik_Metal_Only>
0

> <s_lp_Force_Field>
OPLS_2005

> <r_lp_Energy>
45.9613

> <b_lp_Chiralities_Consistent>
1

> <s_lp_Variant>
AV-unprocessed.smi:256-4

> <Gold.Version>
5.8.1

> <Gold.Id.Protein>
6NUR|6NUR_protein|mol2

> <Gold.PLP.Fitness>
47.6558

> <Gold.PLP.PLP>
-37.3947

> <Gold.PLP.part.hbond>
-3.0000

> <Gold.PLP.part.metal>
0.0000

> <Gold.PLP.part.buried>
-6.4694

> <Gold.PLP.part.nonpolar>
-28.5489

> <Gold.PLP.part.repulsive>
0.1822

> <Gold.PLP.ligand.clash>
0.0066

> <Gold.PLP.ligand.torsion>
1.6553

> <Gold.PLP.Chemscore.Hbond>
3.7840

> <Gold.PLP.Chemscore.CHOScore>
0.5053

> <Gold.PLP.Chemscore.Metal>
0.0000

> <Gold.Chemscore.Hbonds>
donor molecule, donor type, donor heavy atom, donor atom, acceptor molecule, acceptor atom, score
      L1  H    17    42       P1  8028  1.00
      L1  H    25    62       P1 10175  2.00
      P1  H 11000 11005       L1    28  0.77
      L1  C    13    39       P1  8029  0.52

> <Gold.PLP.Chemscore.Internal.Correction>
0.7105

> <Gold.Rescore>
     Score         DG    S(hbond)    S(metal)    S(lipo)     H(rot)  DE(clash)    DE(int)     intcor
     14.50     -17.49       2.82        0.00      86.29       2.92       0.08       2.91       ----

> <Gold.Chemscore.Fitness>
14.5030

> <Gold.Chemscore.DG>
-17.4922

> <Gold.Chemscore.ZeroCoef>
-5.4800

> <Gold.Chemscore.Hbond>
2.8156

> <Gold.Chemscore.Metal>
0.0000

> <Gold.Chemscore.Lipo>
86.2860

> <Gold.Chemscore.Internal_Hbond>
0.0000

> <Gold.Chemscore.DEClash>
0.0762

> <Gold.Chemscore.DEInternal>
2.9131

> <Gold.Chemscore.Rot>
2.9247

> <Gold.Chemscore.Internal.Correction>
   9.000000E+99

> <Gold.Chemscore.Hbonds>
donor molecule, donor type, donor heavy atom, donor atom, acceptor molecule, acceptor atom, score
      L1  H    17    42       P1  8028  1.00
      L1  H    25    62       P1 10175  1.00
      P1  H 11000 11005       L1    28  0.56

> <Gold.Chemscore.Hbond.Weighted>
-9.4041

> <Gold.Chemscore.Metal.Weighted>
-0.0000

> <Gold.Chemscore.Lipo.Weighted>
-10.0955

> <Gold.Chemscore.Internal_Hbond.Weighted>
0.0000

> <Gold.Chemscore.DEClash.Weighted>
0.0762

> <Gold.Chemscore.DEInternal.Weighted>
2.9131

> <Gold.Chemscore.Rot.Weighted>
7.4873

> <Gold.Chemscore.Internal.Correction.Weighted>
   9.000000E+99

> <Gold.Protein.RotatedTorsions>
[ 6907 6896 6895 6894 ] final   61.25 input  -60.11 | X-H torsion
[ 7974 7965 7964 7962 ] final -138.49 input  175.53 | X-H torsion
[ 8008 7997 7996 7995 ] final  155.76 input   59.86 | X-H torsion
[ 10167 10162 10161 10158 ] final  -34.66 input  -65.29 | X-H torsion
[ 10718 10713 10712 10709 ] final  101.47 input   66.30 | X-H torsion
[ 10763 10752 10751 10750 ] final  -53.20 input  -60.55 | X-H torsion
[ 11005 11000 10999 10996 ] final   51.31 input  -57.11 | X-H torsion

> <Gold.Protein.ActiveResidues>
 VAL166  LYS551  ARG553  GLY616  TRP617  ASP618  TYR619  PRO620  LYS621  CYS622 
 ASP623  PHE694  ASN695  SER759  ASP760  ASP761  ALA762  ILE779  LEU786  VAL792 
 PHE793  MET794  SER795  GLU796  ALA797  LYS798  CYS799  TRP800  GLU811  SER814 

> <Gold.Protein.RotatedAtoms>
  152.4073  134.6185  160.0044 H   0  0  0  0  0  0  0  0  0  0  0  0  # atno 6907 bound_to 6896
  151.6373  133.3322  159.3130 H   0  0  0  0  0  0  0  0  0  0  0  0  # atno 6908 bound_to 6896
  150.7967  134.7072  159.6628 H   0  0  0  0  0  0  0  0  0  0  0  0  # atno 6909 bound_to 6896
  144.8754  140.6429  143.5240 H   0  0  0  0  0  0  0  0  0  0  0  0  # atno 7974 bound_to 7965
  156.2460  140.1930  156.6851 H   0  0  0  0  0  0  0  0  0  0  0  0  # atno 8008 bound_to 7997
  154.6293  140.0598  156.9738 H   0  0  0  0  0  0  0  0  0  0  0  0  # atno 8009 bound_to 7997
  155.1737  140.3270  155.4390 H   0  0  0  0  0  0  0  0  0  0  0  0  # atno 8010 bound_to 7997
  140.7181  143.3532  151.2112 H   0  0  0  0  0  0  0  0  0  0  0  0  # atno 10167 bound_to 10162
  157.6828  131.0727  150.5258 H   0  0  0  0  0  0  0  0  0  0  0  0  # atno 10718 bound_to 10713
  154.1550  135.6484  153.4972 H   0  0  0  0  0  0  0  0  0  0  0  0  # atno 10763 bound_to 10752
  153.0127  135.5347  154.6769 H   0  0  0  0  0  0  0  0  0  0  0  0  # atno 10764 bound_to 10752
  154.6067  135.2949  155.0448 H   0  0  0  0  0  0  0  0  0  0  0  0  # atno 10765 bound_to 10752
  140.0944  134.5166  155.8821 H   0  0  0  0  0  0  0  0  0  0  0  0  # atno 11005 bound_to 11000
  145.4052  139.1590  143.4155 LP  0  0  0  0  0  0  0  0  0  0  0  0  # atno 17320 bound_to 7965
  146.2959  140.4152  142.8722 LP  0  0  0  0  0  0  0  0  0  0  0  0  # atno 17321 bound_to 7965
  139.7068  143.9442  152.2930 LP  0  0  0  0  0  0  0  0  0  0  0  0  # atno 17342 bound_to 10162
  139.9154  144.6832  150.8518 LP  0  0  0  0  0  0  0  0  0  0  0  0  # atno 17343 bound_to 10162
  156.5569  130.4246  149.6081 LP  0  0  0  0  0  0  0  0  0  0  0  0  # atno 17370 bound_to 10713
  156.2854  130.7094  151.1929 LP  0  0  0  0  0  0  0  0  0  0  0  0  # atno 17371 bound_to 10713
  141.2087  133.6677  156.6392 LP  0  0  0  0  0  0  0  0  0  0  0  0  # atno 17394 bound_to 11000
  140.3307  134.7931  157.4324 LP  0  0  0  0  0  0  0  0  0  0  0  0  # atno 17395 bound_to 11000

$$$$
