AV-unprocessed.smi:1605|AV-procd|sdf|6456|dock3
  -GOLD-   22720 7113D 1   1.00000     0.00000
 Structure written by MMmdl.
 52 54  0  0  0  0  0  0  0  0  3 V2000
  143.4358  136.4791  152.6409 C   0  0  0  0  0  0  0  0  0  0  0  0
  144.5764  135.9552  153.3036 O   0  0  0  0  0  0  0  0  0  0  0  0
  145.4508  136.9416  153.8354 C   0  0  2  0  0  0  0  0  0  0  0  0
  146.0000  137.7593  152.6573 C   0  0  0  0  0  0  0  0  0  0  0  0
  147.0428  138.7863  153.1279 C   0  0  0  0  0  0  0  0  0  0  0  0
  148.1554  138.1227  153.8553 N   0  3  1  0  0  0  0  0  0  0  0  0
  149.2512  139.0681  154.1932 C   0  0  0  0  0  0  0  0  0  0  0  0
  150.3912  138.4054  154.9984 C   0  0  1  0  0  0  0  0  0  0  0  0
  150.9230  137.3353  154.2417 O   0  0  0  0  0  0  0  0  0  0  0  0
  151.5277  139.3864  155.3678 C   0  0  0  0  0  0  0  0  0  0  0  0
  151.0754  140.6193  156.0341 N   0  0  0  0  0  0  0  0  0  0  0  0
  150.1617  141.5448  155.6311 C   0  0  0  0  0  0  0  0  0  0  0  0
  150.0888  142.5002  156.5986 N   0  3  0  0  0  0  0  0  0  0  0  0
  150.9602  142.1765  157.6404 C   0  0  0  0  0  0  0  0  0  0  0  0
  151.2364  142.8343  158.8333 C   0  0  0  0  0  0  0  0  0  0  0  0
  152.1846  142.2376  159.6946 C   0  0  0  0  0  0  0  0  0  0  0  0
  152.5158  142.9342  161.0036 C   0  0  0  0  0  0  0  0  0  0  0  0
  152.8161  141.0150  159.3491 C   0  0  0  0  0  0  0  0  0  0  0  0
  153.8317  140.3788  160.2828 C   0  0  0  0  0  0  0  0  0  0  0  0
  152.5197  140.3611  158.1321 C   0  0  0  0  0  0  0  0  0  0  0  0
  151.5898  140.9664  157.2898 C   0  0  0  0  0  0  0  0  0  0  0  0
  147.6539  137.3555  155.0268 C   0  0  0  0  0  0  0  0  0  0  0  0
  146.6241  136.2974  154.5970 C   0  0  0  0  0  0  0  0  0  0  0  0
  142.8467  135.6580  152.2325 H   0  0  0  0  0  0  0  0  0  0  0  0
  143.7230  137.1274  151.8122 H   0  0  0  0  0  0  0  0  0  0  0  0
  142.7928  137.0399  153.3186 H   0  0  0  0  0  0  0  0  0  0  0  0
  144.8991  137.6126  154.4966 H   0  0  0  0  0  0  0  0  0  0  0  0
  146.4538  137.0912  151.9239 H   0  0  0  0  0  0  0  0  0  0  0  0
  145.1828  138.2691  152.1458 H   0  0  0  0  0  0  0  0  0  0  0  0
  147.4333  139.3174  152.2591 H   0  0  0  0  0  0  0  0  0  0  0  0
  146.5758  139.5320  153.7734 H   0  0  0  0  0  0  0  0  0  0  0  0
  149.6691  139.4828  153.2747 H   0  0  0  0  0  0  0  0  0  0  0  0
  148.8354  139.9127  154.7450 H   0  0  0  0  0  0  0  0  0  0  0  0
  150.0086  137.9894  155.9295 H   0  0  0  0  0  0  0  0  0  0  0  0
  150.6458  137.4253  153.3428 H   0  0  0  0  0  0  0  0  0  0  0  0
  152.2236  138.8951  156.0492 H   0  0  0  0  0  0  0  0  0  0  0  0
  152.1133  139.6548  154.4878 H   0  0  0  0  0  0  0  0  0  0  0  0
  149.5979  141.5272  154.7096 H   0  0  0  0  0  0  0  0  0  0  0  0
  150.7487  143.7630  159.0918 H   0  0  0  0  0  0  0  0  0  0  0  0
  152.2565  142.2996  161.8511 H   0  0  0  0  0  0  0  0  0  0  0  0
  151.9672  143.8708  161.1073 H   0  0  0  0  0  0  0  0  0  0  0  0
  153.5800  143.1654  161.0566 H   0  0  0  0  0  0  0  0  0  0  0  0
  154.2095  139.4386  159.8799 H   0  0  0  0  0  0  0  0  0  0  0  0
  153.3815  140.1678  161.2529 H   0  0  0  0  0  0  0  0  0  0  0  0
  154.6831  141.0435  160.4319 H   0  0  0  0  0  0  0  0  0  0  0  0
  153.0045  139.4326  157.8694 H   0  0  0  0  0  0  0  0  0  0  0  0
  148.4755  136.8564  155.5383 H   0  0  0  0  0  0  0  0  0  0  0  0
  147.2061  138.0412  155.7481 H   0  0  0  0  0  0  0  0  0  0  0  0
  146.2659  135.7673  155.4791 H   0  0  0  0  0  0  0  0  0  0  0  0
  147.1089  135.5528  153.9639 H   0  0  0  0  0  0  0  0  0  0  0  0
  148.5477  137.4531  153.2089 H   0  0  0  0  0  0  0  0  0  0  0  0
  149.4838  143.3103  156.5520 H   0  0  0  0  0  0  0  0  0  0  0  0
  1  2  1  0  0  0  0
  1 24  1  0  0  0  0
  1 25  1  0  0  0  0
  1 26  1  0  0  0  0
  2  3  1  0  0  0  0
  3 23  1  0  0  0  0
  3  4  1  0  0  0  0
  3 27  1  0  0  0  0
  4  5  1  0  0  0  0
  4 28  1  0  0  0  0
  4 29  1  0  0  0  0
  5  6  1  0  0  0  0
  5 30  1  0  0  0  0
  5 31  1  0  0  0  0
  6  7  1  0  0  0  0
  6 22  1  0  0  0  0
  6 51  1  0  0  0  0
  7  8  1  0  0  0  0
  7 32  1  0  0  0  0
  7 33  1  0  0  0  0
  8  9  1  0  0  0  0
  8 10  1  0  0  0  0
  8 34  1  0  0  0  0
  9 35  1  0  0  0  0
 10 11  1  0  0  0  0
 10 36  1  0  0  0  0
 10 37  1  0  0  0  0
 11 21  1  0  0  0  0
 11 12  1  0  0  0  0
 12 13  2  0  0  0  0
 12 38  1  0  0  0  0
 13 14  1  0  0  0  0
 13 52  1  0  0  0  0
 14 21  2  0  0  0  0
 14 15  1  0  0  0  0
 15 16  2  0  0  0  0
 15 39  1  0  0  0  0
 16 17  1  0  0  0  0
 16 18  1  0  0  0  0
 17 40  1  0  0  0  0
 17 41  1  0  0  0  0
 17 42  1  0  0  0  0
 18 19  1  0  0  0  0
 18 20  2  0  0  0  0
 19 43  1  0  0  0  0
 19 44  1  0  0  0  0
 19 45  1  0  0  0  0
 20 21  1  0  0  0  0
 20 46  1  0  0  0  0
 22 23  1  0  0  0  0
 22 47  1  0  0  0  0
 22 48  1  0  0  0  0
 23 49  1  0  0  0  0
 23 50  1  0  0  0  0
M  CHG  1   6   1
M  CHG  1  13   1
M  END
> <s_m_source_file>
AV-unprocessed.smi

> <i_m_source_file_index>
1605

> <i_lp_mmshare_version>
43012

> <i_f3d_flags>
0

> <s_epik_input>
W0NIM11PW0NIXTFbQ0gyXVtDSDJdTihbQ0gyXVtDSDJdMSlbQ0gyXVtDQEhdKFtPSF0pW0NIMl1uKFtjSF1uMiljKGMyMylbY0hdYyhbQ0gzXSljKFtjSF0zKVtDSDNd

> <s_epik_cmdline>
J2VwaWtfcHl0aG9uJywgJy1waCcsICc3LjAnLCAnLXRuJywgJzgnLCAnLW1hJywgJzIwMCcsICctbWV0YWxfYmluZGluZycsICctaW1hZScsICc8aW5maWxlLm1hZT4nLCAnLW9tYWUnLCAnPG91dGZpbGUubWFlPic=

> <r_epik_Ionization_Penalty>
1.19848

> <r_epik_Ionization_Penalty_Charging>
1.19848

> <r_epik_Ionization_Penalty_Neutral>
1.67134e-06

> <r_epik_State_Penalty>
1.2782

> <r_epik_Charging_Adjusted_Penalty>
2.47668

> <i_epik_Tot_Q>
2

> <i_epik_Tot_abs_Q>
2

> <r_epik_Metal_State_Penalty>
5.29544

> <b_epik_Metal_Only>
0

> <s_lp_Force_Field>
OPLS_2005

> <r_lp_Energy>
33.6993

> <b_lp_Chiralities_Consistent>
1

> <s_lp_Variant>
AV-unprocessed.smi:1605-6

> <Gold.Version>
5.8.1

> <Gold.Id.Protein>
6NUR|6NUR_protein|mol2

> <Gold.PLP.Fitness>
56.1175

> <Gold.PLP.PLP>
-43.9985

> <Gold.PLP.part.hbond>
-3.4532

> <Gold.PLP.part.metal>
0.0000

> <Gold.PLP.part.buried>
-3.7416

> <Gold.PLP.part.nonpolar>
-36.8276

> <Gold.PLP.part.repulsive>
0.1659

> <Gold.PLP.ligand.clash>
0.0000

> <Gold.PLP.ligand.torsion>
0.0711

> <Gold.PLP.Chemscore.Hbond>
4.0677

> <Gold.PLP.Chemscore.CHOScore>
0.0000

> <Gold.PLP.Chemscore.Metal>
0.0000

> <Gold.Chemscore.Hbonds>
donor molecule, donor type, donor heavy atom, donor atom, acceptor molecule, acceptor atom, score
      L1  H     6    51       P1  7948  2.00
      L1  H     9    35       P1  7949  0.03
      L1  H    13    52       P1  8028  1.98

> <Gold.PLP.Chemscore.Internal.Correction>
0.0580

> <Gold.Rescore>
     Score         DG    S(hbond)    S(metal)    S(lipo)     H(rot)  DE(clash)    DE(int)     intcor
     18.50     -19.71       1.99        0.00     114.82       2.28       0.02       1.20       ----

> <Gold.Chemscore.Fitness>
18.5013

> <Gold.Chemscore.DG>
-19.7133

> <Gold.Chemscore.ZeroCoef>
-5.4800

> <Gold.Chemscore.Hbond>
1.9899

> <Gold.Chemscore.Metal>
0.0000

> <Gold.Chemscore.Lipo>
114.8188

> <Gold.Chemscore.Internal_Hbond>
0.0000

> <Gold.Chemscore.DEClash>
0.0154

> <Gold.Chemscore.DEInternal>
1.1966

> <Gold.Chemscore.Rot>
2.2839

> <Gold.Chemscore.Internal.Correction>
   9.000000E+99

> <Gold.Chemscore.Hbonds>
donor molecule, donor type, donor heavy atom, donor atom, acceptor molecule, acceptor atom, score
      L1  H     6    51       P1  7948  1.00
      L1  H    13    52       P1  8028  0.94

> <Gold.Chemscore.Hbond.Weighted>
-6.6464

> <Gold.Chemscore.Metal.Weighted>
-0.0000

> <Gold.Chemscore.Lipo.Weighted>
-13.4338

> <Gold.Chemscore.Internal_Hbond.Weighted>
0.0000

> <Gold.Chemscore.DEClash.Weighted>
0.0154

> <Gold.Chemscore.DEInternal.Weighted>
1.1966

> <Gold.Chemscore.Rot.Weighted>
5.8469

> <Gold.Chemscore.Internal.Correction.Weighted>
   9.000000E+99

> <Gold.Protein.RotatedTorsions>
[ 6907 6896 6895 6894 ] final   28.53 input  -60.11 | X-H torsion
[ 7974 7965 7964 7962 ] final -124.86 input  175.53 | X-H torsion
[ 8008 7997 7996 7995 ] final   58.42 input   59.86 | X-H torsion
[ 10167 10162 10161 10158 ] final  121.16 input  -65.29 | X-H torsion
[ 10718 10713 10712 10709 ] final  -15.60 input   66.30 | X-H torsion
[ 10763 10752 10751 10750 ] final   48.59 input  -60.55 | X-H torsion
[ 11005 11000 10999 10996 ] final -151.56 input  -57.11 | X-H torsion

> <Gold.Protein.ActiveResidues>
 VAL166  LYS551  ARG553  GLY616  TRP617  ASP618  TYR619  PRO620  LYS621  CYS622 
 ASP623  PHE694  ASN695  SER759  ASP760  ASP761  ALA762  ILE779  LEU786  VAL792 
 PHE793  MET794  SER795  GLU796  ALA797  LYS798  CYS799  TRP800  GLU811  SER814 

> <Gold.Protein.RotatedAtoms>
  152.0183  134.9837  160.0569 H   0  0  0  0  0  0  0  0  0  0  0  0  # atno 6907 bound_to 6896
  152.1362  133.4432  159.4753 H   0  0  0  0  0  0  0  0  0  0  0  0  # atno 6908 bound_to 6896
  150.6860  134.2279  159.4466 H   0  0  0  0  0  0  0  0  0  0  0  0  # atno 6909 bound_to 6896
  145.0036  140.7843  143.4481 H   0  0  0  0  0  0  0  0  0  0  0  0  # atno 7974 bound_to 7965
  155.5497  140.3486  155.4465 H   0  0  0  0  0  0  0  0  0  0  0  0  # atno 8008 bound_to 7997
  156.0592  140.1336  156.9987 H   0  0  0  0  0  0  0  0  0  0  0  0  # atno 8009 bound_to 7997
  154.4471  140.0989  156.6476 H   0  0  0  0  0  0  0  0  0  0  0  0  # atno 8010 bound_to 7997
  139.5937  144.7034  151.3228 H   0  0  0  0  0  0  0  0  0  0  0  0  # atno 10167 bound_to 10162
  156.5994  130.4820  149.6246 H   0  0  0  0  0  0  0  0  0  0  0  0  # atno 10718 bound_to 10713
  152.9791  135.5939  154.3951 H   0  0  0  0  0  0  0  0  0  0  0  0  # atno 10763 bound_to 10752
  154.3602  135.2767  155.2326 H   0  0  0  0  0  0  0  0  0  0  0  0  # atno 10764 bound_to 10752
  154.4326  135.6032  153.6133 H   0  0  0  0  0  0  0  0  0  0  0  0  # atno 10765 bound_to 10752
  140.7283  134.3650  157.5171 H   0  0  0  0  0  0  0  0  0  0  0  0  # atno 11005 bound_to 11000
  145.2119  139.2201  143.5139 LP  0  0  0  0  0  0  0  0  0  0  0  0  # atno 17320 bound_to 7965
  146.3457  140.1958  142.8589 LP  0  0  0  0  0  0  0  0  0  0  0  0  # atno 17321 bound_to 7965
  140.7194  143.7177  150.7720 LP  0  0  0  0  0  0  0  0  0  0  0  0  # atno 17342 bound_to 10162
  140.0739  143.5034  152.2566 LP  0  0  0  0  0  0  0  0  0  0  0  0  # atno 17343 bound_to 10162
  156.2482  130.6891  151.1620 LP  0  0  0  0  0  0  0  0  0  0  0  0  # atno 17370 bound_to 10713
  157.7283  131.0632  150.5825 LP  0  0  0  0  0  0  0  0  0  0  0  0  # atno 17371 bound_to 10713
  139.8832  134.9001  156.2782 LP  0  0  0  0  0  0  0  0  0  0  0  0  # atno 17394 bound_to 11000
  140.9943  133.7189  156.0862 LP  0  0  0  0  0  0  0  0  0  0  0  0  # atno 17395 bound_to 11000

$$$$
