AV-unprocessed.smi:1284|AV-procd|sdf|5365|dock8
  -GOLD-   22720 4503D 1   1.00000     0.00000
 Structure written by MMmdl.
 40 42  0  0  0  0  0  0  0  0  2 V2000
  151.0035  137.2685  156.9613 N   0  0  0  0  0  0  0  0  0  0  0  0
  151.3076  136.9404  155.7030 C   0  0  0  0  0  0  0  0  0  0  0  0
  151.3223  135.7745  155.3130 O   0  0  0  0  0  0  0  0  0  0  0  0
  151.6482  138.0810  154.7411 C   0  0  0  0  0  0  0  0  0  0  0  0
  150.4513  138.9510  154.4958 C   0  0  0  0  0  0  0  0  0  0  0  0
  149.3725  138.6205  153.7274 N   0  3  0  0  0  0  0  0  0  0  0  0
  148.4533  139.6689  153.7198 C   0  0  0  0  0  0  0  0  0  0  0  0
  147.2241  139.7988  153.0807 C   0  0  0  0  0  0  0  0  0  0  0  0
  146.5323  141.0115  153.2810 C   0  0  0  0  0  0  0  0  0  0  0  0
  147.0656  142.0359  154.0900 C   0  0  0  0  0  0  0  0  0  0  0  0
  148.3119  141.8911  154.7345 C   0  0  0  0  0  0  0  0  0  0  0  0
  148.9893  140.6888  154.5314 C   0  0  0  0  0  0  0  0  0  0  0  0
  150.2156  140.2008  154.9973 N   0  0  0  0  0  0  0  0  0  0  0  0
  151.0159  141.0461  155.8992 C   0  0  0  0  0  0  0  0  0  0  0  0
  150.6088  140.9071  157.3794 C   0  0  2  0  0  0  0  0  0  0  0  0
  149.2055  141.0285  157.5066 O   0  0  0  0  0  0  0  0  0  0  0  0
  151.3545  141.9061  158.2494 C   0  0  0  0  0  0  0  0  0  0  0  0
  151.2272  143.2896  157.9997 C   0  0  0  0  0  0  0  0  0  0  0  0
  151.9072  144.2224  158.8071 C   0  0  0  0  0  0  0  0  0  0  0  0
  152.7167  143.7772  159.8696 C   0  0  0  0  0  0  0  0  0  0  0  0
  152.8448  142.3987  160.1259 C   0  0  0  0  0  0  0  0  0  0  0  0
  152.1647  141.4655  159.3196 C   0  0  0  0  0  0  0  0  0  0  0  0
  150.7791  136.5440  157.6283 H   0  0  0  0  0  0  0  0  0  0  0  0
  151.0043  138.2381  157.2458 H   0  0  0  0  0  0  0  0  0  0  0  0
  152.4480  138.6877  155.1670 H   0  0  0  0  0  0  0  0  0  0  0  0
  152.0270  137.6729  153.8044 H   0  0  0  0  0  0  0  0  0  0  0  0
  146.8144  139.0153  152.4601 H   0  0  0  0  0  0  0  0  0  0  0  0
  145.5740  141.1590  152.8041 H   0  0  0  0  0  0  0  0  0  0  0  0
  146.5075  142.9519  154.2193 H   0  0  0  0  0  0  0  0  0  0  0  0
  148.7116  142.6825  155.3511 H   0  0  0  0  0  0  0  0  0  0  0  0
  152.0676  140.7908  155.7637 H   0  0  0  0  0  0  0  0  0  0  0  0
  150.9192  142.0805  155.5701 H   0  0  0  0  0  0  0  0  0  0  0  0
  150.8625  139.9036  157.7228 H   0  0  0  0  0  0  0  0  0  0  0  0
  148.9538  141.8911  157.2126 H   0  0  0  0  0  0  0  0  0  0  0  0
  150.6064  143.6418  157.1889 H   0  0  0  0  0  0  0  0  0  0  0  0
  151.8073  145.2799  158.6116 H   0  0  0  0  0  0  0  0  0  0  0  0
  153.2378  144.4927  160.4885 H   0  0  0  0  0  0  0  0  0  0  0  0
  153.4642  142.0569  160.9420 H   0  0  0  0  0  0  0  0  0  0  0  0
  152.2655  140.4103  159.5273 H   0  0  0  0  0  0  0  0  0  0  0  0
  149.2817  137.7401  153.2363 H   0  0  0  0  0  0  0  0  0  0  0  0
  1  2  1  0  0  0  0
  1 23  1  0  0  0  0
  1 24  1  0  0  0  0
  2  3  2  0  0  0  0
  2  4  1  0  0  0  0
  4  5  1  0  0  0  0
  4 25  1  0  0  0  0
  4 26  1  0  0  0  0
  5 13  1  0  0  0  0
  5  6  2  0  0  0  0
  6  7  1  0  0  0  0
  6 40  1  0  0  0  0
  7 12  2  0  0  0  0
  7  8  1  0  0  0  0
  8  9  2  0  0  0  0
  8 27  1  0  0  0  0
  9 10  1  0  0  0  0
  9 28  1  0  0  0  0
 10 11  2  0  0  0  0
 10 29  1  0  0  0  0
 11 12  1  0  0  0  0
 11 30  1  0  0  0  0
 12 13  1  0  0  0  0
 13 14  1  0  0  0  0
 14 15  1  0  0  0  0
 14 31  1  0  0  0  0
 14 32  1  0  0  0  0
 15 16  1  0  0  0  0
 15 17  1  0  0  0  0
 15 33  1  0  0  0  0
 16 34  1  0  0  0  0
 17 22  1  0  0  0  0
 17 18  2  0  0  0  0
 18 19  1  0  0  0  0
 18 35  1  0  0  0  0
 19 20  2  0  0  0  0
 19 36  1  0  0  0  0
 20 21  1  0  0  0  0
 20 37  1  0  0  0  0
 21 22  2  0  0  0  0
 21 38  1  0  0  0  0
 22 39  1  0  0  0  0
M  CHG  1   6   1
M  END
> <s_m_source_file>
AV-unprocessed.smi

> <i_m_source_file_index>
1284

> <i_lp_mmshare_version>
43012

> <i_f3d_flags>
0

> <s_epik_input>
W2NIXTFbY0hdW2NIXVtjSF1jKGMxMiluKGMobjIpW0NIMl1DKD1PKVtOSDJdKVtDSDJdW0NASF0oW09IXSljM1tjSF1bY0hdW2NIXVtjSF1bY0hdMw==

> <s_epik_cmdline>
J2VwaWtfcHl0aG9uJywgJy1waCcsICc3LjAnLCAnLXRuJywgJzgnLCAnLW1hJywgJzIwMCcsICctbWV0YWxfYmluZGluZycsICctaW1hZScsICc8aW5maWxlLm1hZT4nLCAnLW9tYWUnLCAnPG91dGZpbGUubWFlPic=

> <r_epik_Ionization_Penalty>
1.66646

> <r_epik_Ionization_Penalty_Charging>
1.66645

> <r_epik_Ionization_Penalty_Neutral>
1.67657e-06

> <r_epik_State_Penalty>
1.76975

> <r_epik_Charging_Adjusted_Penalty>
3.43621

> <i_epik_Tot_Q>
1

> <i_epik_Tot_abs_Q>
1

> <r_epik_Metal_State_Penalty>
1.80493

> <b_epik_Metal_Only>
0

> <s_lp_Force_Field>
OPLS_2005

> <r_lp_Energy>
13.978

> <b_lp_Chiralities_Consistent>
1

> <s_lp_Variant>
AV-unprocessed.smi:1284-3

> <Gold.Version>
5.8.1

> <Gold.Id.Protein>
6NUR|6NUR_protein|mol2

> <Gold.PLP.Fitness>
55.3721

> <Gold.PLP.PLP>
-47.5967

> <Gold.PLP.part.hbond>
-3.0000

> <Gold.PLP.part.metal>
0.0000

> <Gold.PLP.part.buried>
2.0970

> <Gold.PLP.part.nonpolar>
-47.0797

> <Gold.PLP.part.repulsive>
0.2361

> <Gold.PLP.ligand.clash>
0.0000

> <Gold.PLP.ligand.torsion>
0.6275

> <Gold.PLP.Chemscore.Hbond>
3.0000

> <Gold.PLP.Chemscore.CHOScore>
0.0000

> <Gold.PLP.Chemscore.Metal>
0.0000

> <Gold.Chemscore.Hbonds>
donor molecule, donor type, donor heavy atom, donor atom, acceptor molecule, acceptor atom, score
      L1  H     6    40       P1  7948  1.95
      P1  H 10752 10764       L1     3  1.00

> <Gold.PLP.Chemscore.Internal.Correction>
0.0304

> <Gold.Rescore>
     Score         DG    S(hbond)    S(metal)    S(lipo)     H(rot)  DE(clash)    DE(int)     intcor
     16.68     -18.78       1.77        0.00     127.13       2.92       1.32       0.79       ----

> <Gold.Chemscore.Fitness>
16.6782

> <Gold.Chemscore.DG>
-18.7849

> <Gold.Chemscore.ZeroCoef>
-5.4800

> <Gold.Chemscore.Hbond>
1.7702

> <Gold.Chemscore.Metal>
0.0000

> <Gold.Chemscore.Lipo>
127.1252

> <Gold.Chemscore.Internal_Hbond>
0.0000

> <Gold.Chemscore.DEClash>
1.3166

> <Gold.Chemscore.DEInternal>
0.7901

> <Gold.Chemscore.Rot>
2.9223

> <Gold.Chemscore.Internal.Correction>
   9.000000E+99

> <Gold.Chemscore.Hbonds>
donor molecule, donor type, donor heavy atom, donor atom, acceptor molecule, acceptor atom, score
      L1  H     6    40       P1  7948  0.91
      P1  H 10752 10764       L1     3  0.45

> <Gold.Chemscore.Hbond.Weighted>
-5.9124

> <Gold.Chemscore.Metal.Weighted>
-0.0000

> <Gold.Chemscore.Lipo.Weighted>
-14.8736

> <Gold.Chemscore.Internal_Hbond.Weighted>
0.0000

> <Gold.Chemscore.DEClash.Weighted>
1.3166

> <Gold.Chemscore.DEInternal.Weighted>
0.7901

> <Gold.Chemscore.Rot.Weighted>
7.4812

> <Gold.Chemscore.Internal.Correction.Weighted>
   9.000000E+99

> <Gold.Protein.RotatedTorsions>
[ 6907 6896 6895 6894 ] final   32.21 input  -60.11 | X-H torsion
[ 7974 7965 7964 7962 ] final -145.13 input  175.53 | X-H torsion
[ 8008 7997 7996 7995 ] final  -66.07 input   59.86 | X-H torsion
[ 10167 10162 10161 10158 ] final  111.61 input  -65.29 | X-H torsion
[ 10718 10713 10712 10709 ] final   82.35 input   66.30 | X-H torsion
[ 10763 10752 10751 10750 ] final  -51.42 input  -60.55 | X-H torsion
[ 11005 11000 10999 10996 ] final -151.06 input  -57.11 | X-H torsion

> <Gold.Protein.ActiveResidues>
 VAL166  LYS551  ARG553  GLY616  TRP617  ASP618  TYR619  PRO620  LYS621  CYS622 
 ASP623  PHE694  ASN695  SER759  ASP760  ASP761  ALA762  ILE779  LEU786  VAL792 
 PHE793  MET794  SER795  GLU796  ALA797  LYS798  CYS799  TRP800  GLU811  SER814 

> <Gold.Protein.RotatedAtoms>
  152.0712  134.9532  160.0574 H   0  0  0  0  0  0  0  0  0  0  0  0  # atno 6907 bound_to 6896
  152.0858  133.4170  159.4529 H   0  0  0  0  0  0  0  0  0  0  0  0  # atno 6908 bound_to 6896
  150.6836  134.2849  159.4686 H   0  0  0  0  0  0  0  0  0  0  0  0  # atno 6909 bound_to 6896
  144.8249  140.5623  143.5554 H   0  0  0  0  0  0  0  0  0  0  0  0  # atno 7974 bound_to 7965
  154.4711  140.0920  156.7147 H   0  0  0  0  0  0  0  0  0  0  0  0  # atno 8008 bound_to 7997
  155.4721  140.3465  155.4309 H   0  0  0  0  0  0  0  0  0  0  0  0  # atno 8009 bound_to 7997
  156.1041  140.1430  156.9417 H   0  0  0  0  0  0  0  0  0  0  0  0  # atno 8010 bound_to 7997
  139.6598  144.7129  151.1887 H   0  0  0  0  0  0  0  0  0  0  0  0  # atno 10167 bound_to 10162
  157.6855  131.0044  150.2361 H   0  0  0  0  0  0  0  0  0  0  0  0  # atno 10718 bound_to 10713
  154.1263  135.6527  153.4913 H   0  0  0  0  0  0  0  0  0  0  0  0  # atno 10763 bound_to 10752
  153.0209  135.5282  154.7046 H   0  0  0  0  0  0  0  0  0  0  0  0  # atno 10764 bound_to 10752
  154.6268  135.2971  155.0233 H   0  0  0  0  0  0  0  0  0  0  0  0  # atno 10765 bound_to 10752
  140.7336  134.3594  157.5162 H   0  0  0  0  0  0  0  0  0  0  0  0  # atno 11005 bound_to 11000
  145.5023  139.1483  143.3650 LP  0  0  0  0  0  0  0  0  0  0  0  0  # atno 17320 bound_to 7965
  146.2554  140.5163  142.8876 LP  0  0  0  0  0  0  0  0  0  0  0  0  # atno 17321 bound_to 7965
  140.7575  143.6013  150.8697 LP  0  0  0  0  0  0  0  0  0  0  0  0  # atno 17342 bound_to 10162
  139.9669  143.6101  152.2985 LP  0  0  0  0  0  0  0  0  0  0  0  0  # atno 17343 bound_to 10162
  156.2984  130.3755  149.7773 LP  0  0  0  0  0  0  0  0  0  0  0  0  # atno 17370 bound_to 10713
  156.5411  130.8300  151.3269 LP  0  0  0  0  0  0  0  0  0  0  0  0  # atno 17371 bound_to 10713
  139.8821  134.9034  156.2855 LP  0  0  0  0  0  0  0  0  0  0  0  0  # atno 17394 bound_to 11000
  140.9899  133.7215  156.0799 LP  0  0  0  0  0  0  0  0  0  0  0  0  # atno 17395 bound_to 11000

$$$$
