#       Name:                AV-unprocessed.smi:622
#       Creating user name   scv26
#       Creation time:       Fri Mar 27 00:01:16 2020


#       File generated by GOLD software.
#

@<TRIPOS>MOLECULE
AV-unprocessed.smi:622
    39    40     1
SMALL
NO_CHARGES


@<TRIPOS>ATOM
      1 ****         1.7662   1.0681  -0.0946 O.2            1 S1                 0.0000
      2 ****         1.3645  -0.0915  -0.0001 C.2            1 S1                 0.0000
      3 ****         2.1488  -1.1826   0.0323 N.am           1 S1                 0.0000
      4 ****         3.5680  -1.2504   0.0264 C.ar           1 S1                 0.0000
      5 ****         4.4155  -0.1980   0.4491 C.ar           1 S1                 0.0000
      6 ****         5.8097  -0.3935   0.4167 C.ar           1 S1                 0.0000
      7 ****         6.3047  -1.6341  -0.0298 C.ar           1 S1                 0.0000
      8 ****         5.5084  -2.6509  -0.4217 N.ar           1 S1                 0.0000
      9 ****         4.1726  -2.4567  -0.3863 C.ar           1 S1                 0.0000
     10 ****         0.0680  -0.4290   0.0633 N.am           1 S1                 0.0000
     11 ****        -1.0654   0.4943   0.0476 C.3            1 S1                 0.0000
     12 ****        -1.8869   0.2723   1.3317 C.3            1 S1                 0.0000
     13 ****        -3.1548   1.1345   1.4584 C.3            1 S1                 0.0000
     14 ****        -4.2914   0.6581   0.5397 C.3            1 S1                 0.0000
     15 ****        -4.2642   1.2208  -0.8921 C.3            1 S1                 0.0000
     16 ****        -2.8774   1.4127  -1.5306 C.3            1 S1                 0.0000
     17 ****        -1.8606   0.2914  -1.2594 C.3            1 S1                 0.0000
     18 ****         1.6731  -2.0728   0.0126 H              1 S1                 0.0000
     19 ****         4.0270   0.7419   0.8094 H              1 S1                 0.0000
     20 ****         6.4845   0.3886   0.7317 H              1 S1                 0.0000
     21 ****         7.3685  -1.8167  -0.0675 H              1 S1                 0.0000
     22 ****         3.5666  -3.2930  -0.7031 H              1 S1                 0.0000
     23 ****        -0.1574  -1.4105   0.1327 H              1 S1                 0.0000
     24 ****        -0.6979   1.5219   0.0638 H              1 S1                 0.0000
     25 ****        -2.1545  -0.7813   1.4251 H              1 S1                 0.0000
     26 ****        -1.2446   0.4876   2.1869 H              1 S1                 0.0000
     27 ****        -3.5035   1.0556   2.4887 H              1 S1                 0.0000
     28 ****        -2.9343   2.1907   1.3000 H              1 S1                 0.0000
     29 ****        -4.2932  -0.4319   0.5023 H              1 S1                 0.0000
     30 ****        -5.2479   0.9293   0.9881 H              1 S1                 0.0000
     31 ****        -4.8618   0.5640  -1.5255 H              1 S1                 0.0000
     32 ****        -4.7770   2.1832  -0.9058 H              1 S1                 0.0000
     33 ****        -3.0192   1.5064  -2.6078 H              1 S1                 0.0000
     34 ****        -2.4570   2.3686  -1.2160 H              1 S1                 0.0000
     35 ****        -1.1520   0.2872  -2.0892 H              1 S1                 0.0000
     36 ****        -2.3459  -0.6853  -1.2783 H              1 S1                 0.0000
     37 ****         2.7469   1.2542  -0.1543 LP             1 S1                 0.0000
     38 ****         1.1119   1.8241  -0.1116 LP             1 S1                 0.0000
     39 ****         5.8954  -3.5204  -0.7285 LP             1 S1                 0.0000
@<TRIPOS>BOND
    1    1    2 2     
    2    2    3 am    
    3    2   10 am    
    4    3    4 1     
    5    3   18 1     
    6    4    9 ar    
    7    4    5 ar    
    8    5    6 ar    
    9    5   19 1     
   10    6    7 ar    
   11    6   20 1     
   12    7    8 ar    
   13    7   21 1     
   14    8    9 ar    
   15    9   22 1     
   16   10   11 1     
   17   10   23 1     
   18   11   17 1     
   19   11   12 1     
   20   11   24 1     
   21   12   13 1     
   22   12   25 1     
   23   12   26 1     
   24   13   14 1     
   25   13   27 1     
   26   13   28 1     
   27   14   15 1     
   28   14   29 1     
   29   14   30 1     
   30   15   16 1     
   31   15   31 1     
   32   15   32 1     
   33   16   17 1     
   34   16   33 1     
   35   16   34 1     
   36   17   35 1     
   37   17   36 1     
   38    1   37 1     
   39    1   38 1     
   40    8   39 1     
@<TRIPOS>SUBSTRUCTURE
      1 S1             1
@<TRIPOS>SET
LONE_PAIRS      STATIC     ATOMS    <user>   **** ""
3 37 38 39
DONOR_HYDROGENS      STATIC     ATOMS    <user>   **** ""
2 18 23
ATOM$BLUE        STATIC     ATOMS    COLORGROUP SYSTEM
3 37 38 39
ATOM$RED        STATIC     ATOMS    COLORGROUP SYSTEM
2 18 23
