AV-unprocessed.smi:3042|AV-procd|sdf|11602|dock1
  -GOLD-   2272016583D 1   1.00000     0.00000
 Structure written by MMmdl.
 32 33  0  0  0  0  0  0  0  0  1 V2000
  148.2733  142.2501  157.0638 N   0  0  0  0  0  0  0  0  0  0  0  0
  149.2390  141.1394  157.0990 C   0  0  0  0  0  0  0  0  0  0  0  0
  150.6473  141.5381  156.5895 C   0  0  1  0  0  0  0  0  0  0  0  0
  151.3004  142.4647  157.6143 C   0  0  0  0  0  0  0  0  0  0  0  0
  151.7243  141.9698  158.8658 C   0  0  0  0  0  0  0  0  0  0  0  0
  152.3241  142.8558  159.7812 C   0  0  0  0  0  0  0  0  0  0  0  0
  152.4780  144.2051  159.4056 C   0  0  0  0  0  0  0  0  0  0  0  0
  152.0785  144.6925  158.2116 N   0  0  0  0  0  0  0  0  0  0  0  0
  151.5043  143.8358  157.3395 C   0  0  0  0  0  0  0  0  0  0  0  0
  151.5226  140.3933  156.2613 N   0  0  0  0  0  0  0  0  0  0  0  0
  151.0985  139.7149  155.0310 C   0  0  0  0  0  0  0  0  0  0  0  0
  151.9966  138.5172  154.6776 C   0  0  0  0  0  0  0  0  0  0  0  0
  152.0127  137.5986  155.7626 O   0  0  0  0  0  0  0  0  0  0  0  0
  152.4769  138.1954  156.9665 C   0  0  0  0  0  0  0  0  0  0  0  0
  151.5834  139.3938  157.3312 C   0  0  0  0  0  0  0  0  0  0  0  0
  148.6588  143.0412  156.5502 H   0  0  0  0  0  0  0  0  0  0  0  0
  147.4221  141.9665  156.5807 H   0  0  0  0  0  0  0  0  0  0  0  0
  149.3118  140.7518  158.1155 H   0  0  0  0  0  0  0  0  0  0  0  0
  148.8329  140.3304  156.4942 H   0  0  0  0  0  0  0  0  0  0  0  0
  150.5025  142.1191  155.6770 H   0  0  0  0  0  0  0  0  0  0  0  0
  151.5924  140.9290  159.1229 H   0  0  0  0  0  0  0  0  0  0  0  0
  152.6592  142.5095  160.7477 H   0  0  0  0  0  0  0  0  0  0  0  0
  152.9351  144.9116  160.0827 H   0  0  0  0  0  0  0  0  0  0  0  0
  151.1966  144.2581  156.3942 H   0  0  0  0  0  0  0  0  0  0  0  0
  150.0681  139.3717  155.1363 H   0  0  0  0  0  0  0  0  0  0  0  0
  151.1106  140.4046  154.1874 H   0  0  0  0  0  0  0  0  0  0  0  0
  151.6195  138.0104  153.7893 H   0  0  0  0  0  0  0  0  0  0  0  0
  153.0120  138.8470  154.4523 H   0  0  0  0  0  0  0  0  0  0  0  0
  152.4562  137.4515  157.7630 H   0  0  0  0  0  0  0  0  0  0  0  0
  153.5152  138.5097  156.8490 H   0  0  0  0  0  0  0  0  0  0  0  0
  151.9862  139.8311  158.2430 H   0  0  0  0  0  0  0  0  0  0  0  0
  150.5785  139.0393  157.5649 H   0  0  0  0  0  0  0  0  0  0  0  0
  1  2  1  0  0  0  0
  1 16  1  0  0  0  0
  1 17  1  0  0  0  0
  2  3  1  0  0  0  0
  2 18  1  0  0  0  0
  2 19  1  0  0  0  0
  3  4  1  0  0  0  0
  3 10  1  0  0  0  0
  3 20  1  0  0  0  0
  4  9  1  0  0  0  0
  4  5  2  0  0  0  0
  5  6  1  0  0  0  0
  5 21  1  0  0  0  0
  6  7  2  0  0  0  0
  6 22  1  0  0  0  0
  7  8  1  0  0  0  0
  7 23  1  0  0  0  0
  8  9  2  0  0  0  0
  9 24  1  0  0  0  0
 10 15  1  0  0  0  0
 10 11  1  0  0  0  0
 11 12  1  0  0  0  0
 11 25  1  0  0  0  0
 11 26  1  0  0  0  0
 12 13  1  0  0  0  0
 12 27  1  0  0  0  0
 12 28  1  0  0  0  0
 13 14  1  0  0  0  0
 14 15  1  0  0  0  0
 14 29  1  0  0  0  0
 14 30  1  0  0  0  0
 15 31  1  0  0  0  0
 15 32  1  0  0  0  0
M  END
> <s_m_source_file>
AV-unprocessed.smi

> <i_m_source_file_index>
3042

> <i_lp_mmshare_version>
43012

> <i_f3d_flags>
0

> <s_epik_input>
W0NIMl0xW0NIMl1PW0NIMl1bQ0gyXU4xW0NASF0oW0NIMl1bTkgyXSljMltjSF1bY0hdW2NIXW5bY0hdMg==

> <s_epik_cmdline>
J2VwaWtfcHl0aG9uJywgJy1waCcsICc3LjAnLCAnLXRuJywgJzgnLCAnLW1hJywgJzIwMCcsICctbWV0YWxfYmluZGluZycsICctaW1hZScsICc8aW5maWxlLm1hZT4nLCAnLW9tYWUnLCAnPG91dGZpbGUubWFlPic=

> <r_epik_Ionization_Penalty>
2.62143

> <r_epik_Ionization_Penalty_Charging>
0

> <r_epik_Ionization_Penalty_Neutral>
2.62143

> <r_epik_State_Penalty>
2.72742

> <r_epik_Charging_Adjusted_Penalty>
2.72742

> <i_epik_Tot_Q>
0

> <i_epik_Tot_abs_Q>
0

> <r_epik_Metal_State_Penalty>
2.72081

> <b_epik_Metal_Only>
0

> <s_lp_Force_Field>
OPLS_2005

> <r_lp_Energy>
27.4396

> <b_lp_Chiralities_Consistent>
1

> <s_lp_Variant>
AV-unprocessed.smi:3042-4

> <Gold.Version>
5.8.1

> <Gold.Id.Protein>
6NUR|6NUR_protein|mol2

> <Gold.PLP.Fitness>
35.3097

> <Gold.PLP.PLP>
-30.0048

> <Gold.PLP.part.hbond>
-1.0000

> <Gold.PLP.part.metal>
0.0000

> <Gold.PLP.part.buried>
-3.5817

> <Gold.PLP.part.nonpolar>
-25.8710

> <Gold.PLP.part.repulsive>
0.0825

> <Gold.PLP.ligand.clash>
0.0000

> <Gold.PLP.ligand.torsion>
0.3683

> <Gold.PLP.Chemscore.Hbond>
1.0000

> <Gold.PLP.Chemscore.CHOScore>
0.9871

> <Gold.PLP.Chemscore.Metal>
0.0000

> <Gold.Chemscore.Hbonds>
donor molecule, donor type, donor heavy atom, donor atom, acceptor molecule, acceptor atom, score
      L1  H     1    16       P1  8028  1.00
      L1  C     9    24       P1  8028  0.95

> <Gold.PLP.Chemscore.Internal.Correction>
0.0803

> <Gold.Rescore>
     Score         DG    S(hbond)    S(metal)    S(lipo)     H(rot)  DE(clash)    DE(int)     intcor
     14.84     -15.42       0.93        0.00      89.70       1.44       0.14       0.44       ----

> <Gold.Chemscore.Fitness>
14.8352

> <Gold.Chemscore.DG>
-15.4195

> <Gold.Chemscore.ZeroCoef>
-5.4800

> <Gold.Chemscore.Hbond>
0.9344

> <Gold.Chemscore.Metal>
0.0000

> <Gold.Chemscore.Lipo>
89.6972

> <Gold.Chemscore.Internal_Hbond>
0.0000

> <Gold.Chemscore.DEClash>
0.1401

> <Gold.Chemscore.DEInternal>
0.4442

> <Gold.Chemscore.Rot>
1.4359

> <Gold.Chemscore.Internal.Correction>
   9.000000E+99

> <Gold.Chemscore.Hbonds>
donor molecule, donor type, donor heavy atom, donor atom, acceptor molecule, acceptor atom, score
      L1  H     1    16       P1  8028  0.88
      P1  H 10752 10763       L1    13  0.01

> <Gold.Chemscore.Hbond.Weighted>
-3.1208

> <Gold.Chemscore.Metal.Weighted>
-0.0000

> <Gold.Chemscore.Lipo.Weighted>
-10.4946

> <Gold.Chemscore.Internal_Hbond.Weighted>
0.0000

> <Gold.Chemscore.DEClash.Weighted>
0.1401

> <Gold.Chemscore.DEInternal.Weighted>
0.4442

> <Gold.Chemscore.Rot.Weighted>
3.6759

> <Gold.Chemscore.Internal.Correction.Weighted>
   9.000000E+99

> <Gold.Protein.RotatedTorsions>
[ 6907 6896 6895 6894 ] final  159.56 input  -60.11 | X-H torsion
[ 7974 7965 7964 7962 ] final  122.57 input  175.53 | X-H torsion
[ 8008 7997 7996 7995 ] final   94.32 input   59.86 | X-H torsion
[ 10167 10162 10161 10158 ] final  106.61 input  -65.29 | X-H torsion
[ 10718 10713 10712 10709 ] final  -74.68 input   66.30 | X-H torsion
[ 10763 10752 10751 10750 ] final   69.29 input  -60.55 | X-H torsion
[ 11005 11000 10999 10996 ] final -165.27 input  -57.11 | X-H torsion

> <Gold.Protein.ActiveResidues>
 VAL166  LYS551  ARG553  GLY616  TRP617  ASP618  TYR619  PRO620  LYS621  CYS622 
 ASP623  PHE694  ASN695  SER759  ASP760  ASP761  ALA762  ILE779  LEU786  VAL792 
 PHE793  MET794  SER795  GLU796  ALA797  LYS798  CYS799  TRP800  GLU811  SER814 

> <Gold.Protein.RotatedAtoms>
  151.9838  133.3767  159.4117 H   0  0  0  0  0  0  0  0  0  0  0  0  # atno 6907 bound_to 6896
  150.6931  134.4010  159.5128 H   0  0  0  0  0  0  0  0  0  0  0  0  # atno 6908 bound_to 6896
  152.1733  134.8815  160.0583 H   0  0  0  0  0  0  0  0  0  0  0  0  # atno 6909 bound_to 6896
  145.1060  139.3485  143.4787 H   0  0  0  0  0  0  0  0  0  0  0  0  # atno 7974 bound_to 7965
  156.0567  140.3301  155.7413 H   0  0  0  0  0  0  0  0  0  0  0  0  # atno 8008 bound_to 7997
  155.5518  140.0611  157.2865 H   0  0  0  0  0  0  0  0  0  0  0  0  # atno 8009 bound_to 7997
  154.4461  140.1892  156.0683 H   0  0  0  0  0  0  0  0  0  0  0  0  # atno 8010 bound_to 7997
  139.6995  144.7096  151.1209 H   0  0  0  0  0  0  0  0  0  0  0  0  # atno 10167 bound_to 10162
  156.0234  130.4422  150.2928 H   0  0  0  0  0  0  0  0  0  0  0  0  # atno 10718 bound_to 10713
  153.0279  135.5216  154.7266 H   0  0  0  0  0  0  0  0  0  0  0  0  # atno 10763 bound_to 10752
  154.6306  135.2900  155.0223 H   0  0  0  0  0  0  0  0  0  0  0  0  # atno 10764 bound_to 10752
  154.1177  135.6612  153.4949 H   0  0  0  0  0  0  0  0  0  0  0  0  # atno 10765 bound_to 10752
  140.5776  134.5175  157.5173 H   0  0  0  0  0  0  0  0  0  0  0  0  # atno 11005 bound_to 11000
  146.3528  140.0959  142.8610 LP  0  0  0  0  0  0  0  0  0  0  0  0  # atno 17320 bound_to 7965
  145.0901  140.9278  143.4774 LP  0  0  0  0  0  0  0  0  0  0  0  0  # atno 17321 bound_to 7965
  140.7706  143.5444  150.9276 LP  0  0  0  0  0  0  0  0  0  0  0  0  # atno 17342 bound_to 10162
  139.9125  143.6703  152.3112 LP  0  0  0  0  0  0  0  0  0  0  0  0  # atno 17343 bound_to 10162
  157.1031  131.0201  151.3077 LP  0  0  0  0  0  0  0  0  0  0  0  0  # atno 17370 bound_to 10713
  157.4764  130.7739  149.7372 LP  0  0  0  0  0  0  0  0  0  0  0  0  # atno 17371 bound_to 10713
  139.9332  134.7924  156.0873 LP  0  0  0  0  0  0  0  0  0  0  0  0  # atno 17394 bound_to 11000
  141.1017  133.6675  156.2769 LP  0  0  0  0  0  0  0  0  0  0  0  0  # atno 17395 bound_to 11000

$$$$
