#       Name:                AV-unprocessed.smi:625
#       Creating user name   scv26
#       Creation time:       Fri Mar 27 00:02:19 2020


#       File generated by GOLD software.
#

@<TRIPOS>MOLECULE
AV-unprocessed.smi:625
    55    57     1
SMALL
NO_CHARGES


@<TRIPOS>ATOM
      1 ****        -3.1454   4.5980  -0.9406 C.3            1 S1                 0.0000
      2 ****        -3.1904   3.4190  -0.0891 N.am           1 S1                 0.0000
      3 ****        -2.6487   2.2313  -0.4052 C.2            1 S1                 0.0000
      4 ****        -2.0544   2.0532  -1.4703 O.2            1 S1                 0.0000
      5 ****        -2.8332   1.2046   0.6231 C.2            1 S1                 0.0000
      6 ****        -3.5041   1.4524   1.8904 C.2            1 S1                 0.0000
      7 ****        -3.6114   0.4740   2.8114 C.2            1 S1                 0.0000
      8 ****        -3.0631  -0.8667   2.5838 C.2            1 S1                 0.0000
      9 ****        -3.1407  -1.7553   3.4321 O.2            1 S1                 0.0000
     10 ****        -2.4579  -1.0615   1.3737 N.am           1 S1                 0.0000
     11 ****        -1.8195  -2.3407   1.0273 C.3            1 S1                 0.0000
     12 ****        -0.3052  -2.2636   1.2455 C.2            1 S1                 0.0000
     13 ****         0.1475  -1.9675   2.3514 O.2            1 S1                 0.0000
     14 ****         0.4586  -2.5113   0.1706 N.am           1 S1                 0.0000
     15 ****         1.9015  -2.3022   0.0852 C.3            1 S1                 0.0000
     16 ****         2.6094  -3.6634   0.0059 C.3            1 S1                 0.0000
     17 ****         2.2189  -1.4020  -1.1335 C.3            1 S1                 0.0000
     18 ****         3.6684  -0.8698  -1.1886 C.3            1 S1                 0.0000
     19 ****         3.4747   0.6395  -1.4317 C.3            1 S1                 0.0000
     20 ****         2.9792   1.3012  -0.1325 C.3            1 S1                 0.0000
     21 ****         1.5249   0.8068  -0.0351 C.3            1 S1                 0.0000
     22 ****         1.3887  -0.0994  -1.2761 C.3            1 S1                 0.0000
     23 ****         2.2197   0.6705  -2.2966 C.3            1 S1                 0.0000
     24 ****        -2.3492  -0.0344   0.4156 C.2            1 S1                 0.0000
     25 ****        -3.6378   5.4342  -0.4442 H              1 S1                 0.0000
     26 ****        -3.6575   4.4132  -1.8858 H              1 S1                 0.0000
     27 ****        -2.1148   4.8858  -1.1529 H              1 S1                 0.0000
     28 ****        -3.6639   3.5085   0.7981 H              1 S1                 0.0000
     29 ****        -3.9295   2.4179   2.1217 H              1 S1                 0.0000
     30 ****        -4.1133   0.6820   3.7452 H              1 S1                 0.0000
     31 ****        -2.2160  -3.1736   1.6096 H              1 S1                 0.0000
     32 ****        -2.0394  -2.5861  -0.0135 H              1 S1                 0.0000
     33 ****        -0.0090  -2.7694  -0.6862 H              1 S1                 0.0000
     34 ****         2.2597  -1.8002   0.9852 H              1 S1                 0.0000
     35 ****         3.6919  -3.5442  -0.0416 H              1 S1                 0.0000
     36 ****         2.2978  -4.2238  -0.8761 H              1 S1                 0.0000
     37 ****         2.3861  -4.2718   0.8829 H              1 S1                 0.0000
     38 ****         2.0414  -1.9927  -2.0342 H              1 S1                 0.0000
     39 ****         4.2296  -1.0609  -0.2731 H              1 S1                 0.0000
     40 ****         4.2135  -1.3328  -2.0120 H              1 S1                 0.0000
     41 ****         4.3474   1.1284  -1.8654 H              1 S1                 0.0000
     42 ****         3.5756   1.0121   0.7336 H              1 S1                 0.0000
     43 ****         3.0092   2.3886  -0.2120 H              1 S1                 0.0000
     44 ****         1.3175   0.2935   0.9026 H              1 S1                 0.0000
     45 ****         0.8329   1.6473  -0.1018 H              1 S1                 0.0000
     46 ****         0.3550  -0.2695  -1.5784 H              1 S1                 0.0000
     47 ****         1.8480   1.6795  -2.4857 H              1 S1                 0.0000
     48 ****         2.3352   0.1480  -3.2479 H              1 S1                 0.0000
     49 ****        -1.8263  -0.3253  -0.4851 H              1 S1                 0.0000
     50 ****        -1.9660   2.8038  -2.1251 LP             1 S1                 0.0000
     51 ****        -1.6608   1.1581  -1.6796 LP             1 S1                 0.0000
     52 ****        -3.5881  -1.5730   4.3077 LP             1 S1                 0.0000
     53 ****        -2.7564  -2.6595   3.2457 LP             1 S1                 0.0000
     54 ****        -0.4739  -1.7763   3.1112 LP             1 S1                 0.0000
     55 ****         1.1366  -1.9182   2.4899 LP             1 S1                 0.0000
@<TRIPOS>BOND
    1    1    2 1     
    2    1   25 1     
    3    1   26 1     
    4    1   27 1     
    5    2    3 am    
    6    2   28 1     
    7    3    4 2     
    8    3    5 1     
    9    5   24 2     
   10    5    6 1     
   11    6    7 2     
   12    6   29 1     
   13    7    8 1     
   14    7   30 1     
   15    8    9 2     
   16    8   10 am    
   17   10   11 1     
   18   10   24 1     
   19   11   12 1     
   20   11   31 1     
   21   11   32 1     
   22   12   13 2     
   23   12   14 am    
   24   14   15 1     
   25   14   33 1     
   26   15   16 1     
   27   15   17 1     
   28   15   34 1     
   29   16   35 1     
   30   16   36 1     
   31   16   37 1     
   32   17   22 1     
   33   17   18 1     
   34   17   38 1     
   35   18   19 1     
   36   18   39 1     
   37   18   40 1     
   38   19   23 1     
   39   19   20 1     
   40   19   41 1     
   41   20   21 1     
   42   20   42 1     
   43   20   43 1     
   44   21   22 1     
   45   21   44 1     
   46   21   45 1     
   47   22   23 1     
   48   22   46 1     
   49   23   47 1     
   50   23   48 1     
   51   24   49 1     
   52    4   50 1     
   53    4   51 1     
   54    9   52 1     
   55    9   53 1     
   56   13   54 1     
   57   13   55 1     
@<TRIPOS>SUBSTRUCTURE
      1 S1             1
@<TRIPOS>SET
LONE_PAIRS      STATIC     ATOMS    <user>   **** ""
6 50 51 52 53 54 55
DONOR_HYDROGENS      STATIC     ATOMS    <user>   **** ""
2 28 33
ATOM$BLUE        STATIC     ATOMS    COLORGROUP SYSTEM
6 50 51 52 53 54 55
ATOM$RED        STATIC     ATOMS    COLORGROUP SYSTEM
2 28 33
