AV-unprocessed.smi:2061|AV-procd|sdf|8363|dock3
  -GOLD-   2272011 33D 1   1.00000     0.00000
 Structure written by MMmdl.
 45 46  0  0  0  0  0  0  0  0  1 V2000
  143.6537  136.1327  152.8303 C   0  0  0  0  0  0  0  0  0  0  0  0
  144.8806  136.8968  152.4675 C   0  0  0  0  0  0  0  0  0  0  0  0
  145.6480  137.8005  153.1472 C   0  0  0  0  0  0  0  0  0  0  0  0
  146.6595  138.1319  152.2068 C   0  0  0  0  0  0  0  0  0  0  0  0
  147.6782  139.0633  152.5326 N   0  0  0  0  0  0  0  0  0  0  0  0
  147.8545  139.7113  153.6967 C   0  0  0  0  0  0  0  0  0  0  0  0
  147.1310  139.5976  154.6865 O   0  0  0  0  0  0  0  0  0  0  0  0
  148.9282  140.5135  153.6467 N   0  0  0  0  0  0  0  0  0  0  0  0
  149.4095  141.3628  154.7343 C   0  0  0  0  0  0  0  0  0  0  0  0
  150.1708  140.5665  155.8322 C   0  0  1  0  0  0  0  0  0  0  0  0
  151.0852  139.5169  155.1501 C   0  0  0  0  0  0  0  0  0  0  0  0
  150.9064  141.4376  156.7801 N   0  0  0  0  0  0  0  0  0  0  0  0
  151.6052  140.6783  157.8215 C   0  0  0  0  0  0  0  0  0  0  0  0
  152.3920  141.5775  158.7918 C   0  0  2  0  0  0  0  0  0  0  0  0
  153.0497  140.7725  159.9179 C   0  0  0  0  0  0  0  0  0  0  0  0
  151.5090  142.5233  159.3850 O   0  0  0  0  0  0  0  0  0  0  0  0
  150.7741  143.3162  158.4558 C   0  0  1  0  0  0  0  0  0  0  0  0
  151.6559  144.3870  157.7907 C   0  0  0  0  0  0  0  0  0  0  0  0
  150.0370  142.4165  157.4436 C   0  0  0  0  0  0  0  0  0  0  0  0
  146.5219  137.4891  151.0573 N   0  0  0  0  0  0  0  0  0  0  0  0
  145.3805  136.6949  151.2182 O   0  0  0  0  0  0  0  0  0  0  0  0
  143.4757  136.1711  153.9052 H   0  0  0  0  0  0  0  0  0  0  0  0
  143.7486  135.0859  152.5406 H   0  0  0  0  0  0  0  0  0  0  0  0
  142.7794  136.5457  152.3273 H   0  0  0  0  0  0  0  0  0  0  0  0
  145.5058  138.1634  154.1545 H   0  0  0  0  0  0  0  0  0  0  0  0
  148.3451  139.2562  151.8002 H   0  0  0  0  0  0  0  0  0  0  0  0
  149.4578  140.5408  152.7879 H   0  0  0  0  0  0  0  0  0  0  0  0
  150.0355  142.1762  154.3636 H   0  0  0  0  0  0  0  0  0  0  0  0
  148.5092  141.8265  155.1323 H   0  0  0  0  0  0  0  0  0  0  0  0
  149.4214  140.0122  156.3994 H   0  0  0  0  0  0  0  0  0  0  0  0
  150.5522  138.9091  154.4203 H   0  0  0  0  0  0  0  0  0  0  0  0
  151.4967  138.8011  155.8601 H   0  0  0  0  0  0  0  0  0  0  0  0
  151.9161  139.9962  154.6313 H   0  0  0  0  0  0  0  0  0  0  0  0
  150.8897  140.0722  158.3795 H   0  0  0  0  0  0  0  0  0  0  0  0
  152.3239  139.9914  157.3791 H   0  0  0  0  0  0  0  0  0  0  0  0
  153.1761  142.1029  158.2459 H   0  0  0  0  0  0  0  0  0  0  0  0
  153.7452  140.0337  159.5189 H   0  0  0  0  0  0  0  0  0  0  0  0
  152.3038  140.2440  160.5124 H   0  0  0  0  0  0  0  0  0  0  0  0
  153.6083  141.4256  160.5886 H   0  0  0  0  0  0  0  0  0  0  0  0
  150.0205  143.8462  159.0389 H   0  0  0  0  0  0  0  0  0  0  0  0
  151.0531  145.0593  157.1799 H   0  0  0  0  0  0  0  0  0  0  0  0
  152.4136  143.9502  157.1405 H   0  0  0  0  0  0  0  0  0  0  0  0
  152.1660  144.9915  158.5409 H   0  0  0  0  0  0  0  0  0  0  0  0
  149.5644  143.0753  156.7182 H   0  0  0  0  0  0  0  0  0  0  0  0
  149.2321  141.8910  157.9598 H   0  0  0  0  0  0  0  0  0  0  0  0
  1  2  1  0  0  0  0
  1 22  1  0  0  0  0
  1 23  1  0  0  0  0
  1 24  1  0  0  0  0
  2 21  1  0  0  0  0
  2  3  2  0  0  0  0
  3  4  1  0  0  0  0
  3 25  1  0  0  0  0
  4  5  1  0  0  0  0
  4 20  2  0  0  0  0
  5  6  1  0  0  0  0
  5 26  1  0  0  0  0
  6  7  2  0  0  0  0
  6  8  1  0  0  0  0
  8  9  1  0  0  0  0
  8 27  1  0  0  0  0
  9 10  1  0  0  0  0
  9 28  1  0  0  0  0
  9 29  1  0  0  0  0
 10 11  1  0  0  0  0
 10 12  1  0  0  0  0
 10 30  1  0  0  0  0
 11 31  1  0  0  0  0
 11 32  1  0  0  0  0
 11 33  1  0  0  0  0
 12 19  1  0  0  0  0
 12 13  1  0  0  0  0
 13 14  1  0  0  0  0
 13 34  1  0  0  0  0
 13 35  1  0  0  0  0
 14 15  1  0  0  0  0
 14 16  1  0  0  0  0
 14 36  1  0  0  0  0
 15 37  1  0  0  0  0
 15 38  1  0  0  0  0
 15 39  1  0  0  0  0
 16 17  1  0  0  0  0
 17 18  1  0  0  0  0
 17 19  1  0  0  0  0
 17 40  1  0  0  0  0
 18 41  1  0  0  0  0
 18 42  1  0  0  0  0
 18 43  1  0  0  0  0
 19 44  1  0  0  0  0
 19 45  1  0  0  0  0
 20 21  1  0  0  0  0
M  END
> <s_m_source_file>
AV-unprocessed.smi

> <i_m_source_file_index>
2061

> <i_lp_mmshare_version>
43012

> <i_f3d_flags>
0

> <s_epik_input>
W0NIM11jMVtjSF1jKG5vMSlbTkhdQyg9TylbTkhdW0NIMl1bQ0BIXShbQ0gzXSlOMltDSDJdW0NAQEhdKFtDSDNdKU9bQ0BASF0oW0NIM10pW0NIMl0y

> <s_epik_cmdline>
J2VwaWtfcHl0aG9uJywgJy1waCcsICc3LjAnLCAnLXRuJywgJzgnLCAnLW1hJywgJzIwMCcsICctbWV0YWxfYmluZGluZycsICctaW1hZScsICc8aW5maWxlLm1hZT4nLCAnLW9tYWUnLCAnPG91dGZpbGUubWFlPic=

> <r_epik_Ionization_Penalty>
0.214073

> <r_epik_Ionization_Penalty_Charging>
0

> <r_epik_Ionization_Penalty_Neutral>
0.214073

> <r_epik_State_Penalty>
0.204211

> <r_epik_Charging_Adjusted_Penalty>
0.204211

> <i_epik_Tot_Q>
0

> <i_epik_Tot_abs_Q>
0

> <r_epik_Metal_State_Penalty>
0.217067

> <b_epik_Metal_Only>
0

> <s_lp_Force_Field>
OPLS_2005

> <r_lp_Energy>
29.4213

> <b_lp_Chiralities_Consistent>
1

> <s_lp_Variant>
AV-unprocessed.smi:2061-4

> <Gold.Version>
5.8.1

> <Gold.Id.Protein>
6NUR|6NUR_protein|mol2

> <Gold.PLP.Fitness>
40.6588

> <Gold.PLP.PLP>
-32.2309

> <Gold.PLP.part.hbond>
-3.4529

> <Gold.PLP.part.metal>
0.0000

> <Gold.PLP.part.buried>
-3.2399

> <Gold.PLP.part.nonpolar>
-30.7377

> <Gold.PLP.part.repulsive>
5.3258

> <Gold.PLP.ligand.clash>
0.0000

> <Gold.PLP.ligand.torsion>
0.2393

> <Gold.PLP.Chemscore.Hbond>
2.9600

> <Gold.PLP.Chemscore.CHOScore>
0.0000

> <Gold.PLP.Chemscore.Metal>
0.0000

> <Gold.Chemscore.Hbonds>
donor molecule, donor type, donor heavy atom, donor atom, acceptor molecule, acceptor atom, score
      L1  H     5    26       P1  7957  1.00
      L1  H     8    27       P1  7957  0.98
      P1  H  7954  7966       L1    20  0.96

> <Gold.PLP.Chemscore.Internal.Correction>
0.0264

> <Gold.Rescore>
     Score         DG    S(hbond)    S(metal)    S(lipo)     H(rot)  DE(clash)    DE(int)     intcor
     16.14     -20.32       2.57        0.00      87.27       1.55       2.53       1.65       ----

> <Gold.Chemscore.Fitness>
16.1428

> <Gold.Chemscore.DG>
-20.3234

> <Gold.Chemscore.ZeroCoef>
-5.4800

> <Gold.Chemscore.Hbond>
2.5731

> <Gold.Chemscore.Metal>
0.0000

> <Gold.Chemscore.Lipo>
87.2701

> <Gold.Chemscore.Internal_Hbond>
0.0000

> <Gold.Chemscore.DEClash>
2.5275

> <Gold.Chemscore.DEInternal>
1.6531

> <Gold.Chemscore.Rot>
1.5474

> <Gold.Chemscore.Internal.Correction>
   9.000000E+99

> <Gold.Chemscore.Hbonds>
donor molecule, donor type, donor heavy atom, donor atom, acceptor molecule, acceptor atom, score
      L1  H     5    26       P1  7957  0.95
      L1  H     8    27       P1  7957  0.93
      P1  H  7954  7966       L1    20  0.64

> <Gold.Chemscore.Hbond.Weighted>
-8.5940

> <Gold.Chemscore.Metal.Weighted>
-0.0000

> <Gold.Chemscore.Lipo.Weighted>
-10.2106

> <Gold.Chemscore.Internal_Hbond.Weighted>
0.0000

> <Gold.Chemscore.DEClash.Weighted>
2.5275

> <Gold.Chemscore.DEInternal.Weighted>
1.6531

> <Gold.Chemscore.Rot.Weighted>
3.9612

> <Gold.Chemscore.Internal.Correction.Weighted>
   9.000000E+99

> <Gold.Protein.RotatedTorsions>
[ 6907 6896 6895 6894 ] final    1.70 input  -60.11 | X-H torsion
[ 7974 7965 7964 7962 ] final  -80.10 input  175.53 | X-H torsion
[ 8008 7997 7996 7995 ] final   17.47 input   59.86 | X-H torsion
[ 10167 10162 10161 10158 ] final -131.24 input  -65.29 | X-H torsion
[ 10718 10713 10712 10709 ] final  171.88 input   66.30 | X-H torsion
[ 10763 10752 10751 10750 ] final   44.02 input  -60.55 | X-H torsion
[ 11005 11000 10999 10996 ] final -119.86 input  -57.11 | X-H torsion

> <Gold.Protein.ActiveResidues>
 VAL166  LYS551  ARG553  GLY616  TRP617  ASP618  TYR619  PRO620  LYS621  CYS622 
 ASP623  PHE694  ASN695  SER759  ASP760  ASP761  ALA762  ILE779  LEU786  VAL792 
 PHE793  MET794  SER795  GLU796  ALA797  LYS798  CYS799  TRP800  GLU811  SER814 

> <Gold.Protein.RotatedAtoms>
  151.5968  135.1050  160.0051 H   0  0  0  0  0  0  0  0  0  0  0  0  # atno 6907 bound_to 6896
  152.4278  133.7221  159.6550 H   0  0  0  0  0  0  0  0  0  0  0  0  # atno 6908 bound_to 6896
  150.8168  133.8251  159.3179 H   0  0  0  0  0  0  0  0  0  0  0  0  # atno 6909 bound_to 6896
  145.5645  140.9476  143.1429 H   0  0  0  0  0  0  0  0  0  0  0  0  # atno 7974 bound_to 7965
  154.8919  140.2988  155.5366 H   0  0  0  0  0  0  0  0  0  0  0  0  # atno 8008 bound_to 7997
  156.3021  140.2423  156.3870 H   0  0  0  0  0  0  0  0  0  0  0  0  # atno 8009 bound_to 7997
  154.8610  140.0405  157.1654 H   0  0  0  0  0  0  0  0  0  0  0  0  # atno 8010 bound_to 7997
  139.9210  143.6383  152.2553 H   0  0  0  0  0  0  0  0  0  0  0  0  # atno 10167 bound_to 10162
  156.9871  131.0136  151.2866 H   0  0  0  0  0  0  0  0  0  0  0  0  # atno 10718 bound_to 10713
  152.9849  135.6083  154.3206 H   0  0  0  0  0  0  0  0  0  0  0  0  # atno 10763 bound_to 10752
  154.2916  135.2774  155.2654 H   0  0  0  0  0  0  0  0  0  0  0  0  # atno 10764 bound_to 10752
  154.4946  135.5883  153.6541 H   0  0  0  0  0  0  0  0  0  0  0  0  # atno 10765 bound_to 10752
  141.0185  134.0160  157.3316 H   0  0  0  0  0  0  0  0  0  0  0  0  # atno 11005 bound_to 11000
  144.7467  139.7301  143.7289 LP  0  0  0  0  0  0  0  0  0  0  0  0  # atno 17320 bound_to 7965
  146.1828  139.5028  142.9855 LP  0  0  0  0  0  0  0  0  0  0  0  0  # atno 17321 bound_to 7965
  139.6862  144.7651  151.1520 LP  0  0  0  0  0  0  0  0  0  0  0  0  # atno 17342 bound_to 10162
  140.7662  143.5654  150.9053 LP  0  0  0  0  0  0  0  0  0  0  0  0  # atno 17343 bound_to 10162
  157.5485  130.8166  149.8115 LP  0  0  0  0  0  0  0  0  0  0  0  0  # atno 17370 bound_to 10713
  156.0221  130.3792  150.1930 LP  0  0  0  0  0  0  0  0  0  0  0  0  # atno 17371 bound_to 10713
  139.9131  135.0193  156.7774 LP  0  0  0  0  0  0  0  0  0  0  0  0  # atno 17394 bound_to 11000
  140.6614  133.9642  155.7807 LP  0  0  0  0  0  0  0  0  0  0  0  0  # atno 17395 bound_to 11000

$$$$
