AV-unprocessed.smi:3261|AV-procd|sdf|12478|dock4
  -GOLD-   2272018383D 1   1.00000     0.00000
 Structure written by MMmdl.
 30 31  0  0  0  0  0  0  0  0  1 V2000
  144.9752  136.8586  152.6522 O   0  0  0  0  0  0  0  0  0  0  0  0
  146.1598  136.5525  152.5372 C   0  0  0  0  0  0  0  0  0  0  0  0
  146.6115  135.4233  151.9554 N   0  0  0  0  0  0  0  0  0  0  0  0
  145.8752  134.3340  151.4153 C   0  0  0  0  0  0  0  0  0  0  0  0
  146.6057  133.2192  150.9542 C   0  0  0  0  0  0  0  0  0  0  0  0
  145.9037  132.1157  150.4302 C   0  0  0  0  0  0  0  0  0  0  0  0
  144.5576  132.0630  150.3518 N   0  0  0  0  0  0  0  0  0  0  0  0
  143.8590  133.1252  150.8048 C   0  0  0  0  0  0  0  0  0  0  0  0
  144.4620  134.2780  151.3465 C   0  0  0  0  0  0  0  0  0  0  0  0
  147.1319  137.3735  152.9746 N   0  0  0  0  0  0  0  0  0  0  0  0
  146.9925  138.6672  153.6453 C   0  0  2  0  0  0  0  0  0  0  0  0
  146.7055  139.7876  152.6285 C   0  0  0  0  0  0  0  0  0  0  0  0
  146.9203  141.1418  153.3156 C   0  0  0  0  0  0  0  0  0  0  0  0
  148.2243  140.8726  154.5758 S   0  0  0  0  0  0  0  0  0  0  0  0
  149.4992  141.4263  154.0954 O   0  0  0  0  0  0  0  0  0  0  0  0
  147.6910  141.2350  155.8976 O   0  0  0  0  0  0  0  0  0  0  0  0
  148.2663  139.0482  154.4168 C   0  0  0  0  0  0  0  0  0  0  0  0
  147.6135  135.3519  151.8591 H   0  0  0  0  0  0  0  0  0  0  0  0
  147.6851  133.2065  150.9959 H   0  0  0  0  0  0  0  0  0  0  0  0
  146.4385  131.2509  150.0663 H   0  0  0  0  0  0  0  0  0  0  0  0
  142.7835  133.0529  150.7397 H   0  0  0  0  0  0  0  0  0  0  0  0
  143.8319  135.0771  151.7042 H   0  0  0  0  0  0  0  0  0  0  0  0
  148.0800  137.0752  152.7953 H   0  0  0  0  0  0  0  0  0  0  0  0
  146.1524  138.6408  154.3419 H   0  0  0  0  0  0  0  0  0  0  0  0
  147.4053  139.7053  151.7952 H   0  0  0  0  0  0  0  0  0  0  0  0
  145.7020  139.7083  152.2090 H   0  0  0  0  0  0  0  0  0  0  0  0
  147.2211  141.9278  152.6228 H   0  0  0  0  0  0  0  0  0  0  0  0
  146.0148  141.4613  153.8320 H   0  0  0  0  0  0  0  0  0  0  0  0
  148.3284  138.5877  155.4030 H   0  0  0  0  0  0  0  0  0  0  0  0
  149.1621  138.7855  153.8527 H   0  0  0  0  0  0  0  0  0  0  0  0
  1  2  2  0  0  0  0
  2  3  1  0  0  0  0
  2 10  1  0  0  0  0
  3  4  1  0  0  0  0
  3 18  1  0  0  0  0
  4  9  1  0  0  0  0
  4  5  2  0  0  0  0
  5  6  1  0  0  0  0
  5 19  1  0  0  0  0
  6  7  2  0  0  0  0
  6 20  1  0  0  0  0
  7  8  1  0  0  0  0
  8  9  2  0  0  0  0
  8 21  1  0  0  0  0
  9 22  1  0  0  0  0
 10 11  1  0  0  0  0
 10 23  1  0  0  0  0
 11 17  1  0  0  0  0
 11 12  1  0  0  0  0
 11 24  1  0  0  0  0
 12 13  1  0  0  0  0
 12 25  1  0  0  0  0
 12 26  1  0  0  0  0
 13 14  1  0  0  0  0
 13 27  1  0  0  0  0
 13 28  1  0  0  0  0
 14 15  2  0  0  0  0
 14 16  2  0  0  0  0
 14 17  1  0  0  0  0
 17 29  1  0  0  0  0
 17 30  1  0  0  0  0
M  END
> <s_m_source_file>
AV-unprocessed.smi

> <i_m_source_file_index>
3261

> <i_lp_mmshare_version>
43012

> <i_f3d_flags>
0

> <s_epik_input>
Tz1TMSg9TylbQ0gyXVtDSDJdW0NASF0oW0NIMl0xKVtOSF1DKD1PKVtOSF1jMltjSF1bY0hdbltjSF1bY0hdMg==

> <s_epik_cmdline>
J2VwaWtfcHl0aG9uJywgJy1waCcsICc3LjAnLCAnLXRuJywgJzgnLCAnLW1hJywgJzIwMCcsICctbWV0YWxfYmluZGluZycsICctaW1hZScsICc8aW5maWxlLm1hZT4nLCAnLW9tYWUnLCAnPG91dGZpbGUubWFlPic=

> <r_epik_Ionization_Penalty>
0.0999693

> <r_epik_Ionization_Penalty_Charging>
0

> <r_epik_Ionization_Penalty_Neutral>
0.0999693

> <r_epik_State_Penalty>
0.0899812

> <r_epik_Charging_Adjusted_Penalty>
0.0899812

> <i_epik_Tot_Q>
0

> <i_epik_Tot_abs_Q>
0

> <r_epik_Metal_State_Penalty>
0.0778619

> <b_epik_Metal_Only>
0

> <s_lp_Force_Field>
OPLS_2005

> <r_lp_Energy>
18.6703

> <b_lp_Chiralities_Consistent>
1

> <s_lp_Variant>
AV-unprocessed.smi:3261-1

> <Gold.Version>
5.8.1

> <Gold.Id.Protein>
6NUR|6NUR_protein|mol2

> <Gold.PLP.Fitness>
37.5566

> <Gold.PLP.PLP>
-24.8576

> <Gold.PLP.part.hbond>
-3.3500

> <Gold.PLP.part.metal>
0.0000

> <Gold.PLP.part.buried>
-1.4673

> <Gold.PLP.part.nonpolar>
-20.6501

> <Gold.PLP.part.repulsive>
0.6971

> <Gold.PLP.ligand.clash>
0.0000

> <Gold.PLP.ligand.torsion>
0.2888

> <Gold.PLP.Chemscore.Hbond>
2.5730

> <Gold.PLP.Chemscore.CHOScore>
1.8524

> <Gold.PLP.Chemscore.Metal>
0.0000

> <Gold.Chemscore.Hbonds>
donor molecule, donor type, donor heavy atom, donor atom, acceptor molecule, acceptor atom, score
      L1  H     3    18       P1  7948  0.88
      L1  H    10    23       P1  7948  0.87
      P1  H  7989  7998       L1    15  0.13
      P1  H  8011  8017       L1    15  0.67
      L1  C     6    20       P1 10747  0.85
      L1  C     8    21       P1 10186  0.99

> <Gold.PLP.Chemscore.Internal.Correction>
0.0006

> <Gold.Rescore>
     Score         DG    S(hbond)    S(metal)    S(lipo)     H(rot)  DE(clash)    DE(int)     intcor
     16.14     -18.78       2.67        0.00      59.28       1.00       1.18       1.46       ----

> <Gold.Chemscore.Fitness>
16.1373

> <Gold.Chemscore.DG>
-18.7789

> <Gold.Chemscore.ZeroCoef>
-5.4800

> <Gold.Chemscore.Hbond>
2.6714

> <Gold.Chemscore.Metal>
0.0000

> <Gold.Chemscore.Lipo>
59.2845

> <Gold.Chemscore.Internal_Hbond>
0.0000

> <Gold.Chemscore.DEClash>
1.1810

> <Gold.Chemscore.DEInternal>
1.4607

> <Gold.Chemscore.Rot>
1.0000

> <Gold.Chemscore.Internal.Correction>
   9.000000E+99

> <Gold.Chemscore.Hbonds>
donor molecule, donor type, donor heavy atom, donor atom, acceptor molecule, acceptor atom, score
      L1  H     3    18       P1  7948  0.81
      L1  H    10    23       P1  7948  0.80
      P1  H  7989  7998       L1    15  0.13
      P1  H  8011  8017       L1    15  0.63

> <Gold.Chemscore.Hbond.Weighted>
-8.9226

> <Gold.Chemscore.Metal.Weighted>
-0.0000

> <Gold.Chemscore.Lipo.Weighted>
-6.9363

> <Gold.Chemscore.Internal_Hbond.Weighted>
0.0000

> <Gold.Chemscore.DEClash.Weighted>
1.1810

> <Gold.Chemscore.DEInternal.Weighted>
1.4607

> <Gold.Chemscore.Rot.Weighted>
2.5600

> <Gold.Chemscore.Internal.Correction.Weighted>
   9.000000E+99

> <Gold.Protein.RotatedTorsions>
[ 6907 6896 6895 6894 ] final  -13.79 input  -60.11 | X-H torsion
[ 7974 7965 7964 7962 ] final -166.67 input  175.53 | X-H torsion
[ 8008 7997 7996 7995 ] final   35.71 input   59.86 | X-H torsion
[ 10167 10162 10161 10158 ] final   20.67 input  -65.29 | X-H torsion
[ 10718 10713 10712 10709 ] final -111.68 input   66.30 | X-H torsion
[ 10763 10752 10751 10750 ] final   34.83 input  -60.55 | X-H torsion
[ 11005 11000 10999 10996 ] final -179.29 input  -57.11 | X-H torsion

> <Gold.Protein.ActiveResidues>
 VAL166  LYS551  ARG553  GLY616  TRP617  ASP618  TYR619  PRO620  LYS621  CYS622 
 ASP623  PHE694  ASN695  SER759  ASP760  ASP761  ALA762  ILE779  LEU786  VAL792 
 PHE793  MET794  SER795  GLU796  ALA797  LYS798  CYS799  TRP800  GLU811  SER814 

> <Gold.Protein.RotatedAtoms>
  151.3495  135.0881  159.9397 H   0  0  0  0  0  0  0  0  0  0  0  0  # atno 6907 bound_to 6896
  152.5191  133.9367  159.7617 H   0  0  0  0  0  0  0  0  0  0  0  0  # atno 6908 bound_to 6896
  150.9739  133.6261  159.2763 H   0  0  0  0  0  0  0  0  0  0  0  0  # atno 6909 bound_to 6896
  144.7240  140.2632  143.6261 H   0  0  0  0  0  0  0  0  0  0  0  0  # atno 7974 bound_to 7965
  155.1756  140.3295  155.4384 H   0  0  0  0  0  0  0  0  0  0  0  0  # atno 8008 bound_to 7997
  156.2495  140.1936  156.6807 H   0  0  0  0  0  0  0  0  0  0  0  0  # atno 8009 bound_to 7997
  154.6307  140.0583  156.9715 H   0  0  0  0  0  0  0  0  0  0  0  0  # atno 8010 bound_to 7997
  140.5486  143.9550  150.6563 H   0  0  0  0  0  0  0  0  0  0  0  0  # atno 10167 bound_to 10162
  156.0661  130.5880  150.8406 H   0  0  0  0  0  0  0  0  0  0  0  0  # atno 10718 bound_to 10713
  153.0146  135.6350  154.1730 H   0  0  0  0  0  0  0  0  0  0  0  0  # atno 10763 bound_to 10752
  154.1470  135.2831  155.3147 H   0  0  0  0  0  0  0  0  0  0  0  0  # atno 10764 bound_to 10752
  154.6082  135.5565  153.7506 H   0  0  0  0  0  0  0  0  0  0  0  0  # atno 10765 bound_to 10752
  140.4203  134.6611  157.4660 H   0  0  0  0  0  0  0  0  0  0  0  0  # atno 11005 bound_to 11000
  145.8115  139.2005  143.1990 LP  0  0  0  0  0  0  0  0  0  0  0  0  # atno 17320 bound_to 7965
  146.0592  140.7989  142.9743 LP  0  0  0  0  0  0  0  0  0  0  0  0  # atno 17321 bound_to 7965
  140.2969  143.3286  152.1009 LP  0  0  0  0  0  0  0  0  0  0  0  0  # atno 17342 bound_to 10162
  139.5018  144.6721  151.6218 LP  0  0  0  0  0  0  0  0  0  0  0  0  # atno 17343 bound_to 10162
  157.5703  131.0946  150.9427 LP  0  0  0  0  0  0  0  0  0  0  0  0  # atno 17370 bound_to 10713
  156.9645  130.5467  149.5287 LP  0  0  0  0  0  0  0  0  0  0  0  0  # atno 17371 bound_to 10713
  140.0205  134.6555  155.9247 LP  0  0  0  0  0  0  0  0  0  0  0  0  # atno 17394 bound_to 11000
  141.1786  133.6543  156.4930 LP  0  0  0  0  0  0  0  0  0  0  0  0  # atno 17395 bound_to 11000

$$$$
