AV-unprocessed.smi:1036|AV-procd|sdf|4519|dock5
  -GOLD-   22720 2533D 1   1.00000     0.00000
 Structure written by MMmdl.
 41 43  0  0  0  0  0  0  0  0  1 V2000
  151.5872  137.0702  158.9380 O   0  0  0  0  0  0  0  0  0  0  0  0
  152.6153  137.8657  159.4888 C   0  0  0  0  0  0  0  0  0  0  0  0
  153.3531  138.6177  158.3723 C   0  0  0  0  0  0  0  0  0  0  0  0
  152.5852  139.7456  157.8781 N   0  0  0  0  0  0  0  0  0  0  0  0
  152.3646  141.0204  158.3853 C   0  0  0  0  0  0  0  0  0  0  0  0
  152.8839  141.4650  159.5286 N   0  0  0  0  0  0  0  0  0  0  0  0
  152.3951  142.7566  159.5899 C   0  0  0  0  0  0  0  0  0  0  0  0
  152.5818  143.7638  160.5638 C   0  0  0  0  0  0  0  0  0  0  0  0
  151.9749  145.0276  160.4097 C   0  0  0  0  0  0  0  0  0  0  0  0
  151.1746  145.3030  159.2820 C   0  0  0  0  0  0  0  0  0  0  0  0
  150.9745  144.3142  158.2995 C   0  0  0  0  0  0  0  0  0  0  0  0
  151.5809  143.0538  158.4584 C   0  0  0  0  0  0  0  0  0  0  0  0
  151.5861  141.8895  157.6970 N   0  0  0  0  0  0  0  0  0  0  0  0
  150.8944  141.6873  156.4301 C   0  0  0  0  0  0  0  0  0  0  0  0
  149.8702  140.5374  156.4924 C   0  0  1  0  0  0  0  0  0  0  0  0
  149.3085  140.4604  157.7893 O   0  0  0  0  0  0  0  0  0  0  0  0
  148.8126  140.6861  155.4068 C   0  0  0  0  0  0  0  0  0  0  0  0
  147.9400  141.7980  155.4033 C   0  0  0  0  0  0  0  0  0  0  0  0
  146.9687  141.9382  154.3933 C   0  0  0  0  0  0  0  0  0  0  0  0
  146.1357  143.0057  154.3986 F   0  0  0  0  0  0  0  0  0  0  0  0
  146.8650  140.9702  153.3768 C   0  0  0  0  0  0  0  0  0  0  0  0
  147.7360  139.8642  153.3691 C   0  0  0  0  0  0  0  0  0  0  0  0
  148.7087  139.7220  154.3782 C   0  0  0  0  0  0  0  0  0  0  0  0
  149.5449  138.6565  154.3494 F   0  0  0  0  0  0  0  0  0  0  0  0
  151.7603  136.9524  158.0167 H   0  0  0  0  0  0  0  0  0  0  0  0
  152.1490  138.5818  160.1655 H   0  0  0  0  0  0  0  0  0  0  0  0
  153.2940  137.2555  160.0859 H   0  0  0  0  0  0  0  0  0  0  0  0
  154.3363  138.9517  158.7046 H   0  0  0  0  0  0  0  0  0  0  0  0
  153.5196  137.9429  157.5321 H   0  0  0  0  0  0  0  0  0  0  0  0
  152.1935  139.5902  156.9603 H   0  0  0  0  0  0  0  0  0  0  0  0
  153.1936  143.5635  161.4311 H   0  0  0  0  0  0  0  0  0  0  0  0
  152.1249  145.7897  161.1603 H   0  0  0  0  0  0  0  0  0  0  0  0
  150.7139  146.2738  159.1714 H   0  0  0  0  0  0  0  0  0  0  0  0
  150.3625  144.5223  157.4343 H   0  0  0  0  0  0  0  0  0  0  0  0
  150.4142  142.6167  156.1219 H   0  0  0  0  0  0  0  0  0  0  0  0
  151.6463  141.4715  155.6700 H   0  0  0  0  0  0  0  0  0  0  0  0
  150.3938  139.5937  156.3356 H   0  0  0  0  0  0  0  0  0  0  0  0
  148.4283  140.1244  157.7157 H   0  0  0  0  0  0  0  0  0  0  0  0
  148.0134  142.5517  156.1737 H   0  0  0  0  0  0  0  0  0  0  0  0
  146.1204  141.0774  152.6019 H   0  0  0  0  0  0  0  0  0  0  0  0
  147.6596  139.1243  152.5861 H   0  0  0  0  0  0  0  0  0  0  0  0
  1  2  1  0  0  0  0
  1 25  1  0  0  0  0
  2  3  1  0  0  0  0
  2 26  1  0  0  0  0
  2 27  1  0  0  0  0
  3  4  1  0  0  0  0
  3 28  1  0  0  0  0
  3 29  1  0  0  0  0
  4  5  1  0  0  0  0
  4 30  1  0  0  0  0
  5 13  1  0  0  0  0
  5  6  2  0  0  0  0
  6  7  1  0  0  0  0
  7 12  2  0  0  0  0
  7  8  1  0  0  0  0
  8  9  2  0  0  0  0
  8 31  1  0  0  0  0
  9 10  1  0  0  0  0
  9 32  1  0  0  0  0
 10 11  2  0  0  0  0
 10 33  1  0  0  0  0
 11 12  1  0  0  0  0
 11 34  1  0  0  0  0
 12 13  1  0  0  0  0
 13 14  1  0  0  0  0
 14 15  1  0  0  0  0
 14 35  1  0  0  0  0
 14 36  1  0  0  0  0
 15 16  1  0  0  0  0
 15 17  1  0  0  0  0
 15 37  1  0  0  0  0
 16 38  1  0  0  0  0
 17 23  1  0  0  0  0
 17 18  2  0  0  0  0
 18 19  1  0  0  0  0
 18 39  1  0  0  0  0
 19 20  1  0  0  0  0
 19 21  2  0  0  0  0
 21 22  1  0  0  0  0
 21 40  1  0  0  0  0
 22 23  2  0  0  0  0
 22 41  1  0  0  0  0
 23 24  1  0  0  0  0
M  END
> <s_m_source_file>
AV-unprocessed.smi

> <i_m_source_file_index>
1036

> <i_lp_mmshare_version>
43012

> <i_f3d_flags>
0

> <s_epik_input>
W09IXVtDSDJdW0NIMl1bTkhdYyhuMSluKGMoYzEyKVtjSF1bY0hdW2NIXVtjSF0yKVtDSDJdW0NASF0oW09IXSljM1tjSF1jKEYpW2NIXVtjSF1jM0Y=

> <s_epik_cmdline>
J2VwaWtfcHl0aG9uJywgJy1waCcsICc3LjAnLCAnLXRuJywgJzgnLCAnLW1hJywgJzIwMCcsICctbWV0YWxfYmluZGluZycsICctaW1hZScsICc8aW5maWxlLm1hZT4nLCAnLW9tYWUnLCAnPG91dGZpbGUubWFlPic=

> <r_epik_Ionization_Penalty>
1.30972

> <r_epik_Ionization_Penalty_Charging>
0

> <r_epik_Ionization_Penalty_Neutral>
1.30972

> <r_epik_State_Penalty>
1.38438

> <r_epik_Charging_Adjusted_Penalty>
1.38438

> <i_epik_Tot_Q>
0

> <i_epik_Tot_abs_Q>
0

> <r_epik_Metal_State_Penalty>
0.00551145

> <b_epik_Metal_Only>
0

> <s_lp_Force_Field>
OPLS_2005

> <r_lp_Energy>
10.9481

> <b_lp_Chiralities_Consistent>
1

> <s_lp_Variant>
AV-unprocessed.smi:1036-4

> <Gold.Version>
5.8.1

> <Gold.Id.Protein>
6NUR|6NUR_protein|mol2

> <Gold.PLP.Fitness>
52.3611

> <Gold.PLP.PLP>
-50.2765

> <Gold.PLP.part.hbond>
-1.0000

> <Gold.PLP.part.metal>
0.0000

> <Gold.PLP.part.buried>
-4.2457

> <Gold.PLP.part.nonpolar>
-46.0061

> <Gold.PLP.part.repulsive>
0.0900

> <Gold.PLP.ligand.clash>
0.0000

> <Gold.PLP.ligand.torsion>
0.4794

> <Gold.PLP.Chemscore.Hbond>
1.0000

> <Gold.PLP.Chemscore.CHOScore>
0.0000

> <Gold.PLP.Chemscore.Metal>
0.0000

> <Gold.Chemscore.Hbonds>
donor molecule, donor type, donor heavy atom, donor atom, acceptor molecule, acceptor atom, score
      P1  H  6896  6907       L1     1  0.63

> <Gold.PLP.Chemscore.Internal.Correction>
0.0434

> <Gold.Rescore>
     Score         DG    S(hbond)    S(metal)    S(lipo)     H(rot)  DE(clash)    DE(int)     intcor
     13.99     -14.94       0.85        0.00     126.90       3.22       0.35       0.59       ----

> <Gold.Chemscore.Fitness>
13.9930

> <Gold.Chemscore.DG>
-14.9381

> <Gold.Chemscore.ZeroCoef>
-5.4800

> <Gold.Chemscore.Hbond>
0.8540

> <Gold.Chemscore.Metal>
0.0000

> <Gold.Chemscore.Lipo>
126.8995

> <Gold.Chemscore.Internal_Hbond>
0.0000

> <Gold.Chemscore.DEClash>
0.3532

> <Gold.Chemscore.DEInternal>
0.5919

> <Gold.Chemscore.Rot>
3.2194

> <Gold.Chemscore.Internal.Correction>
   9.000000E+99

> <Gold.Chemscore.Hbonds>
donor molecule, donor type, donor heavy atom, donor atom, acceptor molecule, acceptor atom, score
      P1  H  6896  6907       L1     1  0.41

> <Gold.Chemscore.Hbond.Weighted>
-2.8525

> <Gold.Chemscore.Metal.Weighted>
-0.0000

> <Gold.Chemscore.Lipo.Weighted>
-14.8472

> <Gold.Chemscore.Internal_Hbond.Weighted>
0.0000

> <Gold.Chemscore.DEClash.Weighted>
0.3532

> <Gold.Chemscore.DEInternal.Weighted>
0.5919

> <Gold.Chemscore.Rot.Weighted>
8.2416

> <Gold.Chemscore.Internal.Correction.Weighted>
   9.000000E+99

> <Gold.Protein.RotatedTorsions>
[ 6907 6896 6895 6894 ] final  -16.01 input  -60.11 | X-H torsion
[ 7974 7965 7964 7962 ] final  134.68 input  175.53 | X-H torsion
[ 8008 7997 7996 7995 ] final -109.26 input   59.86 | X-H torsion
[ 10167 10162 10161 10158 ] final  -52.73 input  -65.29 | X-H torsion
[ 10718 10713 10712 10709 ] final  -15.31 input   66.30 | X-H torsion
[ 10763 10752 10751 10750 ] final   82.34 input  -60.55 | X-H torsion
[ 11005 11000 10999 10996 ] final   54.50 input  -57.11 | X-H torsion

> <Gold.Protein.ActiveResidues>
 VAL166  LYS551  ARG553  GLY616  TRP617  ASP618  TYR619  PRO620  LYS621  CYS622 
 ASP623  PHE694  ASN695  SER759  ASP760  ASP761  ALA762  ILE779  LEU786  VAL792 
 PHE793  MET794  SER795  GLU796  ALA797  LYS798  CYS799  TRP800  GLU811  SER814 

> <Gold.Protein.RotatedAtoms>
  151.3151  135.0804  159.9285 H   0  0  0  0  0  0  0  0  0  0  0  0  # atno 6907 bound_to 6896
  152.5269  133.9696  159.7766 H   0  0  0  0  0  0  0  0  0  0  0  0  # atno 6908 bound_to 6896
  151.0006  133.6007  159.2725 H   0  0  0  0  0  0  0  0  0  0  0  0  # atno 6909 bound_to 6896
  144.9739  139.4576  143.5419 H   0  0  0  0  0  0  0  0  0  0  0  0  # atno 7974 bound_to 7965
  154.9566  140.0400  157.2170 H   0  0  0  0  0  0  0  0  0  0  0  0  # atno 8008 bound_to 7997
  154.7928  140.2838  155.5957 H   0  0  0  0  0  0  0  0  0  0  0  0  # atno 8009 bound_to 7997
  156.2952  140.2570  156.2779 H   0  0  0  0  0  0  0  0  0  0  0  0  # atno 8010 bound_to 7997
  140.6522  143.2574  151.4689 H   0  0  0  0  0  0  0  0  0  0  0  0  # atno 10167 bound_to 10162
  156.6036  130.4831  149.6229 H   0  0  0  0  0  0  0  0  0  0  0  0  # atno 10718 bound_to 10713
  153.1194  135.4732  154.9170 H   0  0  0  0  0  0  0  0  0  0  0  0  # atno 10763 bound_to 10752
  154.7561  135.3118  154.8470 H   0  0  0  0  0  0  0  0  0  0  0  0  # atno 10764 bound_to 10752
  153.9038  135.6872  153.4807 H   0  0  0  0  0  0  0  0  0  0  0  0  # atno 10765 bound_to 10752
  140.0681  134.5507  155.9076 H   0  0  0  0  0  0  0  0  0  0  0  0  # atno 11005 bound_to 11000
  146.3390  139.8968  142.8800 LP  0  0  0  0  0  0  0  0  0  0  0  0  # atno 17320 bound_to 7965
  145.2519  141.0047  143.3876 LP  0  0  0  0  0  0  0  0  0  0  0  0  # atno 17321 bound_to 7965
  139.5739  144.1864  152.1875 LP  0  0  0  0  0  0  0  0  0  0  0  0  # atno 17342 bound_to 10162
  140.1169  144.5408  150.6888 LP  0  0  0  0  0  0  0  0  0  0  0  0  # atno 17343 bound_to 10162
  156.2448  130.6872  151.1590 LP  0  0  0  0  0  0  0  0  0  0  0  0  # atno 17370 bound_to 10713
  157.7273  131.0640  150.5872 LP  0  0  0  0  0  0  0  0  0  0  0  0  # atno 17371 bound_to 10713
  141.2001  133.6610  156.5879 LP  0  0  0  0  0  0  0  0  0  0  0  0  # atno 17394 bound_to 11000
  140.3668  134.7640  157.4571 LP  0  0  0  0  0  0  0  0  0  0  0  0  # atno 17395 bound_to 11000

$$$$
