#       Name:                AV-unprocessed.smi:623
#       Creating user name   scv26
#       Creation time:       Fri Mar 27 00:01:34 2020


#       File generated by GOLD software.
#

@<TRIPOS>MOLECULE
AV-unprocessed.smi:623
    51    53     1
SMALL
NO_CHARGES


@<TRIPOS>ATOM
      1 ****        -3.6604  -1.1176  -0.5585 C.3            1 S1                 0.0000
      2 ****        -2.8301  -0.1885   0.3716 C.3            1 S1                 0.0000
      3 ****        -3.7459   1.0342   0.6585 C.3            1 S1                 0.0000
      4 ****        -2.2880  -0.8891   1.6334 C.3            1 S1                 0.0000
      5 ****        -1.3164  -1.9532   1.0733 C.3            1 S1                 0.0000
      6 ****        -0.7256  -1.2503  -0.1649 C.3            1 S1                 0.0000
      7 ****        -1.3937   0.1517  -0.1118 C.3            1 S1                 0.0000
      8 ****        -1.3022   0.9112  -1.4468 C.3            1 S1                 0.0000
      9 ****        -0.7965   0.9357   1.1026 C.3            1 S1                 0.0000
     10 ****         0.6629   0.9034   1.1784 N.am           1 S1                 0.0000
     11 ****         1.4943   1.7950   0.6194 C.2            1 S1                 0.0000
     12 ****         1.1136   2.7993   0.0184 O.2            1 S1                 0.0000
     13 ****         2.9897   1.4927   0.7460 C.3            1 S1                 0.0000
     14 ****         3.4337   0.5886  -0.3233 N.am           1 S1                 0.0000
     15 ****         3.4762  -0.7808  -0.1017 C.2            1 S1                 0.0000
     16 ****         3.8507  -1.6786  -1.0434 C.2            1 S1                 0.0000
     17 ****         4.2391  -1.2314  -2.3764 C.2            1 S1                 0.0000
     18 ****         4.5954  -1.9658  -3.2952 O.2            1 S1                 0.0000
     19 ****         4.1807   0.1521  -2.5619 N.am           1 S1                 0.0000
     20 ****         3.7934   1.0828  -1.5964 C.2            1 S1                 0.0000
     21 ****         3.7728   2.2822  -1.8691 O.2            1 S1                 0.0000
     22 ****        -1.4241   0.1984   2.3077 C.3            1 S1                 0.0000
     23 ****         4.4382   0.5085  -3.4708 H              1 S1                 0.0000
     24 ****        -4.5966  -1.4014  -0.0767 H              1 S1                 0.0000
     25 ****        -3.1711  -2.0465  -0.8420 H              1 S1                 0.0000
     26 ****        -3.9212  -0.6069  -1.4857 H              1 S1                 0.0000
     27 ****        -3.3123   1.7989   1.2988 H              1 S1                 0.0000
     28 ****        -4.6700   0.7164   1.1422 H              1 S1                 0.0000
     29 ****        -4.0262   1.5329  -0.2697 H              1 S1                 0.0000
     30 ****        -3.0501  -1.3045   2.2934 H              1 S1                 0.0000
     31 ****        -0.5462  -2.2297   1.7942 H              1 S1                 0.0000
     32 ****        -1.8380  -2.8695   0.7960 H              1 S1                 0.0000
     33 ****         0.3637  -1.2251  -0.1485 H              1 S1                 0.0000
     34 ****        -0.9923  -1.7834  -1.0775 H              1 S1                 0.0000
     35 ****        -0.2638   1.0602  -1.7429 H              1 S1                 0.0000
     36 ****        -1.7697   1.8936  -1.3781 H              1 S1                 0.0000
     37 ****        -1.7935   0.3645  -2.2515 H              1 S1                 0.0000
     38 ****        -1.1284   1.9751   1.0976 H              1 S1                 0.0000
     39 ****         1.0719   0.1128   1.6545 H              1 S1                 0.0000
     40 ****         3.5543   2.4270   0.7296 H              1 S1                 0.0000
     41 ****         3.1927   1.0555   1.7252 H              1 S1                 0.0000
     42 ****         3.1911  -1.1580   0.8703 H              1 S1                 0.0000
     43 ****         3.8618  -2.7334  -0.8096 H              1 S1                 0.0000
     44 ****        -2.0334   0.8745   2.9080 H              1 S1                 0.0000
     45 ****        -0.6819  -0.2319   2.9818 H              1 S1                 0.0000
     46 ****         0.1356   2.9861  -0.0737 LP             1 S1                 0.0000
     47 ****         1.7824   3.4284  -0.3778 LP             1 S1                 0.0000
     48 ****         4.6355  -2.9555  -3.1574 LP             1 S1                 0.0000
     49 ****         4.8453  -1.5737  -4.1805 LP             1 S1                 0.0000
     50 ****         3.4938   2.9476  -1.1767 LP             1 S1                 0.0000
     51 ****         4.0351   2.5917  -2.7831 LP             1 S1                 0.0000
@<TRIPOS>BOND
    1    1    2 1     
    2    1   24 1     
    3    1   25 1     
    4    1   26 1     
    5    2    7 1     
    6    2    3 1     
    7    2    4 1     
    8    3   27 1     
    9    3   28 1     
   10    3   29 1     
   11    4   22 1     
   12    4    5 1     
   13    4   30 1     
   14    5    6 1     
   15    5   31 1     
   16    5   32 1     
   17    6    7 1     
   18    6   33 1     
   19    6   34 1     
   20    7    8 1     
   21    7    9 1     
   22    8   35 1     
   23    8   36 1     
   24    8   37 1     
   25    9   10 1     
   26    9   22 1     
   27    9   38 1     
   28   10   11 am    
   29   10   39 1     
   30   11   12 2     
   31   11   13 1     
   32   13   14 1     
   33   13   40 1     
   34   13   41 1     
   35   14   20 1     
   36   14   15 1     
   37   15   16 2     
   38   15   42 1     
   39   16   17 1     
   40   16   43 1     
   41   17   18 2     
   42   17   19 1     
   43   19   23 1     
   44   19   20 1     
   45   20   21 2     
   46   22   44 1     
   47   22   45 1     
   48   12   46 1     
   49   12   47 1     
   50   18   48 1     
   51   18   49 1     
   52   21   50 1     
   53   21   51 1     
@<TRIPOS>SUBSTRUCTURE
      1 S1             1
@<TRIPOS>SET
LONE_PAIRS      STATIC     ATOMS    <user>   **** ""
6 46 47 48 49 50 51
DONOR_HYDROGENS      STATIC     ATOMS    <user>   **** ""
2 39 23
ATOM$BLUE        STATIC     ATOMS    COLORGROUP SYSTEM
6 46 47 48 49 50 51
ATOM$RED        STATIC     ATOMS    COLORGROUP SYSTEM
2 39 23
