AV-unprocessed.smi:527|AV-procd|sdf|2822|dock2
  -GOLD-   2262023303D 1   1.00000     0.00000
 Structure written by MMmdl.
 42 43  0  0  0  0  0  0  0  0  1 V2000
  145.8154  132.1275  149.6413 C   0  0  0  0  0  0  0  0  0  0  0  0
  145.8392  133.3150  150.6201 C   0  0  1  0  0  0  0  0  0  0  0  0
  144.8590  134.4052  150.1393 C   0  0  0  0  0  0  0  0  0  0  0  0
  144.8465  135.6250  151.0700 C   0  0  0  0  0  0  0  0  0  0  0  0
  144.5186  135.2114  152.5113 C   0  0  0  0  0  0  0  0  0  0  0  0
  145.4867  134.1295  153.0305 C   0  0  2  0  0  0  0  0  0  0  0  0
  146.8271  134.6836  153.2315 N   0  0  0  0  0  0  0  0  0  0  0  0
  147.3968  134.9378  154.4185 C   0  0  0  0  0  0  0  0  0  0  0  0
  146.8370  134.7303  155.4972 O   0  0  0  0  0  0  0  0  0  0  0  0
  148.6348  135.4437  154.2599 N   0  0  0  0  0  0  0  0  0  0  0  0
  149.4690  135.8906  155.2215 C   0  0  0  0  0  0  0  0  0  0  0  0
  149.2260  135.8924  156.4298 O   0  0  0  0  0  0  0  0  0  0  0  0
  150.8122  136.4332  154.7316 C   0  0  0  0  0  0  0  0  0  0  0  0
  150.8685  137.8770  154.8622 N   0  0  0  0  0  0  0  0  0  0  0  0
  151.4930  138.6051  155.8671 C   0  0  0  0  0  0  0  0  0  0  0  0
  151.2788  139.9344  155.5807 C   0  0  0  0  0  0  0  0  0  0  0  0
  150.5278  140.0473  154.4129 N   0  0  0  0  0  0  0  0  0  0  0  0
  150.3225  138.7892  154.0458 C   0  0  0  0  0  0  0  0  0  0  0  0
  145.5236  132.9004  152.0848 C   0  0  2  0  0  0  0  0  0  0  0  0
  146.4718  131.8099  152.6240 C   0  0  0  0  0  0  0  0  0  0  0  0
  144.8565  131.6094  149.6688 H   0  0  0  0  0  0  0  0  0  0  0  0
  146.5966  131.4018  149.8657 H   0  0  0  0  0  0  0  0  0  0  0  0
  145.9808  132.4627  148.6171 H   0  0  0  0  0  0  0  0  0  0  0  0
  146.8449  133.7370  150.5924 H   0  0  0  0  0  0  0  0  0  0  0  0
  145.1224  134.7256  149.1306 H   0  0  0  0  0  0  0  0  0  0  0  0
  143.8519  133.9908  150.0756 H   0  0  0  0  0  0  0  0  0  0  0  0
  145.8155  136.1245  151.0370 H   0  0  0  0  0  0  0  0  0  0  0  0
  144.1142  136.3521  150.7183 H   0  0  0  0  0  0  0  0  0  0  0  0
  144.5343  136.0855  153.1635 H   0  0  0  0  0  0  0  0  0  0  0  0
  143.4987  134.8269  152.5488 H   0  0  0  0  0  0  0  0  0  0  0  0
  145.1152  133.7867  153.9982 H   0  0  0  0  0  0  0  0  0  0  0  0
  147.3566  134.8900  152.3973 H   0  0  0  0  0  0  0  0  0  0  0  0
  148.9765  135.5011  153.3120 H   0  0  0  0  0  0  0  0  0  0  0  0
  151.6256  135.9932  155.3100 H   0  0  0  0  0  0  0  0  0  0  0  0
  150.9760  136.1614  153.6876 H   0  0  0  0  0  0  0  0  0  0  0  0
  152.0213  138.1305  156.6812 H   0  0  0  0  0  0  0  0  0  0  0  0
  151.6033  140.8110  156.1217 H   0  0  0  0  0  0  0  0  0  0  0  0
  149.7595  138.5246  153.1627 H   0  0  0  0  0  0  0  0  0  0  0  0
  144.5204  132.4709  152.0901 H   0  0  0  0  0  0  0  0  0  0  0  0
  147.5178  132.1051  152.5368 H   0  0  0  0  0  0  0  0  0  0  0  0
  146.3464  130.8683  152.0902 H   0  0  0  0  0  0  0  0  0  0  0  0
  146.2715  131.6056  153.6762 H   0  0  0  0  0  0  0  0  0  0  0  0
  1  2  1  0  0  0  0
  1 21  1  0  0  0  0
  1 22  1  0  0  0  0
  1 23  1  0  0  0  0
  2 19  1  0  0  0  0
  2  3  1  0  0  0  0
  2 24  1  0  0  0  0
  3  4  1  0  0  0  0
  3 25  1  0  0  0  0
  3 26  1  0  0  0  0
  4  5  1  0  0  0  0
  4 27  1  0  0  0  0
  4 28  1  0  0  0  0
  5  6  1  0  0  0  0
  5 29  1  0  0  0  0
  5 30  1  0  0  0  0
  6  7  1  0  0  0  0
  6 19  1  0  0  0  0
  6 31  1  0  0  0  0
  7  8  1  0  0  0  0
  7 32  1  0  0  0  0
  8  9  2  0  0  0  0
  8 10  1  0  0  0  0
 10 11  1  0  0  0  0
 10 33  1  0  0  0  0
 11 12  2  0  0  0  0
 11 13  1  0  0  0  0
 13 14  1  0  0  0  0
 13 34  1  0  0  0  0
 13 35  1  0  0  0  0
 14 18  1  0  0  0  0
 14 15  1  0  0  0  0
 15 16  2  0  0  0  0
 15 36  1  0  0  0  0
 16 17  1  0  0  0  0
 16 37  1  0  0  0  0
 17 18  2  0  0  0  0
 18 38  1  0  0  0  0
 19 20  1  0  0  0  0
 19 39  1  0  0  0  0
 20 40  1  0  0  0  0
 20 41  1  0  0  0  0
 20 42  1  0  0  0  0
M  END
> <s_m_source_file>
AV-unprocessed.smi

> <i_m_source_file_index>
527

> <i_lp_mmshare_version>
43012

> <i_f3d_flags>
0

> <s_epik_input>
W0NIM11bQ0BASF0xW0NIMl1bQ0gyXVtDSDJdW0NASF0oW0NASF0xW0NIM10pW05IXUMoPU8pW05IXUMoPU8pW0NIMl1uMltjSF1bY0hdbltjSF0y

> <s_epik_cmdline>
J2VwaWtfcHl0aG9uJywgJy1waCcsICc3LjAnLCAnLXRuJywgJzgnLCAnLW1hJywgJzIwMCcsICctbWV0YWxfYmluZGluZycsICctaW1hZScsICc8aW5maWxlLm1hZT4nLCAnLW9tYWUnLCAnPG91dGZpbGUubWFlPic=

> <r_lp_tautomer_probability>
1

> <r_epik_Ionization_Penalty>
0.172132

> <r_epik_Ionization_Penalty_Charging>
0.172105

> <r_epik_Ionization_Penalty_Neutral>
2.71747e-05

> <r_epik_State_Penalty>
0.161503

> <r_epik_Charging_Adjusted_Penalty>
0.333607

> <i_epik_Tot_Q>
0

> <i_epik_Tot_abs_Q>
0

> <r_epik_Metal_State_Penalty>
0.124763

> <b_epik_Metal_Only>
0

> <s_lp_Force_Field>
OPLS_2005

> <r_lp_Energy>
14.576

> <b_lp_Chiralities_Consistent>
1

> <s_lp_Variant>
AV-unprocessed.smi:527-8

> <Gold.Version>
5.8.1

> <Gold.Id.Protein>
6NUR|6NUR_protein|mol2

> <Gold.PLP.Fitness>
42.5540

> <Gold.PLP.PLP>
-31.3670

> <Gold.PLP.part.hbond>
-2.9590

> <Gold.PLP.part.metal>
0.0000

> <Gold.PLP.part.buried>
-0.7251

> <Gold.PLP.part.nonpolar>
-27.2797

> <Gold.PLP.part.repulsive>
0.1556

> <Gold.PLP.ligand.clash>
0.0000

> <Gold.PLP.ligand.torsion>
0.5068

> <Gold.PLP.Chemscore.Hbond>
2.5780

> <Gold.PLP.Chemscore.CHOScore>
1.4765

> <Gold.PLP.Chemscore.Metal>
0.0000

> <Gold.Chemscore.Hbonds>
donor molecule, donor type, donor heavy atom, donor atom, acceptor molecule, acceptor atom, score
      L1  H     7    32       P1  7948  0.59
      L1  H    10    33       P1  7948  1.00
      P1  H  7989  7998       L1    17  0.95
      L1  C    18    38       P1  7948  0.54
      L1  C    18    38       P1  7957  0.86

> <Gold.PLP.Chemscore.Internal.Correction>
0.0371

> <Gold.Rescore>
     Score         DG    S(hbond)    S(metal)    S(lipo)     H(rot)  DE(clash)    DE(int)     intcor
     13.82     -16.08       2.20        0.00      64.23       1.66       0.37       1.89       ----

> <Gold.Chemscore.Fitness>
13.8177

> <Gold.Chemscore.DG>
-16.0790

> <Gold.Chemscore.ZeroCoef>
-5.4800

> <Gold.Chemscore.Hbond>
2.1979

> <Gold.Chemscore.Metal>
0.0000

> <Gold.Chemscore.Lipo>
64.2298

> <Gold.Chemscore.Internal_Hbond>
0.0000

> <Gold.Chemscore.DEClash>
0.3720

> <Gold.Chemscore.DEInternal>
1.8893

> <Gold.Chemscore.Rot>
1.6629

> <Gold.Chemscore.Internal.Correction>
   9.000000E+99

> <Gold.Chemscore.Hbonds>
donor molecule, donor type, donor heavy atom, donor atom, acceptor molecule, acceptor atom, score
      L1  H     7    32       P1  7948  0.57
      L1  H    10    33       P1  7948  0.66
      P1  H  7989  7998       L1    17  0.19

> <Gold.Chemscore.Hbond.Weighted>
-7.3410

> <Gold.Chemscore.Metal.Weighted>
-0.0000

> <Gold.Chemscore.Lipo.Weighted>
-7.5149

> <Gold.Chemscore.Internal_Hbond.Weighted>
0.0000

> <Gold.Chemscore.DEClash.Weighted>
0.3720

> <Gold.Chemscore.DEInternal.Weighted>
1.8893

> <Gold.Chemscore.Rot.Weighted>
4.2569

> <Gold.Chemscore.Internal.Correction.Weighted>
   9.000000E+99

> <Gold.Protein.RotatedTorsions>
[ 6907 6896 6895 6894 ] final  104.57 input  -60.11 | X-H torsion
[ 7974 7965 7964 7962 ] final   16.13 input  175.53 | X-H torsion
[ 8008 7997 7996 7995 ] final  -43.48 input   59.86 | X-H torsion
[ 10167 10162 10161 10158 ] final -151.99 input  -65.29 | X-H torsion
[ 10718 10713 10712 10709 ] final  117.76 input   66.30 | X-H torsion
[ 10763 10752 10751 10750 ] final   86.03 input  -60.55 | X-H torsion
[ 11005 11000 10999 10996 ] final  178.81 input  -57.11 | X-H torsion

> <Gold.Protein.ActiveResidues>
 VAL166  LYS551  ARG553  GLY616  TRP617  ASP618  TYR619  PRO620  LYS621  CYS622 
 ASP623  PHE694  ASN695  SER759  ASP760  ASP761  ALA762  ILE779  LEU786  VAL792 
 PHE793  MET794  SER795  GLU796  ALA797  LYS798  CYS799  TRP800  GLU811  SER814 

> <Gold.Protein.RotatedAtoms>
  152.5260  133.9657  159.7737 H   0  0  0  0  0  0  0  0  0  0  0  0  # atno 6907 bound_to 6896
  150.9939  133.6114  159.2711 H   0  0  0  0  0  0  0  0  0  0  0  0  # atno 6908 bound_to 6896
  151.3248  135.0833  159.9371 H   0  0  0  0  0  0  0  0  0  0  0  0  # atno 6909 bound_to 6896
  146.2258  139.8792  142.8573 H   0  0  0  0  0  0  0  0  0  0  0  0  # atno 7974 bound_to 7965
  154.3997  140.1447  156.3525 H   0  0  0  0  0  0  0  0  0  0  0  0  # atno 8008 bound_to 7997
  155.8255  140.3468  155.5519 H   0  0  0  0  0  0  0  0  0  0  0  0  # atno 8009 bound_to 7997
  155.8243  140.0902  157.1821 H   0  0  0  0  0  0  0  0  0  0  0  0  # atno 8010 bound_to 7997
  139.7220  143.8943  152.2506 H   0  0  0  0  0  0  0  0  0  0  0  0  # atno 10167 bound_to 10162
  157.6075  131.1041  150.7660 H   0  0  0  0  0  0  0  0  0  0  0  0  # atno 10718 bound_to 10713
  153.1531  135.4595  154.9666 H   0  0  0  0  0  0  0  0  0  0  0  0  # atno 10763 bound_to 10752
  154.7840  135.3198  154.7929 H   0  0  0  0  0  0  0  0  0  0  0  0  # atno 10764 bound_to 10752
  153.8431  135.6928  153.4855 H   0  0  0  0  0  0  0  0  0  0  0  0  # atno 10765 bound_to 10752
  140.3992  134.6793  157.4552 H   0  0  0  0  0  0  0  0  0  0  0  0  # atno 11005 bound_to 11000
  145.2529  141.0050  143.3870 LP  0  0  0  0  0  0  0  0  0  0  0  0  # atno 17320 bound_to 7965
  144.9360  139.4243  143.6472 LP  0  0  0  0  0  0  0  0  0  0  0  0  # atno 17321 bound_to 7965
  139.8841  144.7001  150.8844 LP  0  0  0  0  0  0  0  0  0  0  0  0  # atno 17342 bound_to 10162
  140.7755  143.3638  151.1778 LP  0  0  0  0  0  0  0  0  0  0  0  0  # atno 17343 bound_to 10162
  156.8045  130.4932  149.5365 LP  0  0  0  0  0  0  0  0  0  0  0  0  # atno 17370 bound_to 10713
  156.1167  130.6080  151.0131 LP  0  0  0  0  0  0  0  0  0  0  0  0  # atno 17371 bound_to 10713
  140.0349  134.6352  155.9057 LP  0  0  0  0  0  0  0  0  0  0  0  0  # atno 17394 bound_to 11000
  141.1863  133.6557  156.5233 LP  0  0  0  0  0  0  0  0  0  0  0  0  # atno 17395 bound_to 11000

$$$$
