AV-unprocessed.smi:1350|AV-procd|sdf|5521|dock6
  -GOLD-   22720 5113D 1   1.00000     0.00000
 Structure written by MMmdl.
 43 45  0  0  0  0  0  0  0  0  1 V2000
  147.3251  135.8831  161.7092 C   0  0  0  0  0  0  0  0  0  0  0  0
  147.9394  136.4665  160.5700 O   0  0  0  0  0  0  0  0  0  0  0  0
  148.2876  135.6426  159.5188 C   0  0  0  0  0  0  0  0  0  0  0  0
  148.2787  134.2261  159.5960 C   0  0  0  0  0  0  0  0  0  0  0  0
  148.6414  133.4458  158.4818 C   0  0  0  0  0  0  0  0  0  0  0  0
  149.0167  134.0669  157.2774 C   0  0  0  0  0  0  0  0  0  0  0  0
  149.0303  135.4705  157.1888 C   0  0  0  0  0  0  0  0  0  0  0  0
  148.6712  136.2581  158.3029 C   0  0  0  0  0  0  0  0  0  0  0  0
  148.6883  137.7718  158.1862 C   0  0  0  0  0  0  0  0  0  0  0  0
  149.5077  138.1987  157.1106 O   0  0  0  0  0  0  0  0  0  0  0  0
  149.3047  139.5588  156.7657 C   0  0  0  0  0  0  0  0  0  0  0  0
  150.5119  140.0478  155.9505 C   0  0  1  0  0  0  0  0  0  0  0  0
  150.1506  140.0689  154.5835 O   0  0  0  0  0  0  0  0  0  0  0  0
  150.9595  141.4599  156.3744 C   0  0  0  0  0  0  0  0  0  0  0  0
  151.4744  141.4959  157.7319 N   0  0  0  0  0  0  0  0  0  0  0  0
  151.9208  140.4504  158.4541 C   0  0  0  0  0  0  0  0  0  0  0  0
  152.3504  140.6998  159.6878 N   0  0  0  0  0  0  0  0  0  0  0  0
  152.1622  142.0684  159.7769 C   0  0  0  0  0  0  0  0  0  0  0  0
  152.4222  142.9617  160.8408 C   0  0  0  0  0  0  0  0  0  0  0  0
  152.1476  144.3381  160.7014 C   0  0  0  0  0  0  0  0  0  0  0  0
  151.6103  144.8418  159.4987 C   0  0  0  0  0  0  0  0  0  0  0  0
  151.3426  143.9711  158.4249 C   0  0  0  0  0  0  0  0  0  0  0  0
  151.6164  142.5980  158.5685 C   0  0  0  0  0  0  0  0  0  0  0  0
  147.1253  136.6606  162.4465 H   0  0  0  0  0  0  0  0  0  0  0  0
  147.9755  135.1436  162.1784 H   0  0  0  0  0  0  0  0  0  0  0  0
  146.3718  135.4181  161.4543 H   0  0  0  0  0  0  0  0  0  0  0  0
  147.9950  133.7110  160.5010 H   0  0  0  0  0  0  0  0  0  0  0  0
  148.6302  132.3680  158.5517 H   0  0  0  0  0  0  0  0  0  0  0  0
  149.2936  133.4677  156.4225 H   0  0  0  0  0  0  0  0  0  0  0  0
  149.3198  135.9401  156.2601 H   0  0  0  0  0  0  0  0  0  0  0  0
  147.6739  138.1485  158.0459 H   0  0  0  0  0  0  0  0  0  0  0  0
  149.0558  138.1852  159.1270 H   0  0  0  0  0  0  0  0  0  0  0  0
  148.3706  139.6985  156.2183 H   0  0  0  0  0  0  0  0  0  0  0  0
  149.2282  140.1370  157.6881 H   0  0  0  0  0  0  0  0  0  0  0  0
  151.3458  139.3573  156.0853 H   0  0  0  0  0  0  0  0  0  0  0  0
  149.7509  139.2398  154.3688 H   0  0  0  0  0  0  0  0  0  0  0  0
  151.7246  141.8405  155.6964 H   0  0  0  0  0  0  0  0  0  0  0  0
  150.1198  142.1538  156.3151 H   0  0  0  0  0  0  0  0  0  0  0  0
  151.9308  139.4488  158.0501 H   0  0  0  0  0  0  0  0  0  0  0  0
  152.8346  142.5870  161.7659 H   0  0  0  0  0  0  0  0  0  0  0  0
  152.3513  145.0112  161.5212 H   0  0  0  0  0  0  0  0  0  0  0  0
  151.4045  145.8977  159.4008 H   0  0  0  0  0  0  0  0  0  0  0  0
  150.9343  144.3531  157.5010 H   0  0  0  0  0  0  0  0  0  0  0  0
  1  2  1  0  0  0  0
  1 24  1  0  0  0  0
  1 25  1  0  0  0  0
  1 26  1  0  0  0  0
  2  3  1  0  0  0  0
  3  8  1  0  0  0  0
  3  4  2  0  0  0  0
  4  5  1  0  0  0  0
  4 27  1  0  0  0  0
  5  6  2  0  0  0  0
  5 28  1  0  0  0  0
  6  7  1  0  0  0  0
  6 29  1  0  0  0  0
  7  8  2  0  0  0  0
  7 30  1  0  0  0  0
  8  9  1  0  0  0  0
  9 10  1  0  0  0  0
  9 31  1  0  0  0  0
  9 32  1  0  0  0  0
 10 11  1  0  0  0  0
 11 12  1  0  0  0  0
 11 33  1  0  0  0  0
 11 34  1  0  0  0  0
 12 13  1  0  0  0  0
 12 14  1  0  0  0  0
 12 35  1  0  0  0  0
 13 36  1  0  0  0  0
 14 15  1  0  0  0  0
 14 37  1  0  0  0  0
 14 38  1  0  0  0  0
 15 23  1  0  0  0  0
 15 16  1  0  0  0  0
 16 17  2  0  0  0  0
 16 39  1  0  0  0  0
 17 18  1  0  0  0  0
 18 23  2  0  0  0  0
 18 19  1  0  0  0  0
 19 20  2  0  0  0  0
 19 40  1  0  0  0  0
 20 21  1  0  0  0  0
 20 41  1  0  0  0  0
 21 22  2  0  0  0  0
 21 42  1  0  0  0  0
 22 23  1  0  0  0  0
 22 43  1  0  0  0  0
M  END
> <s_m_source_file>
AV-unprocessed.smi

> <i_m_source_file_index>
1350

> <i_lp_mmshare_version>
43012

> <i_f3d_flags>
0

> <s_epik_input>
W0NIM11PYzFbY0hdW2NIXVtjSF1bY0hdYzFbQ0gyXU9bQ0gyXVtDQEhdKFtPSF0pW0NIMl1uKFtjSF1uMiljKGMyMylbY0hdW2NIXVtjSF1bY0hdMw==

> <s_epik_cmdline>
J2VwaWtfcHl0aG9uJywgJy1waCcsICc3LjAnLCAnLXRuJywgJzgnLCAnLW1hJywgJzIwMCcsICctbWV0YWxfYmluZGluZycsICctaW1hZScsICc8aW5maWxlLm1hZT4nLCAnLW9tYWUnLCAnPG91dGZpbGUubWFlPic=

> <r_lp_tautomer_probability>
1

> <r_epik_Ionization_Penalty>
0.0713119

> <r_epik_Ionization_Penalty_Charging>
0

> <r_epik_Ionization_Penalty_Neutral>
0.0713119

> <r_epik_State_Penalty>
0.06259

> <r_epik_Charging_Adjusted_Penalty>
0.06259

> <i_epik_Tot_Q>
0

> <i_epik_Tot_abs_Q>
0

> <r_epik_Metal_State_Penalty>
6.60119e-05

> <b_epik_Metal_Only>
0

> <s_lp_Force_Field>
OPLS_2005

> <r_lp_Energy>
19.121

> <b_lp_Chiralities_Consistent>
1

> <s_lp_Variant>
AV-unprocessed.smi:1350-2

> <Gold.Version>
5.8.1

> <Gold.Id.Protein>
6NUR|6NUR_protein|mol2

> <Gold.PLP.Fitness>
48.9528

> <Gold.PLP.PLP>
-44.1379

> <Gold.PLP.part.hbond>
-3.0000

> <Gold.PLP.part.metal>
0.0000

> <Gold.PLP.part.buried>
-6.3799

> <Gold.PLP.part.nonpolar>
-35.5418

> <Gold.PLP.part.repulsive>
0.0000

> <Gold.PLP.ligand.clash>
0.0000

> <Gold.PLP.ligand.torsion>
1.4130

> <Gold.PLP.Chemscore.Hbond>
2.4864

> <Gold.PLP.Chemscore.CHOScore>
0.0000

> <Gold.PLP.Chemscore.Metal>
0.0000

> <Gold.Chemscore.Hbonds>
donor molecule, donor type, donor heavy atom, donor atom, acceptor molecule, acceptor atom, score
      P1  H  7989  7998       L1    13  1.00

> <Gold.PLP.Chemscore.Internal.Correction>
0.1817

> <Gold.Rescore>
     Score         DG    S(hbond)    S(metal)    S(lipo)     H(rot)  DE(clash)    DE(int)     intcor
     16.17     -17.95       1.73        0.00     114.78       2.63       0.27       1.52       ----

> <Gold.Chemscore.Fitness>
16.1675

> <Gold.Chemscore.DG>
-17.9539

> <Gold.Chemscore.ZeroCoef>
-5.4800

> <Gold.Chemscore.Hbond>
1.7304

> <Gold.Chemscore.Metal>
0.0000

> <Gold.Chemscore.Lipo>
114.7794

> <Gold.Chemscore.Internal_Hbond>
0.0000

> <Gold.Chemscore.DEClash>
0.2656

> <Gold.Chemscore.DEInternal>
1.5208

> <Gold.Chemscore.Rot>
2.6308

> <Gold.Chemscore.Internal.Correction>
   9.000000E+99

> <Gold.Chemscore.Hbonds>
donor molecule, donor type, donor heavy atom, donor atom, acceptor molecule, acceptor atom, score
      P1  H  7989  7998       L1    13  0.74

> <Gold.Chemscore.Hbond.Weighted>
-5.7795

> <Gold.Chemscore.Metal.Weighted>
-0.0000

> <Gold.Chemscore.Lipo.Weighted>
-13.4292

> <Gold.Chemscore.Internal_Hbond.Weighted>
0.0000

> <Gold.Chemscore.DEClash.Weighted>
0.2656

> <Gold.Chemscore.DEInternal.Weighted>
1.5208

> <Gold.Chemscore.Rot.Weighted>
6.7347

> <Gold.Chemscore.Internal.Correction.Weighted>
   9.000000E+99

> <Gold.Protein.RotatedTorsions>
[ 6907 6896 6895 6894 ] final  138.36 input  -60.11 | X-H torsion
[ 7974 7965 7964 7962 ] final  126.00 input  175.53 | X-H torsion
[ 8008 7997 7996 7995 ] final  109.36 input   59.86 | X-H torsion
[ 10167 10162 10161 10158 ] final  -62.46 input  -65.29 | X-H torsion
[ 10718 10713 10712 10709 ] final  -46.53 input   66.30 | X-H torsion
[ 10763 10752 10751 10750 ] final   91.76 input  -60.55 | X-H torsion
[ 11005 11000 10999 10996 ] final   90.82 input  -57.11 | X-H torsion

> <Gold.Protein.ActiveResidues>
 VAL166  LYS551  ARG553  GLY616  TRP617  ASP618  TYR619  PRO620  LYS621  CYS622 
 ASP623  PHE694  ASN695  SER759  ASP760  ASP761  ALA762  ILE779  LEU786  VAL792 
 PHE793  MET794  SER795  GLU796  ALA797  LYS798  CYS799  TRP800  GLU811  SER814 

> <Gold.Protein.RotatedAtoms>
  152.2674  133.5352  159.5418 H   0  0  0  0  0  0  0  0  0  0  0  0  # atno 6907 bound_to 6896
  150.7147  134.0745  159.3885 H   0  0  0  0  0  0  0  0  0  0  0  0  # atno 6908 bound_to 6896
  151.8661  135.0507  160.0525 H   0  0  0  0  0  0  0  0  0  0  0  0  # atno 6909 bound_to 6896
  145.0666  139.3762  143.4978 H   0  0  0  0  0  0  0  0  0  0  0  0  # atno 7974 bound_to 7965
  156.1973  140.3059  155.9453 H   0  0  0  0  0  0  0  0  0  0  0  0  # atno 8008 bound_to 7997
  155.3036  140.0447  157.3048 H   0  0  0  0  0  0  0  0  0  0  0  0  # atno 8009 bound_to 7997
  154.5526  140.2296  155.8470 H   0  0  0  0  0  0  0  0  0  0  0  0  # atno 8010 bound_to 7997
  140.5937  143.2346  151.6083 H   0  0  0  0  0  0  0  0  0  0  0  0  # atno 10167 bound_to 10162
  156.2173  130.4164  149.9037 H   0  0  0  0  0  0  0  0  0  0  0  0  # atno 10718 bound_to 10713
  153.2118  135.4386  155.0388 H   0  0  0  0  0  0  0  0  0  0  0  0  # atno 10763 bound_to 10752
  154.8204  135.3335  154.7058 H   0  0  0  0  0  0  0  0  0  0  0  0  # atno 10764 bound_to 10752
  153.7496  135.6999  153.5004 H   0  0  0  0  0  0  0  0  0  0  0  0  # atno 10765 bound_to 10752
  139.8849  134.8637  156.3340 H   0  0  0  0  0  0  0  0  0  0  0  0  # atno 11005 bound_to 11000
  146.3527  140.0391  142.8644 LP  0  0  0  0  0  0  0  0  0  0  0  0  # atno 17320 bound_to 7965
  145.1343  140.9535  143.4526 LP  0  0  0  0  0  0  0  0  0  0  0  0  # atno 17321 bound_to 7965
  139.5244  144.3105  152.0997 LP  0  0  0  0  0  0  0  0  0  0  0  0  # atno 17342 bound_to 10162
  140.2273  144.4404  150.6315 LP  0  0  0  0  0  0  0  0  0  0  0  0  # atno 17343 bound_to 10162
  156.6695  130.8814  151.3560 LP  0  0  0  0  0  0  0  0  0  0  0  0  # atno 17370 bound_to 10713
  157.7070  130.9396  150.0963 LP  0  0  0  0  0  0  0  0  0  0  0  0  # atno 17371 bound_to 10713
  140.9704  133.7331  156.0526 LP  0  0  0  0  0  0  0  0  0  0  0  0  # atno 17394 bound_to 11000
  140.7878  134.3652  157.5472 LP  0  0  0  0  0  0  0  0  0  0  0  0  # atno 17395 bound_to 11000

$$$$
