#       Name:                AV-unprocessed.smi:561
#       Creating user name   scv26
#       Creation time:       Thu Mar 26 23:43:59 2020


#       File generated by GOLD software.
#

@<TRIPOS>MOLECULE
AV-unprocessed.smi:561
    42    43     1
SMALL
NO_CHARGES


@<TRIPOS>ATOM
      1 ****        -3.1277  -1.6427  -1.6951 C.3            1 S1                 0.0000
      2 ****        -2.5095  -0.7022  -0.6517 C.3            1 S1                 0.0000
      3 ****        -2.8462  -1.1632   0.7903 C.3            1 S1                 0.0000
      4 ****        -2.3791  -0.2469   1.8474 N.pl3          1 S1                 0.0000
      5 ****        -1.2253  -0.3522   2.5849 C.2            1 S1                 0.0000
      6 ****        -1.2039   0.7206   3.4377 C.2            1 S1                 0.0000
      7 ****        -2.3498   1.4297   3.1972 N.pl3          1 S1                 1.0000
      8 ****        -3.0666   0.8373   2.2368 C.2            1 S1                 0.0000
      9 ****        -1.0552  -0.6736  -0.8460 N.pl3          1 S1                -1.0000
     10 ****        -0.2613   0.4332  -0.7379 C.2            1 S1                 0.0000
     11 ****        -0.6415   1.5795  -0.4616 O.2            1 S1                 0.0000
     12 ****         1.2067   0.2616  -0.9469 C.2            1 S1                 0.0000
     13 ****         1.9590   1.3166  -0.9813 N.2            1 S1                 0.0000
     14 ****         3.3212   1.2440  -1.1863 N.am           1 S1                 0.0000
     15 ****         3.9674   2.5246  -1.4663 C.3            1 S1                 0.0000
     16 ****         4.0530   0.1053  -1.1089 C.2            1 S1                 0.0000
     17 ****         5.2680   0.0577  -1.3022 O.2            1 S1                 0.0000
     18 ****         3.2957  -1.1675  -0.7229 C.3            1 S1                 0.0000
     19 ****         1.8139  -1.1180  -1.1441 C.3            1 S1                 0.0000
     20 ****        -4.2120  -1.6854  -1.5890 H              1 S1                 0.0000
     21 ****        -2.7446  -2.6590  -1.5949 H              1 S1                 0.0000
     22 ****        -2.9120  -1.3028  -2.7087 H              1 S1                 0.0000
     23 ****        -2.9593   0.2805  -0.8014 H              1 S1                 0.0000
     24 ****        -3.9256  -1.2693   0.9065 H              1 S1                 0.0000
     25 ****        -2.4159  -2.1460   0.9889 H              1 S1                 0.0000
     26 ****        -0.5179  -1.1553   2.4362 H              1 S1                 0.0000
     27 ****        -0.4773   1.0246   4.1767 H              1 S1                 0.0000
     28 ****        -4.0073   1.1752   1.8402 H              1 S1                 0.0000
     29 ****         4.6766   2.7763  -0.6764 H              1 S1                 0.0000
     30 ****         3.2460   3.3407  -1.5355 H              1 S1                 0.0000
     31 ****         4.5089   2.4846  -2.4127 H              1 S1                 0.0000
     32 ****         3.7840  -2.0415  -1.1549 H              1 S1                 0.0000
     33 ****         3.3645  -1.2722   0.3604 H              1 S1                 0.0000
     34 ****         1.2779  -1.8677  -0.5611 H              1 S1                 0.0000
     35 ****         1.7118  -1.4094  -2.1900 H              1 S1                 0.0000
     36 ****        -2.6163   2.2831   3.6715 H              1 S1                 0.0000
     37 ****        -0.6073  -1.5373  -1.0771 LP             1 S1                 0.0000
     38 ****        -1.6111   1.7579  -0.2941 LP             1 S1                 0.0000
     39 ****         0.0212   2.3263  -0.4060 LP             1 S1                 0.0000
     40 ****         1.5372   2.2144  -0.8548 LP             1 S1                 0.0000
     41 ****         5.7709   0.8912  -1.5312 LP             1 S1                 0.0000
     42 ****         5.7519  -0.8144  -1.2302 LP             1 S1                 0.0000
@<TRIPOS>BOND
    1    1    2 1     
    2    1   20 1     
    3    1   21 1     
    4    1   22 1     
    5    2    3 1     
    6    2    9 1     
    7    2   23 1     
    8    3    4 1     
    9    3   24 1     
   10    3   25 1     
   11    4    8 1     
   12    4    5 1     
   13    5    6 2     
   14    5   26 1     
   15    6    7 1     
   16    6   27 1     
   17    7    8 2     
   18    7   36 1     
   19    8   28 1     
   20    9   10 1     
   21   10   11 2     
   22   10   12 1     
   23   12   19 1     
   24   12   13 2     
   25   13   14 1     
   26   14   15 1     
   27   14   16 am    
   28   15   29 1     
   29   15   30 1     
   30   15   31 1     
   31   16   17 2     
   32   16   18 1     
   33   18   19 1     
   34   18   32 1     
   35   18   33 1     
   36   19   34 1     
   37   19   35 1     
   38    9   37 1     
   39   11   38 1     
   40   11   39 1     
   41   13   40 1     
   42   17   41 1     
   43   17   42 1     
@<TRIPOS>SUBSTRUCTURE
      1 S1             1
@<TRIPOS>SET
LONE_PAIRS      STATIC     ATOMS    <user>   **** ""
6 37 38 39 40 41 42
DONOR_HYDROGENS      STATIC     ATOMS    <user>   **** ""
1 36
ATOM$BLUE        STATIC     ATOMS    COLORGROUP SYSTEM
6 37 38 39 40 41 42
ATOM$RED        STATIC     ATOMS    COLORGROUP SYSTEM
1 36
