AV-unprocessed.smi:1144|AV-procd|sdf|4881|dock8
  -GOLD-   22720 3453D 1   1.00000     0.00000
 Structure written by MMmdl.
 34 35  0  0  0  0  0  0  0  0  1 V2000
  154.1729  141.4733  160.6137 C   0  0  0  0  0  0  0  0  0  0  0  0
  153.4129  142.3326  159.7191 N   0  0  0  0  0  0  0  0  0  0  0  0
  152.7938  143.4399  160.4349 C   0  0  0  0  0  0  0  0  0  0  0  0
  151.9785  144.3393  159.4910 C   0  0  0  0  0  0  0  0  0  0  0  0
  151.0089  143.5526  158.8055 O   0  0  0  0  0  0  0  0  0  0  0  0
  151.5831  142.4915  158.0437 C   0  0  2  0  0  0  0  0  0  0  0  0
  150.4494  141.7206  157.3546 C   0  0  0  0  0  0  0  0  0  0  0  0
  150.8215  141.3049  156.0106 N   0  0  0  0  0  0  0  0  0  0  0  0
  150.8141  139.9941  155.5737 C   0  0  0  0  0  0  0  0  0  0  0  0
  150.5054  139.7541  154.2942 N   0  0  0  0  0  0  0  0  0  0  0  0
  150.5066  138.4645  153.8943 C   0  0  0  0  0  0  0  0  0  0  0  0
  150.8170  137.4131  154.7791 C   0  0  0  0  0  0  0  0  0  0  0  0
  151.1274  137.7835  156.1068 C   0  0  0  0  0  0  0  0  0  0  0  0
  151.4840  136.7562  157.1707 C   0  0  0  0  0  0  0  0  0  0  0  0
  151.4125  135.5127  156.6940 F   0  0  0  0  0  0  0  0  0  0  0  0
  152.7258  136.9712  157.6052 F   0  0  0  0  0  0  0  0  0  0  0  0
  150.6430  136.8635  158.1995 F   0  0  0  0  0  0  0  0  0  0  0  0
  151.1229  139.0799  156.4959 N   0  0  0  0  0  0  0  0  0  0  0  0
  152.3913  141.5865  158.9952 C   0  0  0  0  0  0  0  0  0  0  0  0
  154.9521  142.0404  161.1240 H   0  0  0  0  0  0  0  0  0  0  0  0
  154.6573  140.6698  160.0582 H   0  0  0  0  0  0  0  0  0  0  0  0
  153.5290  141.0233  161.3704 H   0  0  0  0  0  0  0  0  0  0  0  0
  152.1401  143.0543  161.2189 H   0  0  0  0  0  0  0  0  0  0  0  0
  153.5604  144.0350  160.9324 H   0  0  0  0  0  0  0  0  0  0  0  0
  151.4705  145.1208  160.0562 H   0  0  0  0  0  0  0  0  0  0  0  0
  152.6298  144.8360  158.7702 H   0  0  0  0  0  0  0  0  0  0  0  0
  152.2525  142.9066  157.2873 H   0  0  0  0  0  0  0  0  0  0  0  0
  150.2078  140.8288  157.9342 H   0  0  0  0  0  0  0  0  0  0  0  0
  149.5468  142.3315  157.3133 H   0  0  0  0  0  0  0  0  0  0  0  0
  151.0420  142.0195  155.3324 H   0  0  0  0  0  0  0  0  0  0  0  0
  150.2584  138.2698  152.8614 H   0  0  0  0  0  0  0  0  0  0  0  0
  150.8156  136.3846  154.4504 H   0  0  0  0  0  0  0  0  0  0  0  0
  152.8595  140.7845  158.4231 H   0  0  0  0  0  0  0  0  0  0  0  0
  151.7129  141.1082  159.7035 H   0  0  0  0  0  0  0  0  0  0  0  0
  1  2  1  0  0  0  0
  1 20  1  0  0  0  0
  1 21  1  0  0  0  0
  1 22  1  0  0  0  0
  2 19  1  0  0  0  0
  2  3  1  0  0  0  0
  3  4  1  0  0  0  0
  3 23  1  0  0  0  0
  3 24  1  0  0  0  0
  4  5  1  0  0  0  0
  4 25  1  0  0  0  0
  4 26  1  0  0  0  0
  5  6  1  0  0  0  0
  6  7  1  0  0  0  0
  6 19  1  0  0  0  0
  6 27  1  0  0  0  0
  7  8  1  0  0  0  0
  7 28  1  0  0  0  0
  7 29  1  0  0  0  0
  8  9  1  0  0  0  0
  8 30  1  0  0  0  0
  9 18  1  0  0  0  0
  9 10  2  0  0  0  0
 10 11  1  0  0  0  0
 11 12  2  0  0  0  0
 11 31  1  0  0  0  0
 12 13  1  0  0  0  0
 12 32  1  0  0  0  0
 13 14  1  0  0  0  0
 13 18  2  0  0  0  0
 14 15  1  0  0  0  0
 14 16  1  0  0  0  0
 14 17  1  0  0  0  0
 19 33  1  0  0  0  0
 19 34  1  0  0  0  0
M  END
> <s_m_source_file>
AV-unprocessed.smi

> <i_m_source_file_index>
1144

> <i_lp_mmshare_version>
43012

> <i_f3d_flags>
0

> <s_epik_input>
W0NIM11OMVtDSDJdW0NIMl1PW0NASF0oW0NIMl0xKVtDSDJdW05IXWMybltjSF1bY0hdYyhuMilDKEYpKEYpRg==

> <s_epik_cmdline>
J2VwaWtfcHl0aG9uJywgJy1waCcsICc3LjAnLCAnLXRuJywgJzgnLCAnLW1hJywgJzIwMCcsICctbWV0YWxfYmluZGluZycsICctaW1hZScsICc8aW5maWxlLm1hZT4nLCAnLW9tYWUnLCAnPG91dGZpbGUubWFlPic=

> <r_lp_tautomer_probability>
1

> <r_epik_Ionization_Penalty>
0.797829

> <r_epik_Ionization_Penalty_Charging>
0

> <r_epik_Ionization_Penalty_Neutral>
0.797829

> <r_epik_State_Penalty>
0.828842

> <r_epik_Charging_Adjusted_Penalty>
0.828842

> <i_epik_Tot_Q>
0

> <i_epik_Tot_abs_Q>
0

> <r_epik_Metal_State_Penalty>
0.828842

> <b_epik_Metal_Only>
0

> <s_lp_Force_Field>
OPLS_2005

> <r_lp_Energy>
14.496

> <b_lp_Chiralities_Consistent>
1

> <s_lp_Variant>
AV-unprocessed.smi:1144-6

> <Gold.Version>
5.8.1

> <Gold.Id.Protein>
6NUR|6NUR_protein|mol2

> <Gold.PLP.Fitness>
38.7167

> <Gold.PLP.PLP>
-31.4612

> <Gold.PLP.part.hbond>
-1.0000

> <Gold.PLP.part.metal>
0.0000

> <Gold.PLP.part.buried>
-6.6085

> <Gold.PLP.part.nonpolar>
-25.5486

> <Gold.PLP.part.repulsive>
0.3625

> <Gold.PLP.ligand.clash>
0.0000

> <Gold.PLP.ligand.torsion>
0.7835

> <Gold.PLP.Chemscore.Hbond>
1.0000

> <Gold.PLP.Chemscore.CHOScore>
1.9345

> <Gold.PLP.Chemscore.Metal>
0.0000

> <Gold.Chemscore.Hbonds>
donor molecule, donor type, donor heavy atom, donor atom, acceptor molecule, acceptor atom, score
      P1  H  7989  7998       L1    10  1.00
      L1  C    11    31       P1  7948  0.77
      L1  C    11    31       P1  7949  0.08
      L1  C    11    31       P1  7957  0.83

> <Gold.PLP.Chemscore.Internal.Correction>
0.0189

> <Gold.Rescore>
     Score         DG    S(hbond)    S(metal)    S(lipo)     H(rot)  DE(clash)    DE(int)     intcor
     14.23     -14.99       0.91        0.00      84.18       1.31       0.10       0.66       ----

> <Gold.Chemscore.Fitness>
14.2333

> <Gold.Chemscore.DG>
-14.9903

> <Gold.Chemscore.ZeroCoef>
-5.4800

> <Gold.Chemscore.Hbond>
0.9064

> <Gold.Chemscore.Metal>
0.0000

> <Gold.Chemscore.Lipo>
84.1816

> <Gold.Chemscore.Internal_Hbond>
0.0000

> <Gold.Chemscore.DEClash>
0.1011

> <Gold.Chemscore.DEInternal>
0.6559

> <Gold.Chemscore.Rot>
1.3149

> <Gold.Chemscore.Internal.Correction>
   9.000000E+99

> <Gold.Chemscore.Hbonds>
donor molecule, donor type, donor heavy atom, donor atom, acceptor molecule, acceptor atom, score
      P1  H  7989  7998       L1    10  0.28

> <Gold.Chemscore.Hbond.Weighted>
-3.0272

> <Gold.Chemscore.Metal.Weighted>
-0.0000

> <Gold.Chemscore.Lipo.Weighted>
-9.8493

> <Gold.Chemscore.Internal_Hbond.Weighted>
0.0000

> <Gold.Chemscore.DEClash.Weighted>
0.1011

> <Gold.Chemscore.DEInternal.Weighted>
0.6559

> <Gold.Chemscore.Rot.Weighted>
3.3662

> <Gold.Chemscore.Internal.Correction.Weighted>
   9.000000E+99

> <Gold.Protein.RotatedTorsions>
[ 6907 6896 6895 6894 ] final  142.55 input  -60.11 | X-H torsion
[ 7974 7965 7964 7962 ] final  -67.57 input  175.53 | X-H torsion
[ 8008 7997 7996 7995 ] final -118.50 input   59.86 | X-H torsion
[ 10167 10162 10161 10158 ] final  168.71 input  -65.29 | X-H torsion
[ 10718 10713 10712 10709 ] final -128.26 input   66.30 | X-H torsion
[ 10763 10752 10751 10750 ] final  144.85 input  -60.55 | X-H torsion
[ 11005 11000 10999 10996 ] final  105.37 input  -57.11 | X-H torsion

> <Gold.Protein.ActiveResidues>
 VAL166  LYS551  ARG553  GLY616  TRP617  ASP618  TYR619  PRO620  LYS621  CYS622 
 ASP623  PHE694  ASN695  SER759  ASP760  ASP761  ALA762  ILE779  LEU786  VAL792 
 PHE793  MET794  SER795  GLU796  ALA797  LYS798  CYS799  TRP800  GLU811  SER814 

> <Gold.Protein.RotatedAtoms>
  152.2173  133.4956  159.5142 H   0  0  0  0  0  0  0  0  0  0  0  0  # atno 6907 bound_to 6896
  150.7004  134.1389  159.4106 H   0  0  0  0  0  0  0  0  0  0  0  0  # atno 6908 bound_to 6896
  151.9309  135.0256  160.0580 H   0  0  0  0  0  0  0  0  0  0  0  0  # atno 6909 bound_to 6896
  145.7275  140.9011  143.0598 H   0  0  0  0  0  0  0  0  0  0  0  0  # atno 7974 bound_to 7965
  155.1007  140.0396  157.2696 H   0  0  0  0  0  0  0  0  0  0  0  0  # atno 8008 bound_to 7997
  154.6760  140.2622  155.6932 H   0  0  0  0  0  0  0  0  0  0  0  0  # atno 8009 bound_to 7997
  156.2677  140.2788  156.1287 H   0  0  0  0  0  0  0  0  0  0  0  0  # atno 8010 bound_to 7997
  139.4974  144.3785  151.9648 H   0  0  0  0  0  0  0  0  0  0  0  0  # atno 10167 bound_to 10162
  156.1934  130.6810  151.0452 H   0  0  0  0  0  0  0  0  0  0  0  0  # atno 10718 bound_to 10713
  153.9956  135.2928  155.3407 H   0  0  0  0  0  0  0  0  0  0  0  0  # atno 10763 bound_to 10752
  154.7189  135.5118  153.8784 H   0  0  0  0  0  0  0  0  0  0  0  0  # atno 10764 bound_to 10752
  153.0789  135.6672  154.0204 H   0  0  0  0  0  0  0  0  0  0  0  0  # atno 10765 bound_to 10752
  139.8801  134.9333  156.5503 H   0  0  0  0  0  0  0  0  0  0  0  0  # atno 11005 bound_to 11000
  144.6901  139.9286  143.7471 LP  0  0  0  0  0  0  0  0  0  0  0  0  # atno 17320 bound_to 7965
  146.0569  139.3565  143.0605 LP  0  0  0  0  0  0  0  0  0  0  0  0  # atno 17321 bound_to 7965
  140.3221  144.3415  150.6007 LP  0  0  0  0  0  0  0  0  0  0  0  0  # atno 17342 bound_to 10162
  140.5714  143.2180  151.7592 LP  0  0  0  0  0  0  0  0  0  0  0  0  # atno 17343 bound_to 10162
  157.6943  131.0799  150.7016 LP  0  0  0  0  0  0  0  0  0  0  0  0  # atno 17370 bound_to 10713
  156.7073  130.4641  149.5557 LP  0  0  0  0  0  0  0  0  0  0  0  0  # atno 17371 bound_to 10713
  140.8245  133.8328  155.8926 LP  0  0  0  0  0  0  0  0  0  0  0  0  # atno 17394 bound_to 11000
  140.9387  134.1928  157.4813 LP  0  0  0  0  0  0  0  0  0  0  0  0  # atno 17395 bound_to 11000

$$$$
