AV-unprocessed.smi:2222|AV-procd|sdf|8987|dock3
  -GOLD-   2272012203D 1   1.00000     0.00000
 Structure written by MMmdl.
 34 35  0  0  0  0  0  0  0  0  1 V2000
  147.0826  141.4789  154.1074 C   0  0  0  0  0  0  0  0  0  0  0  0
  148.1984  141.6670  154.9656 O   0  0  0  0  0  0  0  0  0  0  0  0
  149.2741  140.8100  154.8367 C   0  0  0  0  0  0  0  0  0  0  0  0
  149.2284  139.5985  154.1005 C   0  0  0  0  0  0  0  0  0  0  0  0
  150.3770  138.7920  154.0251 C   0  0  0  0  0  0  0  0  0  0  0  0
  151.5374  139.2246  154.6911 C   0  0  0  0  0  0  0  0  0  0  0  0
  152.8120  138.4086  154.6499 C   0  0  0  0  0  0  0  0  0  0  0  0
  151.5930  140.3736  155.3939 N   0  0  0  0  0  0  0  0  0  0  0  0
  150.4916  141.1607  155.4754 C   0  0  0  0  0  0  0  0  0  0  0  0
  150.4705  142.3864  156.1958 N   0  0  0  0  0  0  0  0  0  0  0  0
  150.9441  142.6478  157.4303 C   0  0  0  0  0  0  0  0  0  0  0  0
  151.4514  141.8131  158.1775 O   0  0  0  0  0  0  0  0  0  0  0  0
  150.7848  143.9241  157.8242 N   0  0  0  0  0  0  0  0  0  0  0  0
  151.1764  144.5178  159.0688 C   0  0  2  0  0  0  0  0  0  0  0  0
  152.1897  145.6400  159.0053 C   0  0  0  0  0  0  0  0  0  0  0  0
  152.5909  144.3058  159.5764 C   0  0  2  0  0  0  0  0  0  0  0  0
  153.5838  143.4199  158.8492 C   0  0  0  0  0  0  0  0  0  0  0  0
  146.3283  142.2335  154.3294 H   0  0  0  0  0  0  0  0  0  0  0  0
  146.6238  140.5007  154.2572 H   0  0  0  0  0  0  0  0  0  0  0  0
  147.3625  141.5915  153.0591 H   0  0  0  0  0  0  0  0  0  0  0  0
  148.3352  139.2706  153.5909 H   0  0  0  0  0  0  0  0  0  0  0  0
  150.3635  137.8663  153.4686 H   0  0  0  0  0  0  0  0  0  0  0  0
  152.6463  137.4396  154.1787 H   0  0  0  0  0  0  0  0  0  0  0  0
  153.1864  138.2356  155.6593 H   0  0  0  0  0  0  0  0  0  0  0  0
  153.5799  138.9368  154.0841 H   0  0  0  0  0  0  0  0  0  0  0  0
  150.0539  143.1645  155.7058 H   0  0  0  0  0  0  0  0  0  0  0  0
  150.2734  144.5262  157.1952 H   0  0  0  0  0  0  0  0  0  0  0  0
  150.4048  144.6479  159.8262 H   0  0  0  0  0  0  0  0  0  0  0  0
  152.5837  145.9135  158.0280 H   0  0  0  0  0  0  0  0  0  0  0  0
  152.0684  146.4663  159.7030 H   0  0  0  0  0  0  0  0  0  0  0  0
  152.6924  144.2624  160.6592 H   0  0  0  0  0  0  0  0  0  0  0  0
  153.5085  143.5471  157.7690 H   0  0  0  0  0  0  0  0  0  0  0  0
  153.3970  142.3733  159.0905 H   0  0  0  0  0  0  0  0  0  0  0  0
  154.5997  143.6708  159.1543 H   0  0  0  0  0  0  0  0  0  0  0  0
  1  2  1  0  0  0  0
  1 18  1  0  0  0  0
  1 19  1  0  0  0  0
  1 20  1  0  0  0  0
  2  3  1  0  0  0  0
  3  9  1  0  0  0  0
  3  4  2  0  0  0  0
  4  5  1  0  0  0  0
  4 21  1  0  0  0  0
  5  6  2  0  0  0  0
  5 22  1  0  0  0  0
  6  7  1  0  0  0  0
  6  8  1  0  0  0  0
  7 23  1  0  0  0  0
  7 24  1  0  0  0  0
  7 25  1  0  0  0  0
  8  9  2  0  0  0  0
  9 10  1  0  0  0  0
 10 11  1  0  0  0  0
 10 26  1  0  0  0  0
 11 12  2  0  0  0  0
 11 13  1  0  0  0  0
 13 14  1  0  0  0  0
 13 27  1  0  0  0  0
 14 16  1  0  0  0  0
 14 15  1  0  0  0  0
 14 28  1  0  0  0  0
 15 16  1  0  0  0  0
 15 29  1  0  0  0  0
 15 30  1  0  0  0  0
 16 17  1  0  0  0  0
 16 31  1  0  0  0  0
 17 32  1  0  0  0  0
 17 33  1  0  0  0  0
 17 34  1  0  0  0  0
M  END
> <s_m_source_file>
AV-unprocessed.smi

> <i_m_source_file_index>
2222

> <i_lp_mmshare_version>
43012

> <i_f3d_flags>
0

> <s_epik_input>
W0NIM11PYzFbY0hdW2NIXWMoW0NIM10pbmMxW05IXUMoPU8pW05IXVtDQEBIXTJbQ0gyXVtDQEhdMltDSDNd

> <s_epik_cmdline>
J2VwaWtfcHl0aG9uJywgJy1waCcsICc3LjAnLCAnLXRuJywgJzgnLCAnLW1hJywgJzIwMCcsICctbWV0YWxfYmluZGluZycsICctaW1hZScsICc8aW5maWxlLm1hZT4nLCAnLW9tYWUnLCAnPG91dGZpbGUubWFlPic=

> <r_lp_tautomer_probability>
1

> <r_epik_Ionization_Penalty>
6.59103e-05

> <r_epik_Ionization_Penalty_Charging>
0

> <r_epik_Ionization_Penalty_Neutral>
6.59103e-05

> <r_epik_State_Penalty>
-0

> <r_epik_Charging_Adjusted_Penalty>
0

> <i_epik_Tot_Q>
0

> <i_epik_Tot_abs_Q>
0

> <r_epik_Metal_State_Penalty>
-0

> <b_epik_Metal_Only>
0

> <s_lp_Force_Field>
OPLS_2005

> <r_lp_Energy>
34.1661

> <b_lp_Chiralities_Consistent>
1

> <s_lp_Variant>
AV-unprocessed.smi:2222-3

> <Gold.Version>
5.8.1

> <Gold.Id.Protein>
6NUR|6NUR_protein|mol2

> <Gold.PLP.Fitness>
46.6569

> <Gold.PLP.PLP>
-41.8178

> <Gold.PLP.part.hbond>
-3.0000

> <Gold.PLP.part.metal>
0.0000

> <Gold.PLP.part.buried>
-2.6727

> <Gold.PLP.part.nonpolar>
-36.2673

> <Gold.PLP.part.repulsive>
0.2810

> <Gold.PLP.ligand.clash>
0.0000

> <Gold.PLP.ligand.torsion>
0.5873

> <Gold.PLP.Chemscore.Hbond>
1.9913

> <Gold.PLP.Chemscore.CHOScore>
0.0000

> <Gold.PLP.Chemscore.Metal>
0.0000

> <Gold.Chemscore.Hbonds>
donor molecule, donor type, donor heavy atom, donor atom, acceptor molecule, acceptor atom, score
      L1  H    10    26       P1  8028  1.00
      L1  H    13    27       P1  8028  0.98

> <Gold.PLP.Chemscore.Internal.Correction>
0.0399

> <Gold.Rescore>
     Score         DG    S(hbond)    S(metal)    S(lipo)     H(rot)  DE(clash)    DE(int)     intcor
     16.70     -18.18       1.44        0.00      94.11       1.22       0.29       1.19       ----

> <Gold.Chemscore.Fitness>
16.7028

> <Gold.Chemscore.DG>
-18.1811

> <Gold.Chemscore.ZeroCoef>
-5.4800

> <Gold.Chemscore.Hbond>
1.4386

> <Gold.Chemscore.Metal>
0.0000

> <Gold.Chemscore.Lipo>
94.1130

> <Gold.Chemscore.Internal_Hbond>
0.0000

> <Gold.Chemscore.DEClash>
0.2861

> <Gold.Chemscore.DEInternal>
1.1922

> <Gold.Chemscore.Rot>
1.2168

> <Gold.Chemscore.Internal.Correction>
   9.000000E+99

> <Gold.Chemscore.Hbonds>
donor molecule, donor type, donor heavy atom, donor atom, acceptor molecule, acceptor atom, score
      L1  H    10    26       P1  8028  0.95
      L1  H    13    27       P1  8028  0.52

> <Gold.Chemscore.Hbond.Weighted>
-4.8049

> <Gold.Chemscore.Metal.Weighted>
-0.0000

> <Gold.Chemscore.Lipo.Weighted>
-11.0112

> <Gold.Chemscore.Internal_Hbond.Weighted>
0.0000

> <Gold.Chemscore.DEClash.Weighted>
0.2861

> <Gold.Chemscore.DEInternal.Weighted>
1.1922

> <Gold.Chemscore.Rot.Weighted>
3.1150

> <Gold.Chemscore.Internal.Correction.Weighted>
   9.000000E+99

> <Gold.Protein.RotatedTorsions>
[ 6907 6896 6895 6894 ] final  -99.83 input  -60.11 | X-H torsion
[ 7974 7965 7964 7962 ] final  131.06 input  175.53 | X-H torsion
[ 8008 7997 7996 7995 ] final -115.58 input   59.86 | X-H torsion
[ 10167 10162 10161 10158 ] final -153.99 input  -65.29 | X-H torsion
[ 10718 10713 10712 10709 ] final -107.13 input   66.30 | X-H torsion
[ 10763 10752 10751 10750 ] final -142.50 input  -60.55 | X-H torsion
[ 11005 11000 10999 10996 ] final   74.42 input  -57.11 | X-H torsion

> <Gold.Protein.ActiveResidues>
 VAL166  LYS551  ARG553  GLY616  TRP617  ASP618  TYR619  PRO620  LYS621  CYS622 
 ASP623  PHE694  ASN695  SER759  ASP760  ASP761  ALA762  ILE779  LEU786  VAL792 
 PHE793  MET794  SER795  GLU796  ALA797  LYS798  CYS799  TRP800  GLU811  SER814 

> <Gold.Protein.RotatedAtoms>
  150.7094  134.0980  159.3955 H   0  0  0  0  0  0  0  0  0  0  0  0  # atno 6907 bound_to 6896
  151.8966  135.0393  160.0512 H   0  0  0  0  0  0  0  0  0  0  0  0  # atno 6908 bound_to 6896
  152.2448  133.5130  159.5328 H   0  0  0  0  0  0  0  0  0  0  0  0  # atno 6909 bound_to 6896
  145.0113  139.4218  143.5243 H   0  0  0  0  0  0  0  0  0  0  0  0  # atno 7974 bound_to 7965
  155.0543  140.0393  157.2555 H   0  0  0  0  0  0  0  0  0  0  0  0  # atno 8008 bound_to 7997
  154.7111  140.2693  155.6604 H   0  0  0  0  0  0  0  0  0  0  0  0  # atno 8009 bound_to 7997
  156.2790  140.2721  156.1754 H   0  0  0  0  0  0  0  0  0  0  0  0  # atno 8010 bound_to 7997
  139.7051  143.9200  152.2445 H   0  0  0  0  0  0  0  0  0  0  0  0  # atno 10167 bound_to 10162
  156.0422  130.5647  150.7778 H   0  0  0  0  0  0  0  0  0  0  0  0  # atno 10718 bound_to 10713
  154.8506  135.3494  154.6038 H   0  0  0  0  0  0  0  0  0  0  0  0  # atno 10763 bound_to 10752
  153.6647  135.6988  153.5171 H   0  0  0  0  0  0  0  0  0  0  0  0  # atno 10764 bound_to 10752
  153.2790  135.4269  155.1017 H   0  0  0  0  0  0  0  0  0  0  0  0  # atno 10765 bound_to 10752
  139.9392  134.7431  156.1146 H   0  0  0  0  0  0  0  0  0  0  0  0  # atno 11005 bound_to 11000
  146.3470  139.9558  142.8723 LP  0  0  0  0  0  0  0  0  0  0  0  0  # atno 17320 bound_to 7965
  145.2019  140.9858  143.4150 LP  0  0  0  0  0  0  0  0  0  0  0  0  # atno 17321 bound_to 7965
  139.9053  144.6888  150.8620 LP  0  0  0  0  0  0  0  0  0  0  0  0  # atno 17342 bound_to 10162
  140.7719  143.3483  151.2066 LP  0  0  0  0  0  0  0  0  0  0  0  0  # atno 17343 bound_to 10162
  157.5254  131.0934  151.0025 LP  0  0  0  0  0  0  0  0  0  0  0  0  # atno 17370 bound_to 10713
  157.0344  130.5724  149.5347 LP  0  0  0  0  0  0  0  0  0  0  0  0  # atno 17371 bound_to 10713
  141.1019  133.6674  156.2774 LP  0  0  0  0  0  0  0  0  0  0  0  0  # atno 17394 bound_to 11000
  140.5996  134.5568  157.5515 LP  0  0  0  0  0  0  0  0  0  0  0  0  # atno 17395 bound_to 11000

$$$$
