#       Name:                AV-unprocessed.smi:1205
#       Creating user name   scv26
#       Creation time:       Fri Mar 27 04:06:21 2020


#       File generated by GOLD software.
#

@<TRIPOS>MOLECULE
AV-unprocessed.smi:1205
    52    53     1
SMALL
NO_CHARGES


@<TRIPOS>ATOM
      1 ****        -6.1859   3.3867   1.9319 C.3            1 S1                 0.0000
      2 ****        -5.5579   2.0757   1.5605 C.2            1 S1                 0.0000
      3 ****        -4.1708   1.7554   1.4919 C.2            1 S1                 0.0000
      4 ****        -4.1836   0.4421   1.1084 C.2            1 S1                 0.0000
      5 ****        -3.1345  -0.3921   0.8796 N.am           1 S1                 0.0000
      6 ****        -1.8194  -0.1406   1.0022 C.2            1 S1                 0.0000
      7 ****        -1.3248   0.9297   1.3568 O.2            1 S1                 0.0000
      8 ****        -1.0868  -1.2168   0.6813 N.am           1 S1                 0.0000
      9 ****         0.3719  -1.2705   0.7074 C.3            1 S1                 0.0000
     10 ****         1.0178  -0.5612  -0.5064 C.3            1 S1                 0.0000
     11 ****         0.5435  -1.1376  -1.8585 C.3            1 S1                 0.0000
     12 ****         2.5040  -0.5346  -0.3723 N.4            1 S1                 1.0000
     13 ****         3.1928  -1.8260  -0.6445 C.3            1 S1                 0.0000
     14 ****         4.6745  -1.7459  -0.2451 C.3            1 S1                 0.0000
     15 ****         5.3750  -0.5887  -0.9698 C.3            1 S1                 0.0000
     16 ****         4.6307   0.7336  -0.7140 C.3            1 S1                 0.0000
     17 ****         5.2956   1.9044  -1.4512 C.3            1 S1                 0.0000
     18 ****         3.1442   0.5941  -1.0999 C.3            1 S1                 0.0000
     19 ****        -5.4908   0.0331   0.9651 N.pl3          1 S1                 0.0000
     20 ****        -6.0143  -1.2612   0.5734 C.3            1 S1                 0.0000
     21 ****        -6.3374   1.0475   1.2452 N.2            1 S1                 0.0000
     22 ****        -5.4275   4.1359   2.1597 H              1 S1                 0.0000
     23 ****        -6.8226   3.2821   2.8108 H              1 S1                 0.0000
     24 ****        -6.7994   3.7731   1.1178 H              1 S1                 0.0000
     25 ****        -3.3269   2.3976   1.6935 H              1 S1                 0.0000
     26 ****        -3.3848  -1.3234   0.5816 H              1 S1                 0.0000
     27 ****        -1.5707  -2.0587   0.4041 H              1 S1                 0.0000
     28 ****         0.7348  -0.8342   1.6399 H              1 S1                 0.0000
     29 ****         0.6522  -2.3230   0.7331 H              1 S1                 0.0000
     30 ****         0.6840   0.4766  -0.4679 H              1 S1                 0.0000
     31 ****        -0.5314  -1.0073  -1.9856 H              1 S1                 0.0000
     32 ****         0.7501  -2.2049  -1.9400 H              1 S1                 0.0000
     33 ****         1.0228  -0.6375  -2.6999 H              1 S1                 0.0000
     34 ****         2.7201  -2.6366  -0.0912 H              1 S1                 0.0000
     35 ****         3.1156  -2.0758  -1.7035 H              1 S1                 0.0000
     36 ****         4.7575  -1.6091   0.8340 H              1 S1                 0.0000
     37 ****         5.1748  -2.6866  -0.4773 H              1 S1                 0.0000
     38 ****         6.4098  -0.5129  -0.6339 H              1 S1                 0.0000
     39 ****         5.4096  -0.7951  -2.0407 H              1 S1                 0.0000
     40 ****         4.6822   0.9482   0.3546 H              1 S1                 0.0000
     41 ****         5.2845   1.7518  -2.5308 H              1 S1                 0.0000
     42 ****         6.3346   2.0233  -1.1429 H              1 S1                 0.0000
     43 ****         4.7813   2.8428  -1.2424 H              1 S1                 0.0000
     44 ****         3.0469   0.4428  -2.1758 H              1 S1                 0.0000
     45 ****         2.6270   1.5248  -0.8629 H              1 S1                 0.0000
     46 ****        -5.5420  -2.0443   1.1671 H              1 S1                 0.0000
     47 ****        -5.8034  -1.4362  -0.4817 H              1 S1                 0.0000
     48 ****        -7.0927  -1.3028   0.7320 H              1 S1                 0.0000
     49 ****         2.6698  -0.3368   0.6043 H              1 S1                 0.0000
     50 ****        -1.9166   1.7037   1.5822 LP             1 S1                 0.0000
     51 ****        -0.3313   1.0250   1.4195 LP             1 S1                 0.0000
     52 ****        -7.3369   1.0285   1.2205 LP             1 S1                 0.0000
@<TRIPOS>BOND
    1    1    2 1     
    2    1   22 1     
    3    1   23 1     
    4    1   24 1     
    5    2   21 2     
    6    2    3 1     
    7    3    4 2     
    8    3   25 1     
    9    4    5 1     
   10    4   19 1     
   11    5    6 am    
   12    5   26 1     
   13    6    7 2     
   14    6    8 am    
   15    8    9 1     
   16    8   27 1     
   17    9   10 1     
   18    9   28 1     
   19    9   29 1     
   20   10   11 1     
   21   10   12 1     
   22   10   30 1     
   23   11   31 1     
   24   11   32 1     
   25   11   33 1     
   26   12   18 1     
   27   12   13 1     
   28   12   49 1     
   29   13   14 1     
   30   13   34 1     
   31   13   35 1     
   32   14   15 1     
   33   14   36 1     
   34   14   37 1     
   35   15   16 1     
   36   15   38 1     
   37   15   39 1     
   38   16   17 1     
   39   16   18 1     
   40   16   40 1     
   41   17   41 1     
   42   17   42 1     
   43   17   43 1     
   44   18   44 1     
   45   18   45 1     
   46   19   20 1     
   47   19   21 1     
   48   20   46 1     
   49   20   47 1     
   50   20   48 1     
   51    7   50 1     
   52    7   51 1     
   53   21   52 1     
@<TRIPOS>SUBSTRUCTURE
      1 S1             1
@<TRIPOS>SET
LONE_PAIRS      STATIC     ATOMS    <user>   **** ""
3 50 51 52
DONOR_HYDROGENS      STATIC     ATOMS    <user>   **** ""
3 26 27 49
ATOM$BLUE        STATIC     ATOMS    COLORGROUP SYSTEM
3 50 51 52
ATOM$RED        STATIC     ATOMS    COLORGROUP SYSTEM
3 26 27 49
