AV-unprocessed.smi:1311|AV-procd|sdf|5447|dock7
  -GOLD-   22720 5 13D 1   1.00000     0.00000
 Structure written by MMmdl.
 46 47  0  0  0  0  0  0  0  0  2 V2000
  148.5632  132.6256  153.5592 C   0  0  0  0  0  0  0  0  0  0  0  0
  148.4604  134.0154  154.2077 C   0  0  0  0  0  0  0  0  0  0  0  0
  147.0579  134.6807  154.1147 C   0  0  1  0  0  0  0  0  0  0  0  0
  147.0670  136.0424  154.8700 C   0  0  0  0  0  0  0  0  0  0  0  0
  148.0593  136.9957  154.3851 N   0  0  0  0  0  0  0  0  0  0  0  0
  148.3445  138.1742  154.9630 C   0  0  0  0  0  0  0  0  0  0  0  0
  147.7839  138.5751  155.9821 O   0  0  0  0  0  0  0  0  0  0  0  0
  149.3950  139.0516  154.2757 C   0  0  0  0  0  0  0  0  0  0  0  0
  150.4257  139.5392  155.2641 C   0  0  0  0  0  0  0  0  0  0  0  0
  151.8111  139.2103  155.3238 C   0  0  0  0  0  0  0  0  0  0  0  0
  152.6002  138.2986  154.4287 C   0  0  0  0  0  0  0  0  0  0  0  0
  152.4208  139.8249  156.3234 N   0  0  0  0  0  0  0  0  0  0  0  0
  151.4388  140.5886  156.9613 O   0  0  0  0  0  0  0  0  0  0  0  0
  150.2609  140.3999  156.3147 C   0  0  0  0  0  0  0  0  0  0  0  0
  149.0796  141.1405  156.8448 C   0  0  0  0  0  0  0  0  0  0  0  0
  146.6167  134.8551  152.6906 N   0  3  0  0  0  0  0  0  0  0  0  0
  146.2284  133.6272  151.9602 C   0  0  0  0  0  0  0  0  0  0  0  0
  145.4431  134.1148  150.7493 C   0  0  0  0  0  0  0  0  0  0  0  0
  144.6588  135.2961  151.3042 C   0  0  0  0  0  0  0  0  0  0  0  0
  145.5144  135.8265  152.4625 C   0  0  0  0  0  0  0  0  0  0  0  0
  149.6041  132.3055  153.5077 H   0  0  0  0  0  0  0  0  0  0  0  0
  148.1716  132.6339  152.5415 H   0  0  0  0  0  0  0  0  0  0  0  0
  148.0275  131.8635  154.1241 H   0  0  0  0  0  0  0  0  0  0  0  0
  148.7790  133.9560  155.2492 H   0  0  0  0  0  0  0  0  0  0  0  0
  149.2037  134.6263  153.6973 H   0  0  0  0  0  0  0  0  0  0  0  0
  146.3530  134.0034  154.5992 H   0  0  0  0  0  0  0  0  0  0  0  0
  146.0981  136.5367  154.8121 H   0  0  0  0  0  0  0  0  0  0  0  0
  147.2497  135.8738  155.9319 H   0  0  0  0  0  0  0  0  0  0  0  0
  148.5780  136.7385  153.5577 H   0  0  0  0  0  0  0  0  0  0  0  0
  149.8539  138.4710  153.4750 H   0  0  0  0  0  0  0  0  0  0  0  0
  148.8952  139.8903  153.7892 H   0  0  0  0  0  0  0  0  0  0  0  0
  152.1035  138.1568  153.4688 H   0  0  0  0  0  0  0  0  0  0  0  0
  152.7260  137.3169  154.8857 H   0  0  0  0  0  0  0  0  0  0  0  0
  153.5928  138.7022  154.2263 H   0  0  0  0  0  0  0  0  0  0  0  0
  148.1878  140.5139  156.8266 H   0  0  0  0  0  0  0  0  0  0  0  0
  148.8817  142.0286  156.2449 H   0  0  0  0  0  0  0  0  0  0  0  0
  149.2453  141.4577  157.8746 H   0  0  0  0  0  0  0  0  0  0  0  0
  147.0934  133.0330  151.6641 H   0  0  0  0  0  0  0  0  0  0  0  0
  145.5826  133.0122  152.5895 H   0  0  0  0  0  0  0  0  0  0  0  0
  146.1305  134.4560  149.9738 H   0  0  0  0  0  0  0  0  0  0  0  0
  144.8034  133.3438  150.3186 H   0  0  0  0  0  0  0  0  0  0  0  0
  144.4629  136.0552  150.5461 H   0  0  0  0  0  0  0  0  0  0  0  0
  143.6958  134.9534  151.6851 H   0  0  0  0  0  0  0  0  0  0  0  0
  144.8882  135.9369  153.3488 H   0  0  0  0  0  0  0  0  0  0  0  0
  145.9330  136.8042  152.2223 H   0  0  0  0  0  0  0  0  0  0  0  0
  147.4140  135.2156  152.1860 H   0  0  0  0  0  0  0  0  0  0  0  0
  1  2  1  0  0  0  0
  1 21  1  0  0  0  0
  1 22  1  0  0  0  0
  1 23  1  0  0  0  0
  2  3  1  0  0  0  0
  2 24  1  0  0  0  0
  2 25  1  0  0  0  0
  3  4  1  0  0  0  0
  3 16  1  0  0  0  0
  3 26  1  0  0  0  0
  4  5  1  0  0  0  0
  4 27  1  0  0  0  0
  4 28  1  0  0  0  0
  5  6  1  0  0  0  0
  5 29  1  0  0  0  0
  6  7  2  0  0  0  0
  6  8  1  0  0  0  0
  8  9  1  0  0  0  0
  8 30  1  0  0  0  0
  8 31  1  0  0  0  0
  9 14  2  0  0  0  0
  9 10  1  0  0  0  0
 10 11  1  0  0  0  0
 10 12  2  0  0  0  0
 11 32  1  0  0  0  0
 11 33  1  0  0  0  0
 11 34  1  0  0  0  0
 12 13  1  0  0  0  0
 13 14  1  0  0  0  0
 14 15  1  0  0  0  0
 15 35  1  0  0  0  0
 15 36  1  0  0  0  0
 15 37  1  0  0  0  0
 16 20  1  0  0  0  0
 16 17  1  0  0  0  0
 16 46  1  0  0  0  0
 17 18  1  0  0  0  0
 17 38  1  0  0  0  0
 17 39  1  0  0  0  0
 18 19  1  0  0  0  0
 18 40  1  0  0  0  0
 18 41  1  0  0  0  0
 19 20  1  0  0  0  0
 19 42  1  0  0  0  0
 19 43  1  0  0  0  0
 20 44  1  0  0  0  0
 20 45  1  0  0  0  0
M  CHG  1  16   1
M  END
> <s_m_source_file>
AV-unprocessed.smi

> <i_m_source_file_index>
1311

> <i_lp_mmshare_version>
43012

> <i_f3d_flags>
0

> <s_epik_input>
W0NIMl0xW0NIMl1bQ0gyXVtDSDJdTjFbQ0BIXShbQ0gyXVtDSDNdKVtDSDJdW05IXUMoPU8pW0NIMl1jMmMoW0NIM10pbm9jMltDSDNd

> <s_epik_cmdline>
J2VwaWtfcHl0aG9uJywgJy1waCcsICc3LjAnLCAnLXRuJywgJzgnLCAnLW1hJywgJzIwMCcsICctbWV0YWxfYmluZGluZycsICctaW1hZScsICc8aW5maWxlLm1hZT4nLCAnLW9tYWUnLCAnPG91dGZpbGUubWFlPic=

> <r_epik_Ionization_Penalty>
0.00366311

> <r_epik_Ionization_Penalty_Charging>
0.00366302

> <r_epik_Ionization_Penalty_Neutral>
9.25085e-08

> <r_epik_State_Penalty>
0.00260703

> <r_epik_Charging_Adjusted_Penalty>
0.00627005

> <i_epik_Tot_Q>
1

> <i_epik_Tot_abs_Q>
1

> <r_epik_Metal_State_Penalty>
-0

> <b_epik_Metal_Only>
0

> <s_lp_Force_Field>
OPLS_2005

> <r_lp_Energy>
34.8572

> <b_lp_Chiralities_Consistent>
1

> <s_lp_Variant>
AV-unprocessed.smi:1311-2

> <Gold.Version>
5.8.1

> <Gold.Id.Protein>
6NUR|6NUR_protein|mol2

> <Gold.PLP.Fitness>
43.0790

> <Gold.PLP.PLP>
-31.8421

> <Gold.PLP.part.hbond>
-3.0000

> <Gold.PLP.part.metal>
0.0000

> <Gold.PLP.part.buried>
-1.0229

> <Gold.PLP.part.nonpolar>
-27.0437

> <Gold.PLP.part.repulsive>
0.0097

> <Gold.PLP.ligand.clash>
0.0000

> <Gold.PLP.ligand.torsion>
0.4499

> <Gold.PLP.Chemscore.Hbond>
4.0000

> <Gold.PLP.Chemscore.CHOScore>
0.0000

> <Gold.PLP.Chemscore.Metal>
0.0000

> <Gold.Chemscore.Hbonds>
donor molecule, donor type, donor heavy atom, donor atom, acceptor molecule, acceptor atom, score
      L1  H     5    29       P1  7948  1.00
      L1  H    16    46       P1  7948  2.00
      P1  H  7997  8008       L1    12  1.00

> <Gold.PLP.Chemscore.Internal.Correction>
0.1368

> <Gold.Rescore>
     Score         DG    S(hbond)    S(metal)    S(lipo)     H(rot)  DE(clash)    DE(int)     intcor
     18.90     -19.63       2.93        0.00      76.67       1.80       0.01       0.72       ----

> <Gold.Chemscore.Fitness>
18.9003

> <Gold.Chemscore.DG>
-19.6283

> <Gold.Chemscore.ZeroCoef>
-5.4800

> <Gold.Chemscore.Hbond>
2.9303

> <Gold.Chemscore.Metal>
0.0000

> <Gold.Chemscore.Lipo>
76.6673

> <Gold.Chemscore.Internal_Hbond>
0.0000

> <Gold.Chemscore.DEClash>
0.0108

> <Gold.Chemscore.DEInternal>
0.7173

> <Gold.Chemscore.Rot>
1.8004

> <Gold.Chemscore.Internal.Correction>
   9.000000E+99

> <Gold.Chemscore.Hbonds>
donor molecule, donor type, donor heavy atom, donor atom, acceptor molecule, acceptor atom, score
      L1  H     5    29       P1  7948  1.00
      L1  H    16    46       P1  7948  0.99
      P1  H  7997  8008       L1    12  0.98

> <Gold.Chemscore.Hbond.Weighted>
-9.7872

> <Gold.Chemscore.Metal.Weighted>
-0.0000

> <Gold.Chemscore.Lipo.Weighted>
-8.9701

> <Gold.Chemscore.Internal_Hbond.Weighted>
0.0000

> <Gold.Chemscore.DEClash.Weighted>
0.0108

> <Gold.Chemscore.DEInternal.Weighted>
0.7173

> <Gold.Chemscore.Rot.Weighted>
4.6090

> <Gold.Chemscore.Internal.Correction.Weighted>
   9.000000E+99

> <Gold.Protein.RotatedTorsions>
[ 6907 6896 6895 6894 ] final -102.34 input  -60.11 | X-H torsion
[ 7974 7965 7964 7962 ] final  166.38 input  175.53 | X-H torsion
[ 8008 7997 7996 7995 ] final  -40.62 input   59.86 | X-H torsion
[ 10167 10162 10161 10158 ] final   69.02 input  -65.29 | X-H torsion
[ 10718 10713 10712 10709 ] final   12.38 input   66.30 | X-H torsion
[ 10763 10752 10751 10750 ] final   42.05 input  -60.55 | X-H torsion
[ 11005 11000 10999 10996 ] final -146.84 input  -57.11 | X-H torsion

> <Gold.Protein.ActiveResidues>
 VAL166  LYS551  ARG553  GLY616  TRP617  ASP618  TYR619  PRO620  LYS621  CYS622 
 ASP623  PHE694  ASN695  SER759  ASP760  ASP761  ALA762  ILE779  LEU786  VAL792 
 PHE793  MET794  SER795  GLU796  ALA797  LYS798  CYS799  TRP800  GLU811  SER814 

> <Gold.Protein.RotatedAtoms>
  150.7192  134.0597  159.3826 H   0  0  0  0  0  0  0  0  0  0  0  0  # atno 6907 bound_to 6896
  151.8576  135.0533  160.0475 H   0  0  0  0  0  0  0  0  0  0  0  0  # atno 6908 bound_to 6896
  152.2742  133.5374  159.5494 H   0  0  0  0  0  0  0  0  0  0  0  0  # atno 6909 bound_to 6896
  144.7465  139.8606  143.6380 H   0  0  0  0  0  0  0  0  0  0  0  0  # atno 7974 bound_to 7965
  154.4010  140.1521  156.3056 H   0  0  0  0  0  0  0  0  0  0  0  0  # atno 8008 bound_to 7997
  155.8661  140.3451  155.5768 H   0  0  0  0  0  0  0  0  0  0  0  0  # atno 8009 bound_to 7997
  155.7826  140.0845  157.2042 H   0  0  0  0  0  0  0  0  0  0  0  0  # atno 8010 bound_to 7997
  140.0723  144.5142  150.7218 H   0  0  0  0  0  0  0  0  0  0  0  0  # atno 10167 bound_to 10162
  157.0092  130.6110  149.5706 H   0  0  0  0  0  0  0  0  0  0  0  0  # atno 10718 bound_to 10713
  152.9892  135.6143  154.2886 H   0  0  0  0  0  0  0  0  0  0  0  0  # atno 10763 bound_to 10752
  154.2613  135.2782  155.2779 H   0  0  0  0  0  0  0  0  0  0  0  0  # atno 10764 bound_to 10752
  154.5203  135.5816  153.6733 H   0  0  0  0  0  0  0  0  0  0  0  0  # atno 10765 bound_to 10752
  140.7779  134.3114  157.5055 H   0  0  0  0  0  0  0  0  0  0  0  0  # atno 11005 bound_to 11000
  146.1351  139.4394  143.0144 LP  0  0  0  0  0  0  0  0  0  0  0  0  # atno 17320 bound_to 7965
  145.7104  141.0108  143.1456 LP  0  0  0  0  0  0  0  0  0  0  0  0  # atno 17321 bound_to 7965
  140.7119  143.2512  151.4554 LP  0  0  0  0  0  0  0  0  0  0  0  0  # atno 17342 bound_to 10162
  139.5828  144.1670  152.1991 LP  0  0  0  0  0  0  0  0  0  0  0  0  # atno 17343 bound_to 10162
  156.0142  130.5235  150.8084 LP  0  0  0  0  0  0  0  0  0  0  0  0  # atno 17370 bound_to 10713
  157.5333  131.0937  150.9926 LP  0  0  0  0  0  0  0  0  0  0  0  0  # atno 17371 bound_to 10713
  139.8746  134.9300  156.3491 LP  0  0  0  0  0  0  0  0  0  0  0  0  # atno 17394 bound_to 11000
  140.9511  133.7450  156.0274 LP  0  0  0  0  0  0  0  0  0  0  0  0  # atno 17395 bound_to 11000

$$$$
