AV-unprocessed.smi:2494|AV-procd|sdf|9821|dock1
  -GOLD-   2272013453D 1   1.00000     0.00000
 Structure written by MMmdl.
 30 31  0  0  0  0  0  0  0  0  1 V2000
  151.0131  144.1720  161.6110 O   0  0  0  0  0  0  0  0  0  0  0  0
  152.0382  144.5372  160.7122 C   0  0  0  0  0  0  0  0  0  0  0  0
  152.2178  143.4363  159.6540 C   0  0  0  0  0  0  0  0  0  0  0  0
  152.5186  142.0322  160.2439 C   0  0  2  0  0  0  0  0  0  0  0  0
  153.6708  142.1159  161.2762 C   0  0  0  0  0  0  0  0  0  0  0  0
  154.0072  140.8283  161.7752 O   0  0  0  0  0  0  0  0  0  0  0  0
  154.4625  139.9727  160.7390 C   0  0  0  0  0  0  0  0  0  0  0  0
  153.3223  139.7713  159.7344 C   0  0  0  0  0  0  0  0  0  0  0  0
  152.8584  141.0494  159.2020 N   0  0  0  0  0  0  0  0  0  0  0  0
  152.0406  140.8955  158.0897 C   0  0  0  0  0  0  0  0  0  0  0  0
  152.4851  140.1262  157.0864 N   0  0  0  0  0  0  0  0  0  0  0  0
  151.6908  140.0116  156.0001 C   0  0  0  0  0  0  0  0  0  0  0  0
  150.4526  140.6789  155.9185 C   0  0  0  0  0  0  0  0  0  0  0  0
  149.4351  140.5379  154.5327 Cl  0  0  0  0  0  0  0  0  0  0  0  0
  150.0904  141.4697  157.0270 C   0  0  0  0  0  0  0  0  0  0  0  0
  150.8909  141.5790  158.1095 N   0  0  0  0  0  0  0  0  0  0  0  0
  150.3356  144.8302  161.5784 H   0  0  0  0  0  0  0  0  0  0  0  0
  151.7681  145.4892  160.2566 H   0  0  0  0  0  0  0  0  0  0  0  0
  152.9622  144.6880  161.2711 H   0  0  0  0  0  0  0  0  0  0  0  0
  151.3043  143.4110  159.0609 H   0  0  0  0  0  0  0  0  0  0  0  0
  153.0124  143.7199  158.9623 H   0  0  0  0  0  0  0  0  0  0  0  0
  151.6255  141.6690  160.7546 H   0  0  0  0  0  0  0  0  0  0  0  0
  154.5548  142.5834  160.8387 H   0  0  0  0  0  0  0  0  0  0  0  0
  153.3807  142.7274  162.1296 H   0  0  0  0  0  0  0  0  0  0  0  0
  155.3463  140.3919  160.2552 H   0  0  0  0  0  0  0  0  0  0  0  0
  154.7564  139.0160  161.1709 H   0  0  0  0  0  0  0  0  0  0  0  0
  153.6631  139.1260  158.9237 H   0  0  0  0  0  0  0  0  0  0  0  0
  152.4866  139.2620  160.2164 H   0  0  0  0  0  0  0  0  0  0  0  0
  152.0471  139.3879  155.1936 H   0  0  0  0  0  0  0  0  0  0  0  0
  149.1598  142.0174  157.0462 H   0  0  0  0  0  0  0  0  0  0  0  0
  1  2  1  0  0  0  0
  1 17  1  0  0  0  0
  2  3  1  0  0  0  0
  2 18  1  0  0  0  0
  2 19  1  0  0  0  0
  3  4  1  0  0  0  0
  3 20  1  0  0  0  0
  3 21  1  0  0  0  0
  4  9  1  0  0  0  0
  4  5  1  0  0  0  0
  4 22  1  0  0  0  0
  5  6  1  0  0  0  0
  5 23  1  0  0  0  0
  5 24  1  0  0  0  0
  6  7  1  0  0  0  0
  7  8  1  0  0  0  0
  7 25  1  0  0  0  0
  7 26  1  0  0  0  0
  8  9  1  0  0  0  0
  8 27  1  0  0  0  0
  8 28  1  0  0  0  0
  9 10  1  0  0  0  0
 10 16  1  0  0  0  0
 10 11  2  0  0  0  0
 11 12  1  0  0  0  0
 12 13  2  0  0  0  0
 12 29  1  0  0  0  0
 13 14  1  0  0  0  0
 13 15  1  0  0  0  0
 15 16  2  0  0  0  0
 15 30  1  0  0  0  0
M  END
> <s_m_source_file>
AV-unprocessed.smi

> <i_m_source_file_index>
2494

> <i_lp_mmshare_version>
43012

> <i_f3d_flags>
0

> <s_epik_input>
W09IXVtDSDJdW0NIMl1bQ0BASF0xW0NIMl1PW0NIMl1bQ0gyXU4xYzJuW2NIXWMoQ2wpW2NIXW4y

> <s_epik_cmdline>
J2VwaWtfcHl0aG9uJywgJy1waCcsICc3LjAnLCAnLXRuJywgJzgnLCAnLW1hJywgJzIwMCcsICctbWV0YWxfYmluZGluZycsICctaW1hZScsICc8aW5maWxlLm1hZT4nLCAnLW9tYWUnLCAnPG91dGZpbGUubWFlPic=

> <r_lp_tautomer_probability>
1

> <r_epik_Ionization_Penalty>
3.66811e-07

> <r_epik_Ionization_Penalty_Charging>
0

> <r_epik_Ionization_Penalty_Neutral>
3.66811e-07

> <r_epik_State_Penalty>
-0

> <r_epik_Charging_Adjusted_Penalty>
0

> <i_epik_Tot_Q>
0

> <i_epik_Tot_abs_Q>
0

> <r_epik_Metal_State_Penalty>
-0

> <b_epik_Metal_Only>
0

> <s_lp_Force_Field>
OPLS_2005

> <r_lp_Energy>
15.3646

> <b_lp_Chiralities_Consistent>
1

> <s_lp_Variant>
AV-unprocessed.smi:2494-1

> <Gold.Version>
5.8.1

> <Gold.Id.Protein>
6NUR|6NUR_protein|mol2

> <Gold.PLP.Fitness>
39.3576

> <Gold.PLP.PLP>
-36.4355

> <Gold.PLP.part.hbond>
-3.7667

> <Gold.PLP.part.metal>
0.0000

> <Gold.PLP.part.buried>
-3.3553

> <Gold.PLP.part.nonpolar>
-28.5654

> <Gold.PLP.part.repulsive>
0.0288

> <Gold.PLP.ligand.clash>
0.0000

> <Gold.PLP.ligand.torsion>
0.2017

> <Gold.PLP.Chemscore.Hbond>
1.0000

> <Gold.PLP.Chemscore.CHOScore>
0.0000

> <Gold.PLP.Chemscore.Metal>
0.0000

> <Gold.Chemscore.Hbonds>
donor molecule, donor type, donor heavy atom, donor atom, acceptor molecule, acceptor atom, score
      P1  H  7997  8009       L1    11  1.00

> <Gold.PLP.Chemscore.Internal.Correction>
0.3255

> <Gold.Rescore>
     Score         DG    S(hbond)    S(metal)    S(lipo)     H(rot)  DE(clash)    DE(int)     intcor
     11.67     -13.27       0.93        0.00      84.78       2.04       0.02       1.58       ----

> <Gold.Chemscore.Fitness>
11.6673

> <Gold.Chemscore.DG>
-13.2688

> <Gold.Chemscore.ZeroCoef>
-5.4800

> <Gold.Chemscore.Hbond>
0.9275

> <Gold.Chemscore.Metal>
0.0000

> <Gold.Chemscore.Lipo>
84.7819

> <Gold.Chemscore.Internal_Hbond>
0.0000

> <Gold.Chemscore.DEClash>
0.0234

> <Gold.Chemscore.DEInternal>
1.5781

> <Gold.Chemscore.Rot>
2.0424

> <Gold.Chemscore.Internal.Correction>
   9.000000E+99

> <Gold.Chemscore.Hbonds>
donor molecule, donor type, donor heavy atom, donor atom, acceptor molecule, acceptor atom, score
      P1  H  7997  8009       L1    11  0.62

> <Gold.Chemscore.Hbond.Weighted>
-3.0978

> <Gold.Chemscore.Metal.Weighted>
-0.0000

> <Gold.Chemscore.Lipo.Weighted>
-9.9195

> <Gold.Chemscore.Internal_Hbond.Weighted>
0.0000

> <Gold.Chemscore.DEClash.Weighted>
0.0234

> <Gold.Chemscore.DEInternal.Weighted>
1.5781

> <Gold.Chemscore.Rot.Weighted>
5.2285

> <Gold.Chemscore.Internal.Correction.Weighted>
   9.000000E+99

> <Gold.Protein.RotatedTorsions>
[ 6907 6896 6895 6894 ] final  151.62 input  -60.11 | X-H torsion
[ 7974 7965 7964 7962 ] final  107.52 input  175.53 | X-H torsion
[ 8008 7997 7996 7995 ] final -169.01 input   59.86 | X-H torsion
[ 10167 10162 10161 10158 ] final   -5.04 input  -65.29 | X-H torsion
[ 10718 10713 10712 10709 ] final   18.52 input   66.30 | X-H torsion
[ 10763 10752 10751 10750 ] final -155.30 input  -60.55 | X-H torsion
[ 11005 11000 10999 10996 ] final  160.19 input  -57.11 | X-H torsion

> <Gold.Protein.ActiveResidues>
 VAL166  LYS551  ARG553  GLY616  TRP617  ASP618  TYR619  PRO620  LYS621  CYS622 
 ASP623  PHE694  ASN695  SER759  ASP760  ASP761  ALA762  ILE779  LEU786  VAL792 
 PHE793  MET794  SER795  GLU796  ALA797  LYS798  CYS799  TRP800  GLU811  SER814 

> <Gold.Protein.RotatedAtoms>
  152.0981  133.4235  159.4574 H   0  0  0  0  0  0  0  0  0  0  0  0  # atno 6907 bound_to 6896
  150.6863  134.2792  159.4629 H   0  0  0  0  0  0  0  0  0  0  0  0  # atno 6908 bound_to 6896
  152.0650  134.9570  160.0625 H   0  0  0  0  0  0  0  0  0  0  0  0  # atno 6909 bound_to 6896
  145.2926  139.2595  143.3857 H   0  0  0  0  0  0  0  0  0  0  0  0  # atno 7974 bound_to 7965
  155.8991  140.1038  157.1363 H   0  0  0  0  0  0  0  0  0  0  0  0  # atno 8008 bound_to 7997
  154.4024  140.1296  156.4478 H   0  0  0  0  0  0  0  0  0  0  0  0  # atno 8009 bound_to 7997
  155.7443  140.3466  155.5122 H   0  0  0  0  0  0  0  0  0  0  0  0  # atno 8010 bound_to 7997
  140.6949  143.6353  150.8485 H   0  0  0  0  0  0  0  0  0  0  0  0  # atno 10167 bound_to 10162
  157.0975  130.6454  149.5864 H   0  0  0  0  0  0  0  0  0  0  0  0  # atno 10718 bound_to 10713
  154.7797  135.3171  154.8016 H   0  0  0  0  0  0  0  0  0  0  0  0  # atno 10763 bound_to 10752
  153.8730  135.6842  153.4777 H   0  0  0  0  0  0  0  0  0  0  0  0  # atno 10764 bound_to 10752
  153.1430  135.4731  154.9461 H   0  0  0  0  0  0  0  0  0  0  0  0  # atno 10765 bound_to 10752
  140.2035  134.8320  157.3044 H   0  0  0  0  0  0  0  0  0  0  0  0  # atno 11005 bound_to 11000
  146.3180  140.3421  142.8649 LP  0  0  0  0  0  0  0  0  0  0  0  0  # atno 17320 bound_to 7965
  144.9160  140.7813  143.5778 LP  0  0  0  0  0  0  0  0  0  0  0  0  # atno 17321 bound_to 7965
  140.0070  143.5683  152.2853 LP  0  0  0  0  0  0  0  0  0  0  0  0  # atno 17342 bound_to 10162
  139.6393  144.7653  151.2372 LP  0  0  0  0  0  0  0  0  0  0  0  0  # atno 17343 bound_to 10162
  155.9882  130.4924  150.7159 LP  0  0  0  0  0  0  0  0  0  0  0  0  # atno 17370 bound_to 10713
  157.4669  131.0889  151.0685 LP  0  0  0  0  0  0  0  0  0  0  0  0  # atno 17371 bound_to 10713
  140.2028  134.4234  155.7654 LP  0  0  0  0  0  0  0  0  0  0  0  0  # atno 17394 bound_to 11000
  141.2227  133.7080  156.8211 LP  0  0  0  0  0  0  0  0  0  0  0  0  # atno 17395 bound_to 11000

$$$$
