#       Name:                AV-unprocessed.smi:2875
#       Creating user name   scv26
#       Creation time:       Fri Mar 27 15:50:46 2020


#       File generated by GOLD software.
#

@<TRIPOS>MOLECULE
AV-unprocessed.smi:2875
    48    48     1
SMALL
NO_CHARGES


@<TRIPOS>ATOM
      1 ****        -2.2764  -2.1048  -2.1108 C.3            1 S1                 0.0000
      2 ****        -3.3990  -1.9603  -1.0743 C.3            1 S1                 0.0000
      3 ****        -2.9081  -1.8377   0.3837 C.3            1 S1                 0.0000
      4 ****        -2.0567  -0.6453   0.6051 N.am           1 S1                 0.0000
      5 ****        -0.6412  -0.7827   0.6215 C.2            1 S1                 0.0000
      6 ****        -0.0801  -2.0402   0.4504 N.pl3          1 S1                 0.0000
      7 ****         0.1469   0.3084   0.8195 C.2            1 S1                 0.0000
      8 ****         1.5544   0.2282   0.7961 N.am           1 S1                 0.0000
      9 ****         2.1931  -0.0191  -0.5079 C.3            1 S1                 0.0000
     10 ****         2.7464   1.2714  -1.1336 C.3            1 S1                 0.0000
     11 ****         1.6669   2.0795  -1.5706 O.3            1 S1                 0.0000
     12 ****         2.0939   3.3276  -2.0849 C.3            1 S1                 0.0000
     13 ****         2.3023   0.3147   1.9279 C.2            1 S1                 0.0000
     14 ****         1.6048   0.4134   3.2905 C.3            1 S1                 0.0000
     15 ****         3.5338   0.2855   1.9122 O.2            1 S1                 0.0000
     16 ****        -0.4904   1.6223   0.9805 C.2            1 S1                 0.0000
     17 ****         0.1984   2.6332   1.1229 O.2            1 S1                 0.0000
     18 ****        -1.8480   1.6735   0.9632 N.pl3          1 S1                -1.0000
     19 ****        -2.6411   0.5801   0.7801 C.2            1 S1                 0.0000
     20 ****        -3.8697   0.6696   0.7653 O.2            1 S1                 0.0000
     21 ****        -2.6891  -2.2340  -3.1113 H              1 S1                 0.0000
     22 ****        -1.6500  -2.9704  -1.8955 H              1 S1                 0.0000
     23 ****        -1.6376  -1.2216  -2.1316 H              1 S1                 0.0000
     24 ****        -4.0127  -1.0966  -1.3320 H              1 S1                 0.0000
     25 ****        -4.0582  -2.8255  -1.1486 H              1 S1                 0.0000
     26 ****        -3.7746  -1.7992   1.0462 H              1 S1                 0.0000
     27 ****        -2.4143  -2.7622   0.6794 H              1 S1                 0.0000
     28 ****        -0.6483  -2.8636   0.3141 H              1 S1                 0.0000
     29 ****         0.9180  -2.1857   0.4988 H              1 S1                 0.0000
     30 ****         2.9984  -0.7466  -0.3927 H              1 S1                 0.0000
     31 ****         1.4902  -0.4772  -1.2051 H              1 S1                 0.0000
     32 ****         3.3719   1.8112  -0.4211 H              1 S1                 0.0000
     33 ****         3.3738   1.0221  -1.9903 H              1 S1                 0.0000
     34 ****         1.2284   3.9032  -2.4128 H              1 S1                 0.0000
     35 ****         2.7569   3.1956  -2.9409 H              1 S1                 0.0000
     36 ****         2.6150   3.9087  -1.3231 H              1 S1                 0.0000
     37 ****         0.8319  -0.3488   3.3945 H              1 S1                 0.0000
     38 ****         1.1507   1.3952   3.4235 H              1 S1                 0.0000
     39 ****         2.3222   0.2679   4.0985 H              1 S1                 0.0000
     40 ****         1.0562   2.2443  -0.7960 LP             1 S1                 0.0000
     41 ****         1.1707   1.5904  -2.2880 LP             1 S1                 0.0000
     42 ****         4.0207   0.1952   1.0434 LP             1 S1                 0.0000
     43 ****         4.0464   0.3521   2.7682 LP             1 S1                 0.0000
     44 ****         1.1958   2.5618   1.1293 LP             1 S1                 0.0000
     45 ****        -0.2398   3.5254   1.2321 LP             1 S1                 0.0000
     46 ****        -2.2894   2.5615   1.0918 LP             1 S1                 0.0000
     47 ****        -4.4290  -0.1477   0.6265 LP             1 S1                 0.0000
     48 ****        -4.3078   1.5595   0.8921 LP             1 S1                 0.0000
@<TRIPOS>BOND
    1    1    2 1     
    2    1   21 1     
    3    1   22 1     
    4    1   23 1     
    5    2    3 1     
    6    2   24 1     
    7    2   25 1     
    8    3    4 1     
    9    3   26 1     
   10    3   27 1     
   11    4   19 am    
   12    4    5 1     
   13    5    6 1     
   14    5    7 2     
   15    6   28 1     
   16    6   29 1     
   17    7    8 1     
   18    7   16 1     
   19    8    9 1     
   20    8   13 am    
   21    9   10 1     
   22    9   30 1     
   23    9   31 1     
   24   10   11 1     
   25   10   32 1     
   26   10   33 1     
   27   11   12 1     
   28   12   34 1     
   29   12   35 1     
   30   12   36 1     
   31   13   14 1     
   32   13   15 2     
   33   14   37 1     
   34   14   38 1     
   35   14   39 1     
   36   16   17 2     
   37   16   18 1     
   38   18   19 1     
   39   19   20 2     
   40   11   40 1     
   41   11   41 1     
   42   15   42 1     
   43   15   43 1     
   44   17   44 1     
   45   17   45 1     
   46   18   46 1     
   47   20   47 1     
   48   20   48 1     
@<TRIPOS>SUBSTRUCTURE
      1 S1             1
@<TRIPOS>SET
LONE_PAIRS      STATIC     ATOMS    <user>   **** ""
9 40 41 42 43 44 45 46 47 48
DONOR_HYDROGENS      STATIC     ATOMS    <user>   **** ""
2 28 29
ATOM$BLUE        STATIC     ATOMS    COLORGROUP SYSTEM
9 40 41 42 43 44 45 46 47 48
ATOM$RED        STATIC     ATOMS    COLORGROUP SYSTEM
2 28 29
