AV-unprocessed.smi:203|AV-procd|sdf|1591|dock4
  -GOLD-   2262019493D 1   1.00000     0.00000
 Structure written by MMmdl.
 57 61  0  0  0  0  0  0  0  0  1 V2000
  148.9999  135.4464  158.5005 O   0  0  0  0  0  0  0  0  0  0  0  0
  148.8018  135.5975  157.2974 C   0  0  0  0  0  0  0  0  0  0  0  0
  149.5674  136.5908  156.4405 C   0  0  0  0  0  0  0  0  0  0  0  0
  148.8211  136.5611  155.0924 C   0  0  2  0  0  0  0  0  0  0  0  0
  148.0820  137.8930  154.7431 C   0  0  2  0  0  0  0  0  0  0  0  0
  146.9095  137.6908  153.7477 C   0  0  0  0  0  0  0  0  0  0  0  0
  146.1934  139.0135  153.4410 C   0  0  0  0  0  0  0  0  0  0  0  0
  147.2002  140.0483  152.9262 C   0  0  0  0  0  0  0  0  0  0  0  0
  148.3478  140.2256  153.9298 C   0  0  0  0  0  0  0  0  0  0  0  0
  148.9829  138.9453  154.2375 N   0  0  0  0  0  0  0  0  0  0  0  0
  150.1289  139.1309  154.9283 C   0  0  0  0  0  0  0  0  0  0  0  0
  151.2345  138.4906  154.4757 N   0  0  0  0  0  0  0  0  0  0  0  0
  152.3815  138.5814  155.1553 C   0  0  0  0  0  0  0  0  0  0  0  0
  152.6293  139.2382  156.2907 N   0  0  0  0  0  0  0  0  0  0  0  0
  151.5196  139.8946  156.7368 C   0  0  0  0  0  0  0  0  0  0  0  0
  150.2412  139.9081  156.1145 C   0  0  0  0  0  0  0  0  0  0  0  0
  149.3584  140.6844  156.8559 N   0  0  0  0  0  0  0  0  0  0  0  0
  150.0667  141.0816  157.8774 C   0  0  0  0  0  0  0  0  0  0  0  0
  151.3675  140.6334  157.8962 N   0  0  0  0  0  0  0  0  0  0  0  0
  152.3473  140.8578  158.9417 C   0  0  0  0  0  0  0  0  0  0  0  0
  151.9190  141.9715  159.9232 C   0  0  2  0  0  0  0  0  0  0  0  0
  151.9357  143.1916  159.2098 O   0  0  0  0  0  0  0  0  0  0  0  0
  152.8139  142.1001  161.1787 C   0  0  1  0  0  0  0  0  0  0  0  0
  152.2319  142.9665  162.2987 C   0  0  0  0  0  0  0  0  0  0  0  0
  152.9073  142.4402  163.5572 C   0  0  0  0  0  0  0  0  0  0  0  0
  153.5201  141.1081  163.1210 C   0  0  0  0  0  0  0  0  0  0  0  0
  152.9469  140.8537  161.8487 O   0  0  0  0  0  0  0  0  0  0  0  0
  147.8939  135.3279  155.1723 C   0  0  0  0  0  0  0  0  0  0  0  0
  147.9126  134.9296  156.5660 N   0  0  0  0  0  0  0  0  0  0  0  0
  149.5974  137.5790  156.8991 H   0  0  0  0  0  0  0  0  0  0  0  0
  150.5949  136.2437  156.3276 H   0  0  0  0  0  0  0  0  0  0  0  0
  149.5790  136.3665  154.3330 H   0  0  0  0  0  0  0  0  0  0  0  0
  147.6471  138.2700  155.6694 H   0  0  0  0  0  0  0  0  0  0  0  0
  147.2748  137.2647  152.8132 H   0  0  0  0  0  0  0  0  0  0  0  0
  146.1819  136.9821  154.1409 H   0  0  0  0  0  0  0  0  0  0  0  0
  145.4065  138.8533  152.7033 H   0  0  0  0  0  0  0  0  0  0  0  0
  145.7065  139.3870  154.3428 H   0  0  0  0  0  0  0  0  0  0  0  0
  147.6005  139.7256  151.9644 H   0  0  0  0  0  0  0  0  0  0  0  0
  146.7033  141.0031  152.7531 H   0  0  0  0  0  0  0  0  0  0  0  0
  149.0850  140.9191  153.5222 H   0  0  0  0  0  0  0  0  0  0  0  0
  147.9672  140.6706  154.8504 H   0  0  0  0  0  0  0  0  0  0  0  0
  153.2171  138.0406  154.7364 H   0  0  0  0  0  0  0  0  0  0  0  0
  149.6499  141.6929  158.6643 H   0  0  0  0  0  0  0  0  0  0  0  0
  152.5001  139.9192  159.4765 H   0  0  0  0  0  0  0  0  0  0  0  0
  153.2999  141.1079  158.4728 H   0  0  0  0  0  0  0  0  0  0  0  0
  150.8908  141.7937  160.2408 H   0  0  0  0  0  0  0  0  0  0  0  0
  152.5155  143.0992  158.4695 H   0  0  0  0  0  0  0  0  0  0  0  0
  153.8042  142.4693  160.9038 H   0  0  0  0  0  0  0  0  0  0  0  0
  152.4083  144.0308  162.1397 H   0  0  0  0  0  0  0  0  0  0  0  0
  151.1544  142.8125  162.3721 H   0  0  0  0  0  0  0  0  0  0  0  0
  153.6800  143.1215  163.9147 H   0  0  0  0  0  0  0  0  0  0  0  0
  152.1802  142.3049  164.3586 H   0  0  0  0  0  0  0  0  0  0  0  0
  154.6026  141.1944  163.0156 H   0  0  0  0  0  0  0  0  0  0  0  0
  153.3097  140.2977  163.8189 H   0  0  0  0  0  0  0  0  0  0  0  0
  146.8761  135.5307  154.8389 H   0  0  0  0  0  0  0  0  0  0  0  0
  148.2831  134.5108  154.5633 H   0  0  0  0  0  0  0  0  0  0  0  0
  147.2969  134.2196  156.9357 H   0  0  0  0  0  0  0  0  0  0  0  0
  1  2  2  0  0  0  0
  2 29  1  0  0  0  0
  2  3  1  0  0  0  0
  3  4  1  0  0  0  0
  3 30  1  0  0  0  0
  3 31  1  0  0  0  0
  4  5  1  0  0  0  0
  4 28  1  0  0  0  0
  4 32  1  0  0  0  0
  5 10  1  0  0  0  0
  5  6  1  0  0  0  0
  5 33  1  0  0  0  0
  6  7  1  0  0  0  0
  6 34  1  0  0  0  0
  6 35  1  0  0  0  0
  7  8  1  0  0  0  0
  7 36  1  0  0  0  0
  7 37  1  0  0  0  0
  8  9  1  0  0  0  0
  8 38  1  0  0  0  0
  8 39  1  0  0  0  0
  9 10  1  0  0  0  0
  9 40  1  0  0  0  0
  9 41  1  0  0  0  0
 10 11  1  0  0  0  0
 11 16  1  0  0  0  0
 11 12  2  0  0  0  0
 12 13  1  0  0  0  0
 13 14  2  0  0  0  0
 13 42  1  0  0  0  0
 14 15  1  0  0  0  0
 15 19  1  0  0  0  0
 15 16  2  0  0  0  0
 16 17  1  0  0  0  0
 17 18  2  0  0  0  0
 18 19  1  0  0  0  0
 18 43  1  0  0  0  0
 19 20  1  0  0  0  0
 20 21  1  0  0  0  0
 20 44  1  0  0  0  0
 20 45  1  0  0  0  0
 21 22  1  0  0  0  0
 21 23  1  0  0  0  0
 21 46  1  0  0  0  0
 22 47  1  0  0  0  0
 23 27  1  0  0  0  0
 23 24  1  0  0  0  0
 23 48  1  0  0  0  0
 24 25  1  0  0  0  0
 24 49  1  0  0  0  0
 24 50  1  0  0  0  0
 25 26  1  0  0  0  0
 25 51  1  0  0  0  0
 25 52  1  0  0  0  0
 26 27  1  0  0  0  0
 26 53  1  0  0  0  0
 26 54  1  0  0  0  0
 28 29  1  0  0  0  0
 28 55  1  0  0  0  0
 28 56  1  0  0  0  0
 29 57  1  0  0  0  0
M  END
> <s_m_source_file>
AV-unprocessed.smi

> <i_m_source_file_index>
203

> <i_lp_mmshare_version>
43012

> <i_f3d_flags>
0

> <s_epik_input>
Tz1DMVtDSDJdW0NASF0oW0NIMl1bTkhdMSlbQ0BASF0yW0NIMl1bQ0gyXVtDSDJdW0NIMl1OMmMobltjSF1uMyljKGMzNCluW2NIXW40W0NIMl1bQ0BIXShbT0hdKVtDQEBIXTVbQ0gyXVtDSDJdW0NIMl1PNQ==

> <s_epik_cmdline>
J2VwaWtfcHl0aG9uJywgJy1waCcsICc3LjAnLCAnLXRuJywgJzgnLCAnLW1hJywgJzIwMCcsICctbWV0YWxfYmluZGluZycsICctaW1hZScsICc8aW5maWxlLm1hZT4nLCAnLW9tYWUnLCAnPG91dGZpbGUubWFlPic=

> <r_lp_tautomer_probability>
1

> <r_epik_Ionization_Penalty>
0.00175146

> <r_epik_Ionization_Penalty_Charging>
0

> <r_epik_Ionization_Penalty_Neutral>
0.00175146

> <r_epik_State_Penalty>
0.00109045

> <r_epik_Charging_Adjusted_Penalty>
0.00109045

> <i_epik_Tot_Q>
0

> <i_epik_Tot_abs_Q>
0

> <r_epik_Metal_State_Penalty>
-0

> <b_epik_Metal_Only>
0

> <s_lp_Force_Field>
OPLS_2005

> <r_lp_Energy>
54.7877

> <b_lp_Chiralities_Consistent>
1

> <s_lp_Variant>
AV-unprocessed.smi:203-10

> <Gold.Version>
5.8.1

> <Gold.Id.Protein>
6NUR|6NUR_protein|mol2

> <Gold.PLP.Fitness>
48.0442

> <Gold.PLP.PLP>
-43.9472

> <Gold.PLP.part.hbond>
-2.3508

> <Gold.PLP.part.metal>
0.0000

> <Gold.PLP.part.buried>
-3.2994

> <Gold.PLP.part.nonpolar>
-36.9207

> <Gold.PLP.part.repulsive>
0.4124

> <Gold.PLP.ligand.clash>
0.0000

> <Gold.PLP.ligand.torsion>
1.1324

> <Gold.PLP.Chemscore.Hbond>
2.0187

> <Gold.PLP.Chemscore.CHOScore>
0.0000

> <Gold.PLP.Chemscore.Metal>
0.0000

> <Gold.Chemscore.Hbonds>
donor molecule, donor type, donor heavy atom, donor atom, acceptor molecule, acceptor atom, score
      P1  H  6896  6908       L1     1  0.70
      P1  H  7997  8010       L1    14  0.99

> <Gold.PLP.Chemscore.Internal.Correction>
0.3057

> <Gold.Rescore>
     Score         DG    S(hbond)    S(metal)    S(lipo)     H(rot)  DE(clash)    DE(int)     intcor
     14.72     -16.67       1.96        0.00      99.10       2.72       0.21       1.74       ----

> <Gold.Chemscore.Fitness>
14.7169

> <Gold.Chemscore.DG>
-16.6664

> <Gold.Chemscore.ZeroCoef>
-5.4800

> <Gold.Chemscore.Hbond>
1.9603

> <Gold.Chemscore.Metal>
0.0000

> <Gold.Chemscore.Lipo>
99.0992

> <Gold.Chemscore.Internal_Hbond>
0.0000

> <Gold.Chemscore.DEClash>
0.2102

> <Gold.Chemscore.DEInternal>
1.7393

> <Gold.Chemscore.Rot>
2.7171

> <Gold.Chemscore.Internal.Correction>
   9.000000E+99

> <Gold.Chemscore.Hbonds>
donor molecule, donor type, donor heavy atom, donor atom, acceptor molecule, acceptor atom, score
      P1  H  6896  6908       L1     1  0.69
      P1  H  7997  8010       L1    14  0.54

> <Gold.Chemscore.Hbond.Weighted>
-6.5475

> <Gold.Chemscore.Metal.Weighted>
-0.0000

> <Gold.Chemscore.Lipo.Weighted>
-11.5946

> <Gold.Chemscore.Internal_Hbond.Weighted>
0.0000

> <Gold.Chemscore.DEClash.Weighted>
0.2102

> <Gold.Chemscore.DEInternal.Weighted>
1.7393

> <Gold.Chemscore.Rot.Weighted>
6.9557

> <Gold.Chemscore.Internal.Correction.Weighted>
   9.000000E+99

> <Gold.Protein.RotatedTorsions>
[ 6907 6896 6895 6894 ] final  165.29 input  -60.11 | X-H torsion
[ 7974 7965 7964 7962 ] final  -99.16 input  175.53 | X-H torsion
[ 8008 7997 7996 7995 ] final   96.50 input   59.86 | X-H torsion
[ 10167 10162 10161 10158 ] final  -91.48 input  -65.29 | X-H torsion
[ 10718 10713 10712 10709 ] final -177.96 input   66.30 | X-H torsion
[ 10763 10752 10751 10750 ] final  101.59 input  -60.55 | X-H torsion
[ 11005 11000 10999 10996 ] final   -3.40 input  -57.11 | X-H torsion

> <Gold.Protein.ActiveResidues>
 VAL166  LYS551  ARG553  GLY616  TRP617  ASP618  TYR619  PRO620  LYS621  CYS622 
 ASP623  PHE694  ASN695  SER759  ASP760  ASP761  ALA762  ILE779  LEU786  VAL792 
 PHE793  MET794  SER795  GLU796  ALA797  LYS798  CYS799  TRP800  GLU811  SER814 

> <Gold.Protein.RotatedAtoms>
  151.8966  133.3528  159.3816 H   0  0  0  0  0  0  0  0  0  0  0  0  # atno 6907 bound_to 6896
  150.7090  134.4870  159.5507 H   0  0  0  0  0  0  0  0  0  0  0  0  # atno 6908 bound_to 6896
  152.2450  134.8190  160.0505 H   0  0  0  0  0  0  0  0  0  0  0  0  # atno 6909 bound_to 6896
  145.3112  140.9401  143.2768 H   0  0  0  0  0  0  0  0  0  0  0  0  # atno 7974 bound_to 7965
  156.0802  140.3272  155.7685 H   0  0  0  0  0  0  0  0  0  0  0  0  # atno 8008 bound_to 7997
  155.5164  140.0581  157.2932 H   0  0  0  0  0  0  0  0  0  0  0  0  # atno 8009 bound_to 7997
  154.4578  140.1951  156.0347 H   0  0  0  0  0  0  0  0  0  0  0  0  # atno 8010 bound_to 7997
  140.3445  143.2924  151.9797 H   0  0  0  0  0  0  0  0  0  0  0  0  # atno 10167 bound_to 10162
  156.8372  130.9674  151.3102 H   0  0  0  0  0  0  0  0  0  0  0  0  # atno 10718 bound_to 10713
  153.3286  135.4039  155.1476 H   0  0  0  0  0  0  0  0  0  0  0  0  # atno 10763 bound_to 10752
  154.8618  135.3605  154.5501 H   0  0  0  0  0  0  0  0  0  0  0  0  # atno 10764 bound_to 10752
  153.5938  135.7073  153.5471 H   0  0  0  0  0  0  0  0  0  0  0  0  # atno 10765 bound_to 10752
  140.6689  133.9254  155.8482 H   0  0  0  0  0  0  0  0  0  0  0  0  # atno 11005 bound_to 11000
  144.9014  139.4645  143.6631 LP  0  0  0  0  0  0  0  0  0  0  0  0  # atno 17320 bound_to 7965
  146.3117  139.7770  142.9015 LP  0  0  0  0  0  0  0  0  0  0  0  0  # atno 17321 bound_to 7965
  139.4835  144.6129  151.7401 LP  0  0  0  0  0  0  0  0  0  0  0  0  # atno 17342 bound_to 10162
  140.5278  144.0779  150.6043 LP  0  0  0  0  0  0  0  0  0  0  0  0  # atno 17343 bound_to 10162
  157.6375  130.8778  149.9386 LP  0  0  0  0  0  0  0  0  0  0  0  0  # atno 17370 bound_to 10713
  156.0901  130.3664  150.0412 LP  0  0  0  0  0  0  0  0  0  0  0  0  # atno 17371 bound_to 10713
  141.0407  134.0625  157.3905 LP  0  0  0  0  0  0  0  0  0  0  0  0  # atno 17394 bound_to 11000
  139.8988  135.0156  156.7166 LP  0  0  0  0  0  0  0  0  0  0  0  0  # atno 17395 bound_to 11000

$$$$
