#       Name:                AV-unprocessed.smi:3340
#       Creating user name   scv26
#       Creation time:       Fri Mar 27 19:28:41 2020


#       File generated by GOLD software.
#

@<TRIPOS>MOLECULE
AV-unprocessed.smi:3340
    46    47     1
SMALL
NO_CHARGES


@<TRIPOS>ATOM
      1 ****        -5.4830   1.5499   0.1395 C.3            1 S1                 0.0000
      2 ****        -4.6938   0.2425   0.0406 C.2            1 S1                 0.0000
      3 ****        -5.2500  -0.7953   0.4011 O.2            1 S1                 0.0000
      4 ****        -3.4248   0.2668  -0.4340 N.am           1 S1                 0.0000
      5 ****        -2.5826  -0.9365  -0.5160 C.3            1 S1                 0.0000
      6 ****        -1.3632  -0.7612   0.4111 C.3            1 S1                 0.0000
      7 ****        -0.6199   0.4450  -0.0015 N.am           1 S1                 0.0000
      8 ****         0.6219   0.4821  -0.5481 C.2            1 S1                 0.0000
      9 ****         1.1396   1.5173  -0.9684 O.2            1 S1                 0.0000
     10 ****         1.2579  -0.7039  -0.5747 N.am           1 S1                 0.0000
     11 ****         2.6084  -0.9884  -1.0687 C.3            1 S1                 0.0000
     12 ****         2.7178  -0.7497  -2.5847 C.3            1 S1                 0.0000
     13 ****         3.7053  -0.2421  -0.2760 C.3            1 S1                 0.0000
     14 ****         3.6758  -0.5562   1.1406 N.pl3          1 S1                 0.0000
     15 ****         3.1761   0.2376   2.1648 C.2            1 S1                 0.0000
     16 ****         3.3571  -0.4679   3.3328 C.2            1 S1                 0.0000
     17 ****         3.9645  -1.6900   3.0529 N.2            1 S1                 0.0000
     18 ****         4.1249  -1.6694   1.7360 C.2            1 S1                 0.0000
     19 ****        -1.4661   1.6441   0.0988 C.3            1 S1                 0.0000
     20 ****        -2.6849   1.4757  -0.8305 C.3            1 S1                 0.0000
     21 ****        -4.9832   2.2541   0.8052 H              1 S1                 0.0000
     22 ****        -6.4811   1.3672   0.5390 H              1 S1                 0.0000
     23 ****        -5.5973   2.0080  -0.8434 H              1 S1                 0.0000
     24 ****        -3.1176  -1.8470  -0.2431 H              1 S1                 0.0000
     25 ****        -2.2564  -1.0779  -1.5475 H              1 S1                 0.0000
     26 ****        -1.6937  -0.6387   1.4436 H              1 S1                 0.0000
     27 ****        -0.7706  -1.6756   0.4036 H              1 S1                 0.0000
     28 ****         0.7536  -1.4944  -0.2006 H              1 S1                 0.0000
     29 ****         2.7560  -2.0569  -0.9074 H              1 S1                 0.0000
     30 ****         3.6815  -1.0912  -2.9631 H              1 S1                 0.0000
     31 ****         2.6239   0.3063  -2.8381 H              1 S1                 0.0000
     32 ****         1.9428  -1.2935  -3.1258 H              1 S1                 0.0000
     33 ****         4.6897  -0.5142  -0.6586 H              1 S1                 0.0000
     34 ****         3.6200   0.8381  -0.3982 H              1 S1                 0.0000
     35 ****         2.7421   1.2097   1.9815 H              1 S1                 0.0000
     36 ****         3.0984  -0.1925   4.3447 H              1 S1                 0.0000
     37 ****         4.5755  -2.4855   1.1906 H              1 S1                 0.0000
     38 ****        -1.7920   1.7702   1.1323 H              1 S1                 0.0000
     39 ****        -0.9345   2.5611  -0.1585 H              1 S1                 0.0000
     40 ****        -2.3557   1.3679  -1.8652 H              1 S1                 0.0000
     41 ****        -3.2842   2.3843  -0.8064 H              1 S1                 0.0000
     42 ****        -6.1885  -0.7661   0.7451 LP             1 S1                 0.0000
     43 ****        -4.7631  -1.6673   0.3498 LP             1 S1                 0.0000
     44 ****         0.6415   2.3828  -0.9153 LP             1 S1                 0.0000
     45 ****         2.0582   1.4925  -1.3629 LP             1 S1                 0.0000
     46 ****         4.2199  -2.4134   3.6944 LP             1 S1                 0.0000
@<TRIPOS>BOND
    1    1    2 1     
    2    1   21 1     
    3    1   22 1     
    4    1   23 1     
    5    2    3 2     
    6    2    4 am    
    7    4   20 1     
    8    4    5 1     
    9    5    6 1     
   10    5   24 1     
   11    5   25 1     
   12    6    7 1     
   13    6   26 1     
   14    6   27 1     
   15    7    8 am    
   16    7   19 1     
   17    8    9 2     
   18    8   10 am    
   19   10   11 1     
   20   10   28 1     
   21   11   12 1     
   22   11   13 1     
   23   11   29 1     
   24   12   30 1     
   25   12   31 1     
   26   12   32 1     
   27   13   14 1     
   28   13   33 1     
   29   13   34 1     
   30   14   18 1     
   31   14   15 1     
   32   15   16 2     
   33   15   35 1     
   34   16   17 1     
   35   16   36 1     
   36   17   18 2     
   37   18   37 1     
   38   19   20 1     
   39   19   38 1     
   40   19   39 1     
   41   20   40 1     
   42   20   41 1     
   43    3   42 1     
   44    3   43 1     
   45    9   44 1     
   46    9   45 1     
   47   17   46 1     
@<TRIPOS>SUBSTRUCTURE
      1 S1             1
@<TRIPOS>SET
LONE_PAIRS      STATIC     ATOMS    <user>   **** ""
5 42 43 44 45 46
DONOR_HYDROGENS      STATIC     ATOMS    <user>   **** ""
1 28
ATOM$BLUE        STATIC     ATOMS    COLORGROUP SYSTEM
5 42 43 44 45 46
ATOM$RED        STATIC     ATOMS    COLORGROUP SYSTEM
1 28
