AV-unprocessed.smi:156|AV-procd|sdf|1287|dock3
  -GOLD-   2262018563D 1   1.00000     0.00000
 Structure written by MMmdl.
 51 53  0  0  0  0  0  0  0  0  1 V2000
  148.2942  138.8616  155.7123 C   0  0  0  0  0  0  0  0  0  0  0  0
  148.8513  137.4234  155.7997 C   0  0  2  0  0  0  0  0  0  0  0  0
  150.1144  137.1392  154.9277 C   0  0  2  0  0  0  0  0  0  0  0  0
  150.6199  135.6988  155.1443 C   0  0  0  0  0  0  0  0  0  0  0  0
  151.4831  138.3513  155.2788 S   0  0  0  0  0  0  0  0  0  0  0  0
  152.9208  137.6601  154.3577 C   0  0  0  0  0  0  0  0  0  0  0  0
  151.1417  139.6381  154.6534 O   0  0  0  0  0  0  0  0  0  0  0  0
  151.7955  138.3030  156.7153 O   0  0  0  0  0  0  0  0  0  0  0  0
  147.7901  136.4180  155.6237 N   0  0  0  0  0  0  0  0  0  0  0  0
  147.2016  135.8241  156.8198 C   0  0  0  0  0  0  0  0  0  0  0  0
  146.9689  136.4148  154.5391 C   0  0  0  0  0  0  0  0  0  0  0  0
  146.7023  137.5719  153.8785 N   0  0  0  0  0  0  0  0  0  0  0  0
  145.8893  137.5773  152.8188 C   0  0  0  0  0  0  0  0  0  0  0  0
  145.2428  136.5538  152.2596 N   0  0  0  0  0  0  0  0  0  0  0  0
  145.5002  135.3875  152.9171 C   0  0  0  0  0  0  0  0  0  0  0  0
  146.3434  135.2305  154.0539 C   0  0  0  0  0  0  0  0  0  0  0  0
  146.3748  133.8945  154.4345 N   0  0  0  0  0  0  0  0  0  0  0  0
  145.5924  133.2982  153.5775 C   0  0  0  0  0  0  0  0  0  0  0  0
  145.0129  134.1213  152.6383 N   0  0  0  0  0  0  0  0  0  0  0  0
  144.1081  133.7257  151.5678 C   0  0  0  0  0  0  0  0  0  0  0  0
  144.7335  132.7750  150.5241 C   0  0  0  0  0  0  0  0  0  0  0  0
  144.1290  133.0255  149.1322 C   0  0  0  0  0  0  0  0  0  0  0  0
  142.8053  132.5375  149.0558 O   0  0  0  0  0  0  0  0  0  0  0  0
  146.2651  132.6872  150.5689 C   0  0  0  0  0  0  0  0  0  0  0  0
  146.2420  131.3723  151.1624 O   0  0  0  0  0  0  0  0  0  0  0  0
  144.8185  131.2985  150.9404 C   0  0  0  0  0  0  0  0  0  0  0  0
  148.9807  139.5824  156.1546 H   0  0  0  0  0  0  0  0  0  0  0  0
  147.3563  138.9596  156.2590 H   0  0  0  0  0  0  0  0  0  0  0  0
  148.1088  139.1693  154.6836 H   0  0  0  0  0  0  0  0  0  0  0  0
  149.1796  137.3051  156.8333 H   0  0  0  0  0  0  0  0  0  0  0  0
  149.8798  137.2659  153.8722 H   0  0  0  0  0  0  0  0  0  0  0  0
  149.8345  134.9644  154.9664 H   0  0  0  0  0  0  0  0  0  0  0  0
  150.9799  135.5554  156.1633 H   0  0  0  0  0  0  0  0  0  0  0  0
  151.4296  135.4472  154.4614 H   0  0  0  0  0  0  0  0  0  0  0  0
  153.7335  138.3860  154.3684 H   0  0  0  0  0  0  0  0  0  0  0  0
  152.6337  137.4582  153.3258 H   0  0  0  0  0  0  0  0  0  0  0  0
  153.2652  136.7427  154.8334 H   0  0  0  0  0  0  0  0  0  0  0  0
  146.1318  136.0291  156.8783 H   0  0  0  0  0  0  0  0  0  0  0  0
  147.6641  136.2180  157.7252 H   0  0  0  0  0  0  0  0  0  0  0  0
  147.3473  134.7441  156.8189 H   0  0  0  0  0  0  0  0  0  0  0  0
  145.7340  138.5396  152.3538 H   0  0  0  0  0  0  0  0  0  0  0  0
  145.4224  132.2322  153.6077 H   0  0  0  0  0  0  0  0  0  0  0  0
  143.2226  133.2741  152.0159 H   0  0  0  0  0  0  0  0  0  0  0  0
  143.7532  134.6368  151.0845 H   0  0  0  0  0  0  0  0  0  0  0  0
  144.1000  134.0930  148.9112 H   0  0  0  0  0  0  0  0  0  0  0  0
  144.7268  132.5710  148.3422 H   0  0  0  0  0  0  0  0  0  0  0  0
  142.2118  133.2417  149.2682 H   0  0  0  0  0  0  0  0  0  0  0  0
  146.7381  132.6794  149.5857 H   0  0  0  0  0  0  0  0  0  0  0  0
  146.7324  133.4291  151.2174 H   0  0  0  0  0  0  0  0  0  0  0  0
  144.2765  131.0514  151.8522 H   0  0  0  0  0  0  0  0  0  0  0  0
  144.5697  130.5969  150.1427 H   0  0  0  0  0  0  0  0  0  0  0  0
  1  2  1  0  0  0  0
  1 27  1  0  0  0  0
  1 28  1  0  0  0  0
  1 29  1  0  0  0  0
  2  3  1  0  0  0  0
  2  9  1  0  0  0  0
  2 30  1  0  0  0  0
  3  4  1  0  0  0  0
  3  5  1  0  0  0  0
  3 31  1  0  0  0  0
  4 32  1  0  0  0  0
  4 33  1  0  0  0  0
  4 34  1  0  0  0  0
  5  6  1  0  0  0  0
  5  7  2  0  0  0  0
  5  8  2  0  0  0  0
  6 35  1  0  0  0  0
  6 36  1  0  0  0  0
  6 37  1  0  0  0  0
  9 10  1  0  0  0  0
  9 11  1  0  0  0  0
 10 38  1  0  0  0  0
 10 39  1  0  0  0  0
 10 40  1  0  0  0  0
 11 16  1  0  0  0  0
 11 12  2  0  0  0  0
 12 13  1  0  0  0  0
 13 14  2  0  0  0  0
 13 41  1  0  0  0  0
 14 15  1  0  0  0  0
 15 19  1  0  0  0  0
 15 16  2  0  0  0  0
 16 17  1  0  0  0  0
 17 18  2  0  0  0  0
 18 19  1  0  0  0  0
 18 42  1  0  0  0  0
 19 20  1  0  0  0  0
 20 21  1  0  0  0  0
 20 43  1  0  0  0  0
 20 44  1  0  0  0  0
 21 26  1  0  0  0  0
 21 22  1  0  0  0  0
 21 24  1  0  0  0  0
 22 23  1  0  0  0  0
 22 45  1  0  0  0  0
 22 46  1  0  0  0  0
 23 47  1  0  0  0  0
 24 25  1  0  0  0  0
 24 48  1  0  0  0  0
 24 49  1  0  0  0  0
 25 26  1  0  0  0  0
 26 50  1  0  0  0  0
 26 51  1  0  0  0  0
M  END
> <s_m_source_file>
AV-unprocessed.smi

> <i_m_source_file_index>
156

> <i_lp_mmshare_version>
43012

> <i_f3d_flags>
0

> <s_epik_input>
W0NIM11TKD1PKSg9TylbQ0BASF0oW0NIM10pW0NAQEhdKFtDSDNdKU4oW0NIM10pYyhuW2NIXW4xKWMoYzEyKW5bY0hdbjJbQ0gyXUMzKFtDSDJdW09IXSlbQ0gyXU9bQ0gyXTM=

> <s_epik_cmdline>
J2VwaWtfcHl0aG9uJywgJy1waCcsICc3LjAnLCAnLXRuJywgJzgnLCAnLW1hJywgJzIwMCcsICctbWV0YWxfYmluZGluZycsICctaW1hZScsICc8aW5maWxlLm1hZT4nLCAnLW9tYWUnLCAnPG91dGZpbGUubWFlPic=

> <r_lp_tautomer_probability>
1

> <r_epik_Ionization_Penalty>
0.00107697

> <r_epik_Ionization_Penalty_Charging>
0

> <r_epik_Ionization_Penalty_Neutral>
0.00107697

> <r_epik_State_Penalty>
0.000614712

> <r_epik_Charging_Adjusted_Penalty>
0.000614712

> <i_epik_Tot_Q>
0

> <i_epik_Tot_abs_Q>
0

> <r_epik_Metal_State_Penalty>
-0

> <b_epik_Metal_Only>
0

> <s_lp_Force_Field>
OPLS_2005

> <r_lp_Energy>
28.4574

> <b_lp_Chiralities_Consistent>
1

> <s_lp_Variant>
AV-unprocessed.smi:156-1

> <Gold.Version>
5.8.1

> <Gold.Id.Protein>
6NUR|6NUR_protein|mol2

> <Gold.PLP.Fitness>
45.0010

> <Gold.PLP.PLP>
-32.4648

> <Gold.PLP.part.hbond>
-4.0000

> <Gold.PLP.part.metal>
0.0000

> <Gold.PLP.part.buried>
-7.7859

> <Gold.PLP.part.nonpolar>
-22.7276

> <Gold.PLP.part.repulsive>
1.1199

> <Gold.PLP.ligand.clash>
0.0155

> <Gold.PLP.ligand.torsion>
2.1996

> <Gold.PLP.Chemscore.Hbond>
3.0000

> <Gold.PLP.Chemscore.CHOScore>
2.1055

> <Gold.PLP.Chemscore.Metal>
0.0000

> <Gold.Chemscore.Hbonds>
donor molecule, donor type, donor heavy atom, donor atom, acceptor molecule, acceptor atom, score
      L1  H    23    47       P1 10186  1.00
      P1  H  7989  7998       L1     7  1.00
      L1  C    13    41       P1 10175  0.30

> <Gold.PLP.Chemscore.Internal.Correction>
1.6343

> <Gold.Rescore>
     Score         DG    S(hbond)    S(metal)    S(lipo)     H(rot)  DE(clash)    DE(int)     intcor
      7.91     -13.07       2.45        0.00      65.24       3.21       1.40       3.76       ----

> <Gold.Chemscore.Fitness>
7.9123

> <Gold.Chemscore.DG>
-13.0722

> <Gold.Chemscore.ZeroCoef>
-5.4800

> <Gold.Chemscore.Hbond>
2.4492

> <Gold.Chemscore.Metal>
0.0000

> <Gold.Chemscore.Lipo>
65.2420

> <Gold.Chemscore.Internal_Hbond>
0.0000

> <Gold.Chemscore.DEClash>
1.3969

> <Gold.Chemscore.DEInternal>
3.7631

> <Gold.Chemscore.Rot>
3.2115

> <Gold.Chemscore.Internal.Correction>
   9.000000E+99

> <Gold.Chemscore.Hbonds>
donor molecule, donor type, donor heavy atom, donor atom, acceptor molecule, acceptor atom, score
      L1  H    23    47       P1 10186  1.00
      P1  H  7989  7998       L1     7  1.00
      P1  H 10785 10796       L1    23  0.02

> <Gold.Chemscore.Hbond.Weighted>
-8.1804

> <Gold.Chemscore.Metal.Weighted>
-0.0000

> <Gold.Chemscore.Lipo.Weighted>
-7.6333

> <Gold.Chemscore.Internal_Hbond.Weighted>
0.0000

> <Gold.Chemscore.DEClash.Weighted>
1.3969

> <Gold.Chemscore.DEInternal.Weighted>
3.7631

> <Gold.Chemscore.Rot.Weighted>
8.2215

> <Gold.Chemscore.Internal.Correction.Weighted>
   9.000000E+99

> <Gold.Protein.RotatedTorsions>
[ 6907 6896 6895 6894 ] final  176.58 input  -60.11 | X-H torsion
[ 7974 7965 7964 7962 ] final  -17.60 input  175.53 | X-H torsion
[ 8008 7997 7996 7995 ] final -168.77 input   59.86 | X-H torsion
[ 10167 10162 10161 10158 ] final -171.71 input  -65.29 | X-H torsion
[ 10718 10713 10712 10709 ] final -167.87 input   66.30 | X-H torsion
[ 10763 10752 10751 10750 ] final   85.66 input  -60.55 | X-H torsion
[ 11005 11000 10999 10996 ] final  104.46 input  -57.11 | X-H torsion

> <Gold.Protein.ActiveResidues>
 VAL166  LYS551  ARG553  GLY616  TRP617  ASP618  TYR619  PRO620  LYS621  CYS622 
 ASP623  PHE694  ASN695  SER759  ASP760  ASP761  ALA762  ILE779  LEU786  VAL792 
 PHE793  MET794  SER795  GLU796  ALA797  LYS798  CYS799  TRP800  GLU811  SER814 

> <Gold.Protein.RotatedAtoms>
  151.7179  133.3313  159.3307 H   0  0  0  0  0  0  0  0  0  0  0  0  # atno 6907 bound_to 6896
  150.7665  134.6474  159.6279 H   0  0  0  0  0  0  0  0  0  0  0  0  # atno 6908 bound_to 6896
  152.3671  134.6791  160.0240 H   0  0  0  0  0  0  0  0  0  0  0  0  # atno 6909 bound_to 6896
  146.1933  140.3802  142.8450 H   0  0  0  0  0  0  0  0  0  0  0  0  # atno 7974 bound_to 7965
  155.8959  140.1032  157.1385 H   0  0  0  0  0  0  0  0  0  0  0  0  # atno 8008 bound_to 7997
  154.4020  140.1302  156.4438 H   0  0  0  0  0  0  0  0  0  0  0  0  # atno 8009 bound_to 7997
  155.7480  140.3465  155.5138 H   0  0  0  0  0  0  0  0  0  0  0  0  # atno 8010 bound_to 7997
  139.5786  144.1475  152.1485 H   0  0  0  0  0  0  0  0  0  0  0  0  # atno 10167 bound_to 10162
  156.6887  130.9151  151.3066 H   0  0  0  0  0  0  0  0  0  0  0  0  # atno 10718 bound_to 10713
  153.1496  135.4609  154.9617 H   0  0  0  0  0  0  0  0  0  0  0  0  # atno 10763 bound_to 10752
  154.7814  135.3190  154.7983 H   0  0  0  0  0  0  0  0  0  0  0  0  # atno 10764 bound_to 10752
  153.8491  135.6923  153.4848 H   0  0  0  0  0  0  0  0  0  0  0  0  # atno 10765 bound_to 10752
  139.8792  134.9301  156.5365 H   0  0  0  0  0  0  0  0  0  0  0  0  # atno 11005 bound_to 11000
  144.8529  140.7028  143.6156 LP  0  0  0  0  0  0  0  0  0  0  0  0  # atno 17320 bound_to 7965
  145.3724  139.1655  143.4325 LP  0  0  0  0  0  0  0  0  0  0  0  0  # atno 17321 bound_to 7965
  140.1023  144.5529  150.6980 LP  0  0  0  0  0  0  0  0  0  0  0  0  # atno 17342 bound_to 10162
  140.7067  143.2473  151.4706 LP  0  0  0  0  0  0  0  0  0  0  0  0  # atno 17343 bound_to 10162
  157.7017  130.9340  150.0805 LP  0  0  0  0  0  0  0  0  0  0  0  0  # atno 17370 bound_to 10713
  156.1814  130.3650  149.9031 LP  0  0  0  0  0  0  0  0  0  0  0  0  # atno 17371 bound_to 10713
  140.8342  133.8255  155.9013 LP  0  0  0  0  0  0  0  0  0  0  0  0  # atno 17394 bound_to 11000
  140.9299  134.2035  157.4870 LP  0  0  0  0  0  0  0  0  0  0  0  0  # atno 17395 bound_to 11000

$$$$
