AV-unprocessed.smi:290|AV-procd|sdf|2223|dock8
  -GOLD-   2262022 73D 1   1.00000     0.00000
 Structure written by MMmdl.
 59 62  0  0  0  0  0  0  0  0  2 V2000
  150.0044  140.8984  156.5062 C   0  0  0  0  0  0  0  0  0  0  0  0
  151.0219  140.1090  155.6691 C   0  0  2  0  0  0  0  0  0  0  0  0
  150.4790  139.7810  154.3930 O   0  0  0  0  0  0  0  0  0  0  0  0
  150.9790  138.5206  153.9552 C   0  0  0  0  0  0  0  0  0  0  0  0
  152.0265  138.1095  154.9860 C   0  0  0  0  0  0  0  0  0  0  0  0
  151.5209  138.7762  156.2594 C   0  0  1  0  0  0  0  0  0  0  0  0
  152.6190  139.0004  157.1236 O   0  0  0  0  0  0  0  0  0  0  0  0
  150.4242  137.9632  157.0012 C   0  0  0  0  0  0  0  0  0  0  0  0
  149.4811  137.2967  156.1175 N   0  0  0  0  0  0  0  0  0  0  0  0
  149.6579  136.0903  155.4767 C   0  0  0  0  0  0  0  0  0  0  0  0
  148.6587  135.7029  154.7308 N   0  0  0  0  0  0  0  0  0  0  0  0
  147.7312  136.7287  154.8572 C   0  0  0  0  0  0  0  0  0  0  0  0
  146.4377  136.9577  154.3221 C   0  0  0  0  0  0  0  0  0  0  0  0
  145.8467  136.0643  153.4985 N   0  0  0  0  0  0  0  0  0  0  0  0
  145.5837  136.5581  152.1563 C   0  0  0  0  0  0  0  0  0  0  0  0
  144.6421  135.5309  151.5177 C   0  0  0  0  0  0  0  0  0  0  0  0
  143.9916  134.7972  152.7116 C   0  0  1  0  0  0  0  0  0  0  0  0
  144.1353  133.3077  152.6946 N   0  3  2  0  0  0  0  0  0  0  0  0
  145.5314  132.7990  152.6845 C   0  0  0  0  0  0  0  0  0  0  0  0
  143.2933  132.6400  151.6688 C   0  0  0  0  0  0  0  0  0  0  0  0
  143.8793  132.7753  150.2528 C   0  0  0  0  0  0  0  0  0  0  0  0
  142.9976  132.2040  149.3094 O   0  0  0  0  0  0  0  0  0  0  0  0
  144.5944  135.4793  153.9578 C   0  0  1  0  0  0  0  0  0  0  0  0
  144.7229  134.6277  155.2372 C   0  0  0  0  0  0  0  0  0  0  0  0
  145.7970  138.1052  154.6682 N   0  0  0  0  0  0  0  0  0  0  0  0
  146.3907  138.9769  155.4896 C   0  0  0  0  0  0  0  0  0  0  0  0
  147.5925  138.8958  156.0658 N   0  0  0  0  0  0  0  0  0  0  0  0
  148.2324  137.7413  155.7204 C   0  0  0  0  0  0  0  0  0  0  0  0
  142.9268  135.0284  152.7222 H   0  0  0  0  0  0  0  0  0  0  0  0
  143.9279  136.3085  154.2022 H   0  0  0  0  0  0  0  0  0  0  0  0
  150.3995  141.1178  157.4983 H   0  0  0  0  0  0  0  0  0  0  0  0
  149.0692  140.3518  156.6263 H   0  0  0  0  0  0  0  0  0  0  0  0
  149.7667  141.8480  156.0269 H   0  0  0  0  0  0  0  0  0  0  0  0
  151.8831  140.7518  155.4754 H   0  0  0  0  0  0  0  0  0  0  0  0
  150.1560  137.8054  153.9365 H   0  0  0  0  0  0  0  0  0  0  0  0
  151.3930  138.5855  152.9490 H   0  0  0  0  0  0  0  0  0  0  0  0
  152.1609  137.0310  155.0561 H   0  0  0  0  0  0  0  0  0  0  0  0
  152.9893  138.5340  154.6959 H   0  0  0  0  0  0  0  0  0  0  0  0
  152.3478  138.8119  158.0092 H   0  0  0  0  0  0  0  0  0  0  0  0
  150.8800  137.1991  157.6317 H   0  0  0  0  0  0  0  0  0  0  0  0
  149.8582  138.6104  157.6722 H   0  0  0  0  0  0  0  0  0  0  0  0
  150.5554  135.4988  155.5874 H   0  0  0  0  0  0  0  0  0  0  0  0
  145.1024  137.5366  152.1951 H   0  0  0  0  0  0  0  0  0  0  0  0
  146.5088  136.6607  151.5882 H   0  0  0  0  0  0  0  0  0  0  0  0
  143.8951  136.0247  150.8955 H   0  0  0  0  0  0  0  0  0  0  0  0
  145.2015  134.8677  150.8612 H   0  0  0  0  0  0  0  0  0  0  0  0
  145.9729  132.8426  151.6889 H   0  0  0  0  0  0  0  0  0  0  0  0
  145.5438  131.7552  152.9991 H   0  0  0  0  0  0  0  0  0  0  0  0
  146.1777  133.3503  153.3660 H   0  0  0  0  0  0  0  0  0  0  0  0
  143.1657  131.5886  151.9303 H   0  0  0  0  0  0  0  0  0  0  0  0
  142.2918  133.0737  151.6670 H   0  0  0  0  0  0  0  0  0  0  0  0
  144.0798  133.8119  149.9849 H   0  0  0  0  0  0  0  0  0  0  0  0
  144.8301  132.2448  150.1953 H   0  0  0  0  0  0  0  0  0  0  0  0
  142.3132  132.8280  149.1186 H   0  0  0  0  0  0  0  0  0  0  0  0
  143.7674  134.1731  155.4995 H   0  0  0  0  0  0  0  0  0  0  0  0
  145.0316  135.2415  156.0839 H   0  0  0  0  0  0  0  0  0  0  0  0
  145.4579  133.8303  155.1340 H   0  0  0  0  0  0  0  0  0  0  0  0
  145.8210  139.8654  155.7191 H   0  0  0  0  0  0  0  0  0  0  0  0
  143.7550  132.9981  153.5781 H   0  0  0  0  0  0  0  0  0  0  0  0
  1  2  1  0  0  0  0
  1 31  1  0  0  0  0
  1 32  1  0  0  0  0
  1 33  1  0  0  0  0
  2  6  1  0  0  0  0
  2  3  1  0  0  0  0
  2 34  1  0  0  0  0
  3  4  1  0  0  0  0
  4  5  1  0  0  0  0
  4 35  1  0  0  0  0
  4 36  1  0  0  0  0
  5  6  1  0  0  0  0
  5 37  1  0  0  0  0
  5 38  1  0  0  0  0
  6  7  1  0  0  0  0
  6  8  1  0  0  0  0
  7 39  1  0  0  0  0
  8  9  1  0  0  0  0
  8 40  1  0  0  0  0
  8 41  1  0  0  0  0
  9 28  1  0  0  0  0
  9 10  1  0  0  0  0
 10 11  2  0  0  0  0
 10 42  1  0  0  0  0
 11 12  1  0  0  0  0
 12 28  2  0  0  0  0
 12 13  1  0  0  0  0
 13 14  1  0  0  0  0
 13 25  2  0  0  0  0
 14 23  1  0  0  0  0
 14 15  1  0  0  0  0
 15 16  1  0  0  0  0
 15 43  1  0  0  0  0
 15 44  1  0  0  0  0
 16 17  1  0  0  0  0
 16 45  1  0  0  0  0
 16 46  1  0  0  0  0
 17 29  1  0  0  0  0
 17 18  1  0  0  0  0
 17 23  1  0  0  0  0
 18 19  1  0  0  0  0
 18 20  1  0  0  0  0
 18 59  1  0  0  0  0
 19 47  1  0  0  0  0
 19 48  1  0  0  0  0
 19 49  1  0  0  0  0
 20 21  1  0  0  0  0
 20 50  1  0  0  0  0
 20 51  1  0  0  0  0
 21 22  1  0  0  0  0
 21 52  1  0  0  0  0
 21 53  1  0  0  0  0
 22 54  1  0  0  0  0
 23 30  1  0  0  0  0
 23 24  1  0  0  0  0
 24 55  1  0  0  0  0
 24 56  1  0  0  0  0
 24 57  1  0  0  0  0
 25 26  1  0  0  0  0
 26 27  2  0  0  0  0
 26 58  1  0  0  0  0
 27 28  1  0  0  0  0
M  CHG  1  18   1
M  END
> <s_m_source_file>
AV-unprocessed.smi

> <i_m_source_file_index>
290

> <i_lp_mmshare_version>
43012

> <i_f3d_flags>
0

> <s_epik_input>
W0NIMl0xW0NIMl1PW0NAQEhdKFtDSDNdKVtDQEBdMShbT0hdKVtDSDJdbihbY0hdbjIpYyhjMjMpbltjSF1uYzNONFtDSDJdW0NIMl1bQ0BIXShbQ0BIXTRbQ0gzXSlOKFtDSDNdKVtDSDJdW0NIMl1bT0hd

> <s_epik_cmdline>
J2VwaWtfcHl0aG9uJywgJy1waCcsICc3LjAnLCAnLXRuJywgJzgnLCAnLW1hJywgJzIwMCcsICctbWV0YWxfYmluZGluZycsICctaW1hZScsICc8aW5maWxlLm1hZT4nLCAnLW9tYWUnLCAnPG91dGZpbGUubWFlPic=

> <r_lp_tautomer_probability>
1

> <r_epik_Ionization_Penalty>
0.0036983

> <r_epik_Ionization_Penalty_Charging>
0.0032725

> <r_epik_Ionization_Penalty_Neutral>
0.000425798

> <r_epik_State_Penalty>
-0

> <r_epik_Charging_Adjusted_Penalty>
0.0032725

> <i_epik_Tot_Q>
1

> <i_epik_Tot_abs_Q>
1

> <r_epik_Metal_State_Penalty>
-0

> <b_epik_Metal_Only>
0

> <s_lp_Force_Field>
OPLS_2005

> <r_lp_Energy>
69.2508

> <b_lp_Chiralities_Consistent>
1

> <s_lp_Variant>
AV-unprocessed.smi:290-9

> <Gold.Version>
5.8.1

> <Gold.Id.Protein>
6NUR|6NUR_protein|mol2

> <Gold.PLP.Fitness>
43.4206

> <Gold.PLP.PLP>
-29.2233

> <Gold.PLP.part.hbond>
-5.5037

> <Gold.PLP.part.metal>
0.0000

> <Gold.PLP.part.buried>
-7.3365

> <Gold.PLP.part.nonpolar>
-21.3832

> <Gold.PLP.part.repulsive>
1.9737

> <Gold.PLP.ligand.clash>
0.0000

> <Gold.PLP.ligand.torsion>
0.7560

> <Gold.PLP.Chemscore.Hbond>
5.1850

> <Gold.PLP.Chemscore.CHOScore>
0.0000

> <Gold.PLP.Chemscore.Metal>
0.0000

> <Gold.Chemscore.Hbonds>
donor molecule, donor type, donor heavy atom, donor atom, acceptor molecule, acceptor atom, score
      L1  H    18    59       P1 10957  1.98
      L1  H    22    54       P1 10186  0.84
      P1  H  7989  7998       L1     3  0.67
      P1  H  7997  8008       L1     7  0.78
      P1  H 10785 10796       L1    22  0.71

> <Gold.PLP.Chemscore.Internal.Correction>
0.1543

> <Gold.Rescore>
     Score         DG    S(hbond)    S(metal)    S(lipo)     H(rot)  DE(clash)    DE(int)     intcor
     13.13     -16.21       3.37        0.00      75.84       3.67       1.05       2.03       ----

> <Gold.Chemscore.Fitness>
13.1291

> <Gold.Chemscore.DG>
-16.2116

> <Gold.Chemscore.ZeroCoef>
-5.4800

> <Gold.Chemscore.Hbond>
3.3659

> <Gold.Chemscore.Metal>
0.0000

> <Gold.Chemscore.Lipo>
75.8444

> <Gold.Chemscore.Internal_Hbond>
0.0000

> <Gold.Chemscore.DEClash>
1.0540

> <Gold.Chemscore.DEInternal>
2.0285

> <Gold.Chemscore.Rot>
3.6658

> <Gold.Chemscore.Internal.Correction>
   9.000000E+99

> <Gold.Chemscore.Hbonds>
donor molecule, donor type, donor heavy atom, donor atom, acceptor molecule, acceptor atom, score
      L1  H    18    59       P1 10957  0.79
      L1  H    22    54       P1 10186  0.81
      P1  H  7989  7998       L1     3  0.02
      P1  H  7997  8008       L1     7  0.75
      P1  H 10785 10796       L1    22  0.69

> <Gold.Chemscore.Hbond.Weighted>
-11.2422

> <Gold.Chemscore.Metal.Weighted>
-0.0000

> <Gold.Chemscore.Lipo.Weighted>
-8.8738

> <Gold.Chemscore.Internal_Hbond.Weighted>
0.0000

> <Gold.Chemscore.DEClash.Weighted>
1.0540

> <Gold.Chemscore.DEInternal.Weighted>
2.0285

> <Gold.Chemscore.Rot.Weighted>
9.3844

> <Gold.Chemscore.Internal.Correction.Weighted>
   9.000000E+99

> <Gold.Protein.RotatedTorsions>
[ 6907 6896 6895 6894 ] final    2.71 input  -60.11 | X-H torsion
[ 7974 7965 7964 7962 ] final  134.34 input  175.53 | X-H torsion
[ 8008 7997 7996 7995 ] final  -66.12 input   59.86 | X-H torsion
[ 10167 10162 10161 10158 ] final  162.01 input  -65.29 | X-H torsion
[ 10718 10713 10712 10709 ] final  162.95 input   66.30 | X-H torsion
[ 10763 10752 10751 10750 ] final  -55.13 input  -60.55 | X-H torsion
[ 11005 11000 10999 10996 ] final  -73.82 input  -57.11 | X-H torsion

> <Gold.Protein.ActiveResidues>
 VAL166  LYS551  ARG553  GLY616  TRP617  ASP618  TYR619  PRO620  LYS621  CYS622 
 ASP623  PHE694  ASN695  SER759  ASP760  ASP761  ALA762  ILE779  LEU786  VAL792 
 PHE793  MET794  SER795  GLU796  ALA797  LYS798  CYS799  TRP800  GLU811  SER814 

> <Gold.Protein.RotatedAtoms>
  151.6133  135.1038  160.0085 H   0  0  0  0  0  0  0  0  0  0  0  0  # atno 6907 bound_to 6896
  152.4197  133.7091  159.6479 H   0  0  0  0  0  0  0  0  0  0  0  0  # atno 6908 bound_to 6896
  150.8084  133.8393  159.3215 H   0  0  0  0  0  0  0  0  0  0  0  0  # atno 6909 bound_to 6896
  144.9773  139.4541  143.5403 H   0  0  0  0  0  0  0  0  0  0  0  0  # atno 7974 bound_to 7965
  154.4714  140.0919  156.7154 H   0  0  0  0  0  0  0  0  0  0  0  0  # atno 8008 bound_to 7997
  155.4714  140.3464  155.4308 H   0  0  0  0  0  0  0  0  0  0  0  0  # atno 8009 bound_to 7997
  156.1045  140.1431  156.9411 H   0  0  0  0  0  0  0  0  0  0  0  0  # atno 8010 bound_to 7997
  139.4856  144.4479  151.8867 H   0  0  0  0  0  0  0  0  0  0  0  0  # atno 10167 bound_to 10162
  157.1153  131.0478  151.2439 H   0  0  0  0  0  0  0  0  0  0  0  0  # atno 10718 bound_to 10713
  154.1860  135.6435  153.5047 H   0  0  0  0  0  0  0  0  0  0  0  0  # atno 10763 bound_to 10752
  153.0047  135.5417  154.6465 H   0  0  0  0  0  0  0  0  0  0  0  0  # atno 10764 bound_to 10752
  154.5841  135.2928  155.0675 H   0  0  0  0  0  0  0  0  0  0  0  0  # atno 10765 bound_to 10752
  141.1627  133.6891  156.7270 H   0  0  0  0  0  0  0  0  0  0  0  0  # atno 11005 bound_to 11000
  146.3399  139.9023  142.8792 LP  0  0  0  0  0  0  0  0  0  0  0  0  # atno 17320 bound_to 7965
  145.2472  141.0031  143.3902 LP  0  0  0  0  0  0  0  0  0  0  0  0  # atno 17321 bound_to 7965
  140.3935  144.2586  150.5898 LP  0  0  0  0  0  0  0  0  0  0  0  0  # atno 17342 bound_to 10162
  140.5124  143.2287  151.8514 LP  0  0  0  0  0  0  0  0  0  0  0  0  # atno 17343 bound_to 10162
  157.4523  130.7605  149.7162 LP  0  0  0  0  0  0  0  0  0  0  0  0  # atno 17370 bound_to 10713
  155.9841  130.3995  150.3330 LP  0  0  0  0  0  0  0  0  0  0  0  0  # atno 17371 bound_to 10713
  140.2773  134.8344  157.3902 LP  0  0  0  0  0  0  0  0  0  0  0  0  # atno 17394 bound_to 11000
  140.1465  134.4904  155.7992 LP  0  0  0  0  0  0  0  0  0  0  0  0  # atno 17395 bound_to 11000

$$$$
