AV-unprocessed.smi:2485|AV-procd|sdf|9789|dock10
  -GOLD-   2272013423D 1   1.00000     0.00000
 Structure written by MMmdl.
 39 40  0  0  0  0  0  0  0  0  1 V2000
  144.1131  132.8611  149.6229 C   0  0  0  0  0  0  0  0  0  0  0  0
  144.9479  132.9511  150.9118 C   0  0  0  0  0  0  0  0  0  0  0  0
  145.4959  131.5727  151.3116 C   0  0  0  0  0  0  0  0  0  0  0  0
  146.0546  134.0069  150.8057 C   0  0  0  0  0  0  0  0  0  0  0  0
  145.3755  135.2687  151.3002 C   0  0  2  0  0  0  0  0  0  0  0  0
  146.3472  136.2406  151.7972 N   0  0  0  0  0  0  0  0  0  0  0  0
  146.0435  137.3839  152.4273 C   0  0  0  0  0  0  0  0  0  0  0  0
  144.8899  137.7596  152.6365 O   0  0  0  0  0  0  0  0  0  0  0  0
  147.1548  138.0452  152.7938 N   0  0  0  0  0  0  0  0  0  0  0  0
  147.2497  139.2730  153.5001 C   0  0  0  0  0  0  0  0  0  0  0  0
  148.5306  139.8649  153.5129 C   0  0  0  0  0  0  0  0  0  0  0  0
  148.6963  141.0811  154.1974 C   0  0  0  0  0  0  0  0  0  0  0  0
  147.5634  141.6257  154.8254 C   0  0  0  0  0  0  0  0  0  0  0  0
  146.3548  141.0241  154.7875 N   0  0  0  0  0  0  0  0  0  0  0  0
  146.2044  139.8664  154.1343 N   0  0  0  0  0  0  0  0  0  0  0  0
  144.4181  134.7277  152.3852 C   0  0  0  0  0  0  0  0  0  0  0  0
  145.0600  134.5710  153.7800 C   0  0  0  0  0  0  0  0  0  0  0  0
  143.1176  135.5419  152.4748 C   0  0  0  0  0  0  0  0  0  0  0  0
  144.0809  133.4121  151.9470 O   0  0  0  0  0  0  0  0  0  0  0  0
  144.7209  132.5286  148.7809 H   0  0  0  0  0  0  0  0  0  0  0  0
  143.6798  133.8259  149.3584 H   0  0  0  0  0  0  0  0  0  0  0  0
  143.2901  132.1551  149.7367 H   0  0  0  0  0  0  0  0  0  0  0  0
  146.1828  131.1872  150.5575 H   0  0  0  0  0  0  0  0  0  0  0  0
  144.6901  130.8477  151.4298 H   0  0  0  0  0  0  0  0  0  0  0  0
  146.0338  131.6203  152.2589 H   0  0  0  0  0  0  0  0  0  0  0  0
  146.8870  133.7498  151.4630 H   0  0  0  0  0  0  0  0  0  0  0  0
  146.4556  134.1081  149.7966 H   0  0  0  0  0  0  0  0  0  0  0  0
  144.8044  135.6918  150.4713 H   0  0  0  0  0  0  0  0  0  0  0  0
  147.3219  136.0127  151.6670 H   0  0  0  0  0  0  0  0  0  0  0  0
  148.0342  137.6158  152.5484 H   0  0  0  0  0  0  0  0  0  0  0  0
  149.3678  139.4000  153.0125 H   0  0  0  0  0  0  0  0  0  0  0  0
  149.6547  141.5768  154.2398 H   0  0  0  0  0  0  0  0  0  0  0  0
  147.6258  142.5577  155.3674 H   0  0  0  0  0  0  0  0  0  0  0  0
  145.3091  135.5376  154.2188 H   0  0  0  0  0  0  0  0  0  0  0  0
  145.9734  133.9776  153.7384 H   0  0  0  0  0  0  0  0  0  0  0  0
  144.3785  134.0697  154.4678 H   0  0  0  0  0  0  0  0  0  0  0  0
  143.3105  136.5609  152.8103 H   0  0  0  0  0  0  0  0  0  0  0  0
  142.4173  135.0903  153.1779 H   0  0  0  0  0  0  0  0  0  0  0  0
  142.6186  135.5991  151.5071 H   0  0  0  0  0  0  0  0  0  0  0  0
  1  2  1  0  0  0  0
  1 20  1  0  0  0  0
  1 21  1  0  0  0  0
  1 22  1  0  0  0  0
  2 19  1  0  0  0  0
  2  3  1  0  0  0  0
  2  4  1  0  0  0  0
  3 23  1  0  0  0  0
  3 24  1  0  0  0  0
  3 25  1  0  0  0  0
  4  5  1  0  0  0  0
  4 26  1  0  0  0  0
  4 27  1  0  0  0  0
  5  6  1  0  0  0  0
  5 16  1  0  0  0  0
  5 28  1  0  0  0  0
  6  7  1  0  0  0  0
  6 29  1  0  0  0  0
  7  8  2  0  0  0  0
  7  9  1  0  0  0  0
  9 10  1  0  0  0  0
  9 30  1  0  0  0  0
 10 15  1  0  0  0  0
 10 11  2  0  0  0  0
 11 12  1  0  0  0  0
 11 31  1  0  0  0  0
 12 13  2  0  0  0  0
 12 32  1  0  0  0  0
 13 14  1  0  0  0  0
 13 33  1  0  0  0  0
 14 15  2  0  0  0  0
 16 17  1  0  0  0  0
 16 18  1  0  0  0  0
 16 19  1  0  0  0  0
 17 34  1  0  0  0  0
 17 35  1  0  0  0  0
 17 36  1  0  0  0  0
 18 37  1  0  0  0  0
 18 38  1  0  0  0  0
 18 39  1  0  0  0  0
M  END
> <s_m_source_file>
AV-unprocessed.smi

> <i_m_source_file_index>
2485

> <i_lp_mmshare_version>
43012

> <i_f3d_flags>
0

> <s_epik_input>
W0NIM11DMShbQ0gzXSlbQ0gyXVtDQEhdKEMoTzEpKFtDSDNdKVtDSDNdKVtOSF1DKD1PKVtOSF1jMltjSF1bY0hdW2NIXW5uMg==

> <s_epik_cmdline>
J2VwaWtfcHl0aG9uJywgJy1waCcsICc3LjAnLCAnLXRuJywgJzgnLCAnLW1hJywgJzIwMCcsICctbWV0YWxfYmluZGluZycsICctaW1hZScsICc8aW5maWxlLm1hZT4nLCAnLW9tYWUnLCAnPG91dGZpbGUubWFlPic=

> <r_lp_tautomer_probability>
1

> <r_epik_Ionization_Penalty>
0.00480341

> <r_epik_Ionization_Penalty_Charging>
0

> <r_epik_Ionization_Penalty_Neutral>
0.00480341

> <r_epik_State_Penalty>
-0

> <r_epik_Charging_Adjusted_Penalty>
0

> <i_epik_Tot_Q>
0

> <i_epik_Tot_abs_Q>
0

> <r_epik_Metal_State_Penalty>
-0

> <b_epik_Metal_Only>
0

> <s_lp_Force_Field>
OPLS_2005

> <r_lp_Energy>
24.1207

> <b_lp_Chiralities_Consistent>
1

> <s_lp_Variant>
AV-unprocessed.smi:2485-2

> <Gold.Version>
5.8.1

> <Gold.Id.Protein>
6NUR|6NUR_protein|mol2

> <Gold.PLP.Fitness>
36.9453

> <Gold.PLP.PLP>
-28.0664

> <Gold.PLP.part.hbond>
-2.0000

> <Gold.PLP.part.metal>
0.0000

> <Gold.PLP.part.buried>
-2.3722

> <Gold.PLP.part.nonpolar>
-25.8125

> <Gold.PLP.part.repulsive>
1.9092

> <Gold.PLP.ligand.clash>
0.0000

> <Gold.PLP.ligand.torsion>
0.0661

> <Gold.PLP.Chemscore.Hbond>
2.0000

> <Gold.PLP.Chemscore.CHOScore>
1.0000

> <Gold.PLP.Chemscore.Metal>
0.0000

> <Gold.Chemscore.Hbonds>
donor molecule, donor type, donor heavy atom, donor atom, acceptor molecule, acceptor atom, score
      L1  H     6    29       P1  7948  1.00
      L1  H     9    30       P1  7948  1.00
      L1  C    13    33       P1  8028  1.00

> <Gold.PLP.Chemscore.Internal.Correction>
0.0111

> <Gold.Rescore>
     Score         DG    S(hbond)    S(metal)    S(lipo)     H(rot)  DE(clash)    DE(int)     intcor
     12.41     -17.27       1.93        0.00      67.56       1.00       1.28       3.59       ----

> <Gold.Chemscore.Fitness>
12.4057

> <Gold.Chemscore.DG>
-17.2745

> <Gold.Chemscore.ZeroCoef>
-5.4800

> <Gold.Chemscore.Hbond>
1.9310

> <Gold.Chemscore.Metal>
0.0000

> <Gold.Chemscore.Lipo>
67.5627

> <Gold.Chemscore.Internal_Hbond>
0.0000

> <Gold.Chemscore.DEClash>
1.2780

> <Gold.Chemscore.DEInternal>
3.5909

> <Gold.Chemscore.Rot>
1.0000

> <Gold.Chemscore.Internal.Correction>
   9.000000E+99

> <Gold.Chemscore.Hbonds>
donor molecule, donor type, donor heavy atom, donor atom, acceptor molecule, acceptor atom, score
      L1  H     6    29       P1  7948  0.98
      L1  H     9    30       P1  7948  0.95

> <Gold.Chemscore.Hbond.Weighted>
-6.4497

> <Gold.Chemscore.Metal.Weighted>
-0.0000

> <Gold.Chemscore.Lipo.Weighted>
-7.9048

> <Gold.Chemscore.Internal_Hbond.Weighted>
0.0000

> <Gold.Chemscore.DEClash.Weighted>
1.2780

> <Gold.Chemscore.DEInternal.Weighted>
3.5909

> <Gold.Chemscore.Rot.Weighted>
2.5600

> <Gold.Chemscore.Internal.Correction.Weighted>
   9.000000E+99

> <Gold.Protein.RotatedTorsions>
[ 6907 6896 6895 6894 ] final   94.71 input  -60.11 | X-H torsion
[ 7974 7965 7964 7962 ] final -112.89 input  175.53 | X-H torsion
[ 8008 7997 7996 7995 ] final  -43.43 input   59.86 | X-H torsion
[ 10167 10162 10161 10158 ] final   17.55 input  -65.29 | X-H torsion
[ 10718 10713 10712 10709 ] final   61.49 input   66.30 | X-H torsion
[ 10763 10752 10751 10750 ] final   43.93 input  -60.55 | X-H torsion
[ 11005 11000 10999 10996 ] final  134.20 input  -57.11 | X-H torsion

> <Gold.Protein.ActiveResidues>
 VAL166  LYS551  ARG553  GLY616  TRP617  ASP618  TYR619  PRO620  LYS621  CYS622 
 ASP623  PHE694  ASN695  SER759  ASP760  ASP761  ALA762  ILE779  LEU786  VAL792 
 PHE793  MET794  SER795  GLU796  ALA797  LYS798  CYS799  TRP800  GLU811  SER814 

> <Gold.Protein.RotatedAtoms>
  152.5448  134.1152  159.8375 H   0  0  0  0  0  0  0  0  0  0  0  0  # atno 6907 bound_to 6896
  151.1214  133.5094  159.2609 H   0  0  0  0  0  0  0  0  0  0  0  0  # atno 6908 bound_to 6896
  151.1774  135.0355  159.8832 H   0  0  0  0  0  0  0  0  0  0  0  0  # atno 6909 bound_to 6896
  145.1386  140.8765  143.3716 H   0  0  0  0  0  0  0  0  0  0  0  0  # atno 7974 bound_to 7965
  154.3997  140.1448  156.3518 H   0  0  0  0  0  0  0  0  0  0  0  0  # atno 8008 bound_to 7997
  155.8262  140.3467  155.5523 H   0  0  0  0  0  0  0  0  0  0  0  0  # atno 8009 bound_to 7997
  155.8236  140.0901  157.1825 H   0  0  0  0  0  0  0  0  0  0  0  0  # atno 8010 bound_to 7997
  140.5718  143.9147  150.6718 H   0  0  0  0  0  0  0  0  0  0  0  0  # atno 10167 bound_to 10162
  157.5832  130.8998  149.9468 H   0  0  0  0  0  0  0  0  0  0  0  0  # atno 10718 bound_to 10713
  152.9851  135.6086  154.3191 H   0  0  0  0  0  0  0  0  0  0  0  0  # atno 10763 bound_to 10752
  154.2902  135.2775  155.2660 H   0  0  0  0  0  0  0  0  0  0  0  0  # atno 10764 bound_to 10752
  154.4959  135.5880  153.6551 H   0  0  0  0  0  0  0  0  0  0  0  0  # atno 10765 bound_to 10752
  139.9900  134.9518  156.9833 H   0  0  0  0  0  0  0  0  0  0  0  0  # atno 11005 bound_to 11000
  145.0557  139.3145  143.5906 LP  0  0  0  0  0  0  0  0  0  0  0  0  # atno 17320 bound_to 7965
  146.3507  139.9981  142.8679 LP  0  0  0  0  0  0  0  0  0  0  0  0  # atno 17321 bound_to 7965
  140.2624  143.3514  152.1310 LP  0  0  0  0  0  0  0  0  0  0  0  0  # atno 17342 bound_to 10162
  139.5121  144.6912  151.5755 LP  0  0  0  0  0  0  0  0  0  0  0  0  # atno 17343 bound_to 10162
  156.0879  130.3666  150.0451 LP  0  0  0  0  0  0  0  0  0  0  0  0  # atno 17370 bound_to 10713
  156.8587  130.9484  151.3620 LP  0  0  0  0  0  0  0  0  0  0  0  0  # atno 17371 bound_to 10713
  140.4928  134.1176  155.7236 LP  0  0  0  0  0  0  0  0  0  0  0  0  # atno 17394 bound_to 11000
  141.1557  133.8886  157.1982 LP  0  0  0  0  0  0  0  0  0  0  0  0  # atno 17395 bound_to 11000

$$$$
