AV-unprocessed.smi:47|AV-procd|sdf|430|dock5
  -GOLD-   2262016303D 1   1.00000     0.00000
 Structure written by MMmdl.
 31 33  0  0  0  0  0  0  0  0  3 V2000
  145.1792  140.1306  154.9138 O   0  0  0  0  0  0  0  0  0  0  0  0
  146.4071  140.8169  155.0358 C   0  0  2  0  0  0  0  0  0  0  0  0
  146.3412  142.2296  154.4586 C   0  0  0  0  0  0  0  0  0  0  0  0
  147.7322  142.5704  154.1092 N   0  3  0  0  0  0  0  0  0  0  0  0
  148.5045  141.3180  153.9608 C   0  0  1  0  0  0  0  0  0  0  0  0
  149.6590  141.2978  154.9429 C   0  0  0  0  0  0  0  0  0  0  0  0
  150.6182  140.3529  154.9635 N   0  0  0  0  0  0  0  0  0  0  0  0
  151.4124  140.6604  155.9709 N   0  5  0  0  0  0  0  0  0  0  0  0
  150.9282  141.7686  156.5521 C   0  0  0  0  0  0  0  0  0  0  0  0
  151.5737  142.3927  157.7251 C   0  0  0  0  0  0  0  0  0  0  0  0
  151.5979  143.8000  157.8643 C   0  0  0  0  0  0  0  0  0  0  0  0
  152.2097  144.4097  158.9767 C   0  0  0  0  0  0  0  0  0  0  0  0
  152.8097  143.6175  159.9721 C   0  0  0  0  0  0  0  0  0  0  0  0
  152.7954  142.2162  159.8505 C   0  0  0  0  0  0  0  0  0  0  0  0
  152.1823  141.6112  158.7360 C   0  0  0  0  0  0  0  0  0  0  0  0
  149.8320  142.1865  155.9353 N   0  0  0  0  0  0  0  0  0  0  0  0
  147.5135  140.1705  154.2068 C   0  0  0  0  0  0  0  0  0  0  0  0
  146.7044  140.8563  156.0850 H   0  0  0  0  0  0  0  0  0  0  0  0
  148.9089  141.2594  152.9498 H   0  0  0  0  0  0  0  0  0  0  0  0
  144.9139  140.1464  154.0064 H   0  0  0  0  0  0  0  0  0  0  0  0
  145.7497  142.2412  153.5418 H   0  0  0  0  0  0  0  0  0  0  0  0
  145.9088  142.9518  155.1513 H   0  0  0  0  0  0  0  0  0  0  0  0
  147.7696  143.1254  153.2668 H   0  0  0  0  0  0  0  0  0  0  0  0
  151.1426  144.4259  157.1110 H   0  0  0  0  0  0  0  0  0  0  0  0
  152.2180  145.4861  159.0654 H   0  0  0  0  0  0  0  0  0  0  0  0
  153.2792  144.0831  160.8259 H   0  0  0  0  0  0  0  0  0  0  0  0
  153.2542  141.6032  160.6122 H   0  0  0  0  0  0  0  0  0  0  0  0
  152.1834  140.5335  158.6645 H   0  0  0  0  0  0  0  0  0  0  0  0
  147.9630  139.2975  154.6819 H   0  0  0  0  0  0  0  0  0  0  0  0
  147.1036  139.8470  153.2485 H   0  0  0  0  0  0  0  0  0  0  0  0
  148.1449  143.0837  154.8762 H   0  0  0  0  0  0  0  0  0  0  0  0
  1  2  1  0  0  0  0
  1 20  1  0  0  0  0
  2 18  1  0  0  0  0
  2 17  1  0  0  0  0
  2  3  1  0  0  0  0
  3  4  1  0  0  0  0
  3 21  1  0  0  0  0
  3 22  1  0  0  0  0
  4  5  1  0  0  0  0
  4 23  1  0  0  0  0
  4 31  1  0  0  0  0
  5 19  1  0  0  0  0
  5  6  1  0  0  0  0
  5 17  1  0  0  0  0
  6 16  1  0  0  0  0
  6  7  2  0  0  0  0
  7  8  1  0  0  0  0
  8  9  1  0  0  0  0
  9 10  1  0  0  0  0
  9 16  2  0  0  0  0
 10 15  1  0  0  0  0
 10 11  2  0  0  0  0
 11 12  1  0  0  0  0
 11 24  1  0  0  0  0
 12 13  2  0  0  0  0
 12 25  1  0  0  0  0
 13 14  1  0  0  0  0
 13 26  1  0  0  0  0
 14 15  2  0  0  0  0
 14 27  1  0  0  0  0
 15 28  1  0  0  0  0
 17 29  1  0  0  0  0
 17 30  1  0  0  0  0
M  CHG  1   4   1
M  CHG  1   8  -1
M  END
> <s_m_source_file>
AV-unprocessed.smi

> <i_m_source_file_index>
47

> <i_lp_mmshare_version>
43012

> <i_f3d_flags>
0

> <s_epik_input>
W09IXVtDQEhdMVtDSDJdW05IXVtDQEBIXShbQ0gyXTEpYzJuW25IXWMobjIpLWMzW2NIXVtjSF1bY0hdW2NIXVtjSF0z

> <s_epik_cmdline>
J2VwaWtfcHl0aG9uJywgJy1waCcsICc3LjAnLCAnLXRuJywgJzgnLCAnLW1hJywgJzIwMCcsICctbWV0YWxfYmluZGluZycsICctaW1hZScsICc8aW5maWxlLm1hZT4nLCAnLW9tYWUnLCAnPG91dGZpbGUubWFlPic=

> <r_lp_tautomer_probability>
1

> <r_epik_Ionization_Penalty>
1.09593

> <r_epik_Ionization_Penalty_Charging>
1.09593

> <r_epik_Ionization_Penalty_Neutral>
3.91329e-08

> <r_epik_State_Penalty>
0.690005

> <r_epik_Charging_Adjusted_Penalty>
1.78594

> <i_epik_Tot_Q>
0

> <i_epik_Tot_abs_Q>
2

> <r_epik_Metal_State_Penalty>
0.213596

> <b_epik_Metal_Only>
0

> <s_lp_Force_Field>
OPLS_2005

> <r_lp_Energy>
20.8085

> <b_lp_Chiralities_Consistent>
1

> <s_lp_Variant>
AV-unprocessed.smi:47-8

> <Gold.Version>
5.8.1

> <Gold.Id.Protein>
6NUR|6NUR_protein|mol2

> <Gold.PLP.Fitness>
47.0015

> <Gold.PLP.PLP>
-36.3682

> <Gold.PLP.part.hbond>
-3.1431

> <Gold.PLP.part.metal>
0.0000

> <Gold.PLP.part.buried>
-4.1547

> <Gold.PLP.part.nonpolar>
-31.1075

> <Gold.PLP.part.repulsive>
2.9805

> <Gold.PLP.ligand.clash>
0.0000

> <Gold.PLP.ligand.torsion>
0.6888

> <Gold.PLP.Chemscore.Hbond>
4.0000

> <Gold.PLP.Chemscore.CHOScore>
0.0000

> <Gold.PLP.Chemscore.Metal>
0.0000

> <Gold.Chemscore.Hbonds>
donor molecule, donor type, donor heavy atom, donor atom, acceptor molecule, acceptor atom, score
      L1  H     1    20       P1 10175  1.00
      L1  H     4    31       P1  8028  2.00
      P1  H  7989  7998       L1     7  1.00

> <Gold.PLP.Chemscore.Internal.Correction>
0.0110

> <Gold.Rescore>
     Score         DG    S(hbond)    S(metal)    S(lipo)     H(rot)  DE(clash)    DE(int)     intcor
     17.14     -19.30       2.13        0.00      89.73       1.48       1.64       0.51       ----

> <Gold.Chemscore.Fitness>
17.1432

> <Gold.Chemscore.DG>
-19.2965

> <Gold.Chemscore.ZeroCoef>
-5.4800

> <Gold.Chemscore.Hbond>
2.1281

> <Gold.Chemscore.Metal>
0.0000

> <Gold.Chemscore.Lipo>
89.7300

> <Gold.Chemscore.Internal_Hbond>
0.0000

> <Gold.Chemscore.DEClash>
1.6449

> <Gold.Chemscore.DEInternal>
0.5084

> <Gold.Chemscore.Rot>
1.4804

> <Gold.Chemscore.Internal.Correction>
   9.000000E+99

> <Gold.Chemscore.Hbonds>
donor molecule, donor type, donor heavy atom, donor atom, acceptor molecule, acceptor atom, score
      L1  H     1    20       P1 10175  0.95
      L1  H     4    31       P1  8028  0.91
      P1  H  7989  7998       L1     7  0.09

> <Gold.Chemscore.Hbond.Weighted>
-7.1079

> <Gold.Chemscore.Metal.Weighted>
-0.0000

> <Gold.Chemscore.Lipo.Weighted>
-10.4984

> <Gold.Chemscore.Internal_Hbond.Weighted>
0.0000

> <Gold.Chemscore.DEClash.Weighted>
1.6449

> <Gold.Chemscore.DEInternal.Weighted>
0.5084

> <Gold.Chemscore.Rot.Weighted>
3.7899

> <Gold.Chemscore.Internal.Correction.Weighted>
   9.000000E+99

> <Gold.Protein.RotatedTorsions>
[ 6907 6896 6895 6894 ] final   31.29 input  -60.11 | X-H torsion
[ 7974 7965 7964 7962 ] final    3.96 input  175.53 | X-H torsion
[ 8008 7997 7996 7995 ] final  -23.11 input   59.86 | X-H torsion
[ 10167 10162 10161 10158 ] final  -83.57 input  -65.29 | X-H torsion
[ 10718 10713 10712 10709 ] final -127.77 input   66.30 | X-H torsion
[ 10763 10752 10751 10750 ] final  -92.90 input  -60.55 | X-H torsion
[ 11005 11000 10999 10996 ] final   83.52 input  -57.11 | X-H torsion

> <Gold.Protein.ActiveResidues>
 VAL166  LYS551  ARG553  GLY616  TRP617  ASP618  TYR619  PRO620  LYS621  CYS622 
 ASP623  PHE694  ASN695  SER759  ASP760  ASP761  ALA762  ILE779  LEU786  VAL792 
 PHE793  MET794  SER795  GLU796  ALA797  LYS798  CYS799  TRP800  GLU811  SER814 

> <Gold.Protein.RotatedAtoms>
  152.0582  134.9611  160.0574 H   0  0  0  0  0  0  0  0  0  0  0  0  # atno 6907 bound_to 6896
  152.0985  133.4232  159.4584 H   0  0  0  0  0  0  0  0  0  0  0  0  # atno 6908 bound_to 6896
  150.6838  134.2708  159.4631 H   0  0  0  0  0  0  0  0  0  0  0  0  # atno 6909 bound_to 6896
  146.2444  140.0606  142.8369 H   0  0  0  0  0  0  0  0  0  0  0  0  # atno 7974 bound_to 7965
  154.4604  140.1989  156.0260 H   0  0  0  0  0  0  0  0  0  0  0  0  # atno 8008 bound_to 7997
  156.0829  140.3269  155.7688 H   0  0  0  0  0  0  0  0  0  0  0  0  # atno 8009 bound_to 7997
  155.5082  140.0559  157.2918 H   0  0  0  0  0  0  0  0  0  0  0  0  # atno 8010 bound_to 7997
  140.4214  143.2583  151.8885 H   0  0  0  0  0  0  0  0  0  0  0  0  # atno 10167 bound_to 10162
  156.1888  130.6781  151.0398 H   0  0  0  0  0  0  0  0  0  0  0  0  # atno 10718 bound_to 10713
  154.6906  135.5214  153.8387 H   0  0  0  0  0  0  0  0  0  0  0  0  # atno 10763 bound_to 10752
  153.0629  135.6575  154.0429 H   0  0  0  0  0  0  0  0  0  0  0  0  # atno 10764 bound_to 10752
  154.0304  135.2986  155.3349 H   0  0  0  0  0  0  0  0  0  0  0  0  # atno 10765 bound_to 10752
  139.9028  134.8150  156.2320 H   0  0  0  0  0  0  0  0  0  0  0  0  # atno 11005 bound_to 11000
  145.0903  140.9280  143.4773 LP  0  0  0  0  0  0  0  0  0  0  0  0  # atno 17320 bound_to 7965
  145.0777  139.2983  143.5799 LP  0  0  0  0  0  0  0  0  0  0  0  0  # atno 17321 bound_to 7965
  139.4782  144.5433  151.8495 LP  0  0  0  0  0  0  0  0  0  0  0  0  # atno 17342 bound_to 10162
  140.4529  144.1829  150.5899 LP  0  0  0  0  0  0  0  0  0  0  0  0  # atno 17343 bound_to 10162
  157.6916  131.0808  150.7092 LP  0  0  0  0  0  0  0  0  0  0  0  0  # atno 17370 bound_to 10713
  156.7148  130.4663  149.5538 LP  0  0  0  0  0  0  0  0  0  0  0  0  # atno 17371 bound_to 10713
  141.0339  133.6973  156.1479 LP  0  0  0  0  0  0  0  0  0  0  0  0  # atno 17394 bound_to 11000
  140.7055  134.4518  157.5584 LP  0  0  0  0  0  0  0  0  0  0  0  0  # atno 17395 bound_to 11000

$$$$
