AV-unprocessed.smi:171|AV-procd|sdf|1414|dock3
  -GOLD-   2262019173D 1   1.00000     0.00000
 Structure written by MMmdl.
 56 59  0  0  0  0  0  0  0  0  1 V2000
  151.4083  144.3690  160.5447 C   0  0  0  0  0  0  0  0  0  0  0  0
  152.2172  143.6328  159.4638 C   0  0  0  0  0  0  0  0  0  0  0  0
  152.3691  144.5212  158.2186 C   0  0  0  0  0  0  0  0  0  0  0  0
  151.6027  142.2575  159.0892 C   0  0  0  0  0  0  0  0  0  0  0  0
  152.1628  141.0179  159.8464 C   0  0  2  0  0  0  0  0  0  0  0  0
  152.9810  141.3978  161.1018 C   0  0  0  0  0  0  0  0  0  0  0  0
  152.5433  142.2374  161.8865 O   0  0  0  0  0  0  0  0  0  0  0  0
  154.1507  140.7772  161.3333 N   0  0  0  0  0  0  0  0  0  0  0  0
  154.7610  139.7704  160.4697 C   0  0  0  0  0  0  0  0  0  0  0  0
  153.7389  139.1011  159.5404 C   0  0  0  0  0  0  0  0  0  0  0  0
  152.8840  140.1135  158.9351 N   0  0  0  0  0  0  0  0  0  0  0  0
  152.1919  139.6424  157.8738 C   0  0  0  0  0  0  0  0  0  0  0  0
  152.4620  140.1029  156.6247 N   0  0  0  0  0  0  0  0  0  0  0  0
  151.7905  139.6141  155.5773 C   0  0  0  0  0  0  0  0  0  0  0  0
  150.8370  138.6795  155.5586 N   0  0  0  0  0  0  0  0  0  0  0  0
  150.5649  138.2218  156.8148 C   0  0  0  0  0  0  0  0  0  0  0  0
  151.1825  138.6566  158.0191 C   0  0  0  0  0  0  0  0  0  0  0  0
  150.6470  137.9784  159.1060 N   0  0  0  0  0  0  0  0  0  0  0  0
  149.7687  137.1746  158.5720 C   0  0  0  0  0  0  0  0  0  0  0  0
  149.6647  137.2439  157.2003 N   0  0  0  0  0  0  0  0  0  0  0  0
  148.7896  136.4520  156.3506 C   0  0  0  0  0  0  0  0  0  0  0  0
  149.5588  135.4984  155.3984 C   0  0  1  0  0  0  0  0  0  0  0  0
  150.3054  136.2898  154.4892 O   0  0  0  0  0  0  0  0  0  0  0  0
  150.5380  134.5762  156.1217 C   0  0  0  0  0  0  0  0  0  0  0  0
  150.5725  133.3426  155.2330 C   0  0  0  0  0  0  0  0  0  0  0  0
  149.2178  133.2136  154.8415 O   0  0  0  0  0  0  0  0  0  0  0  0
  148.6944  134.5099  154.5650 C   0  0  1  0  0  0  0  0  0  0  0  0
  147.1874  134.4821  154.8642 C   0  0  0  0  0  0  0  0  0  0  0  0
  150.3816  144.5449  160.2219 H   0  0  0  0  0  0  0  0  0  0  0  0
  151.8532  145.3375  160.7735 H   0  0  0  0  0  0  0  0  0  0  0  0
  151.3739  143.8069  161.4766 H   0  0  0  0  0  0  0  0  0  0  0  0
  153.2221  143.4843  159.8577 H   0  0  0  0  0  0  0  0  0  0  0  0
  151.4030  144.7238  157.7552 H   0  0  0  0  0  0  0  0  0  0  0  0
  153.0055  144.0461  157.4709 H   0  0  0  0  0  0  0  0  0  0  0  0
  152.8260  145.4785  158.4709 H   0  0  0  0  0  0  0  0  0  0  0  0
  150.5177  142.3025  159.1920 H   0  0  0  0  0  0  0  0  0  0  0  0
  151.7523  142.0839  158.0228 H   0  0  0  0  0  0  0  0  0  0  0  0
  151.3079  140.4675  160.2428 H   0  0  0  0  0  0  0  0  0  0  0  0
  154.6609  141.0325  162.1665 H   0  0  0  0  0  0  0  0  0  0  0  0
  155.5297  140.2649  159.8747 H   0  0  0  0  0  0  0  0  0  0  0  0
  155.2661  139.0230  161.0818 H   0  0  0  0  0  0  0  0  0  0  0  0
  154.2587  138.5194  158.7770 H   0  0  0  0  0  0  0  0  0  0  0  0
  153.1190  138.4040  160.1071 H   0  0  0  0  0  0  0  0  0  0  0  0
  152.0595  140.0266  154.6160 H   0  0  0  0  0  0  0  0  0  0  0  0
  149.1761  136.4963  159.1683 H   0  0  0  0  0  0  0  0  0  0  0  0
  148.1232  135.8861  157.0023 H   0  0  0  0  0  0  0  0  0  0  0  0
  148.1593  137.1350  155.7799 H   0  0  0  0  0  0  0  0  0  0  0  0
  149.7874  136.4204  153.7097 H   0  0  0  0  0  0  0  0  0  0  0  0
  151.5227  135.0166  156.2860 H   0  0  0  0  0  0  0  0  0  0  0  0
  150.1354  134.2918  157.0946 H   0  0  0  0  0  0  0  0  0  0  0  0
  151.1996  133.5043  154.3549 H   0  0  0  0  0  0  0  0  0  0  0  0
  150.9271  132.4546  155.7563 H   0  0  0  0  0  0  0  0  0  0  0  0
  148.8286  134.6955  153.4976 H   0  0  0  0  0  0  0  0  0  0  0  0
  146.7227  135.4473  154.6621 H   0  0  0  0  0  0  0  0  0  0  0  0
  146.9893  134.2170  155.9029 H   0  0  0  0  0  0  0  0  0  0  0  0
  146.6865  133.7430  154.2387 H   0  0  0  0  0  0  0  0  0  0  0  0
  1  2  1  0  0  0  0
  1 29  1  0  0  0  0
  1 30  1  0  0  0  0
  1 31  1  0  0  0  0
  2  3  1  0  0  0  0
  2  4  1  0  0  0  0
  2 32  1  0  0  0  0
  3 33  1  0  0  0  0
  3 34  1  0  0  0  0
  3 35  1  0  0  0  0
  4  5  1  0  0  0  0
  4 36  1  0  0  0  0
  4 37  1  0  0  0  0
  5 11  1  0  0  0  0
  5  6  1  0  0  0  0
  5 38  1  0  0  0  0
  6  7  2  0  0  0  0
  6  8  1  0  0  0  0
  8  9  1  0  0  0  0
  8 39  1  0  0  0  0
  9 10  1  0  0  0  0
  9 40  1  0  0  0  0
  9 41  1  0  0  0  0
 10 11  1  0  0  0  0
 10 42  1  0  0  0  0
 10 43  1  0  0  0  0
 11 12  1  0  0  0  0
 12 17  1  0  0  0  0
 12 13  2  0  0  0  0
 13 14  1  0  0  0  0
 14 15  2  0  0  0  0
 14 44  1  0  0  0  0
 15 16  1  0  0  0  0
 16 20  1  0  0  0  0
 16 17  2  0  0  0  0
 17 18  1  0  0  0  0
 18 19  2  0  0  0  0
 19 20  1  0  0  0  0
 19 45  1  0  0  0  0
 20 21  1  0  0  0  0
 21 22  1  0  0  0  0
 21 46  1  0  0  0  0
 21 47  1  0  0  0  0
 22 27  1  0  0  0  0
 22 23  1  0  0  0  0
 22 24  1  0  0  0  0
 23 48  1  0  0  0  0
 24 25  1  0  0  0  0
 24 49  1  0  0  0  0
 24 50  1  0  0  0  0
 25 26  1  0  0  0  0
 25 51  1  0  0  0  0
 25 52  1  0  0  0  0
 26 27  1  0  0  0  0
 27 28  1  0  0  0  0
 27 53  1  0  0  0  0
 28 54  1  0  0  0  0
 28 55  1  0  0  0  0
 28 56  1  0  0  0  0
M  END
> <s_m_source_file>
AV-unprocessed.smi

> <i_m_source_file_index>
171

> <i_lp_mmshare_version>
43012

> <i_f3d_flags>
0

> <s_epik_input>
W0NIM11bQ0hdKFtDSDNdKVtDSDJdW0NAQEhdMUMoPU8pW05IXVtDSDJdW0NIMl1OMWMobltjSF1uMiljKGMyMyluW2NIXW4zW0NIMl1bQ0BAXTQoW09IXSlbQ0gyXVtDSDJdT1tDQEhdNFtDSDNd

> <s_epik_cmdline>
J2VwaWtfcHl0aG9uJywgJy1waCcsICc3LjAnLCAnLXRuJywgJzgnLCAnLW1hJywgJzIwMCcsICctbWV0YWxfYmluZGluZycsICctaW1hZScsICc8aW5maWxlLm1hZT4nLCAnLW9tYWUnLCAnPG91dGZpbGUubWFlPic=

> <r_lp_tautomer_probability>
1

> <r_epik_Ionization_Penalty>
0.000670584

> <r_epik_Ionization_Penalty_Charging>
0

> <r_epik_Ionization_Penalty_Neutral>
0.000670584

> <r_epik_State_Penalty>
0.000304767

> <r_epik_Charging_Adjusted_Penalty>
0.000304767

> <i_epik_Tot_Q>
0

> <i_epik_Tot_abs_Q>
0

> <r_epik_Metal_State_Penalty>
-0

> <b_epik_Metal_Only>
0

> <s_lp_Force_Field>
OPLS_2005

> <r_lp_Energy>
42.1077

> <b_lp_Chiralities_Consistent>
1

> <s_lp_Variant>
AV-unprocessed.smi:171-1

> <Gold.Version>
5.8.1

> <Gold.Id.Protein>
6NUR|6NUR_protein|mol2

> <Gold.PLP.Fitness>
45.9676

> <Gold.PLP.PLP>
-42.4314

> <Gold.PLP.part.hbond>
-2.9999

> <Gold.PLP.part.metal>
0.0000

> <Gold.PLP.part.buried>
-4.8229

> <Gold.PLP.part.nonpolar>
-33.8551

> <Gold.PLP.part.repulsive>
0.1257

> <Gold.PLP.ligand.clash>
0.0000

> <Gold.PLP.ligand.torsion>
1.4214

> <Gold.PLP.Chemscore.Hbond>
1.9750

> <Gold.PLP.Chemscore.CHOScore>
0.0000

> <Gold.PLP.Chemscore.Metal>
0.0000

> <Gold.Chemscore.Hbonds>
donor molecule, donor type, donor heavy atom, donor atom, acceptor molecule, acceptor atom, score
      L1  H    23    48       P1  7948  1.00
      P1  H  7997  8008       L1    13  1.00

> <Gold.PLP.Chemscore.Internal.Correction>
0.4539

> <Gold.Rescore>
     Score         DG    S(hbond)    S(metal)    S(lipo)     H(rot)  DE(clash)    DE(int)     intcor
      9.98     -14.30       1.73        0.00      82.97       2.61       0.00       4.32       ----

> <Gold.Chemscore.Fitness>
9.9773

> <Gold.Chemscore.DG>
-14.3005

> <Gold.Chemscore.ZeroCoef>
-5.4800

> <Gold.Chemscore.Hbond>
1.7329

> <Gold.Chemscore.Metal>
0.0000

> <Gold.Chemscore.Lipo>
82.9680

> <Gold.Chemscore.Internal_Hbond>
0.0000

> <Gold.Chemscore.DEClash>
0.0029

> <Gold.Chemscore.DEInternal>
4.3203

> <Gold.Chemscore.Rot>
2.6074

> <Gold.Chemscore.Internal.Correction>
   9.000000E+99

> <Gold.Chemscore.Hbonds>
donor molecule, donor type, donor heavy atom, donor atom, acceptor molecule, acceptor atom, score
      L1  H    23    48       P1  7948  0.33
      P1  H  7997  8008       L1    13  0.60

> <Gold.Chemscore.Hbond.Weighted>
-5.7880

> <Gold.Chemscore.Metal.Weighted>
-0.0000

> <Gold.Chemscore.Lipo.Weighted>
-9.7073

> <Gold.Chemscore.Internal_Hbond.Weighted>
0.0000

> <Gold.Chemscore.DEClash.Weighted>
0.0029

> <Gold.Chemscore.DEInternal.Weighted>
4.3203

> <Gold.Chemscore.Rot.Weighted>
6.6748

> <Gold.Chemscore.Internal.Correction.Weighted>
   9.000000E+99

> <Gold.Protein.RotatedTorsions>
[ 6907 6896 6895 6894 ] final  -38.80 input  -60.11 | X-H torsion
[ 7974 7965 7964 7962 ] final   98.77 input  175.53 | X-H torsion
[ 8008 7997 7996 7995 ] final  -36.24 input   59.86 | X-H torsion
[ 10167 10162 10161 10158 ] final  139.28 input  -65.29 | X-H torsion
[ 10718 10713 10712 10709 ] final  119.30 input   66.30 | X-H torsion
[ 10763 10752 10751 10750 ] final -161.51 input  -60.55 | X-H torsion
[ 11005 11000 10999 10996 ] final   33.14 input  -57.11 | X-H torsion

> <Gold.Protein.ActiveResidues>
 VAL166  LYS551  ARG553  GLY616  TRP617  ASP618  TYR619  PRO620  LYS621  CYS622 
 ASP623  PHE694  ASN695  SER759  ASP760  ASP761  ALA762  ILE779  LEU786  VAL792 
 PHE793  MET794  SER795  GLU796  ALA797  LYS798  CYS799  TRP800  GLU811  SER814 

> <Gold.Protein.RotatedAtoms>
  150.9980  134.9299  159.7937 H   0  0  0  0  0  0  0  0  0  0  0  0  # atno 6907 bound_to 6896
  152.5270  134.3192  159.9152 H   0  0  0  0  0  0  0  0  0  0  0  0  # atno 6908 bound_to 6896
  151.3197  133.4003  159.2688 H   0  0  0  0  0  0  0  0  0  0  0  0  # atno 6909 bound_to 6896
  145.4077  139.2338  143.3265 H   0  0  0  0  0  0  0  0  0  0  0  0  # atno 7974 bound_to 7965
  154.4077  140.1636  156.2342 H   0  0  0  0  0  0  0  0  0  0  0  0  # atno 8008 bound_to 7997
  155.9256  140.3418  155.6185 H   0  0  0  0  0  0  0  0  0  0  0  0  # atno 8009 bound_to 7997
  155.7169  140.0763  157.2338 H   0  0  0  0  0  0  0  0  0  0  0  0  # atno 8010 bound_to 7997
  139.5084  144.6304  151.5832 H   0  0  0  0  0  0  0  0  0  0  0  0  # atno 10167 bound_to 10162
  157.5971  131.1056  150.7877 H   0  0  0  0  0  0  0  0  0  0  0  0  # atno 10718 bound_to 10713
  154.7297  135.3043  154.8912 H   0  0  0  0  0  0  0  0  0  0  0  0  # atno 10763 bound_to 10752
  153.9759  135.6736  153.4752 H   0  0  0  0  0  0  0  0  0  0  0  0  # atno 10764 bound_to 10752
  153.0907  135.4961  154.8604 H   0  0  0  0  0  0  0  0  0  0  0  0  # atno 10765 bound_to 10752
  140.2661  134.3135  155.7842 H   0  0  0  0  0  0  0  0  0  0  0  0  # atno 11005 bound_to 11000
  146.2720  140.4784  142.8810 LP  0  0  0  0  0  0  0  0  0  0  0  0  # atno 17320 bound_to 7965
  144.8330  140.6737  143.6278 LP  0  0  0  0  0  0  0  0  0  0  0  0  # atno 17321 bound_to 7965
  140.6034  143.9568  150.6402 LP  0  0  0  0  0  0  0  0  0  0  0  0  # atno 17342 bound_to 10162
  140.2787  143.3405  152.1171 LP  0  0  0  0  0  0  0  0  0  0  0  0  # atno 17343 bound_to 10162
  156.8285  130.5008  149.5334 LP  0  0  0  0  0  0  0  0  0  0  0  0  # atno 17370 bound_to 10713
  156.1036  130.5987  150.9934 LP  0  0  0  0  0  0  0  0  0  0  0  0  # atno 17371 bound_to 10713
  141.2184  133.7439  156.9263 LP  0  0  0  0  0  0  0  0  0  0  0  0  # atno 17394 bound_to 11000
  140.1417  134.9289  157.2476 LP  0  0  0  0  0  0  0  0  0  0  0  0  # atno 17395 bound_to 11000

$$$$
