AV-unprocessed.smi:2226|AV-procd|sdf|9013|dock5
  -GOLD-   2272012213D 1   1.00000     0.00000
 Structure written by MMmdl.
 40 42  0  0  0  0  0  0  0  0  2 V2000
  149.0329  134.8760  154.6689 C   0  0  0  0  0  0  0  0  0  0  0  0
  149.5638  136.2581  154.5954 N   0  3  2  0  0  0  0  0  0  0  0  0
  151.0113  136.3853  154.8881 C   0  0  2  0  0  0  0  0  0  0  0  0
  151.3106  136.1323  156.3873 C   0  0  0  0  0  0  0  0  0  0  0  0
  150.4402  136.9563  157.3537 C   0  0  0  0  0  0  0  0  0  0  0  0
  148.9739  137.0551  156.8966 C   0  0  0  0  0  0  0  0  0  0  0  0
  148.7980  137.2626  155.3716 C   0  0  1  0  0  0  0  0  0  0  0  0
  149.1504  138.6772  154.8549 C   0  0  0  0  0  0  0  0  0  0  0  0
  150.6658  138.9773  154.6871 C   0  0  1  0  0  0  0  0  0  0  0  0
  151.2319  139.7091  155.8178 N   0  0  0  0  0  0  0  0  0  0  0  0
  150.7979  140.8811  156.3063 C   0  0  0  0  0  0  0  0  0  0  0  0
  149.8330  141.4720  155.8112 O   0  0  0  0  0  0  0  0  0  0  0  0
  151.5657  141.2502  157.4012 N   0  0  0  0  0  0  0  0  0  0  0  0
  151.5370  142.4753  157.8294 C   0  0  0  0  0  0  0  0  0  0  0  0
  150.8404  143.6088  157.4182 N   0  0  0  0  0  0  0  0  0  0  0  0
  151.1897  144.6447  158.2385 C   0  0  0  0  0  0  0  0  0  0  0  0
  152.0654  144.1881  159.1286 C   0  0  0  0  0  0  0  0  0  0  0  0
  152.2965  142.8640  158.9040 O   0  0  0  0  0  0  0  0  0  0  0  0
  151.5213  137.7349  154.3302 C   0  0  0  0  0  0  0  0  0  0  0  0
  149.0911  134.4634  155.6756 H   0  0  0  0  0  0  0  0  0  0  0  0
  149.5921  134.2187  154.0025 H   0  0  0  0  0  0  0  0  0  0  0  0
  147.9892  134.8520  154.3543 H   0  0  0  0  0  0  0  0  0  0  0  0
  151.5328  135.6086  154.3262 H   0  0  0  0  0  0  0  0  0  0  0  0
  151.1508  135.0752  156.6012 H   0  0  0  0  0  0  0  0  0  0  0  0
  152.3658  136.3115  156.5960 H   0  0  0  0  0  0  0  0  0  0  0  0
  150.4803  136.5095  158.3474 H   0  0  0  0  0  0  0  0  0  0  0  0
  150.8597  137.9471  157.4903 H   0  0  0  0  0  0  0  0  0  0  0  0
  148.4626  136.1366  157.1862 H   0  0  0  0  0  0  0  0  0  0  0  0
  148.4696  137.8514  157.4452 H   0  0  0  0  0  0  0  0  0  0  0  0
  147.7395  137.1140  155.1522 H   0  0  0  0  0  0  0  0  0  0  0  0
  148.6961  138.7754  153.8678 H   0  0  0  0  0  0  0  0  0  0  0  0
  148.6591  139.4364  155.4646 H   0  0  0  0  0  0  0  0  0  0  0  0
  150.7618  139.6582  153.8390 H   0  0  0  0  0  0  0  0  0  0  0  0
  152.0252  139.2848  156.2767 H   0  0  0  0  0  0  0  0  0  0  0  0
  150.1863  143.6984  156.6539 H   0  0  0  0  0  0  0  0  0  0  0  0
  150.7618  145.6257  158.0932 H   0  0  0  0  0  0  0  0  0  0  0  0
  152.5916  144.6569  159.9471 H   0  0  0  0  0  0  0  0  0  0  0  0
  152.5668  137.8905  154.6001 H   0  0  0  0  0  0  0  0  0  0  0  0
  151.5212  137.6474  153.2426 H   0  0  0  0  0  0  0  0  0  0  0  0
  149.4565  136.5220  153.6264 H   0  0  0  0  0  0  0  0  0  0  0  0
  1  2  1  0  0  0  0
  1 20  1  0  0  0  0
  1 21  1  0  0  0  0
  1 22  1  0  0  0  0
  2  7  1  0  0  0  0
  2  3  1  0  0  0  0
  2 40  1  0  0  0  0
  3 19  1  0  0  0  0
  3  4  1  0  0  0  0
  3 23  1  0  0  0  0
  4  5  1  0  0  0  0
  4 24  1  0  0  0  0
  4 25  1  0  0  0  0
  5  6  1  0  0  0  0
  5 26  1  0  0  0  0
  5 27  1  0  0  0  0
  6  7  1  0  0  0  0
  6 28  1  0  0  0  0
  6 29  1  0  0  0  0
  7  8  1  0  0  0  0
  7 30  1  0  0  0  0
  8  9  1  0  0  0  0
  8 31  1  0  0  0  0
  8 32  1  0  0  0  0
  9 10  1  0  0  0  0
  9 19  1  0  0  0  0
  9 33  1  0  0  0  0
 10 34  1  0  0  0  0
 10 11  1  0  0  0  0
 11 13  1  0  0  0  0
 11 12  2  0  0  0  0
 13 14  2  0  0  0  0
 14 18  1  0  0  0  0
 14 15  1  0  0  0  0
 15 35  1  0  0  0  0
 15 16  1  0  0  0  0
 16 36  1  0  0  0  0
 16 17  2  0  0  0  0
 17 37  1  0  0  0  0
 17 18  1  0  0  0  0
 19 38  1  0  0  0  0
 19 39  1  0  0  0  0
M  CHG  1   2   1
M  END
> <s_m_source_file>
AV-unprocessed.smi

> <i_m_source_file_index>
2226

> <i_lp_mmshare_version>
43012

> <i_f3d_flags>
0

> <s_epik_input>
W0NIMl0xW0NIMl1bQ0gyXVtDQEhdKE4oW0NIM10pW0NIXTEyKVtDSDJdW0NASF0oW0NIMl0yKVtOSF1DKD1PKVtOSF1jM25bY0hdW2NIXW8z

> <s_epik_cmdline>
J2VwaWtfcHl0aG9uJywgJy1waCcsICc3LjAnLCAnLXRuJywgJzgnLCAnLW1hJywgJzIwMCcsICctbWV0YWxfYmluZGluZycsICctaW1hZScsICc8aW5maWxlLm1hZT4nLCAnLW9tYWUnLCAnPG91dGZpbGUubWFlPic=

> <r_lp_tautomer_probability>
0.107061

> <r_epik_Ionization_Penalty>
1.08307

> <r_epik_Ionization_Penalty_Charging>
1.08272

> <r_epik_Ionization_Penalty_Neutral>
0.000345913

> <r_epik_State_Penalty>
2.5744

> <r_epik_Charging_Adjusted_Penalty>
3.65713

> <i_epik_Tot_Q>
1

> <i_epik_Tot_abs_Q>
1

> <r_epik_Metal_State_Penalty>
3.72133

> <b_epik_Metal_Only>
0

> <s_lp_Force_Field>
OPLS_2005

> <r_lp_Energy>
59.8025

> <b_lp_Chiralities_Consistent>
1

> <s_lp_Variant>
AV-unprocessed.smi:2226-13

> <Gold.Version>
5.8.1

> <Gold.Id.Protein>
6NUR|6NUR_protein|mol2

> <Gold.PLP.Fitness>
37.6467

> <Gold.PLP.PLP>
-28.8491

> <Gold.PLP.part.hbond>
-2.0000

> <Gold.PLP.part.metal>
0.0000

> <Gold.PLP.part.buried>
-5.2372

> <Gold.PLP.part.nonpolar>
-22.2170

> <Gold.PLP.part.repulsive>
0.2476

> <Gold.PLP.ligand.clash>
0.0000

> <Gold.PLP.ligand.torsion>
0.0909

> <Gold.PLP.Chemscore.Hbond>
2.9760

> <Gold.PLP.Chemscore.CHOScore>
0.0000

> <Gold.PLP.Chemscore.Metal>
0.0000

> <Gold.Chemscore.Hbonds>
donor molecule, donor type, donor heavy atom, donor atom, acceptor molecule, acceptor atom, score
      L1  H     2    40       P1  7948  2.00
      L1  H    15    35       P1  8028  0.99

> <Gold.PLP.Chemscore.Internal.Correction>
0.0513

> <Gold.Rescore>
     Score         DG    S(hbond)    S(metal)    S(lipo)     H(rot)  DE(clash)    DE(int)     intcor
     15.68     -17.04       1.92        0.00      65.84       1.00       0.14       1.22       ----

> <Gold.Chemscore.Fitness>
15.6815

> <Gold.Chemscore.DG>
-17.0434

> <Gold.Chemscore.ZeroCoef>
-5.4800

> <Gold.Chemscore.Hbond>
1.9221

> <Gold.Chemscore.Metal>
0.0000

> <Gold.Chemscore.Lipo>
65.8441

> <Gold.Chemscore.Internal_Hbond>
0.0000

> <Gold.Chemscore.DEClash>
0.1399

> <Gold.Chemscore.DEInternal>
1.2220

> <Gold.Chemscore.Rot>
1.0000

> <Gold.Chemscore.Internal.Correction>
   9.000000E+99

> <Gold.Chemscore.Hbonds>
donor molecule, donor type, donor heavy atom, donor atom, acceptor molecule, acceptor atom, score
      L1  H     2    40       P1  7948  0.80
      L1  H    15    35       P1  8028  0.94

> <Gold.Chemscore.Hbond.Weighted>
-6.4197

> <Gold.Chemscore.Metal.Weighted>
-0.0000

> <Gold.Chemscore.Lipo.Weighted>
-7.7038

> <Gold.Chemscore.Internal_Hbond.Weighted>
0.0000

> <Gold.Chemscore.DEClash.Weighted>
0.1399

> <Gold.Chemscore.DEInternal.Weighted>
1.2220

> <Gold.Chemscore.Rot.Weighted>
2.5600

> <Gold.Chemscore.Internal.Correction.Weighted>
   9.000000E+99

> <Gold.Protein.RotatedTorsions>
[ 6907 6896 6895 6894 ] final  142.02 input  -60.11 | X-H torsion
[ 7974 7965 7964 7962 ] final  -73.98 input  175.53 | X-H torsion
[ 8008 7997 7996 7995 ] final  154.95 input   59.86 | X-H torsion
[ 10167 10162 10161 10158 ] final -166.04 input  -65.29 | X-H torsion
[ 10718 10713 10712 10709 ] final  -88.64 input   66.30 | X-H torsion
[ 10763 10752 10751 10750 ] final -123.98 input  -60.55 | X-H torsion
[ 11005 11000 10999 10996 ] final  -81.68 input  -57.11 | X-H torsion

> <Gold.Protein.ActiveResidues>
 VAL166  LYS551  ARG553  GLY616  TRP617  ASP618  TYR619  PRO620  LYS621  CYS622 
 ASP623  PHE694  ASN695  SER759  ASP760  ASP761  ALA762  ILE779  LEU786  VAL792 
 PHE793  MET794  SER795  GLU796  ALA797  LYS798  CYS799  TRP800  GLU811  SER814 

> <Gold.Protein.RotatedAtoms>
  152.2239  133.5005  159.5177 H   0  0  0  0  0  0  0  0  0  0  0  0  # atno 6907 bound_to 6896
  150.7020  134.1306  159.4077 H   0  0  0  0  0  0  0  0  0  0  0  0  # atno 6908 bound_to 6896
  151.9227  135.0291  160.0574 H   0  0  0  0  0  0  0  0  0  0  0  0  # atno 6909 bound_to 6896
  145.6450  140.9299  143.1015 H   0  0  0  0  0  0  0  0  0  0  0  0  # atno 7974 bound_to 7965
  156.2504  140.1952  156.6726 H   0  0  0  0  0  0  0  0  0  0  0  0  # atno 8008 bound_to 7997
  154.6381  140.0587  156.9839 H   0  0  0  0  0  0  0  0  0  0  0  0  # atno 8009 bound_to 7997
  155.1605  140.3259  155.4415 H   0  0  0  0  0  0  0  0  0  0  0  0  # atno 8010 bound_to 7997
  139.6141  144.0755  152.1871 H   0  0  0  0  0  0  0  0  0  0  0  0  # atno 10167 bound_to 10162
  155.9983  130.4843  150.5050 H   0  0  0  0  0  0  0  0  0  0  0  0  # atno 10718 bound_to 10713
  154.8716  135.4079  154.3031 H   0  0  0  0  0  0  0  0  0  0  0  0  # atno 10763 bound_to 10752
  153.3887  135.7014  153.6516 H   0  0  0  0  0  0  0  0  0  0  0  0  # atno 10764 bound_to 10752
  153.5308  135.3668  155.2646 H   0  0  0  0  0  0  0  0  0  0  0  0  # atno 10765 bound_to 10752
  141.1666  133.7208  156.8459 H   0  0  0  0  0  0  0  0  0  0  0  0  # atno 11005 bound_to 11000
  144.7143  139.8254  143.7404 LP  0  0  0  0  0  0  0  0  0  0  0  0  # atno 17320 bound_to 7965
  146.1250  139.4274  143.0204 LP  0  0  0  0  0  0  0  0  0  0  0  0  # atno 17321 bound_to 7965
  140.0381  144.6029  150.7433 LP  0  0  0  0  0  0  0  0  0  0  0  0  # atno 17342 bound_to 10162
  140.7339  143.2723  151.3851 LP  0  0  0  0  0  0  0  0  0  0  0  0  # atno 17343 bound_to 10162
  157.3030  131.0649  151.2055 LP  0  0  0  0  0  0  0  0  0  0  0  0  # atno 17370 bound_to 10713
  157.3028  130.6851  149.6173 LP  0  0  0  0  0  0  0  0  0  0  0  0  # atno 17371 bound_to 10713
  140.1950  134.8938  157.3104 LP  0  0  0  0  0  0  0  0  0  0  0  0  # atno 17394 bound_to 11000
  140.2249  134.3979  155.7548 LP  0  0  0  0  0  0  0  0  0  0  0  0  # atno 17395 bound_to 11000

$$$$
