AV-unprocessed.smi:1220|AV-procd|sdf|5114|dock9
  -GOLD-   22720 4173D 1   1.00000     0.00000
 Structure written by MMmdl.
 35 36  0  0  0  0  0  0  0  0  1 V2000
  148.6830  141.4780  156.2045 C   0  0  0  0  0  0  0  0  0  0  0  0
  149.9985  141.3198  156.9788 C   0  0  2  0  0  0  0  0  0  0  0  0
  151.0368  142.3770  156.5442 C   0  0  0  0  0  0  0  0  0  0  0  0
  151.5774  143.1288  157.6633 N   0  0  0  0  0  0  0  0  0  0  0  0
  151.4604  144.4777  157.9263 C   0  0  0  0  0  0  0  0  0  0  0  0
  152.1512  144.7287  159.0767 C   0  0  0  0  0  0  0  0  0  0  0  0
  152.6579  143.4530  159.4514 C   0  0  0  0  0  0  0  0  0  0  0  0
  152.3091  142.4966  158.6059 N   0  0  0  0  0  0  0  0  0  0  0  0
  150.5159  139.9685  156.7655 N   0  0  0  0  0  0  0  0  0  0  0  0
  150.7974  139.4157  155.5746 C   0  0  0  0  0  0  0  0  0  0  0  0
  150.6909  140.0169  154.5055 O   0  0  0  0  0  0  0  0  0  0  0  0
  151.2437  137.9494  155.5950 C   0  0  2  0  0  0  0  0  0  0  0  0
  150.3172  137.0384  154.7611 C   0  0  0  0  0  0  0  0  0  0  0  0
  150.6376  135.5791  155.1015 C   0  0  0  0  0  0  0  0  0  0  0  0
  151.1107  135.5751  156.8711 S   0  0  0  0  0  0  0  0  0  0  0  0
  149.9678  135.1331  157.6841 O   0  0  0  0  0  0  0  0  0  0  0  0
  152.4299  134.9408  157.0110 O   0  0  0  0  0  0  0  0  0  0  0  0
  151.2853  137.3922  157.0289 C   0  0  0  0  0  0  0  0  0  0  0  0
  148.2517  142.4667  156.3635 H   0  0  0  0  0  0  0  0  0  0  0  0
  147.9456  140.7426  156.5281 H   0  0  0  0  0  0  0  0  0  0  0  0
  148.8343  141.3501  155.1322 H   0  0  0  0  0  0  0  0  0  0  0  0
  149.7683  141.4674  158.0355 H   0  0  0  0  0  0  0  0  0  0  0  0
  151.8623  141.9053  156.0095 H   0  0  0  0  0  0  0  0  0  0  0  0
  150.5827  143.0855  155.8500 H   0  0  0  0  0  0  0  0  0  0  0  0
  150.9091  145.1403  157.2755 H   0  0  0  0  0  0  0  0  0  0  0  0
  152.2774  145.6788  159.5743 H   0  0  0  0  0  0  0  0  0  0  0  0
  153.2639  143.1948  160.3070 H   0  0  0  0  0  0  0  0  0  0  0  0
  150.6374  139.3969  157.5889 H   0  0  0  0  0  0  0  0  0  0  0  0
  152.2482  137.8720  155.1749 H   0  0  0  0  0  0  0  0  0  0  0  0
  149.2739  137.2330  155.0145 H   0  0  0  0  0  0  0  0  0  0  0  0
  150.4246  137.2247  153.6921 H   0  0  0  0  0  0  0  0  0  0  0  0
  149.7976  134.9055  154.9323 H   0  0  0  0  0  0  0  0  0  0  0  0
  151.4915  135.2254  154.5237 H   0  0  0  0  0  0  0  0  0  0  0  0
  152.2171  137.6279  157.5432 H   0  0  0  0  0  0  0  0  0  0  0  0
  150.4552  137.7575  157.6357 H   0  0  0  0  0  0  0  0  0  0  0  0
  1  2  1  0  0  0  0
  1 19  1  0  0  0  0
  1 20  1  0  0  0  0
  1 21  1  0  0  0  0
  2  3  1  0  0  0  0
  2  9  1  0  0  0  0
  2 22  1  0  0  0  0
  3  4  1  0  0  0  0
  3 23  1  0  0  0  0
  3 24  1  0  0  0  0
  4  8  1  0  0  0  0
  4  5  1  0  0  0  0
  5  6  2  0  0  0  0
  5 25  1  0  0  0  0
  6  7  1  0  0  0  0
  6 26  1  0  0  0  0
  7  8  2  0  0  0  0
  7 27  1  0  0  0  0
  9 10  1  0  0  0  0
  9 28  1  0  0  0  0
 10 11  2  0  0  0  0
 10 12  1  0  0  0  0
 12 18  1  0  0  0  0
 12 13  1  0  0  0  0
 12 29  1  0  0  0  0
 13 14  1  0  0  0  0
 13 30  1  0  0  0  0
 13 31  1  0  0  0  0
 14 15  1  0  0  0  0
 14 32  1  0  0  0  0
 14 33  1  0  0  0  0
 15 16  2  0  0  0  0
 15 17  2  0  0  0  0
 15 18  1  0  0  0  0
 18 34  1  0  0  0  0
 18 35  1  0  0  0  0
M  END
> <s_m_source_file>
AV-unprocessed.smi

> <i_m_source_file_index>
1220

> <i_lp_mmshare_version>
43012

> <i_f3d_flags>
0

> <s_epik_input>
bjFbY0hdW2NIXVtjSF1uMVtDSDJdW0NAQEhdKFtDSDNdKVtOSF1DKD1PKVtDQEBIXShbQ0gyXTIpW0NIMl1bQ0gyXVMyKD1PKT1P

> <s_epik_cmdline>
J2VwaWtfcHl0aG9uJywgJy1waCcsICc3LjAnLCAnLXRuJywgJzgnLCAnLW1hJywgJzIwMCcsICctbWV0YWxfYmluZGluZycsICctaW1hZScsICc8aW5maWxlLm1hZT4nLCAnLW9tYWUnLCAnPG91dGZpbGUubWFlPic=

> <r_lp_tautomer_probability>
1

> <r_epik_Ionization_Penalty>
0.000293905

> <r_epik_Ionization_Penalty_Charging>
0

> <r_epik_Ionization_Penalty_Neutral>
0.000293905

> <r_epik_State_Penalty>
-0

> <r_epik_Charging_Adjusted_Penalty>
0

> <i_epik_Tot_Q>
0

> <i_epik_Tot_abs_Q>
0

> <r_epik_Metal_State_Penalty>
-0

> <b_epik_Metal_Only>
0

> <s_lp_Force_Field>
OPLS_2005

> <r_lp_Energy>
3.03909

> <b_lp_Chiralities_Consistent>
1

> <s_lp_Variant>
AV-unprocessed.smi:1220-1

> <Gold.Version>
5.8.1

> <Gold.Id.Protein>
6NUR|6NUR_protein|mol2

> <Gold.PLP.Fitness>
40.9269

> <Gold.PLP.PLP>
-32.8054

> <Gold.PLP.part.hbond>
-3.4576

> <Gold.PLP.part.metal>
0.0000

> <Gold.PLP.part.buried>
-4.5757

> <Gold.PLP.part.nonpolar>
-25.7438

> <Gold.PLP.part.repulsive>
0.1299

> <Gold.PLP.ligand.clash>
1.7448

> <Gold.PLP.ligand.torsion>
0.7619

> <Gold.PLP.Chemscore.Hbond>
2.7930

> <Gold.PLP.Chemscore.CHOScore>
1.0000

> <Gold.PLP.Chemscore.Metal>
0.0000

> <Gold.Chemscore.Hbonds>
donor molecule, donor type, donor heavy atom, donor atom, acceptor molecule, acceptor atom, score
      P1  H  6896  6909       L1    16  0.83
      P1  H  7989  7998       L1    11  1.00
      P1  H 10752 10765       L1    17  0.90
      L1  C     5    25       P1  8028  0.90

> <Gold.PLP.Chemscore.Internal.Correction>
0.0112

> <Gold.Rescore>
     Score         DG    S(hbond)    S(metal)    S(lipo)     H(rot)  DE(clash)    DE(int)     intcor
     17.39     -19.27       2.74        0.00      77.78       1.75       0.12       1.76       ----

> <Gold.Chemscore.Fitness>
17.3939

> <Gold.Chemscore.DG>
-19.2691

> <Gold.Chemscore.ZeroCoef>
-5.4800

> <Gold.Chemscore.Hbond>
2.7419

> <Gold.Chemscore.Metal>
0.0000

> <Gold.Chemscore.Lipo>
77.7849

> <Gold.Chemscore.Internal_Hbond>
0.0000

> <Gold.Chemscore.DEClash>
0.1191

> <Gold.Chemscore.DEInternal>
1.7561

> <Gold.Chemscore.Rot>
1.7460

> <Gold.Chemscore.Internal.Correction>
   9.000000E+99

> <Gold.Chemscore.Hbonds>
donor molecule, donor type, donor heavy atom, donor atom, acceptor molecule, acceptor atom, score
      P1  H  6896  6909       L1    16  0.54
      P1  H  7989  7998       L1    11  0.99
      P1  H 10752 10765       L1    17  0.65

> <Gold.Chemscore.Hbond.Weighted>
-9.1580

> <Gold.Chemscore.Metal.Weighted>
-0.0000

> <Gold.Chemscore.Lipo.Weighted>
-9.1008

> <Gold.Chemscore.Internal_Hbond.Weighted>
0.0000

> <Gold.Chemscore.DEClash.Weighted>
0.1191

> <Gold.Chemscore.DEInternal.Weighted>
1.7561

> <Gold.Chemscore.Rot.Weighted>
4.4697

> <Gold.Chemscore.Internal.Correction.Weighted>
   9.000000E+99

> <Gold.Protein.RotatedTorsions>
[ 6907 6896 6895 6894 ] final   37.58 input  -60.11 | X-H torsion
[ 7974 7965 7964 7962 ] final  -30.45 input  175.53 | X-H torsion
[ 8008 7997 7996 7995 ] final  -64.98 input   59.86 | X-H torsion
[ 10167 10162 10161 10158 ] final -112.67 input  -65.29 | X-H torsion
[ 10718 10713 10712 10709 ] final  115.92 input   66.30 | X-H torsion
[ 10763 10752 10751 10750 ] final -115.96 input  -60.55 | X-H torsion
[ 11005 11000 10999 10996 ] final -113.00 input  -57.11 | X-H torsion

> <Gold.Protein.ActiveResidues>
 VAL166  LYS551  ARG553  GLY616  TRP617  ASP618  TYR619  PRO620  LYS621  CYS622 
 ASP623  PHE694  ASN695  SER759  ASP760  ASP761  ALA762  ILE779  LEU786  VAL792 
 PHE793  MET794  SER795  GLU796  ALA797  LYS798  CYS799  TRP800  GLU811  SER814 

> <Gold.Protein.RotatedAtoms>
  152.1450  134.9032  160.0551 H   0  0  0  0  0  0  0  0  0  0  0  0  # atno 6907 bound_to 6896
  152.0086  133.3847  159.4218 H   0  0  0  0  0  0  0  0  0  0  0  0  # atno 6908 bound_to 6896
  150.6869  134.3677  159.5022 H   0  0  0  0  0  0  0  0  0  0  0  0  # atno 6909 bound_to 6896
  146.1142  140.5542  142.8764 H   0  0  0  0  0  0  0  0  0  0  0  0  # atno 7974 bound_to 7965
  154.4644  140.0942  156.6981 H   0  0  0  0  0  0  0  0  0  0  0  0  # atno 8008 bound_to 7997
  155.4900  140.3470  155.4335 H   0  0  0  0  0  0  0  0  0  0  0  0  # atno 8009 bound_to 7997
  156.0930  140.1402  156.9556 H   0  0  0  0  0  0  0  0  0  0  0  0  # atno 8010 bound_to 7997
  140.1202  143.4450  152.1695 H   0  0  0  0  0  0  0  0  0  0  0  0  # atno 10167 bound_to 10162
  157.6192  131.1019  150.7399 H   0  0  0  0  0  0  0  0  0  0  0  0  # atno 10718 bound_to 10713
  154.8501  135.4363  154.1745 H   0  0  0  0  0  0  0  0  0  0  0  0  # atno 10763 bound_to 10752
  153.2850  135.6957  153.7354 H   0  0  0  0  0  0  0  0  0  0  0  0  # atno 10764 bound_to 10752
  153.6543  135.3446  155.3084 H   0  0  0  0  0  0  0  0  0  0  0  0  # atno 10765 bound_to 10752
  141.0641  133.9488  157.2612 H   0  0  0  0  0  0  0  0  0  0  0  0  # atno 11005 bound_to 11000
  144.7538  140.5257  143.6783 LP  0  0  0  0  0  0  0  0  0  0  0  0  # atno 17320 bound_to 7965
  145.5601  139.1479  143.3346 LP  0  0  0  0  0  0  0  0  0  0  0  0  # atno 17321 bound_to 7965
  139.5572  144.7381  151.4259 LP  0  0  0  0  0  0  0  0  0  0  0  0  # atno 17342 bound_to 10162
  140.6876  143.7937  150.7208 LP  0  0  0  0  0  0  0  0  0  0  0  0  # atno 17343 bound_to 10162
  156.7760  130.4844  149.5409 LP  0  0  0  0  0  0  0  0  0  0  0  0  # atno 17370 bound_to 10713
  156.1329  130.6190  151.0359 LP  0  0  0  0  0  0  0  0  0  0  0  0  # atno 17371 bound_to 10713
  139.9460  135.0184  156.8852 LP  0  0  0  0  0  0  0  0  0  0  0  0  # atno 17394 bound_to 11000
  140.5809  134.0353  155.7464 LP  0  0  0  0  0  0  0  0  0  0  0  0  # atno 17395 bound_to 11000

$$$$
