#       Name:                AV-unprocessed.smi:3305
#       Creating user name   scv26
#       Creation time:       Fri Mar 27 19:03:21 2020


#       File generated by GOLD software.
#

@<TRIPOS>MOLECULE
AV-unprocessed.smi:3305
    37    38     1
SMALL
NO_CHARGES


@<TRIPOS>ATOM
      1 ****        -2.3082   2.6909   0.3082 C.3            1 S1                 0.0000
      2 ****        -2.0288   1.6911   1.3856 C.2            1 S1                 0.0000
      3 ****        -2.0095   1.9135   2.7400 C.2            1 S1                 0.0000
      4 ****        -1.6148   0.4682   3.6306 S.3            1 S1                 0.0000
      5 ****        -1.5023  -0.4031   2.1063 C.2            1 S1                 0.0000
      6 ****        -1.1093  -1.8433   2.0086 C.3            1 S1                 0.0000
      7 ****         0.4162  -2.0752   1.9747 C.3            1 S1                 0.0000
      8 ****         1.1000  -1.2236   1.0059 N.am           1 S1                 0.0000
      9 ****         1.0412  -1.3675  -0.3266 C.2            1 S1                 0.0000
     10 ****         0.4597  -2.3022  -0.8787 O.2            1 S1                 0.0000
     11 ****         1.7225  -0.2687  -1.1573 C.3            1 S1                 0.0000
     12 ****         0.7010   0.5788  -1.9235 C.3            1 S1                 0.0000
     13 ****         0.9889   0.2981  -3.4001 C.3            1 S1                 0.0000
     14 ****         1.7308  -0.9101  -3.3964 O.3            1 S1                 0.0000
     15 ****         2.5977  -0.8503  -2.2759 C.3            1 S1                 0.0000
     16 ****        -1.7419   0.3682   1.0417 N.2            1 S1                 0.0000
     17 ****        -2.5282   3.6747   0.7229 H              1 S1                 0.0000
     18 ****        -3.1632   2.3890  -0.2969 H              1 S1                 0.0000
     19 ****        -1.4522   2.7980  -0.3585 H              1 S1                 0.0000
     20 ****        -2.1958   2.8382   3.2659 H              1 S1                 0.0000
     21 ****        -1.5454  -2.3821   2.8499 H              1 S1                 0.0000
     22 ****        -1.5659  -2.2631   1.1112 H              1 S1                 0.0000
     23 ****         0.8354  -1.8458   2.9546 H              1 S1                 0.0000
     24 ****         0.6396  -3.1255   1.7816 H              1 S1                 0.0000
     25 ****         1.6011  -0.4280   1.3739 H              1 S1                 0.0000
     26 ****         2.3296   0.3559  -0.5002 H              1 S1                 0.0000
     27 ****        -0.3274   0.3037  -1.6817 H              1 S1                 0.0000
     28 ****         0.8071   1.6404  -1.6986 H              1 S1                 0.0000
     29 ****         0.0804   0.2071  -3.9956 H              1 S1                 0.0000
     30 ****         1.6003   1.0928  -3.8303 H              1 S1                 0.0000
     31 ****         3.4341  -0.1848  -2.4953 H              1 S1                 0.0000
     32 ****         3.0081  -1.8342  -2.0446 H              1 S1                 0.0000
     33 ****         0.0015  -3.0007  -0.3290 LP             1 S1                 0.0000
     34 ****         0.4457  -2.3628  -1.8768 LP             1 S1                 0.0000
     35 ****         2.2621  -0.9913  -4.2397 LP             1 S1                 0.0000
     36 ****         1.1143  -1.6932  -3.3143 LP             1 S1                 0.0000
     37 ****        -1.7183   0.0339   0.0995 LP             1 S1                 0.0000
@<TRIPOS>BOND
    1    1    2 1     
    2    1   17 1     
    3    1   18 1     
    4    1   19 1     
    5    2   16 1     
    6    2    3 2     
    7    3    4 1     
    8    3   20 1     
    9    4    5 1     
   10    5    6 1     
   11    5   16 2     
   12    6    7 1     
   13    6   21 1     
   14    6   22 1     
   15    7    8 1     
   16    7   23 1     
   17    7   24 1     
   18    8    9 am    
   19    8   25 1     
   20    9   10 2     
   21    9   11 1     
   22   11   15 1     
   23   11   12 1     
   24   11   26 1     
   25   12   13 1     
   26   12   27 1     
   27   12   28 1     
   28   13   14 1     
   29   13   29 1     
   30   13   30 1     
   31   14   15 1     
   32   15   31 1     
   33   15   32 1     
   34   10   33 1     
   35   10   34 1     
   36   14   35 1     
   37   14   36 1     
   38   16   37 1     
@<TRIPOS>SUBSTRUCTURE
      1 S1             1
@<TRIPOS>SET
LONE_PAIRS      STATIC     ATOMS    <user>   **** ""
5 33 34 35 36 37
DONOR_HYDROGENS      STATIC     ATOMS    <user>   **** ""
1 25
ATOM$BLUE        STATIC     ATOMS    COLORGROUP SYSTEM
5 33 34 35 36 37
ATOM$RED        STATIC     ATOMS    COLORGROUP SYSTEM
1 25
