#       Name:                AV-unprocessed.smi:2397
#       Creating user name   scv26
#       Creation time:       Fri Mar 27 13:12:30 2020


#       File generated by GOLD software.
#

@<TRIPOS>MOLECULE
AV-unprocessed.smi:2397
    43    44     1
SMALL
NO_CHARGES


@<TRIPOS>ATOM
      1 ****        -3.4926   1.8269   1.3270 C.3            1 S1                 0.0000
      2 ****        -3.2223   1.5819  -0.1658 C.3            1 S1                 0.0000
      3 ****        -3.9671   0.3570  -0.7183 C.3            1 S1                 0.0000
      4 ****        -1.7317   1.5286  -0.4736 C.ar           1 S1                 0.0000
      5 ****        -1.2464   2.4810  -1.2756 N.ar           1 S1                 0.0000
      6 ****         0.0747   2.4350  -1.5466 C.ar           1 S1                 0.0000
      7 ****         0.9091   1.4323  -1.0144 C.ar           1 S1                 0.0000
      8 ****         0.2910   0.4664  -0.1835 C.ar           1 S1                 0.0000
      9 ****         0.9980  -0.5899   0.4261 N.3            1 S1                 0.0000
     10 ****         1.1993  -0.3479   1.8533 C.3            1 S1                 0.0000
     11 ****         1.7638  -1.5982   2.5426 C.3            1 S1                 0.0000
     12 ****         2.9592  -1.9943   1.8845 O.3            1 S1                 0.0000
     13 ****         2.7131  -2.3567   0.5311 C.3            1 S1                 0.0000
     14 ****         2.1704  -1.1468  -0.2658 C.3            1 S1                 0.0000
     15 ****         1.9118  -1.6053  -1.7130 C.2            1 S1                 0.0000
     16 ****         2.8953  -1.4104  -2.5949 N.am           1 S1                 0.0000
     17 ****         0.8487  -2.1378  -2.0277 O.2            1 S1                 0.0000
     18 ****        -1.0331   0.5341   0.0840 N.ar           1 S1                 0.0000
     19 ****        -3.0096   2.7434   1.6667 H              1 S1                 0.0000
     20 ****        -3.1187   1.0060   1.9396 H              1 S1                 0.0000
     21 ****        -4.5608   1.9246   1.5213 H              1 S1                 0.0000
     22 ****        -3.6286   2.4469  -0.6933 H              1 S1                 0.0000
     23 ****        -3.8092   0.2549  -1.7922 H              1 S1                 0.0000
     24 ****        -5.0407   0.4416  -0.5487 H              1 S1                 0.0000
     25 ****        -3.6281  -0.5636  -0.2426 H              1 S1                 0.0000
     26 ****         0.4709   3.2060  -2.1905 H              1 S1                 0.0000
     27 ****         1.9648   1.4203  -1.2388 H              1 S1                 0.0000
     28 ****         1.8867   0.4895   1.9822 H              1 S1                 0.0000
     29 ****         0.2628  -0.0673   2.3375 H              1 S1                 0.0000
     30 ****         1.9881  -1.3828   3.5874 H              1 S1                 0.0000
     31 ****         1.0374  -2.4127   2.5334 H              1 S1                 0.0000
     32 ****         3.6503  -2.7088   0.0980 H              1 S1                 0.0000
     33 ****         2.0171  -3.1976   0.4991 H              1 S1                 0.0000
     34 ****         2.9483  -0.3814  -0.2744 H              1 S1                 0.0000
     35 ****         2.7750  -1.6934  -3.5565 H              1 S1                 0.0000
     36 ****         3.7574  -0.9792  -2.2946 H              1 S1                 0.0000
     37 ****        -1.8346   3.1942  -1.6569 LP             1 S1                 0.0000
     38 ****         0.3731  -1.3633   0.3199 LP             1 S1                 0.0000
     39 ****         3.3501  -2.7792   2.3653 LP             1 S1                 0.0000
     40 ****         3.6085  -1.2340   1.9045 LP             1 S1                 0.0000
     41 ****         0.1370  -2.2785  -1.3394 LP             1 S1                 0.0000
     42 ****         0.6960  -2.4300  -2.9717 LP             1 S1                 0.0000
     43 ****        -1.4750  -0.1373   0.6791 LP             1 S1                 0.0000
@<TRIPOS>BOND
    1    1    2 1     
    2    1   19 1     
    3    1   20 1     
    4    1   21 1     
    5    2    3 1     
    6    2    4 1     
    7    2   22 1     
    8    3   23 1     
    9    3   24 1     
   10    3   25 1     
   11    4   18 ar    
   12    4    5 ar    
   13    5    6 ar    
   14    6    7 ar    
   15    6   26 1     
   16    7    8 ar    
   17    7   27 1     
   18    8    9 1     
   19    8   18 ar    
   20    9   14 1     
   21    9   10 1     
   22   10   11 1     
   23   10   28 1     
   24   10   29 1     
   25   11   12 1     
   26   11   30 1     
   27   11   31 1     
   28   12   13 1     
   29   13   14 1     
   30   13   32 1     
   31   13   33 1     
   32   14   15 1     
   33   14   34 1     
   34   15   16 am    
   35   15   17 2     
   36   16   35 1     
   37   16   36 1     
   38    5   37 1     
   39    9   38 1     
   40   12   39 1     
   41   12   40 1     
   42   17   41 1     
   43   17   42 1     
   44   18   43 1     
@<TRIPOS>SUBSTRUCTURE
      1 S1             1
@<TRIPOS>SET
LONE_PAIRS      STATIC     ATOMS    <user>   **** ""
7 37 38 39 40 41 42 43
DONOR_HYDROGENS      STATIC     ATOMS    <user>   **** ""
2 35 36
ATOM$BLUE        STATIC     ATOMS    COLORGROUP SYSTEM
7 37 38 39 40 41 42 43
ATOM$RED        STATIC     ATOMS    COLORGROUP SYSTEM
2 35 36
