AV-unprocessed.smi:1762|AV-procd|sdf|7113|dock2
  -GOLD-   22720 8343D 1   1.00000     0.00000
 Structure written by MMmdl.
 53 54  0  0  0  0  0  0  0  0  2 V2000
  152.2266  138.1107  154.3775 C   0  0  0  0  0  0  0  0  0  0  0  0
  151.1038  138.9531  154.9929 C   0  0  2  0  0  0  0  0  0  0  0  0
  149.8430  138.9667  154.1117 C   0  0  0  0  0  0  0  0  0  0  0  0
  148.7898  139.8429  154.6988 N   0  3  2  0  0  0  0  0  0  0  0  0
  147.4828  139.7678  153.9589 C   0  0  1  0  0  0  0  0  0  0  0  0
  146.8705  138.3540  154.0630 C   0  0  0  0  0  0  0  0  0  0  0  0
  146.5841  137.8836  155.1648 O   0  0  0  0  0  0  0  0  0  0  0  0
  146.6770  137.6933  152.9114 N   0  0  0  0  0  0  0  0  0  0  0  0
  146.0978  136.3607  152.8034 C   0  0  0  0  0  0  0  0  0  0  0  0
  145.4692  136.1578  151.4178 C   0  0  0  0  0  0  0  0  0  0  0  0
  145.2541  134.6913  151.0941 C   0  0  0  0  0  0  0  0  0  0  0  0
  143.9512  134.1693  150.9473 C   0  0  0  0  0  0  0  0  0  0  0  0
  143.8069  132.8027  150.6390 C   0  0  0  0  0  0  0  0  0  0  0  0
  144.9648  132.0155  150.4879 C   0  0  0  0  0  0  0  0  0  0  0  0
  146.2209  132.6325  150.6537 C   0  0  0  0  0  0  0  0  0  0  0  0
  146.3701  133.9416  150.9504 N   0  0  0  0  0  0  0  0  0  0  0  0
  146.4361  140.8534  154.3846 C   0  0  0  0  0  0  0  0  0  0  0  0
  146.7348  142.2640  153.8343 C   0  0  0  0  0  0  0  0  0  0  0  0
  146.2094  140.9185  155.9080 C   0  0  0  0  0  0  0  0  0  0  0  0
  149.3496  141.2125  154.8726 C   0  0  0  0  0  0  0  0  0  0  0  0
  150.6480  141.1939  155.7038 C   0  0  1  0  0  0  0  0  0  0  0  0
  150.4101  140.9361  157.2029 C   0  0  0  0  0  0  0  0  0  0  0  0
  151.5881  140.2826  155.1410 O   0  0  0  0  0  0  0  0  0  0  0  0
  151.9139  137.0746  154.2454 H   0  0  0  0  0  0  0  0  0  0  0  0
  153.1091  138.1111  155.0178 H   0  0  0  0  0  0  0  0  0  0  0  0
  152.5230  138.4982  153.4021 H   0  0  0  0  0  0  0  0  0  0  0  0
  150.8645  138.5321  155.9695 H   0  0  0  0  0  0  0  0  0  0  0  0
  150.0881  139.3182  153.1079 H   0  0  0  0  0  0  0  0  0  0  0  0
  149.4934  137.9402  154.0056 H   0  0  0  0  0  0  0  0  0  0  0  0
  147.7180  139.9496  152.9082 H   0  0  0  0  0  0  0  0  0  0  0  0
  146.9382  138.1488  152.0487 H   0  0  0  0  0  0  0  0  0  0  0  0
  146.8805  135.6207  152.9750 H   0  0  0  0  0  0  0  0  0  0  0  0
  145.3397  136.2126  153.5746 H   0  0  0  0  0  0  0  0  0  0  0  0
  144.5101  136.6754  151.3634 H   0  0  0  0  0  0  0  0  0  0  0  0
  146.1027  136.6049  150.6505 H   0  0  0  0  0  0  0  0  0  0  0  0
  143.0818  134.7992  151.0660 H   0  0  0  0  0  0  0  0  0  0  0  0
  142.8260  132.3668  150.5194 H   0  0  0  0  0  0  0  0  0  0  0  0
  144.8923  130.9644  150.2505 H   0  0  0  0  0  0  0  0  0  0  0  0
  147.1301  132.0599  150.5448 H   0  0  0  0  0  0  0  0  0  0  0  0
  145.4653  140.5498  153.9959 H   0  0  0  0  0  0  0  0  0  0  0  0
  147.6333  142.6894  154.2817 H   0  0  0  0  0  0  0  0  0  0  0  0
  145.9125  142.9458  154.0525 H   0  0  0  0  0  0  0  0  0  0  0  0
  146.8745  142.2624  152.7537 H   0  0  0  0  0  0  0  0  0  0  0  0
  147.0744  141.3201  156.4364 H   0  0  0  0  0  0  0  0  0  0  0  0
  145.9939  139.9311  156.3174 H   0  0  0  0  0  0  0  0  0  0  0  0
  145.3614  141.5612  156.1464 H   0  0  0  0  0  0  0  0  0  0  0  0
  149.5442  141.6438  153.8894 H   0  0  0  0  0  0  0  0  0  0  0  0
  148.6539  141.8780  155.3792 H   0  0  0  0  0  0  0  0  0  0  0  0
  151.1046  142.1811  155.6250 H   0  0  0  0  0  0  0  0  0  0  0  0
  149.8002  141.7277  157.6390 H   0  0  0  0  0  0  0  0  0  0  0  0
  151.3541  140.9109  157.7477 H   0  0  0  0  0  0  0  0  0  0  0  0
  149.8924  139.9946  157.3855 H   0  0  0  0  0  0  0  0  0  0  0  0
  148.6017  139.4914  155.6271 H   0  0  0  0  0  0  0  0  0  0  0  0
  1  2  1  0  0  0  0
  1 24  1  0  0  0  0
  1 25  1  0  0  0  0
  1 26  1  0  0  0  0
  2 23  1  0  0  0  0
  2  3  1  0  0  0  0
  2 27  1  0  0  0  0
  3  4  1  0  0  0  0
  3 28  1  0  0  0  0
  3 29  1  0  0  0  0
  4  5  1  0  0  0  0
  4 20  1  0  0  0  0
  4 53  1  0  0  0  0
  5  6  1  0  0  0  0
  5 17  1  0  0  0  0
  5 30  1  0  0  0  0
  6  7  2  0  0  0  0
  6  8  1  0  0  0  0
  8  9  1  0  0  0  0
  8 31  1  0  0  0  0
  9 10  1  0  0  0  0
  9 32  1  0  0  0  0
  9 33  1  0  0  0  0
 10 11  1  0  0  0  0
 10 34  1  0  0  0  0
 10 35  1  0  0  0  0
 11 16  1  0  0  0  0
 11 12  2  0  0  0  0
 12 13  1  0  0  0  0
 12 36  1  0  0  0  0
 13 14  2  0  0  0  0
 13 37  1  0  0  0  0
 14 15  1  0  0  0  0
 14 38  1  0  0  0  0
 15 16  2  0  0  0  0
 15 39  1  0  0  0  0
 17 18  1  0  0  0  0
 17 19  1  0  0  0  0
 17 40  1  0  0  0  0
 18 41  1  0  0  0  0
 18 42  1  0  0  0  0
 18 43  1  0  0  0  0
 19 44  1  0  0  0  0
 19 45  1  0  0  0  0
 19 46  1  0  0  0  0
 20 21  1  0  0  0  0
 20 47  1  0  0  0  0
 20 48  1  0  0  0  0
 21 22  1  0  0  0  0
 21 23  1  0  0  0  0
 21 49  1  0  0  0  0
 22 50  1  0  0  0  0
 22 51  1  0  0  0  0
 22 52  1  0  0  0  0
M  CHG  1   4   1
M  END
> <s_m_source_file>
AV-unprocessed.smi

> <i_m_source_file_index>
1762

> <i_lp_mmshare_version>
43012

> <i_f3d_flags>
0

> <s_epik_input>
W0NIM11bQ0BASF0xW0NIMl1OKFtDSDJdW0NASF0oTzEpW0NIM10pW0NAQEhdKFtDSF0oW0NIM10pW0NIM10pQyg9TylbTkhdW0NIMl1bQ0gyXWMyW2NIXVtjSF1bY0hdW2NIXW4y

> <s_epik_cmdline>
J2VwaWtfcHl0aG9uJywgJy1waCcsICc3LjAnLCAnLXRuJywgJzgnLCAnLW1hJywgJzIwMCcsICctbWV0YWxfYmluZGluZycsICctaW1hZScsICc8aW5maWxlLm1hZT4nLCAnLW9tYWUnLCAnPG91dGZpbGUubWFlPic=

> <r_epik_Ionization_Penalty>
2.27005

> <r_epik_Ionization_Penalty_Charging>
2.24983

> <r_epik_Ionization_Penalty_Neutral>
0.0202209

> <r_epik_State_Penalty>
2.40228

> <r_epik_Charging_Adjusted_Penalty>
4.65211

> <i_epik_Tot_Q>
1

> <i_epik_Tot_abs_Q>
1

> <r_epik_Metal_State_Penalty>
2.40762

> <b_epik_Metal_Only>
0

> <s_lp_Force_Field>
OPLS_2005

> <r_lp_Energy>
25.3597

> <b_lp_Chiralities_Consistent>
1

> <s_lp_Variant>
AV-unprocessed.smi:1762-15

> <Gold.Version>
5.8.1

> <Gold.Id.Protein>
6NUR|6NUR_protein|mol2

> <Gold.PLP.Fitness>
46.0085

> <Gold.PLP.PLP>
-41.3786

> <Gold.PLP.part.hbond>
-2.0000

> <Gold.PLP.part.metal>
0.0000

> <Gold.PLP.part.buried>
-4.6186

> <Gold.PLP.part.nonpolar>
-35.3225

> <Gold.PLP.part.repulsive>
0.3817

> <Gold.PLP.ligand.clash>
0.0000

> <Gold.PLP.ligand.torsion>
0.7095

> <Gold.PLP.Chemscore.Hbond>
0.9440

> <Gold.PLP.Chemscore.CHOScore>
1.0000

> <Gold.PLP.Chemscore.Metal>
0.0000

> <Gold.Chemscore.Hbonds>
donor molecule, donor type, donor heavy atom, donor atom, acceptor molecule, acceptor atom, score
      P1  H  7989  7998       L1    23  0.94
      L1  C    15    39       P1 10747  1.00

> <Gold.PLP.Chemscore.Internal.Correction>
0.2169

> <Gold.Rescore>
     Score         DG    S(hbond)    S(metal)    S(lipo)     H(rot)  DE(clash)    DE(int)     intcor
     13.64     -14.70       0.14        0.00     111.14       1.66       0.19       0.87       ----

> <Gold.Chemscore.Fitness>
13.6446

> <Gold.Chemscore.DG>
-14.7033

> <Gold.Chemscore.ZeroCoef>
-5.4800

> <Gold.Chemscore.Hbond>
0.1433

> <Gold.Chemscore.Metal>
0.0000

> <Gold.Chemscore.Lipo>
111.1389

> <Gold.Chemscore.Internal_Hbond>
0.0000

> <Gold.Chemscore.DEClash>
0.1924

> <Gold.Chemscore.DEInternal>
0.8663

> <Gold.Chemscore.Rot>
1.6635

> <Gold.Chemscore.Internal.Correction>
   9.000000E+99

> <Gold.Chemscore.Hbonds>
donor molecule, donor type, donor heavy atom, donor atom, acceptor molecule, acceptor atom, score
      P1  H  7989  7998       L1    23  0.10

> <Gold.Chemscore.Hbond.Weighted>
-0.4786

> <Gold.Chemscore.Metal.Weighted>
-0.0000

> <Gold.Chemscore.Lipo.Weighted>
-13.0032

> <Gold.Chemscore.Internal_Hbond.Weighted>
0.0000

> <Gold.Chemscore.DEClash.Weighted>
0.1924

> <Gold.Chemscore.DEInternal.Weighted>
0.8663

> <Gold.Chemscore.Rot.Weighted>
4.2586

> <Gold.Chemscore.Internal.Correction.Weighted>
   9.000000E+99

> <Gold.Protein.RotatedTorsions>
[ 6907 6896 6895 6894 ] final  -79.22 input  -60.11 | X-H torsion
[ 7974 7965 7964 7962 ] final  -99.74 input  175.53 | X-H torsion
[ 8008 7997 7996 7995 ] final   71.50 input   59.86 | X-H torsion
[ 10167 10162 10161 10158 ] final -112.76 input  -65.29 | X-H torsion
[ 10718 10713 10712 10709 ] final  105.45 input   66.30 | X-H torsion
[ 10763 10752 10751 10750 ] final -138.96 input  -60.55 | X-H torsion
[ 11005 11000 10999 10996 ] final  -86.47 input  -57.11 | X-H torsion

> <Gold.Protein.ActiveResidues>
 VAL166  LYS551  ARG553  GLY616  TRP617  ASP618  TYR619  PRO620  LYS621  CYS622 
 ASP623  PHE694  ASN695  SER759  ASP760  ASP761  ALA762  ILE779  LEU786  VAL792 
 PHE793  MET794  SER795  GLU796  ALA797  LYS798  CYS799  TRP800  GLU811  SER814 

> <Gold.Protein.RotatedAtoms>
  150.6955  134.4154  159.5180 H   0  0  0  0  0  0  0  0  0  0  0  0  # atno 6907 bound_to 6896
  152.1906  134.8672  160.0527 H   0  0  0  0  0  0  0  0  0  0  0  0  # atno 6908 bound_to 6896
  151.9629  133.3666  159.4079 H   0  0  0  0  0  0  0  0  0  0  0  0  # atno 6909 bound_to 6896
  145.3036  140.9383  143.2809 H   0  0  0  0  0  0  0  0  0  0  0  0  # atno 7974 bound_to 7965
  155.7548  140.3488  155.5168 H   0  0  0  0  0  0  0  0  0  0  0  0  # atno 8008 bound_to 7997
  155.8971  140.1027  157.1398 H   0  0  0  0  0  0  0  0  0  0  0  0  # atno 8009 bound_to 7997
  154.4039  140.1293  156.4375 H   0  0  0  0  0  0  0  0  0  0  0  0  # atno 8010 bound_to 7997
  140.1192  143.4458  152.1702 H   0  0  0  0  0  0  0  0  0  0  0  0  # atno 10167 bound_to 10162
  157.6705  131.0828  150.5859 H   0  0  0  0  0  0  0  0  0  0  0  0  # atno 10718 bound_to 10713
  154.8623  135.3597  154.5469 H   0  0  0  0  0  0  0  0  0  0  0  0  # atno 10763 bound_to 10752
  153.6088  135.7010  153.5360 H   0  0  0  0  0  0  0  0  0  0  0  0  # atno 10764 bound_to 10752
  153.3227  135.4146  155.1391 H   0  0  0  0  0  0  0  0  0  0  0  0  # atno 10765 bound_to 10752
  141.1629  133.7456  156.9166 H   0  0  0  0  0  0  0  0  0  0  0  0  # atno 11005 bound_to 11000
  144.9073  139.4573  143.6604 LP  0  0  0  0  0  0  0  0  0  0  0  0  # atno 17320 bound_to 7965
  146.3143  139.7862  142.8995 LP  0  0  0  0  0  0  0  0  0  0  0  0  # atno 17321 bound_to 7965
  139.5578  144.7385  151.4244 LP  0  0  0  0  0  0  0  0  0  0  0  0  # atno 17342 bound_to 10162
  140.6882  143.7925  150.7216 LP  0  0  0  0  0  0  0  0  0  0  0  0  # atno 17343 bound_to 10162
  156.6159  130.4392  149.5841 LP  0  0  0  0  0  0  0  0  0  0  0  0  # atno 17370 bound_to 10713
  156.2394  130.6842  151.1541 LP  0  0  0  0  0  0  0  0  0  0  0  0  # atno 17371 bound_to 10713
  140.1480  134.9249  157.2555 LP  0  0  0  0  0  0  0  0  0  0  0  0  # atno 17394 bound_to 11000
  140.2757  134.3408  155.7359 LP  0  0  0  0  0  0  0  0  0  0  0  0  # atno 17395 bound_to 11000

$$$$
