AV-unprocessed.smi:3303|AV-procd|sdf|12674|dock7
  -GOLD-   2272019 13D 1   1.00000     0.00000
 Structure written by MMmdl.
 44 45  0  0  0  0  0  0  0  0  2 V2000
  151.4594  137.9191  154.5718 C   0  0  0  0  0  0  0  0  0  0  0  0
  150.2737  138.8730  154.3497 C   0  0  1  0  0  0  0  0  0  0  0  0
  148.9634  138.3150  154.9406 C   0  0  0  0  0  0  0  0  0  0  0  0
  147.8435  139.1890  154.5902 N   0  0  0  0  0  0  0  0  0  0  0  0
  146.5751  138.5687  154.9524 C   0  0  0  0  0  0  0  0  0  0  0  0
  147.9815  140.5576  155.1118 C   0  0  1  0  0  0  0  0  0  0  0  0
  147.8157  140.6766  156.6448 C   0  0  0  0  0  0  0  0  0  0  0  0
  149.2975  141.1779  154.5850 C   0  0  0  0  0  0  0  0  0  0  0  0
  150.5487  140.3086  154.8458 C   0  0  1  0  0  0  0  0  0  0  0  0
  150.9647  140.3202  156.2685 N   0  3  0  0  0  0  0  0  0  0  0  0
  151.1147  141.6575  156.8778 C   0  0  0  0  0  0  0  0  0  0  0  0
  151.2971  141.5489  158.3974 C   0  0  0  0  0  0  0  0  0  0  0  0
  151.4930  142.9053  159.0474 C   0  0  0  0  0  0  0  0  0  0  0  0
  151.6705  144.0641  158.2620 C   0  0  0  0  0  0  0  0  0  0  0  0
  151.8384  145.2991  158.9182 C   0  0  0  0  0  0  0  0  0  0  0  0
  151.8209  145.3269  160.3260 C   0  0  0  0  0  0  0  0  0  0  0  0
  151.6360  144.1139  161.0186 C   0  0  0  0  0  0  0  0  0  0  0  0
  151.4733  142.9247  160.3991 N   0  0  0  0  0  0  0  0  0  0  0  0
  151.6429  137.7403  155.6315 H   0  0  0  0  0  0  0  0  0  0  0  0
  152.3745  138.3203  154.1353 H   0  0  0  0  0  0  0  0  0  0  0  0
  151.2711  136.9514  154.1057 H   0  0  0  0  0  0  0  0  0  0  0  0
  150.1326  138.9335  153.2688 H   0  0  0  0  0  0  0  0  0  0  0  0
  148.7800  137.3230  154.5251 H   0  0  0  0  0  0  0  0  0  0  0  0
  149.0384  138.1915  156.0212 H   0  0  0  0  0  0  0  0  0  0  0  0
  145.7393  139.2165  154.6855 H   0  0  0  0  0  0  0  0  0  0  0  0
  146.5199  138.3536  156.0200 H   0  0  0  0  0  0  0  0  0  0  0  0
  146.4479  137.6280  154.4159 H   0  0  0  0  0  0  0  0  0  0  0  0
  147.1694  141.1381  154.6719 H   0  0  0  0  0  0  0  0  0  0  0  0
  148.0116  141.6976  156.9738 H   0  0  0  0  0  0  0  0  0  0  0  0
  148.4853  140.0213  157.1991 H   0  0  0  0  0  0  0  0  0  0  0  0
  146.7980  140.4401  156.9553 H   0  0  0  0  0  0  0  0  0  0  0  0
  149.1976  141.3033  153.5058 H   0  0  0  0  0  0  0  0  0  0  0  0
  149.4234  142.1883  154.9727 H   0  0  0  0  0  0  0  0  0  0  0  0
  151.3795  140.7105  154.2638 H   0  0  0  0  0  0  0  0  0  0  0  0
  150.2971  139.7841  156.8043 H   0  0  0  0  0  0  0  0  0  0  0  0
  151.9754  142.1622  156.4371 H   0  0  0  0  0  0  0  0  0  0  0  0
  150.2362  142.2637  156.6586 H   0  0  0  0  0  0  0  0  0  0  0  0
  150.4271  141.0659  158.8454 H   0  0  0  0  0  0  0  0  0  0  0  0
  152.1534  140.9134  158.6274 H   0  0  0  0  0  0  0  0  0  0  0  0
  151.6767  144.0119  157.1831 H   0  0  0  0  0  0  0  0  0  0  0  0
  151.9766  146.2085  158.3524 H   0  0  0  0  0  0  0  0  0  0  0  0
  151.9462  146.2559  160.8625 H   0  0  0  0  0  0  0  0  0  0  0  0
  151.6165  144.0987  162.0985 H   0  0  0  0  0  0  0  0  0  0  0  0
  151.8626  139.8610  156.3252 H   0  0  0  0  0  0  0  0  0  0  0  0
  1  2  1  0  0  0  0
  1 19  1  0  0  0  0
  1 20  1  0  0  0  0
  1 21  1  0  0  0  0
  2  9  1  0  0  0  0
  2  3  1  0  0  0  0
  2 22  1  0  0  0  0
  3  4  1  0  0  0  0
  3 23  1  0  0  0  0
  3 24  1  0  0  0  0
  4  5  1  0  0  0  0
  4  6  1  0  0  0  0
  5 25  1  0  0  0  0
  5 26  1  0  0  0  0
  5 27  1  0  0  0  0
  6  7  1  0  0  0  0
  6  8  1  0  0  0  0
  6 28  1  0  0  0  0
  7 29  1  0  0  0  0
  7 30  1  0  0  0  0
  7 31  1  0  0  0  0
  8  9  1  0  0  0  0
  8 32  1  0  0  0  0
  8 33  1  0  0  0  0
  9 10  1  0  0  0  0
  9 34  1  0  0  0  0
 10 11  1  0  0  0  0
 10 35  1  0  0  0  0
 10 44  1  0  0  0  0
 11 12  1  0  0  0  0
 11 36  1  0  0  0  0
 11 37  1  0  0  0  0
 12 13  1  0  0  0  0
 12 38  1  0  0  0  0
 12 39  1  0  0  0  0
 13 18  1  0  0  0  0
 13 14  2  0  0  0  0
 14 15  1  0  0  0  0
 14 40  1  0  0  0  0
 15 16  2  0  0  0  0
 15 41  1  0  0  0  0
 16 17  1  0  0  0  0
 16 42  1  0  0  0  0
 17 18  2  0  0  0  0
 17 43  1  0  0  0  0
M  CHG  1  10   1
M  END
> <s_m_source_file>
AV-unprocessed.smi

> <i_m_source_file_index>
3303

> <i_lp_mmshare_version>
43012

> <i_f3d_flags>
0

> <s_epik_input>
W0NIM11bQ0BASF0xW0NIMl1OKFtDSDNdKVtDQEBIXShbQ0gzXSlbQ0gyXVtDQEhdMVtOSF1bQ0gyXVtDSDJdYzJbY0hdW2NIXVtjSF1bY0hdbjI=

> <s_epik_cmdline>
J2VwaWtfcHl0aG9uJywgJy1waCcsICc3LjAnLCAnLXRuJywgJzgnLCAnLW1hJywgJzIwMCcsICctbWV0YWxfYmluZGluZycsICctaW1hZScsICc8aW5maWxlLm1hZT4nLCAnLW9tYWUnLCAnPG91dGZpbGUubWFlPic=

> <r_epik_Ionization_Penalty>
1.37325

> <r_epik_Ionization_Penalty_Charging>
0.000251572

> <r_epik_Ionization_Penalty_Neutral>
1.373

> <r_epik_State_Penalty>
1.46343

> <r_epik_Charging_Adjusted_Penalty>
1.46368

> <i_epik_Tot_Q>
1

> <i_epik_Tot_abs_Q>
1

> <r_epik_Metal_State_Penalty>
1.46331

> <b_epik_Metal_Only>
0

> <s_lp_Force_Field>
OPLS_2005

> <r_lp_Energy>
24.8067

> <b_lp_Chiralities_Consistent>
1

> <s_lp_Variant>
AV-unprocessed.smi:3303-18

> <Gold.Version>
5.8.1

> <Gold.Id.Protein>
6NUR|6NUR_protein|mol2

> <Gold.PLP.Fitness>
37.3141

> <Gold.PLP.PLP>
-37.5632

> <Gold.PLP.part.hbond>
-0.7564

> <Gold.PLP.part.metal>
0.0000

> <Gold.PLP.part.buried>
-3.3052

> <Gold.PLP.part.nonpolar>
-34.3893

> <Gold.PLP.part.repulsive>
0.2472

> <Gold.PLP.ligand.clash>
0.0000

> <Gold.PLP.ligand.torsion>
0.1304

> <Gold.PLP.Chemscore.Hbond>
0.0000

> <Gold.PLP.Chemscore.CHOScore>
0.0000

> <Gold.PLP.Chemscore.Metal>
0.0000

> <Gold.PLP.Chemscore.Internal.Correction>
0.0117

> <Gold.Rescore>
     Score         DG    S(hbond)    S(metal)    S(lipo)     H(rot)  DE(clash)    DE(int)     intcor
     14.65     -16.12       0.00        0.00     120.03       1.33       1.37       0.10       ----

> <Gold.Chemscore.Fitness>
14.6508

> <Gold.Chemscore.DG>
-16.1194

> <Gold.Chemscore.ZeroCoef>
-5.4800

> <Gold.Chemscore.Hbond>
0.0000

> <Gold.Chemscore.Metal>
0.0000

> <Gold.Chemscore.Lipo>
120.0319

> <Gold.Chemscore.Internal_Hbond>
0.0000

> <Gold.Chemscore.DEClash>
1.3719

> <Gold.Chemscore.DEInternal>
0.0967

> <Gold.Chemscore.Rot>
1.3298

> <Gold.Chemscore.Internal.Correction>
   9.000000E+99

> <Gold.Chemscore.Hbond.Weighted>
-0.0000

> <Gold.Chemscore.Metal.Weighted>
-0.0000

> <Gold.Chemscore.Lipo.Weighted>
-14.0437

> <Gold.Chemscore.Internal_Hbond.Weighted>
0.0000

> <Gold.Chemscore.DEClash.Weighted>
1.3719

> <Gold.Chemscore.DEInternal.Weighted>
0.0967

> <Gold.Chemscore.Rot.Weighted>
3.4043

> <Gold.Chemscore.Internal.Correction.Weighted>
   9.000000E+99

> <Gold.Protein.RotatedTorsions>
[ 6907 6896 6895 6894 ] final   31.00 input  -60.11 | X-H torsion
[ 7974 7965 7964 7962 ] final  -38.63 input  175.53 | X-H torsion
[ 8008 7997 7996 7995 ] final  -86.90 input   59.86 | X-H torsion
[ 10167 10162 10161 10158 ] final   99.17 input  -65.29 | X-H torsion
[ 10718 10713 10712 10709 ] final  175.24 input   66.30 | X-H torsion
[ 10763 10752 10751 10750 ] final -121.08 input  -60.55 | X-H torsion
[ 11005 11000 10999 10996 ] final  -24.25 input  -57.11 | X-H torsion

> <Gold.Protein.ActiveResidues>
 VAL166  LYS551  ARG553  GLY616  TRP617  ASP618  TYR619  PRO620  LYS621  CYS622 
 ASP623  PHE694  ASN695  SER759  ASP760  ASP761  ALA762  ILE779  LEU786  VAL792 
 PHE793  MET794  SER795  GLU796  ALA797  LYS798  CYS799  TRP800  GLU811  SER814 

> <Gold.Protein.RotatedAtoms>
  152.0540  134.9636  160.0574 H   0  0  0  0  0  0  0  0  0  0  0  0  # atno 6907 bound_to 6896
  152.1026  133.4253  159.4602 H   0  0  0  0  0  0  0  0  0  0  0  0  # atno 6908 bound_to 6896
  150.6840  134.2662  159.4613 H   0  0  0  0  0  0  0  0  0  0  0  0  # atno 6909 bound_to 6896
  146.0469  140.6534  142.9060 H   0  0  0  0  0  0  0  0  0  0  0  0  # atno 7974 bound_to 7965
  154.6571  140.0572  157.0020 H   0  0  0  0  0  0  0  0  0  0  0  0  # atno 8008 bound_to 7997
  155.1284  140.3254  155.4461 H   0  0  0  0  0  0  0  0  0  0  0  0  # atno 8009 bound_to 7997
  156.2602  140.1985  156.6404 H   0  0  0  0  0  0  0  0  0  0  0  0  # atno 8010 bound_to 7997
  139.7642  144.6944  151.0249 H   0  0  0  0  0  0  0  0  0  0  0  0  # atno 10167 bound_to 10162
  156.9377  130.9991  151.2974 H   0  0  0  0  0  0  0  0  0  0  0  0  # atno 10718 bound_to 10713
  154.8660  135.4180  154.2562 H   0  0  0  0  0  0  0  0  0  0  0  0  # atno 10763 bound_to 10752
  153.3499  135.6998  153.6803 H   0  0  0  0  0  0  0  0  0  0  0  0  # atno 10764 bound_to 10752
  153.5747  135.3584  155.2824 H   0  0  0  0  0  0  0  0  0  0  0  0  # atno 10765 bound_to 10752
  140.8828  133.7642  156.0323 H   0  0  0  0  0  0  0  0  0  0  0  0  # atno 11005 bound_to 11000
  144.7102  140.4010  143.7086 LP  0  0  0  0  0  0  0  0  0  0  0  0  # atno 17320 bound_to 7965
  145.6791  139.1614  143.2711 LP  0  0  0  0  0  0  0  0  0  0  0  0  # atno 17321 bound_to 7965
  140.7809  143.4662  151.0208 LP  0  0  0  0  0  0  0  0  0  0  0  0  # atno 17342 bound_to 10162
  139.8348  143.7643  152.3180 LP  0  0  0  0  0  0  0  0  0  0  0  0  # atno 17343 bound_to 10162
  157.5805  130.8373  149.8516 LP  0  0  0  0  0  0  0  0  0  0  0  0  # atno 17370 bound_to 10713
  156.0418  130.3737  150.1416 LP  0  0  0  0  0  0  0  0  0  0  0  0  # atno 17371 bound_to 10713
  140.8441  134.3032  157.5302 LP  0  0  0  0  0  0  0  0  0  0  0  0  # atno 17394 bound_to 11000
  139.8721  134.9432  156.3846 LP  0  0  0  0  0  0  0  0  0  0  0  0  # atno 17395 bound_to 11000

$$$$
