AV-unprocessed.smi:1248|AV-procd|sdf|5252|dock10
  -GOLD-   22720 4363D 1   1.00000     0.00000
 Structure written by MMmdl.
 43 45  0  0  0  0  0  0  0  0  1 V2000
  144.3784  133.0076  149.7104 C   0  0  0  0  0  0  0  0  0  0  0  0
  145.4667  133.5905  150.6199 C   0  0  0  0  0  0  0  0  0  0  0  0
  144.9959  134.7506  151.3518 N   0  0  0  0  0  0  0  0  0  0  0  0
  145.6039  135.9835  151.4819 C   0  0  0  0  0  0  0  0  0  0  0  0
  144.7722  136.7277  152.2635 C   0  0  0  0  0  0  0  0  0  0  0  0
  145.0117  138.0693  152.6529 N   0  0  0  0  0  0  0  0  0  0  0  0
  146.0525  138.5358  153.3618 C   0  0  0  0  0  0  0  0  0  0  0  0
  146.9817  137.8510  153.7891 O   0  0  0  0  0  0  0  0  0  0  0  0
  145.9563  139.8589  153.5557 N   0  0  0  0  0  0  0  0  0  0  0  0
  146.9187  140.6734  154.2919 C   0  0  0  0  0  0  0  0  0  0  0  0
  148.3416  140.4816  153.7368 C   0  0  0  0  0  0  0  0  0  0  0  0
  149.3785  141.2123  154.6077 C   0  0  0  0  0  0  0  0  0  0  0  0
  149.3133  140.7277  155.9866 N   0  0  0  0  0  0  0  0  0  0  0  0
  150.3353  141.4020  156.7706 C   0  0  0  0  0  0  0  0  0  0  0  0
  151.6716  140.7108  156.9193 C   0  0  0  0  0  0  0  0  0  0  0  0
  150.7246  140.7812  158.0928 C   0  0  0  0  0  0  0  0  0  0  0  0
  148.0009  141.0310  156.5573 C   0  0  0  0  0  0  0  0  0  0  0  0
  146.9007  140.2877  155.7794 C   0  0  0  0  0  0  0  0  0  0  0  0
  143.6722  135.8803  152.5772 C   0  0  0  0  0  0  0  0  0  0  0  0
  143.8188  134.6867  152.0220 N   0  0  0  0  0  0  0  0  0  0  0  0
  144.7561  132.1483  149.1562 H   0  0  0  0  0  0  0  0  0  0  0  0
  144.0335  133.7460  148.9862 H   0  0  0  0  0  0  0  0  0  0  0  0
  143.5155  132.6759  150.2882 H   0  0  0  0  0  0  0  0  0  0  0  0
  145.8064  132.8399  151.3346 H   0  0  0  0  0  0  0  0  0  0  0  0
  146.3353  133.8798  150.0274 H   0  0  0  0  0  0  0  0  0  0  0  0
  146.5509  136.2163  151.0173 H   0  0  0  0  0  0  0  0  0  0  0  0
  144.3167  138.7426  152.3663 H   0  0  0  0  0  0  0  0  0  0  0  0
  145.1577  140.3394  153.1684 H   0  0  0  0  0  0  0  0  0  0  0  0
  146.6414  141.7260  154.2074 H   0  0  0  0  0  0  0  0  0  0  0  0
  148.5876  139.4192  153.6965 H   0  0  0  0  0  0  0  0  0  0  0  0
  148.3998  140.8511  152.7125 H   0  0  0  0  0  0  0  0  0  0  0  0
  150.3771  141.0357  154.2066 H   0  0  0  0  0  0  0  0  0  0  0  0
  149.2071  142.2896  154.5777 H   0  0  0  0  0  0  0  0  0  0  0  0
  150.3793  142.4894  156.7391 H   0  0  0  0  0  0  0  0  0  0  0  0
  151.8024  139.7429  156.4389 H   0  0  0  0  0  0  0  0  0  0  0  0
  152.5594  141.3389  156.9503 H   0  0  0  0  0  0  0  0  0  0  0  0
  150.9823  141.4556  158.9068 H   0  0  0  0  0  0  0  0  0  0  0  0
  150.2267  139.8602  158.3908 H   0  0  0  0  0  0  0  0  0  0  0  0
  147.9783  140.7223  157.6030 H   0  0  0  0  0  0  0  0  0  0  0  0
  147.8197  142.1071  156.5371 H   0  0  0  0  0  0  0  0  0  0  0  0
  145.9259  140.5146  156.2126 H   0  0  0  0  0  0  0  0  0  0  0  0
  147.0460  139.2117  155.8894 H   0  0  0  0  0  0  0  0  0  0  0  0
  142.7926  136.0748  153.1725 H   0  0  0  0  0  0  0  0  0  0  0  0
  1  2  1  0  0  0  0
  1 21  1  0  0  0  0
  1 22  1  0  0  0  0
  1 23  1  0  0  0  0
  2  3  1  0  0  0  0
  2 24  1  0  0  0  0
  2 25  1  0  0  0  0
  3 20  1  0  0  0  0
  3  4  1  0  0  0  0
  4  5  2  0  0  0  0
  4 26  1  0  0  0  0
  5  6  1  0  0  0  0
  5 19  1  0  0  0  0
  6  7  1  0  0  0  0
  6 27  1  0  0  0  0
  7  8  2  0  0  0  0
  7  9  1  0  0  0  0
  9 10  1  0  0  0  0
  9 28  1  0  0  0  0
 10 18  1  0  0  0  0
 10 11  1  0  0  0  0
 10 29  1  0  0  0  0
 11 12  1  0  0  0  0
 11 30  1  0  0  0  0
 11 31  1  0  0  0  0
 12 13  1  0  0  0  0
 12 32  1  0  0  0  0
 12 33  1  0  0  0  0
 13 14  1  0  0  0  0
 13 17  1  0  0  0  0
 14 16  1  0  0  0  0
 14 15  1  0  0  0  0
 14 34  1  0  0  0  0
 15 16  1  0  0  0  0
 15 35  1  0  0  0  0
 15 36  1  0  0  0  0
 16 37  1  0  0  0  0
 16 38  1  0  0  0  0
 17 18  1  0  0  0  0
 17 39  1  0  0  0  0
 17 40  1  0  0  0  0
 18 41  1  0  0  0  0
 18 42  1  0  0  0  0
 19 20  2  0  0  0  0
 19 43  1  0  0  0  0
M  END
> <s_m_source_file>
AV-unprocessed.smi

> <i_m_source_file_index>
1248

> <i_lp_mmshare_version>
43012

> <i_f3d_flags>
0

> <s_epik_input>
W0NIM11bQ0gyXW4xW2NIXWMoW2NIXW4xKVtOSF1DKD1PKVtOSF1bQ0hdMltDSDJdW0NIMl1OKFtDSDJdW0NIMl0yKVtDSF0zW0NIMl1bQ0gyXTM=

> <s_epik_cmdline>
J2VwaWtfcHl0aG9uJywgJy1waCcsICc3LjAnLCAnLXRuJywgJzgnLCAnLW1hJywgJzIwMCcsICctbWV0YWxfYmluZGluZycsICctaW1hZScsICc8aW5maWxlLm1hZT4nLCAnLW9tYWUnLCAnPG91dGZpbGUubWFlPic=

> <r_lp_tautomer_probability>
1

> <r_epik_Ionization_Penalty>
1.02552

> <r_epik_Ionization_Penalty_Charging>
0

> <r_epik_Ionization_Penalty_Neutral>
1.02552

> <r_epik_State_Penalty>
1.07599

> <r_epik_Charging_Adjusted_Penalty>
1.07599

> <i_epik_Tot_Q>
0

> <i_epik_Tot_abs_Q>
0

> <r_epik_Metal_State_Penalty>
1.07597

> <b_epik_Metal_Only>
0

> <s_lp_Force_Field>
OPLS_2005

> <r_lp_Energy>
25.1211

> <b_lp_Chiralities_Consistent>
1

> <s_lp_Variant>
AV-unprocessed.smi:1248-3

> <Gold.Version>
5.8.1

> <Gold.Id.Protein>
6NUR|6NUR_protein|mol2

> <Gold.PLP.Fitness>
37.1260

> <Gold.PLP.PLP>
-29.5807

> <Gold.PLP.part.hbond>
-2.7622

> <Gold.PLP.part.metal>
0.0000

> <Gold.PLP.part.buried>
-1.9673

> <Gold.PLP.part.nonpolar>
-25.2849

> <Gold.PLP.part.repulsive>
0.3557

> <Gold.PLP.ligand.clash>
0.0000

> <Gold.PLP.ligand.torsion>
1.3055

> <Gold.PLP.Chemscore.Hbond>
1.9920

> <Gold.PLP.Chemscore.CHOScore>
1.0000

> <Gold.PLP.Chemscore.Metal>
0.0000

> <Gold.Chemscore.Hbonds>
donor molecule, donor type, donor heavy atom, donor atom, acceptor molecule, acceptor atom, score
      L1  H     6    27       P1 10175  0.99
      L1  H     9    28       P1 10175  1.00
      L1  C     4    26       P1  7948  1.00

> <Gold.PLP.Chemscore.Internal.Correction>
1.1803

> <Gold.Rescore>
     Score         DG    S(hbond)    S(metal)    S(lipo)     H(rot)  DE(clash)    DE(int)     intcor
     14.38     -16.89       1.96        0.00      70.50       1.32       0.07       2.43       ----

> <Gold.Chemscore.Fitness>
14.3846

> <Gold.Chemscore.DG>
-16.8871

> <Gold.Chemscore.ZeroCoef>
-5.4800

> <Gold.Chemscore.Hbond>
1.9551

> <Gold.Chemscore.Metal>
0.0000

> <Gold.Chemscore.Lipo>
70.4997

> <Gold.Chemscore.Internal_Hbond>
0.0000

> <Gold.Chemscore.DEClash>
0.0710

> <Gold.Chemscore.DEInternal>
2.4315

> <Gold.Chemscore.Rot>
1.3169

> <Gold.Chemscore.Internal.Correction>
   9.000000E+99

> <Gold.Chemscore.Hbonds>
donor molecule, donor type, donor heavy atom, donor atom, acceptor molecule, acceptor atom, score
      L1  H     6    27       P1 10175  0.93
      L1  H     9    28       P1 10175  0.97

> <Gold.Chemscore.Hbond.Weighted>
-6.5299

> <Gold.Chemscore.Metal.Weighted>
-0.0000

> <Gold.Chemscore.Lipo.Weighted>
-8.2485

> <Gold.Chemscore.Internal_Hbond.Weighted>
0.0000

> <Gold.Chemscore.DEClash.Weighted>
0.0710

> <Gold.Chemscore.DEInternal.Weighted>
2.4315

> <Gold.Chemscore.Rot.Weighted>
3.3712

> <Gold.Chemscore.Internal.Correction.Weighted>
   9.000000E+99

> <Gold.Protein.RotatedTorsions>
[ 6907 6896 6895 6894 ] final    1.13 input  -60.11 | X-H torsion
[ 7974 7965 7964 7962 ] final   61.91 input  175.53 | X-H torsion
[ 8008 7997 7996 7995 ] final  -68.85 input   59.86 | X-H torsion
[ 10167 10162 10161 10158 ] final  162.06 input  -65.29 | X-H torsion
[ 10718 10713 10712 10709 ] final  -58.74 input   66.30 | X-H torsion
[ 10763 10752 10751 10750 ] final -170.45 input  -60.55 | X-H torsion
[ 11005 11000 10999 10996 ] final   77.88 input  -57.11 | X-H torsion

> <Gold.Protein.ActiveResidues>
 VAL166  LYS551  ARG553  GLY616  TRP617  ASP618  TYR619  PRO620  LYS621  CYS622 
 ASP623  PHE694  ASN695  SER759  ASP760  ASP761  ALA762  ILE779  LEU786  VAL792 
 PHE793  MET794  SER795  GLU796  ALA797  LYS798  CYS799  TRP800  GLU811  SER814 

> <Gold.Protein.RotatedAtoms>
  151.5876  135.1055  160.0031 H   0  0  0  0  0  0  0  0  0  0  0  0  # atno 6907 bound_to 6896
  152.4323  133.7294  159.6589 H   0  0  0  0  0  0  0  0  0  0  0  0  # atno 6908 bound_to 6896
  150.8216  133.8172  159.3159 H   0  0  0  0  0  0  0  0  0  0  0  0  # atno 6909 bound_to 6896
  145.8794  139.3432  143.0715 H   0  0  0  0  0  0  0  0  0  0  0  0  # atno 7974 bound_to 7965
  154.4897  140.0865  156.7567 H   0  0  0  0  0  0  0  0  0  0  0  0  # atno 8008 bound_to 7997
  155.4261  140.3448  155.4257 H   0  0  0  0  0  0  0  0  0  0  0  0  # atno 8009 bound_to 7997
  156.1312  140.1502  156.9050 H   0  0  0  0  0  0  0  0  0  0  0  0  # atno 8010 bound_to 7997
  139.4856  144.4475  151.8873 H   0  0  0  0  0  0  0  0  0  0  0  0  # atno 10167 bound_to 10162
  156.1113  130.4175  150.0619 H   0  0  0  0  0  0  0  0  0  0  0  0  # atno 10718 bound_to 10713
  154.6414  135.2899  155.0099 H   0  0  0  0  0  0  0  0  0  0  0  0  # atno 10763 bound_to 10752
  154.1224  135.6546  153.4909 H   0  0  0  0  0  0  0  0  0  0  0  0  # atno 10764 bound_to 10752
  153.0328  135.5291  154.7282 H   0  0  0  0  0  0  0  0  0  0  0  0  # atno 10765 bound_to 10752
  139.9236  134.7719  156.1578 H   0  0  0  0  0  0  0  0  0  0  0  0  # atno 11005 bound_to 11000
  145.9042  140.9223  143.0487 LP  0  0  0  0  0  0  0  0  0  0  0  0  # atno 17320 bound_to 7965
  144.6727  140.1073  143.7457 LP  0  0  0  0  0  0  0  0  0  0  0  0  # atno 17321 bound_to 7965
  140.3930  144.2591  150.5898 LP  0  0  0  0  0  0  0  0  0  0  0  0  # atno 17342 bound_to 10162
  140.5128  143.2286  151.8508 LP  0  0  0  0  0  0  0  0  0  0  0  0  # atno 17343 bound_to 10162
  156.8581  130.9482  151.3620 LP  0  0  0  0  0  0  0  0  0  0  0  0  # atno 17370 bound_to 10713
  157.6294  130.8717  149.9247 LP  0  0  0  0  0  0  0  0  0  0  0  0  # atno 17371 bound_to 10713
  141.0776  133.6768  156.2269 LP  0  0  0  0  0  0  0  0  0  0  0  0  # atno 17394 bound_to 11000
  140.6402  134.5173  157.5569 LP  0  0  0  0  0  0  0  0  0  0  0  0  # atno 17395 bound_to 11000

$$$$
