AV-unprocessed.smi:1060|AV-procd|sdf|4656|dock1
  -GOLD-   22720 3163D 1   1.00000     0.00000
 Structure written by MMmdl.
 37 38  0  0  0  0  0  0  0  0  1 V2000
  151.3509  137.1044  159.7190 O   0  0  0  0  0  0  0  0  0  0  0  0
  151.0585  137.5323  158.6026 C   0  0  0  0  0  0  0  0  0  0  0  0
  150.2603  136.6566  157.6347 C   0  0  0  0  0  0  0  0  0  0  0  0
  150.9689  135.4530  157.3825 O   0  0  0  0  0  0  0  0  0  0  0  0
  150.2498  134.5562  156.5534 C   0  0  0  0  0  0  0  0  0  0  0  0
  151.0096  133.2258  156.4874 C   0  0  2  0  0  0  0  0  0  0  0  0
  150.5497  132.3081  155.3583 C   0  0  0  0  0  0  0  0  0  0  0  0
  150.9886  130.9340  155.8344 C   0  0  0  0  0  0  0  0  0  0  0  0
  151.1358  131.0984  157.3505 C   0  0  0  0  0  0  0  0  0  0  0  0
  150.7364  132.4341  157.6326 O   0  0  0  0  0  0  0  0  0  0  0  0
  151.3744  138.7536  158.1289 N   0  0  0  0  0  0  0  0  0  0  0  0
  152.1045  139.7924  158.7324 C   0  0  0  0  0  0  0  0  0  0  0  0
  151.6520  141.0601  158.9217 C   0  0  0  0  0  0  0  0  0  0  0  0
  152.4623  142.0814  159.5639 C   0  0  0  0  0  0  0  0  0  0  0  0
  151.9757  143.5166  159.6942 C   0  0  0  0  0  0  0  0  0  0  0  0
  152.1228  143.9320  160.9514 F   0  0  0  0  0  0  0  0  0  0  0  0
  152.6666  144.3371  158.9020 F   0  0  0  0  0  0  0  0  0  0  0  0
  150.6856  143.6142  159.3739 F   0  0  0  0  0  0  0  0  0  0  0  0
  153.6939  141.7102  159.9589 C   0  0  0  0  0  0  0  0  0  0  0  0
  154.1592  140.4048  159.7876 N   0  0  0  0  0  0  0  0  0  0  0  0
  153.4492  139.4159  159.2000 C   0  0  0  0  0  0  0  0  0  0  0  0
  153.9321  138.2899  159.0844 O   0  0  0  0  0  0  0  0  0  0  0  0
  155.0889  140.2011  160.1251 H   0  0  0  0  0  0  0  0  0  0  0  0
  149.2837  136.4343  158.0682 H   0  0  0  0  0  0  0  0  0  0  0  0
  150.1003  137.2053  156.7054 H   0  0  0  0  0  0  0  0  0  0  0  0
  149.2367  134.4026  156.9283 H   0  0  0  0  0  0  0  0  0  0  0  0
  150.1699  134.9842  155.5530 H   0  0  0  0  0  0  0  0  0  0  0  0
  152.0846  133.3989  156.4078 H   0  0  0  0  0  0  0  0  0  0  0  0
  149.4626  132.3352  155.2708 H   0  0  0  0  0  0  0  0  0  0  0  0
  150.9735  132.5795  154.3911 H   0  0  0  0  0  0  0  0  0  0  0  0
  150.2605  130.1669  155.5701 H   0  0  0  0  0  0  0  0  0  0  0  0
  151.9459  130.6563  155.3917 H   0  0  0  0  0  0  0  0  0  0  0  0
  150.5217  130.3902  157.9070 H   0  0  0  0  0  0  0  0  0  0  0  0
  152.1743  130.9583  157.6526 H   0  0  0  0  0  0  0  0  0  0  0  0
  151.0146  138.9772  157.2119 H   0  0  0  0  0  0  0  0  0  0  0  0
  150.6611  141.3515  158.6162 H   0  0  0  0  0  0  0  0  0  0  0  0
  154.4100  142.3730  160.4221 H   0  0  0  0  0  0  0  0  0  0  0  0
  1  2  2  0  0  0  0
  2  3  1  0  0  0  0
  2 11  1  0  0  0  0
  3  4  1  0  0  0  0
  3 24  1  0  0  0  0
  3 25  1  0  0  0  0
  4  5  1  0  0  0  0
  5  6  1  0  0  0  0
  5 26  1  0  0  0  0
  5 27  1  0  0  0  0
  6 10  1  0  0  0  0
  6  7  1  0  0  0  0
  6 28  1  0  0  0  0
  7  8  1  0  0  0  0
  7 29  1  0  0  0  0
  7 30  1  0  0  0  0
  8  9  1  0  0  0  0
  8 31  1  0  0  0  0
  8 32  1  0  0  0  0
  9 10  1  0  0  0  0
  9 33  1  0  0  0  0
  9 34  1  0  0  0  0
 11 12  1  0  0  0  0
 11 35  1  0  0  0  0
 12 21  1  0  0  0  0
 12 13  2  0  0  0  0
 13 14  1  0  0  0  0
 13 36  1  0  0  0  0
 14 15  1  0  0  0  0
 14 19  2  0  0  0  0
 15 16  1  0  0  0  0
 15 17  1  0  0  0  0
 15 18  1  0  0  0  0
 19 20  1  0  0  0  0
 19 37  1  0  0  0  0
 20 23  1  0  0  0  0
 20 21  1  0  0  0  0
 21 22  2  0  0  0  0
M  END
> <s_m_source_file>
AV-unprocessed.smi

> <i_m_source_file_index>
1060

> <i_lp_mmshare_version>
43012

> <i_f3d_flags>
0

> <s_epik_input>
Tz1jMVtuSF1bY0hdYyhDKEYpKEYpRilbY0hdYzFbTkhdQyg9TylbQ0gyXU9bQ0gyXVtDQEBIXTJbQ0gyXVtDSDJdW0NIMl1PMg==

> <s_epik_cmdline>
J2VwaWtfcHl0aG9uJywgJy1waCcsICc3LjAnLCAnLXRuJywgJzgnLCAnLW1hJywgJzIwMCcsICctbWV0YWxfYmluZGluZycsICctaW1hZScsICc8aW5maWxlLm1hZT4nLCAnLW9tYWUnLCAnPG91dGZpbGUubWFlPic=

> <r_lp_tautomer_probability>
0.999

> <r_epik_Ionization_Penalty>
0.00950091

> <r_epik_Ionization_Penalty_Charging>
0.00950081

> <r_epik_Ionization_Penalty_Neutral>
1.00143e-07

> <r_epik_State_Penalty>
0.00721819

> <r_epik_Charging_Adjusted_Penalty>
0.016719

> <i_epik_Tot_Q>
0

> <i_epik_Tot_abs_Q>
0

> <r_epik_Metal_State_Penalty>
0.323303

> <b_epik_Metal_Only>
0

> <s_lp_Force_Field>
OPLS_2005

> <r_lp_Energy>
32.1997

> <b_lp_Chiralities_Consistent>
1

> <s_lp_Variant>
AV-unprocessed.smi:1060-1

> <Gold.Version>
5.8.1

> <Gold.Id.Protein>
6NUR|6NUR_protein|mol2

> <Gold.PLP.Fitness>
43.6987

> <Gold.PLP.PLP>
-39.1707

> <Gold.PLP.part.hbond>
-3.0000

> <Gold.PLP.part.metal>
0.0000

> <Gold.PLP.part.buried>
-5.7956

> <Gold.PLP.part.nonpolar>
-31.0474

> <Gold.PLP.part.repulsive>
0.1287

> <Gold.PLP.ligand.clash>
0.0000

> <Gold.PLP.ligand.torsion>
0.8974

> <Gold.PLP.Chemscore.Hbond>
1.9750

> <Gold.PLP.Chemscore.CHOScore>
0.0000

> <Gold.PLP.Chemscore.Metal>
0.0000

> <Gold.Chemscore.Hbonds>
donor molecule, donor type, donor heavy atom, donor atom, acceptor molecule, acceptor atom, score
      P1  H  6896  6907       L1    10  1.00
      P1  H  6896  6908       L1     1  0.98

> <Gold.PLP.Chemscore.Internal.Correction>
0.3978

> <Gold.Rescore>
     Score         DG    S(hbond)    S(metal)    S(lipo)     H(rot)  DE(clash)    DE(int)     intcor
     14.05     -14.93       1.87        0.00      70.06       1.95       0.01       0.87       ----

> <Gold.Chemscore.Fitness>
14.0523

> <Gold.Chemscore.DG>
-14.9330

> <Gold.Chemscore.ZeroCoef>
-5.4800

> <Gold.Chemscore.Hbond>
1.8727

> <Gold.Chemscore.Metal>
0.0000

> <Gold.Chemscore.Lipo>
70.0617

> <Gold.Chemscore.Internal_Hbond>
0.0000

> <Gold.Chemscore.DEClash>
0.0101

> <Gold.Chemscore.DEInternal>
0.8706

> <Gold.Chemscore.Rot>
1.9527

> <Gold.Chemscore.Internal.Correction>
   9.000000E+99

> <Gold.Chemscore.Hbonds>
donor molecule, donor type, donor heavy atom, donor atom, acceptor molecule, acceptor atom, score
      P1  H  6896  6907       L1    10  0.70
      P1  H  6896  6908       L1     1  0.72

> <Gold.Chemscore.Hbond.Weighted>
-6.2548

> <Gold.Chemscore.Metal.Weighted>
-0.0000

> <Gold.Chemscore.Lipo.Weighted>
-8.1972

> <Gold.Chemscore.Internal_Hbond.Weighted>
0.0000

> <Gold.Chemscore.DEClash.Weighted>
0.0101

> <Gold.Chemscore.DEInternal.Weighted>
0.8706

> <Gold.Chemscore.Rot.Weighted>
4.9990

> <Gold.Chemscore.Internal.Correction.Weighted>
   9.000000E+99

> <Gold.Protein.RotatedTorsions>
[ 6907 6896 6895 6894 ] final -148.71 input  -60.11 | X-H torsion
[ 7974 7965 7964 7962 ] final   82.71 input  175.53 | X-H torsion
[ 8008 7997 7996 7995 ] final -112.00 input   59.86 | X-H torsion
[ 10167 10162 10161 10158 ] final -103.79 input  -65.29 | X-H torsion
[ 10718 10713 10712 10709 ] final   97.09 input   66.30 | X-H torsion
[ 10763 10752 10751 10750 ] final -172.44 input  -60.55 | X-H torsion
[ 11005 11000 10999 10996 ] final -107.24 input  -57.11 | X-H torsion

> <Gold.Protein.ActiveResidues>
 VAL166  LYS551  ARG553  GLY616  TRP617  ASP618  TYR619  PRO620  LYS621  CYS622 
 ASP623  PHE694  ASN695  SER759  ASP760  ASP761  ALA762  ILE779  LEU786  VAL792 
 PHE793  MET794  SER795  GLU796  ALA797  LYS798  CYS799  TRP800  GLU811  SER814 

> <Gold.Protein.RotatedAtoms>
  151.1737  133.4768  159.2593 H   0  0  0  0  0  0  0  0  0  0  0  0  # atno 6907 bound_to 6896
  151.1329  135.0139  159.8601 H   0  0  0  0  0  0  0  0  0  0  0  0  # atno 6908 bound_to 6896
  152.5460  134.1638  159.8622 H   0  0  0  0  0  0  0  0  0  0  0  0  # atno 6909 bound_to 6896
  145.6214  139.2386  143.2136 H   0  0  0  0  0  0  0  0  0  0  0  0  # atno 7974 bound_to 7965
  154.9985  140.0394  157.2350 H   0  0  0  0  0  0  0  0  0  0  0  0  # atno 8008 bound_to 7997
  154.7565  140.2776  155.6227 H   0  0  0  0  0  0  0  0  0  0  0  0  # atno 8009 bound_to 7997
  156.2895  140.2637  156.2332 H   0  0  0  0  0  0  0  0  0  0  0  0  # atno 8010 bound_to 7997
  140.2162  143.3709  152.1008 H   0  0  0  0  0  0  0  0  0  0  0  0  # atno 10167 bound_to 10162
  157.6917  131.0599  150.4591 H   0  0  0  0  0  0  0  0  0  0  0  0  # atno 10718 bound_to 10713
  154.6192  135.2873  155.0345 H   0  0  0  0  0  0  0  0  0  0  0  0  # atno 10763 bound_to 10752
  154.1546  135.6498  153.4975 H   0  0  0  0  0  0  0  0  0  0  0  0  # atno 10764 bound_to 10752
  153.0228  135.5364  154.6975 H   0  0  0  0  0  0  0  0  0  0  0  0  # atno 10765 bound_to 10752
  141.0964  133.8963  157.1952 H   0  0  0  0  0  0  0  0  0  0  0  0  # atno 11005 bound_to 11000
  146.1428  140.7034  142.9359 LP  0  0  0  0  0  0  0  0  0  0  0  0  # atno 17320 bound_to 7965
  144.7229  140.4433  143.6994 LP  0  0  0  0  0  0  0  0  0  0  0  0  # atno 17321 bound_to 7965
  139.5161  144.6973  151.5595 LP  0  0  0  0  0  0  0  0  0  0  0  0  # atno 17342 bound_to 10162
  140.6288  143.9117  150.6587 LP  0  0  0  0  0  0  0  0  0  0  0  0  # atno 17343 bound_to 10162
  156.4937  130.4101  149.6392 LP  0  0  0  0  0  0  0  0  0  0  0  0  # atno 17370 bound_to 10713
  156.3393  130.7373  151.2316 LP  0  0  0  0  0  0  0  0  0  0  0  0  # atno 17371 bound_to 10713
  139.9802  135.0101  156.9731 LP  0  0  0  0  0  0  0  0  0  0  0  0  # atno 17394 bound_to 11000
  140.5129  134.0984  155.7274 LP  0  0  0  0  0  0  0  0  0  0  0  0  # atno 17395 bound_to 11000

$$$$
