AV-unprocessed.smi:1565|AV-procd|sdf|6300|dock1
  -GOLD-   22720 6503D 1   1.00000     0.00000
 Structure written by MMmdl.
 39 40  0  0  0  0  0  0  0  0  2 V2000
  152.1341  144.7937  159.2867 C   0  0  0  0  0  0  0  0  0  0  0  0
  151.5777  143.4209  158.8942 C   0  0  2  0  0  0  0  0  0  0  0  0
  152.5796  142.2908  159.1903 C   0  0  0  0  0  0  0  0  0  0  0  0
  152.0701  141.0183  158.6901 N   0  0  0  0  0  0  0  0  0  0  0  0
  152.7235  139.8667  159.1786 C   0  0  0  0  0  0  0  0  0  0  0  0
  152.0683  138.6136  159.1482 C   0  0  0  0  0  0  0  0  0  0  0  0
  152.7355  137.4769  159.6436 C   0  0  0  0  0  0  0  0  0  0  0  0
  154.0481  137.6130  160.1498 C   0  0  0  0  0  0  0  0  0  0  0  0
  154.8104  136.4488  160.7232 C   0  0  0  0  0  0  0  0  0  0  0  0
  154.4240  135.3088  160.4424 O   0  0  0  0  0  0  0  0  0  0  0  0
  155.8262  136.8441  161.5418 N   0  5  0  0  0  0  0  0  0  0  0  0
  155.6550  137.7213  162.7025 C   0  0  0  0  0  0  0  0  0  0  0  0
  155.1759  136.9289  163.9358 C   0  0  0  0  0  0  0  0  0  0  0  0
  155.2292  137.7198  165.0075 F   0  0  0  0  0  0  0  0  0  0  0  0
  153.9157  136.5222  163.7756 F   0  0  0  0  0  0  0  0  0  0  0  0
  155.9538  135.8684  164.1582 F   0  0  0  0  0  0  0  0  0  0  0  0
  154.6148  138.9057  160.1444 C   0  0  0  0  0  0  0  0  0  0  0  0
  153.9801  139.9988  159.6692 N   0  0  0  0  0  0  0  0  0  0  0  0
  151.7166  141.0581  157.2730 C   0  0  0  0  0  0  0  0  0  0  0  0
  150.7552  142.2253  156.9752 C   0  0  1  0  0  0  0  0  0  0  0  0
  149.3126  141.9670  157.4459 C   0  0  0  0  0  0  0  0  0  0  0  0
  151.2833  143.4465  157.4980 O   0  0  0  0  0  0  0  0  0  0  0  0
  152.3674  144.8331  160.3509 H   0  0  0  0  0  0  0  0  0  0  0  0
  151.4106  145.5817  159.0760 H   0  0  0  0  0  0  0  0  0  0  0  0
  153.0462  145.0227  158.7347 H   0  0  0  0  0  0  0  0  0  0  0  0
  150.6615  143.2545  159.4610 H   0  0  0  0  0  0  0  0  0  0  0  0
  153.5344  142.4980  158.7053 H   0  0  0  0  0  0  0  0  0  0  0  0
  152.7719  142.2559  160.2618 H   0  0  0  0  0  0  0  0  0  0  0  0
  151.0727  138.5086  158.7436 H   0  0  0  0  0  0  0  0  0  0  0  0
  152.2357  136.5191  159.6312 H   0  0  0  0  0  0  0  0  0  0  0  0
  156.5724  138.2558  162.9547 H   0  0  0  0  0  0  0  0  0  0  0  0
  154.9248  138.5019  162.4857 H   0  0  0  0  0  0  0  0  0  0  0  0
  155.6108  139.0757  160.5269 H   0  0  0  0  0  0  0  0  0  0  0  0
  152.6300  141.1779  156.6884 H   0  0  0  0  0  0  0  0  0  0  0  0
  151.2583  140.1174  156.9650 H   0  0  0  0  0  0  0  0  0  0  0  0
  150.7138  142.3516  155.8929 H   0  0  0  0  0  0  0  0  0  0  0  0
  148.8871  141.1068  156.9286 H   0  0  0  0  0  0  0  0  0  0  0  0
  148.6753  142.8262  157.2361 H   0  0  0  0  0  0  0  0  0  0  0  0
  149.2561  141.7600  158.5143 H   0  0  0  0  0  0  0  0  0  0  0  0
  1  2  1  0  0  0  0
  1 23  1  0  0  0  0
  1 24  1  0  0  0  0
  1 25  1  0  0  0  0
  2 22  1  0  0  0  0
  2  3  1  0  0  0  0
  2 26  1  0  0  0  0
  3  4  1  0  0  0  0
  3 27  1  0  0  0  0
  3 28  1  0  0  0  0
  4  5  1  0  0  0  0
  4 19  1  0  0  0  0
  5 18  1  0  0  0  0
  5  6  2  0  0  0  0
  6  7  1  0  0  0  0
  6 29  1  0  0  0  0
  7  8  2  0  0  0  0
  7 30  1  0  0  0  0
  8  9  1  0  0  0  0
  8 17  1  0  0  0  0
  9 10  2  0  0  0  0
  9 11  1  0  0  0  0
 11 12  1  0  0  0  0
 12 13  1  0  0  0  0
 12 31  1  0  0  0  0
 12 32  1  0  0  0  0
 13 14  1  0  0  0  0
 13 15  1  0  0  0  0
 13 16  1  0  0  0  0
 17 18  2  0  0  0  0
 17 33  1  0  0  0  0
 19 20  1  0  0  0  0
 19 34  1  0  0  0  0
 19 35  1  0  0  0  0
 20 21  1  0  0  0  0
 20 22  1  0  0  0  0
 20 36  1  0  0  0  0
 21 37  1  0  0  0  0
 21 38  1  0  0  0  0
 21 39  1  0  0  0  0
M  CHG  1  11  -1
M  END
> <s_m_source_file>
AV-unprocessed.smi

> <i_m_source_file_index>
1565

> <i_lp_mmshare_version>
43012

> <i_f3d_flags>
0

> <s_epik_input>
W0NIM11bQ0BASF0xW0NIMl1OKFtDSDJdW0NASF0oTzEpW0NIM10pYzJbY0hdW2NIXWMoW2NIXW4yKUMoPU8pW05IXVtDSDJdQyhGKShGKUY=

> <s_epik_cmdline>
J2VwaWtfcHl0aG9uJywgJy1waCcsICc3LjAnLCAnLXRuJywgJzgnLCAnLW1hJywgJzIwMCcsICctbWV0YWxfYmluZGluZycsICctaW1hZScsICc8aW5maWxlLm1hZT4nLCAnLW9tYWUnLCAnPG91dGZpbGUubWFlPic=

> <r_lp_tautomer_probability>
1

> <r_epik_Ionization_Penalty>
6.78525

> <r_epik_Ionization_Penalty_Charging>
6.78469

> <r_epik_Ionization_Penalty_Neutral>
0.000559052

> <r_epik_State_Penalty>
6.78469

> <r_epik_Charging_Adjusted_Penalty>
13.5694

> <i_epik_Tot_Q>
-1

> <i_epik_Tot_abs_Q>
1

> <r_epik_Metal_State_Penalty>
2.70441

> <b_epik_Metal_Only>
1

> <s_lp_Force_Field>
OPLS_2005

> <r_lp_Energy>
29.3636

> <b_lp_Chiralities_Consistent>
1

> <s_lp_Variant>
AV-unprocessed.smi:1565-4

> <Gold.Version>
5.8.1

> <Gold.Id.Protein>
6NUR|6NUR_protein|mol2

> <Gold.PLP.Fitness>
39.6223

> <Gold.PLP.PLP>
-38.7190

> <Gold.PLP.part.hbond>
-1.0000

> <Gold.PLP.part.metal>
0.0000

> <Gold.PLP.part.buried>
-5.7069

> <Gold.PLP.part.nonpolar>
-32.6864

> <Gold.PLP.part.repulsive>
0.1367

> <Gold.PLP.ligand.clash>
0.0000

> <Gold.PLP.ligand.torsion>
1.2172

> <Gold.PLP.Chemscore.Hbond>
1.0000

> <Gold.PLP.Chemscore.CHOScore>
0.0000

> <Gold.PLP.Chemscore.Metal>
0.0000

> <Gold.Chemscore.Hbonds>
donor molecule, donor type, donor heavy atom, donor atom, acceptor molecule, acceptor atom, score
      P1  H  6896  6908       L1    10  0.70

> <Gold.PLP.Chemscore.Internal.Correction>
0.3377

> <Gold.Rescore>
     Score         DG    S(hbond)    S(metal)    S(lipo)     H(rot)  DE(clash)    DE(int)     intcor
     14.62     -15.95       0.98        0.00      89.89       1.29       0.05       1.27       ----

> <Gold.Chemscore.Fitness>
14.6200

> <Gold.Chemscore.DG>
-15.9478

> <Gold.Chemscore.ZeroCoef>
-5.4800

> <Gold.Chemscore.Hbond>
0.9755

> <Gold.Chemscore.Metal>
0.0000

> <Gold.Chemscore.Lipo>
89.8936

> <Gold.Chemscore.Internal_Hbond>
0.0000

> <Gold.Chemscore.DEClash>
0.0530

> <Gold.Chemscore.DEInternal>
1.2749

> <Gold.Chemscore.Rot>
1.2921

> <Gold.Chemscore.Internal.Correction>
   9.000000E+99

> <Gold.Chemscore.Hbonds>
donor molecule, donor type, donor heavy atom, donor atom, acceptor molecule, acceptor atom, score
      P1  H  6896  6908       L1    10  0.69

> <Gold.Chemscore.Hbond.Weighted>
-3.2580

> <Gold.Chemscore.Metal.Weighted>
-0.0000

> <Gold.Chemscore.Lipo.Weighted>
-10.5175

> <Gold.Chemscore.Internal_Hbond.Weighted>
0.0000

> <Gold.Chemscore.DEClash.Weighted>
0.0530

> <Gold.Chemscore.DEInternal.Weighted>
1.2749

> <Gold.Chemscore.Rot.Weighted>
3.3078

> <Gold.Chemscore.Internal.Correction.Weighted>
   9.000000E+99

> <Gold.Protein.RotatedTorsions>
[ 6907 6896 6895 6894 ] final  -68.37 input  -60.11 | X-H torsion
[ 7974 7965 7964 7962 ] final  -33.43 input  175.53 | X-H torsion
[ 8008 7997 7996 7995 ] final  114.47 input   59.86 | X-H torsion
[ 10167 10162 10161 10158 ] final  -46.37 input  -65.29 | X-H torsion
[ 10718 10713 10712 10709 ] final -117.19 input   66.30 | X-H torsion
[ 10763 10752 10751 10750 ] final -155.00 input  -60.55 | X-H torsion
[ 11005 11000 10999 10996 ] final   51.59 input  -57.11 | X-H torsion

> <Gold.Protein.ActiveResidues>
 VAL166  LYS551  ARG553  GLY616  TRP617  ASP618  TYR619  PRO620  LYS621  CYS622 
 ASP623  PHE694  ASN695  SER759  ASP760  ASP761  ALA762  ILE779  LEU786  VAL792 
 PHE793  MET794  SER795  GLU796  ALA797  LYS798  CYS799  TRP800  GLU811  SER814 

> <Gold.Protein.RotatedAtoms>
  150.7360  134.5749  159.5908 H   0  0  0  0  0  0  0  0  0  0  0  0  # atno 6907 bound_to 6896
  152.3178  134.7414  160.0330 H   0  0  0  0  0  0  0  0  0  0  0  0  # atno 6908 bound_to 6896
  151.7940  133.3327  159.3544 H   0  0  0  0  0  0  0  0  0  0  0  0  # atno 6909 bound_to 6896
  146.0911  140.5915  142.8864 H   0  0  0  0  0  0  0  0  0  0  0  0  # atno 7974 bound_to 7965
  156.2323  140.2958  156.0220 H   0  0  0  0  0  0  0  0  0  0  0  0  # atno 8008 bound_to 7997
  155.2191  140.0415  157.2962 H   0  0  0  0  0  0  0  0  0  0  0  0  # atno 8009 bound_to 7997
  154.6017  140.2428  155.7792 H   0  0  0  0  0  0  0  0  0  0  0  0  # atno 8010 bound_to 7997
  140.6820  143.2834  151.3773 H   0  0  0  0  0  0  0  0  0  0  0  0  # atno 10167 bound_to 10162
  156.1016  130.6177  150.9132 H   0  0  0  0  0  0  0  0  0  0  0  0  # atno 10718 bound_to 10713
  154.7818  135.3177  154.7972 H   0  0  0  0  0  0  0  0  0  0  0  0  # atno 10763 bound_to 10752
  153.8682  135.6847  153.4781 H   0  0  0  0  0  0  0  0  0  0  0  0  # atno 10764 bound_to 10752
  153.1457  135.4720  154.9500 H   0  0  0  0  0  0  0  0  0  0  0  0  # atno 10765 bound_to 10752
  140.0920  134.5197  155.8843 H   0  0  0  0  0  0  0  0  0  0  0  0  # atno 11005 bound_to 11000
  144.7361  140.4812  143.6903 LP  0  0  0  0  0  0  0  0  0  0  0  0  # atno 17320 bound_to 7965
  145.6037  139.1506  143.3115 LP  0  0  0  0  0  0  0  0  0  0  0  0  # atno 17321 bound_to 7965
  139.6149  144.1023  152.2336 LP  0  0  0  0  0  0  0  0  0  0  0  0  # atno 17342 bound_to 10162
  140.0449  144.5979  150.7382 LP  0  0  0  0  0  0  0  0  0  0  0  0  # atno 17343 bound_to 10162
  157.6187  131.0931  150.8662 LP  0  0  0  0  0  0  0  0  0  0  0  0  # atno 17370 bound_to 10713
  156.8789  130.5172  149.5292 LP  0  0  0  0  0  0  0  0  0  0  0  0  # atno 17371 bound_to 10713
  141.2080  133.6670  156.6346 LP  0  0  0  0  0  0  0  0  0  0  0  0  # atno 17394 bound_to 11000
  140.3339  134.7905  157.4347 LP  0  0  0  0  0  0  0  0  0  0  0  0  # atno 17395 bound_to 11000

$$$$
