AV-unprocessed.smi:36|AV-procd|sdf|291|dock2
  -GOLD-   2262016 83D 1   1.00000     0.00000
 Structure written by MMmdl.
 64 67  0  0  0  0  0  0  0  0  1 V2000
  144.1620  134.0084  162.6337 C   0  0  0  0  0  0  0  0  0  0  0  0
  145.2986  134.5608  161.7575 C   0  0  0  0  0  0  0  0  0  0  0  0
  145.2243  136.0972  161.7228 C   0  0  0  0  0  0  0  0  0  0  0  0
  146.6582  134.1138  162.3201 C   0  0  0  0  0  0  0  0  0  0  0  0
  145.0972  133.8935  159.9793 Si  0  0  0  0  0  0  0  0  0  0  0  0
  146.5474  134.4457  158.8797 C   0  0  0  0  0  0  0  0  0  0  0  0
  144.9718  131.9983  159.9627 C   0  0  0  0  0  0  0  0  0  0  0  0
  143.6507  134.5167  159.3570 O   0  0  0  0  0  0  0  0  0  0  0  0
  143.2778  134.4568  157.9951 C   0  0  0  0  0  0  0  0  0  0  0  0
  144.1876  135.3925  157.1836 C   0  0  2  0  0  0  0  0  0  0  0  0
  143.8342  136.7549  157.3864 O   0  0  0  0  0  0  0  0  0  0  0  0
  144.3086  137.5295  156.3259 C   0  0  1  0  0  0  0  0  0  0  0  0
  145.5255  138.2752  156.7777 N   0  0  0  0  0  0  0  0  0  0  0  0
  145.7954  138.7739  158.0010 C   0  0  0  0  0  0  0  0  0  0  0  0
  146.9665  139.3958  158.1167 N   0  0  0  0  0  0  0  0  0  0  0  0
  147.4978  139.2858  156.8359 C   0  0  0  0  0  0  0  0  0  0  0  0
  148.7810  139.7736  156.2843 C   0  0  0  0  0  0  0  0  0  0  0  0
  149.5823  140.4059  157.0874 N   0  0  0  0  0  0  0  0  0  0  0  0
  150.7914  140.9035  156.6175 C   0  0  0  0  0  0  0  0  0  0  0  0
  151.3740  140.6438  155.5608 O   0  0  0  0  0  0  0  0  0  0  0  0
  151.4763  141.8112  157.5884 C   0  0  0  0  0  0  0  0  0  0  0  0
  151.6499  143.1785  157.2837 C   0  0  0  0  0  0  0  0  0  0  0  0
  152.2935  144.0310  158.2020 C   0  0  0  0  0  0  0  0  0  0  0  0
  152.7665  143.5203  159.4263 C   0  0  0  0  0  0  0  0  0  0  0  0
  152.5955  142.1566  159.7334 C   0  0  0  0  0  0  0  0  0  0  0  0
  151.9503  141.3033  158.8169 C   0  0  0  0  0  0  0  0  0  0  0  0
  148.8764  139.4311  154.9291 N   0  0  0  0  0  0  0  0  0  0  0  0
  147.9162  138.7247  154.1884 C   0  0  0  0  0  0  0  0  0  0  0  0
  146.7810  138.2859  154.6629 N   0  0  0  0  0  0  0  0  0  0  0  0
  146.6335  138.6062  156.0050 C   0  0  0  0  0  0  0  0  0  0  0  0
  144.6740  136.5720  155.1807 C   0  0  0  0  0  0  0  0  0  0  0  0
  144.1276  135.2389  155.6609 C   0  0  2  0  0  0  0  0  0  0  0  0
  142.8043  135.0415  155.1996 O   0  0  0  0  0  0  0  0  0  0  0  0
  144.2294  134.3856  163.6545 H   0  0  0  0  0  0  0  0  0  0  0  0
  144.1908  132.9197  162.6841 H   0  0  0  0  0  0  0  0  0  0  0  0
  143.1854  134.2935  162.2412 H   0  0  0  0  0  0  0  0  0  0  0  0
  144.2750  136.4385  161.3081 H   0  0  0  0  0  0  0  0  0  0  0  0
  146.0206  136.5218  161.1112 H   0  0  0  0  0  0  0  0  0  0  0  0
  145.3180  136.5219  162.7228 H   0  0  0  0  0  0  0  0  0  0  0  0
  146.8053  134.4787  163.3371 H   0  0  0  0  0  0  0  0  0  0  0  0
  147.4826  134.4907  161.7142 H   0  0  0  0  0  0  0  0  0  0  0  0
  146.7391  133.0267  162.3464 H   0  0  0  0  0  0  0  0  0  0  0  0
  147.4919  134.0278  159.2271 H   0  0  0  0  0  0  0  0  0  0  0  0
  146.6585  135.5296  158.8719 H   0  0  0  0  0  0  0  0  0  0  0  0
  146.4137  134.1254  157.8467 H   0  0  0  0  0  0  0  0  0  0  0  0
  145.8684  131.5333  160.3721 H   0  0  0  0  0  0  0  0  0  0  0  0
  144.8408  131.6164  158.9506 H   0  0  0  0  0  0  0  0  0  0  0  0
  144.1248  131.6480  160.5521 H   0  0  0  0  0  0  0  0  0  0  0  0
  143.3728  133.4304  157.6391 H   0  0  0  0  0  0  0  0  0  0  0  0
  142.2298  134.7387  157.8924 H   0  0  0  0  0  0  0  0  0  0  0  0
  145.2241  135.2598  157.4950 H   0  0  0  0  0  0  0  0  0  0  0  0
  143.5861  138.3000  156.0545 H   0  0  0  0  0  0  0  0  0  0  0  0
  145.1156  138.6828  158.8351 H   0  0  0  0  0  0  0  0  0  0  0  0
  151.2885  143.5790  156.3475 H   0  0  0  0  0  0  0  0  0  0  0  0
  152.4239  145.0772  157.9672 H   0  0  0  0  0  0  0  0  0  0  0  0
  153.2603  144.1746  160.1297 H   0  0  0  0  0  0  0  0  0  0  0  0
  152.9582  141.7644  160.6720 H   0  0  0  0  0  0  0  0  0  0  0  0
  151.8222  140.2585  159.0609 H   0  0  0  0  0  0  0  0  0  0  0  0
  148.1937  138.5600  153.1463 H   0  0  0  0  0  0  0  0  0  0  0  0
  144.2487  136.9101  154.2349 H   0  0  0  0  0  0  0  0  0  0  0  0
  145.7586  136.5176  155.0724 H   0  0  0  0  0  0  0  0  0  0  0  0
  144.7389  134.4041  155.3173 H   0  0  0  0  0  0  0  0  0  0  0  0
  142.6092  134.1174  155.2297 H   0  0  0  0  0  0  0  0  0  0  0  0
  149.7148  139.7155  154.4431 H   0  0  0  0  0  0  0  0  0  0  0  0
  1  2  1  0  0  0  0
  1 34  1  0  0  0  0
  1 35  1  0  0  0  0
  1 36  1  0  0  0  0
  2  3  1  0  0  0  0
  2  4  1  0  0  0  0
  2  5  1  0  0  0  0
  3 37  1  0  0  0  0
  3 38  1  0  0  0  0
  3 39  1  0  0  0  0
  4 40  1  0  0  0  0
  4 41  1  0  0  0  0
  4 42  1  0  0  0  0
  5  6  1  0  0  0  0
  5  7  1  0  0  0  0
  5  8  1  0  0  0  0
  6 43  1  0  0  0  0
  6 44  1  0  0  0  0
  6 45  1  0  0  0  0
  7 46  1  0  0  0  0
  7 47  1  0  0  0  0
  7 48  1  0  0  0  0
  8  9  1  0  0  0  0
  9 10  1  0  0  0  0
  9 49  1  0  0  0  0
  9 50  1  0  0  0  0
 10 32  1  0  0  0  0
 10 11  1  0  0  0  0
 10 51  1  0  0  0  0
 11 12  1  0  0  0  0
 12 13  1  0  0  0  0
 12 31  1  0  0  0  0
 12 52  1  0  0  0  0
 13 30  1  0  0  0  0
 13 14  1  0  0  0  0
 14 15  2  0  0  0  0
 14 53  1  0  0  0  0
 15 16  1  0  0  0  0
 16 30  2  0  0  0  0
 16 17  1  0  0  0  0
 17 18  2  0  0  0  0
 17 27  1  0  0  0  0
 18 19  1  0  0  0  0
 19 20  2  0  0  0  0
 19 21  1  0  0  0  0
 21 26  1  0  0  0  0
 21 22  2  0  0  0  0
 22 23  1  0  0  0  0
 22 54  1  0  0  0  0
 23 24  2  0  0  0  0
 23 55  1  0  0  0  0
 24 25  1  0  0  0  0
 24 56  1  0  0  0  0
 25 26  2  0  0  0  0
 25 57  1  0  0  0  0
 26 58  1  0  0  0  0
 27 28  1  0  0  0  0
 27 64  1  0  0  0  0
 28 29  2  0  0  0  0
 28 59  1  0  0  0  0
 29 30  1  0  0  0  0
 31 32  1  0  0  0  0
 31 60  1  0  0  0  0
 31 61  1  0  0  0  0
 32 33  1  0  0  0  0
 32 62  1  0  0  0  0
 33 63  1  0  0  0  0
M  END
> <s_m_source_file>
AV-unprocessed.smi

> <i_m_source_file_index>
36

> <i_lp_mmshare_version>
43012

> <i_f3d_flags>
0

> <s_epik_input>
W0NIM11DKFtDSDNdKShbQ0gzXSlbU2ldKFtDSDNdKShbQ0gzXSlPW0NIMl1bQ0BASF0xT1tDQEhdKFtDSDJdW0NASF0xW09IXSluKFtjSF1uMiljKGMyMyluW2NIXW5jM1tOSF1DKD1PKWM0W2NIXVtjSF1bY0hdW2NIXVtjSF00

> <s_epik_cmdline>
J2VwaWtfcHl0aG9uJywgJy1waCcsICc3LjAnLCAnLXRuJywgJzgnLCAnLW1hJywgJzIwMCcsICctbWV0YWxfYmluZGluZycsICctaW1hZScsICc8aW5maWxlLm1hZT4nLCAnLW9tYWUnLCAnPG91dGZpbGUubWFlPic=

> <r_epik_Ionization_Penalty>
0.0850405

> <r_epik_Ionization_Penalty_Charging>
0.0850403

> <r_epik_Ionization_Penalty_Neutral>
1.47497e-07

> <r_epik_State_Penalty>
2.6133

> <r_epik_Charging_Adjusted_Penalty>
2.69834

> <i_epik_Tot_Q>
0

> <i_epik_Tot_abs_Q>
0

> <r_epik_Metal_State_Penalty>
2.92945

> <b_epik_Metal_Only>
0

> <s_epik_Chemistry_Notes>
This compound contains an acetal/aminal-like group ( X-CH(R)-Y where X, Y are N, S, or O) that may be acid/base labile, releasing an aldehyde.

> <s_lp_Force_Field>
OPLS_2005

> <r_lp_Energy>
50.6146

> <b_lp_Chiralities_Consistent>
1

> <s_lp_Variant>
AV-unprocessed.smi:36-13

> <Gold.Version>
5.8.1

> <Gold.Id.Protein>
6NUR|6NUR_protein|mol2

> <Gold.PLP.Fitness>
44.4734

> <Gold.PLP.PLP>
-40.1679

> <Gold.PLP.part.hbond>
-3.2400

> <Gold.PLP.part.metal>
0.0000

> <Gold.PLP.part.buried>
-4.0519

> <Gold.PLP.part.nonpolar>
-31.7176

> <Gold.PLP.part.repulsive>
0.1703

> <Gold.PLP.ligand.clash>
0.0000

> <Gold.PLP.ligand.torsion>
2.3375

> <Gold.PLP.Chemscore.Hbond>
1.7200

> <Gold.PLP.Chemscore.CHOScore>
1.1549

> <Gold.PLP.Chemscore.Metal>
0.0000

> <Gold.Chemscore.Hbonds>
donor molecule, donor type, donor heavy atom, donor atom, acceptor molecule, acceptor atom, score
      L1  H    33    63       P1 10957  0.13
      P1  H  7989  7998       L1    20  0.69
      L1  C    28    59       P1  7948  0.46
      L1  C    28    59       P1  7957  0.23

> <Gold.PLP.Chemscore.Internal.Correction>
0.3558

> <Gold.Rescore>
     Score         DG    S(hbond)    S(metal)    S(lipo)     H(rot)  DE(clash)    DE(int)     intcor
     12.60     -16.35       1.70        0.00     103.43       2.70       0.17       3.58       ----

> <Gold.Chemscore.Fitness>
12.5958

> <Gold.Chemscore.DG>
-16.3474

> <Gold.Chemscore.ZeroCoef>
-5.4800

> <Gold.Chemscore.Hbond>
1.7032

> <Gold.Chemscore.Metal>
0.0000

> <Gold.Chemscore.Lipo>
103.4292

> <Gold.Chemscore.Internal_Hbond>
0.0000

> <Gold.Chemscore.DEClash>
0.1717

> <Gold.Chemscore.DEInternal>
3.5799

> <Gold.Chemscore.Rot>
2.7041

> <Gold.Chemscore.Internal.Correction>
   9.000000E+99

> <Gold.Chemscore.Hbonds>
donor molecule, donor type, donor heavy atom, donor atom, acceptor molecule, acceptor atom, score
      L1  H    33    63       P1 10957  0.14
      P1  H  7989  7998       L1    20  0.66

> <Gold.Chemscore.Hbond.Weighted>
-5.6887

> <Gold.Chemscore.Metal.Weighted>
-0.0000

> <Gold.Chemscore.Lipo.Weighted>
-12.1012

> <Gold.Chemscore.Internal_Hbond.Weighted>
0.0000

> <Gold.Chemscore.DEClash.Weighted>
0.1717

> <Gold.Chemscore.DEInternal.Weighted>
3.5799

> <Gold.Chemscore.Rot.Weighted>
6.9225

> <Gold.Chemscore.Internal.Correction.Weighted>
   9.000000E+99

> <Gold.Protein.RotatedTorsions>
[ 6907 6896 6895 6894 ] final  144.10 input  -60.11 | X-H torsion
[ 7974 7965 7964 7962 ] final   24.90 input  175.53 | X-H torsion
[ 8008 7997 7996 7995 ] final   66.05 input   59.86 | X-H torsion
[ 10167 10162 10161 10158 ] final   41.86 input  -65.29 | X-H torsion
[ 10718 10713 10712 10709 ] final  -36.19 input   66.30 | X-H torsion
[ 10763 10752 10751 10750 ] final -114.88 input  -60.55 | X-H torsion
[ 11005 11000 10999 10996 ] final   46.29 input  -57.11 | X-H torsion

> <Gold.Protein.ActiveResidues>
 VAL166  LYS551  ARG553  GLY616  TRP617  ASP618  TYR619  PRO620  LYS621  CYS622 
 ASP623  PHE694  ASN695  SER759  ASP760  ASP761  ALA762  ILE779  LEU786  VAL792 
 PHE793  MET794  SER795  GLU796  ALA797  LYS798  CYS799  TRP800  GLU811  SER814 

> <Gold.Protein.RotatedAtoms>
  152.1980  133.4820  159.5042 H   0  0  0  0  0  0  0  0  0  0  0  0  # atno 6907 bound_to 6896
  150.6964  134.1628  159.4191 H   0  0  0  0  0  0  0  0  0  0  0  0  # atno 6908 bound_to 6896
  151.9544  135.0153  160.0594 H   0  0  0  0  0  0  0  0  0  0  0  0  # atno 6909 bound_to 6896
  146.1915  139.7540  142.8828 H   0  0  0  0  0  0  0  0  0  0  0  0  # atno 7974 bound_to 7965
  155.6714  140.3497  155.4820 H   0  0  0  0  0  0  0  0  0  0  0  0  # atno 8008 bound_to 7997
  155.9685  140.1151  157.0856 H   0  0  0  0  0  0  0  0  0  0  0  0  # atno 8009 bound_to 7997
  154.4160  140.1161  156.5261 H   0  0  0  0  0  0  0  0  0  0  0  0  # atno 8010 bound_to 7997
  140.3601  144.2240  150.6139 H   0  0  0  0  0  0  0  0  0  0  0  0  # atno 10167 bound_to 10162
  156.3297  130.4277  149.7883 H   0  0  0  0  0  0  0  0  0  0  0  0  # atno 10718 bound_to 10713
  154.8458  135.4402  154.1575 H   0  0  0  0  0  0  0  0  0  0  0  0  # atno 10763 bound_to 10752
  153.2720  135.6946  153.7477 H   0  0  0  0  0  0  0  0  0  0  0  0  # atno 10764 bound_to 10752
  153.6714  135.3418  155.3129 H   0  0  0  0  0  0  0  0  0  0  0  0  # atno 10765 bound_to 10752
  140.1382  134.4617  155.8469 H   0  0  0  0  0  0  0  0  0  0  0  0  # atno 11005 bound_to 11000
  145.3778  141.0353  143.3195 LP  0  0  0  0  0  0  0  0  0  0  0  0  # atno 17320 bound_to 7965
  144.8496  139.5343  143.6862 LP  0  0  0  0  0  0  0  0  0  0  0  0  # atno 17321 bound_to 7965
  140.5135  143.2284  151.8498 LP  0  0  0  0  0  0  0  0  0  0  0  0  # atno 17342 bound_to 10162
  139.4815  144.4921  151.9171 LP  0  0  0  0  0  0  0  0  0  0  0  0  # atno 17343 bound_to 10162
  156.5160  130.8193  151.3186 LP  0  0  0  0  0  0  0  0  0  0  0  0  # atno 17370 bound_to 10713
  157.7428  130.9898  150.2544 LP  0  0  0  0  0  0  0  0  0  0  0  0  # atno 17371 bound_to 10713
  141.2182  133.6823  156.7198 LP  0  0  0  0  0  0  0  0  0  0  0  0  # atno 17394 bound_to 11000
  140.2755  134.8358  157.3886 LP  0  0  0  0  0  0  0  0  0  0  0  0  # atno 17395 bound_to 11000

$$$$
