AV-unprocessed.smi:2816|AV-procd|sdf|10844|dock3
  -GOLD-   2272015283D 1   1.00000     0.00000
 Structure written by MMmdl.
 43 45  0  0  0  0  0  0  0  0  1 V2000
  150.9180  136.6729  157.6524 C   0  0  0  0  0  0  0  0  0  0  0  0
  150.4688  136.6514  156.1810 C   0  0  0  0  0  0  0  0  0  0  0  0
  150.5954  135.2198  155.6285 C   0  0  0  0  0  0  0  0  0  0  0  0
  149.0122  137.1394  156.0800 C   0  0  0  0  0  0  0  0  0  0  0  0
  151.5804  137.8048  155.2321 S   0  0  0  0  0  0  0  0  0  0  0  0
  152.9723  137.4151  155.5083 O   0  0  0  0  0  0  0  0  0  0  0  0
  151.1139  137.8569  153.8373 O   0  0  0  0  0  0  0  0  0  0  0  0
  151.3253  139.4312  155.9454 C   0  0  0  0  0  0  0  0  0  0  0  0
  151.8966  139.7510  157.1936 C   0  0  0  0  0  0  0  0  0  0  0  0
  151.6343  141.0221  157.7374 C   0  0  0  0  0  0  0  0  0  0  0  0
  150.8054  141.9183  157.0213 C   0  0  0  0  0  0  0  0  0  0  0  0
  150.4779  143.2026  157.4800 N   0  0  0  0  0  0  0  0  0  0  0  0
  150.2200  143.4653  158.8915 C   0  0  2  0  0  0  0  0  0  0  0  0
  149.7988  144.9076  159.1963 C   0  0  0  0  0  0  0  0  0  0  0  0
  150.8063  145.3063  160.2836 C   0  0  2  0  0  0  0  0  0  0  0  0
  152.1933  145.5807  159.6900 C   0  0  0  0  0  0  0  0  0  0  0  0
  152.6633  144.1707  159.3386 C   0  0  0  0  0  0  0  0  0  0  0  0
  151.4653  143.3130  159.7836 C   0  0  1  0  0  0  0  0  0  0  0  0
  151.0371  144.0563  160.9127 O   0  0  0  0  0  0  0  0  0  0  0  0
  150.2841  141.4853  155.7829 C   0  0  0  0  0  0  0  0  0  0  0  0
  150.5262  140.2690  155.2509 N   0  0  0  0  0  0  0  0  0  0  0  0
  150.3050  136.0118  158.2658 H   0  0  0  0  0  0  0  0  0  0  0  0
  150.8440  137.6754  158.0752 H   0  0  0  0  0  0  0  0  0  0  0  0
  151.9546  136.3502  157.7542 H   0  0  0  0  0  0  0  0  0  0  0  0
  151.6306  134.8777  155.6387 H   0  0  0  0  0  0  0  0  0  0  0  0
  150.2312  135.1472  154.6044 H   0  0  0  0  0  0  0  0  0  0  0  0
  150.0133  134.5165  156.2250 H   0  0  0  0  0  0  0  0  0  0  0  0
  148.3451  136.5131  156.6731 H   0  0  0  0  0  0  0  0  0  0  0  0
  148.6503  137.1138  155.0523 H   0  0  0  0  0  0  0  0  0  0  0  0
  148.9083  138.1628  156.4416 H   0  0  0  0  0  0  0  0  0  0  0  0
  152.5160  139.0437  157.7246 H   0  0  0  0  0  0  0  0  0  0  0  0
  152.0670  141.2859  158.6904 H   0  0  0  0  0  0  0  0  0  0  0  0
  150.2228  143.9134  156.8092 H   0  0  0  0  0  0  0  0  0  0  0  0
  149.4569  142.7751  159.2533 H   0  0  0  0  0  0  0  0  0  0  0  0
  149.8474  145.5733  158.3331 H   0  0  0  0  0  0  0  0  0  0  0  0
  148.7790  144.9293  159.5825 H   0  0  0  0  0  0  0  0  0  0  0  0
  150.4492  146.0896  160.9525 H   0  0  0  0  0  0  0  0  0  0  0  0
  152.1527  146.2426  158.8243 H   0  0  0  0  0  0  0  0  0  0  0  0
  152.8531  146.0294  160.4335 H   0  0  0  0  0  0  0  0  0  0  0  0
  152.9075  144.0545  158.2828 H   0  0  0  0  0  0  0  0  0  0  0  0
  153.5516  143.9150  159.9173 H   0  0  0  0  0  0  0  0  0  0  0  0
  151.7238  142.2770  160.0041 H   0  0  0  0  0  0  0  0  0  0  0  0
  149.6445  142.1333  155.2014 H   0  0  0  0  0  0  0  0  0  0  0  0
  1  2  1  0  0  0  0
  1 22  1  0  0  0  0
  1 23  1  0  0  0  0
  1 24  1  0  0  0  0
  2  3  1  0  0  0  0
  2  4  1  0  0  0  0
  2  5  1  0  0  0  0
  3 25  1  0  0  0  0
  3 26  1  0  0  0  0
  3 27  1  0  0  0  0
  4 28  1  0  0  0  0
  4 29  1  0  0  0  0
  4 30  1  0  0  0  0
  5  6  2  0  0  0  0
  5  7  2  0  0  0  0
  5  8  1  0  0  0  0
  8 21  1  0  0  0  0
  8  9  2  0  0  0  0
  9 10  1  0  0  0  0
  9 31  1  0  0  0  0
 10 11  2  0  0  0  0
 10 32  1  0  0  0  0
 11 12  1  0  0  0  0
 11 20  1  0  0  0  0
 12 13  1  0  0  0  0
 12 33  1  0  0  0  0
 13 18  1  0  0  0  0
 13 14  1  0  0  0  0
 13 34  1  0  0  0  0
 14 15  1  0  0  0  0
 14 35  1  0  0  0  0
 14 36  1  0  0  0  0
 15 19  1  0  0  0  0
 15 16  1  0  0  0  0
 15 37  1  0  0  0  0
 16 17  1  0  0  0  0
 16 38  1  0  0  0  0
 16 39  1  0  0  0  0
 17 18  1  0  0  0  0
 17 40  1  0  0  0  0
 17 41  1  0  0  0  0
 18 19  1  0  0  0  0
 18 42  1  0  0  0  0
 20 21  2  0  0  0  0
 20 43  1  0  0  0  0
M  END
> <s_m_source_file>
AV-unprocessed.smi

> <i_m_source_file_index>
2816

> <i_lp_mmshare_version>
43012

> <i_f3d_flags>
0

> <s_epik_input>
W0NIM11DKFtDSDNdKShbQ0gzXSlTKD1PKSg9TyljMVtjSF1bY0hdYyhbY0hdbjEpW05IXVtDQEhdKFtDSDJdW0NAQEhdMjMpW0NAQEhdKE8zKVtDSDJdW0NIMl0y

> <s_epik_cmdline>
J2VwaWtfcHl0aG9uJywgJy1waCcsICc3LjAnLCAnLXRuJywgJzgnLCAnLW1hJywgJzIwMCcsICctbWV0YWxfYmluZGluZycsICctaW1hZScsICc8aW5maWxlLm1hZT4nLCAnLW9tYWUnLCAnPG91dGZpbGUubWFlPic=

> <r_lp_tautomer_probability>
1

> <r_epik_Ionization_Penalty>
1.94439e-07

> <r_epik_Ionization_Penalty_Charging>
0

> <r_epik_Ionization_Penalty_Neutral>
1.94439e-07

> <r_epik_State_Penalty>
-0

> <r_epik_Charging_Adjusted_Penalty>
0

> <i_epik_Tot_Q>
0

> <i_epik_Tot_abs_Q>
0

> <r_epik_Metal_State_Penalty>
-0

> <b_epik_Metal_Only>
0

> <s_lp_Force_Field>
OPLS_2005

> <r_lp_Energy>
43.8741

> <b_lp_Chiralities_Consistent>
1

> <s_lp_Variant>
AV-unprocessed.smi:2816-3

> <Gold.Version>
5.8.1

> <Gold.Id.Protein>
6NUR|6NUR_protein|mol2

> <Gold.PLP.Fitness>
43.4979

> <Gold.PLP.PLP>
-34.6142

> <Gold.PLP.part.hbond>
-3.2917

> <Gold.PLP.part.metal>
0.0000

> <Gold.PLP.part.buried>
-3.3381

> <Gold.PLP.part.nonpolar>
-29.2711

> <Gold.PLP.part.repulsive>
1.6892

> <Gold.PLP.ligand.clash>
0.0000

> <Gold.PLP.ligand.torsion>
1.4449

> <Gold.PLP.Chemscore.Hbond>
2.2478

> <Gold.PLP.Chemscore.CHOScore>
0.9311

> <Gold.PLP.Chemscore.Metal>
0.0000

> <Gold.Chemscore.Hbonds>
donor molecule, donor type, donor heavy atom, donor atom, acceptor molecule, acceptor atom, score
      L1  H    12    33       P1  8028  1.00
      P1  H  7989  7998       L1    21  0.65
      P1  H 10752 10764       L1     6  0.40
      L1  C    20    43       P1  8028  0.50

> <Gold.PLP.Chemscore.Internal.Correction>
2.2370

> <Gold.Rescore>
     Score         DG    S(hbond)    S(metal)    S(lipo)     H(rot)  DE(clash)    DE(int)     intcor
     14.67     -18.00       1.00        0.00     103.59       1.15       0.73       2.59       ----

> <Gold.Chemscore.Fitness>
14.6725

> <Gold.Chemscore.DG>
-17.9984

> <Gold.Chemscore.ZeroCoef>
-5.4800

> <Gold.Chemscore.Hbond>
0.9984

> <Gold.Chemscore.Metal>
0.0000

> <Gold.Chemscore.Lipo>
103.5921

> <Gold.Chemscore.Internal_Hbond>
0.0000

> <Gold.Chemscore.DEClash>
0.7334

> <Gold.Chemscore.DEInternal>
2.5925

> <Gold.Chemscore.Rot>
1.1471

> <Gold.Chemscore.Internal.Correction>
   9.000000E+99

> <Gold.Chemscore.Hbonds>
donor molecule, donor type, donor heavy atom, donor atom, acceptor molecule, acceptor atom, score
      L1  H    12    33       P1  8028  0.94
      P1  H  7989  7998       L1    21  0.09
      P1  H 10752 10764       L1     6  0.14

> <Gold.Chemscore.Hbond.Weighted>
-3.3347

> <Gold.Chemscore.Metal.Weighted>
-0.0000

> <Gold.Chemscore.Lipo.Weighted>
-12.1203

> <Gold.Chemscore.Internal_Hbond.Weighted>
0.0000

> <Gold.Chemscore.DEClash.Weighted>
0.7334

> <Gold.Chemscore.DEInternal.Weighted>
2.5925

> <Gold.Chemscore.Rot.Weighted>
2.9366

> <Gold.Chemscore.Internal.Correction.Weighted>
   9.000000E+99

> <Gold.Protein.RotatedTorsions>
[ 6907 6896 6895 6894 ] final -119.92 input  -60.11 | X-H torsion
[ 7974 7965 7964 7962 ] final   27.96 input  175.53 | X-H torsion
[ 8008 7997 7996 7995 ] final   65.62 input   59.86 | X-H torsion
[ 10167 10162 10161 10158 ] final  -18.91 input  -65.29 | X-H torsion
[ 10718 10713 10712 10709 ] final -107.51 input   66.30 | X-H torsion
[ 10763 10752 10751 10750 ] final  -46.78 input  -60.55 | X-H torsion
[ 11005 11000 10999 10996 ] final -171.34 input  -57.11 | X-H torsion

> <Gold.Protein.ActiveResidues>
 VAL166  LYS551  ARG553  GLY616  TRP617  ASP618  TYR619  PRO620  LYS621  CYS622 
 ASP623  PHE694  ASN695  SER759  ASP760  ASP761  ALA762  ILE779  LEU786  VAL792 
 PHE793  MET794  SER795  GLU796  ALA797  LYS798  CYS799  TRP800  GLU811  SER814 

> <Gold.Protein.RotatedAtoms>
  150.8347  133.8033  159.3084 H   0  0  0  0  0  0  0  0  0  0  0  0  # atno 6907 bound_to 6896
  151.5752  135.1059  160.0014 H   0  0  0  0  0  0  0  0  0  0  0  0  # atno 6908 bound_to 6896
  152.4421  133.7426  159.6706 H   0  0  0  0  0  0  0  0  0  0  0  0  # atno 6909 bound_to 6896
  146.1756  139.7121  142.8937 H   0  0  0  0  0  0  0  0  0  0  0  0  # atno 7974 bound_to 7965
  155.6646  140.3497  155.4795 H   0  0  0  0  0  0  0  0  0  0  0  0  # atno 8008 bound_to 7997
  155.9739  140.1161  157.0810 H   0  0  0  0  0  0  0  0  0  0  0  0  # atno 8009 bound_to 7997
  154.4173  140.1151  156.5330 H   0  0  0  0  0  0  0  0  0  0  0  0  # atno 8010 bound_to 7997
  140.7263  143.4870  151.0042 H   0  0  0  0  0  0  0  0  0  0  0  0  # atno 10167 bound_to 10162
  156.0440  130.5666  150.7832 H   0  0  0  0  0  0  0  0  0  0  0  0  # atno 10718 bound_to 10713
  154.0506  135.6631  153.4800 H   0  0  0  0  0  0  0  0  0  0  0  0  # atno 10763 bound_to 10752
  153.0465  135.5111  154.7755 H   0  0  0  0  0  0  0  0  0  0  0  0  # atno 10764 bound_to 10752
  154.6760  135.3037  154.9644 H   0  0  0  0  0  0  0  0  0  0  0  0  # atno 10765 bound_to 10752
  140.5093  134.5817  157.5014 H   0  0  0  0  0  0  0  0  0  0  0  0  # atno 11005 bound_to 11000
  145.4222  141.0407  143.2957 LP  0  0  0  0  0  0  0  0  0  0  0  0  # atno 17320 bound_to 7965
  144.8230  139.5758  143.6978 LP  0  0  0  0  0  0  0  0  0  0  0  0  # atno 17321 bound_to 7965
  139.8572  143.7362  152.3175 LP  0  0  0  0  0  0  0  0  0  0  0  0  # atno 17342 bound_to 10162
  139.7564  144.7519  151.0429 LP  0  0  0  0  0  0  0  0  0  0  0  0  # atno 17343 bound_to 10162
  157.5294  131.0936  150.9975 LP  0  0  0  0  0  0  0  0  0  0  0  0  # atno 17370 bound_to 10713
  157.0286  130.5702  149.5340 LP  0  0  0  0  0  0  0  0  0  0  0  0  # atno 17371 bound_to 10713
  139.9668  134.7360  156.0122 LP  0  0  0  0  0  0  0  0  0  0  0  0  # atno 17394 bound_to 11000
  141.1394  133.6568  156.3686 LP  0  0  0  0  0  0  0  0  0  0  0  0  # atno 17395 bound_to 11000

$$$$
