AV-unprocessed.smi:1033|AV-procd|sdf|4497|dock9
  -GOLD-   22720 2493D 1   1.00000     0.00000
 Structure written by MMmdl.
 56 58  0  0  0  0  0  0  0  0  2 V2000
  154.4711  140.5580  161.4986 C   0  0  0  0  0  0  0  0  0  0  0  0
  153.6274  141.0181  160.3228 C   0  0  0  0  0  0  0  0  0  0  0  0
  153.4654  142.4033  160.0930 C   0  0  0  0  0  0  0  0  0  0  0  0
  152.6902  142.8720  159.0095 C   0  0  0  0  0  0  0  0  0  0  0  0
  152.4008  144.1631  158.6013 N   0  0  0  0  0  0  0  0  0  0  0  0
  151.6370  143.9425  157.5347 C   0  0  0  0  0  0  0  0  0  0  0  0
  151.3972  142.6590  157.2039 N   0  0  0  0  0  0  0  0  0  0  0  0
  150.6015  142.1663  156.0948 C   0  0  0  0  0  0  0  0  0  0  0  0
  149.3191  141.4543  156.5699 C   0  0  1  0  0  0  0  0  0  0  0  0
  148.5867  142.3276  157.4055 O   0  0  0  0  0  0  0  0  0  0  0  0
  148.4017  141.0274  155.4069 C   0  0  0  0  0  0  0  0  0  0  0  0
  149.0635  140.3016  154.3159 N   0  0  0  0  0  0  0  0  0  0  0  0
  149.4244  138.9156  154.6282 C   0  0  0  0  0  0  0  0  0  0  0  0
  148.2068  137.9755  154.7312 C   0  0  0  0  0  0  0  0  0  0  0  0
  147.4255  138.0113  153.4661 N   0  3  0  0  0  0  0  0  0  0  0  0
  146.2695  137.0791  153.4482 C   0  0  0  0  0  0  0  0  0  0  0  0
  145.5264  137.0831  152.0975 C   0  0  1  0  0  0  0  0  0  0  0  0
  145.2958  135.6649  151.5601 C   0  0  0  0  0  0  0  0  0  0  0  0
  144.2654  137.7006  152.2608 O   0  0  0  0  0  0  0  0  0  0  0  0
  147.0391  139.4061  153.1310 C   0  0  0  0  0  0  0  0  0  0  0  0
  148.2876  140.3111  153.0762 C   0  0  0  0  0  0  0  0  0  0  0  0
  152.0782  141.9090  158.1555 C   0  0  0  0  0  0  0  0  0  0  0  0
  152.2317  140.5285  158.3731 C   0  0  0  0  0  0  0  0  0  0  0  0
  153.0078  140.0774  159.4611 C   0  0  0  0  0  0  0  0  0  0  0  0
  153.1668  138.5845  159.6885 C   0  0  0  0  0  0  0  0  0  0  0  0
  154.8922  141.4043  162.0422 H   0  0  0  0  0  0  0  0  0  0  0  0
  155.2989  139.9369  161.1557 H   0  0  0  0  0  0  0  0  0  0  0  0
  153.8684  139.9780  162.1977 H   0  0  0  0  0  0  0  0  0  0  0  0
  153.9369  143.1202  160.7489 H   0  0  0  0  0  0  0  0  0  0  0  0
  151.2261  144.7610  156.9615 H   0  0  0  0  0  0  0  0  0  0  0  0
  150.3601  142.9993  155.4328 H   0  0  0  0  0  0  0  0  0  0  0  0
  151.2256  141.4828  155.5179 H   0  0  0  0  0  0  0  0  0  0  0  0
  149.5803  140.5887  157.1777 H   0  0  0  0  0  0  0  0  0  0  0  0
  148.3994  143.1193  156.9248 H   0  0  0  0  0  0  0  0  0  0  0  0
  147.5799  140.4329  155.8058 H   0  0  0  0  0  0  0  0  0  0  0  0
  147.9397  141.9274  154.9988 H   0  0  0  0  0  0  0  0  0  0  0  0
  150.0846  138.5413  153.8445 H   0  0  0  0  0  0  0  0  0  0  0  0
  150.0139  138.8663  155.5425 H   0  0  0  0  0  0  0  0  0  0  0  0
  148.5613  136.9646  154.9280 H   0  0  0  0  0  0  0  0  0  0  0  0
  147.5714  138.2519  155.5734 H   0  0  0  0  0  0  0  0  0  0  0  0
  146.6151  136.0736  153.6936 H   0  0  0  0  0  0  0  0  0  0  0  0
  145.5631  137.3574  154.2323 H   0  0  0  0  0  0  0  0  0  0  0  0
  146.0882  137.6437  151.3511 H   0  0  0  0  0  0  0  0  0  0  0  0
  146.2427  135.1491  151.3981 H   0  0  0  0  0  0  0  0  0  0  0  0
  144.7673  135.6872  150.6064 H   0  0  0  0  0  0  0  0  0  0  0  0
  144.7052  135.0654  152.2539 H   0  0  0  0  0  0  0  0  0  0  0  0
  144.3841  138.6385  152.2672 H   0  0  0  0  0  0  0  0  0  0  0  0
  146.5426  139.4240  152.1602 H   0  0  0  0  0  0  0  0  0  0  0  0
  146.3169  139.7778  153.8593 H   0  0  0  0  0  0  0  0  0  0  0  0
  147.9956  141.3324  152.8284 H   0  0  0  0  0  0  0  0  0  0  0  0
  148.9263  139.9794  152.2563 H   0  0  0  0  0  0  0  0  0  0  0  0
  151.7562  139.8240  157.7070 H   0  0  0  0  0  0  0  0  0  0  0  0
  152.6007  138.0074  158.9570 H   0  0  0  0  0  0  0  0  0  0  0  0
  152.8090  138.3080  160.6804 H   0  0  0  0  0  0  0  0  0  0  0  0
  154.2148  138.2957  159.6045 H   0  0  0  0  0  0  0  0  0  0  0  0
  148.0457  137.7077  152.7285 H   0  0  0  0  0  0  0  0  0  0  0  0
  1  2  1  0  0  0  0
  1 26  1  0  0  0  0
  1 27  1  0  0  0  0
  1 28  1  0  0  0  0
  2 24  1  0  0  0  0
  2  3  2  0  0  0  0
  3  4  1  0  0  0  0
  3 29  1  0  0  0  0
  4 22  2  0  0  0  0
  4  5  1  0  0  0  0
  5  6  2  0  0  0  0
  6  7  1  0  0  0  0
  6 30  1  0  0  0  0
  7  8  1  0  0  0  0
  7 22  1  0  0  0  0
  8  9  1  0  0  0  0
  8 31  1  0  0  0  0
  8 32  1  0  0  0  0
  9 10  1  0  0  0  0
  9 11  1  0  0  0  0
  9 33  1  0  0  0  0
 10 34  1  0  0  0  0
 11 12  1  0  0  0  0
 11 35  1  0  0  0  0
 11 36  1  0  0  0  0
 12 21  1  0  0  0  0
 12 13  1  0  0  0  0
 13 14  1  0  0  0  0
 13 37  1  0  0  0  0
 13 38  1  0  0  0  0
 14 15  1  0  0  0  0
 14 39  1  0  0  0  0
 14 40  1  0  0  0  0
 15 16  1  0  0  0  0
 15 20  1  0  0  0  0
 15 56  1  0  0  0  0
 16 17  1  0  0  0  0
 16 41  1  0  0  0  0
 16 42  1  0  0  0  0
 17 18  1  0  0  0  0
 17 19  1  0  0  0  0
 17 43  1  0  0  0  0
 18 44  1  0  0  0  0
 18 45  1  0  0  0  0
 18 46  1  0  0  0  0
 19 47  1  0  0  0  0
 20 21  1  0  0  0  0
 20 48  1  0  0  0  0
 20 49  1  0  0  0  0
 21 50  1  0  0  0  0
 21 51  1  0  0  0  0
 22 23  1  0  0  0  0
 23 24  2  0  0  0  0
 23 52  1  0  0  0  0
 24 25  1  0  0  0  0
 25 53  1  0  0  0  0
 25 54  1  0  0  0  0
 25 55  1  0  0  0  0
M  CHG  1  15   1
M  END
> <s_m_source_file>
AV-unprocessed.smi

> <i_m_source_file_index>
1033

> <i_lp_mmshare_version>
43012

> <i_f3d_flags>
0

> <s_epik_input>
W0NIM11jKFtjSF0xKWMoW0NIM10pW2NIXWMoYzEyKW4oW2NIXW4yKVtDSDJdW0NASF0oW09IXSlbQ0gyXU4zW0NIMl1bQ0gyXU4oW0NIMl1bQ0gyXTMpW0NIMl1bQ0BIXShbQ0gzXSlbT0hd

> <s_epik_cmdline>
J2VwaWtfcHl0aG9uJywgJy1waCcsICc3LjAnLCAnLXRuJywgJzgnLCAnLW1hJywgJzIwMCcsICctbWV0YWxfYmluZGluZycsICctaW1hZScsICc8aW5maWxlLm1hZT4nLCAnLW9tYWUnLCAnPG91dGZpbGUubWFlPic=

> <r_epik_Ionization_Penalty>
0.129152

> <r_epik_Ionization_Penalty_Charging>
0.00083231

> <r_epik_Ionization_Penalty_Neutral>
0.128319

> <r_epik_State_Penalty>
0.556973

> <r_epik_Charging_Adjusted_Penalty>
0.557805

> <i_epik_Tot_Q>
1

> <i_epik_Tot_abs_Q>
1

> <r_epik_Metal_State_Penalty>
0.490047

> <b_epik_Metal_Only>
0

> <s_lp_Force_Field>
OPLS_2005

> <r_lp_Energy>
33.0878

> <b_lp_Chiralities_Consistent>
1

> <s_lp_Variant>
AV-unprocessed.smi:1033-8

> <Gold.Version>
5.8.1

> <Gold.Id.Protein>
6NUR|6NUR_protein|mol2

> <Gold.PLP.Fitness>
58.5429

> <Gold.PLP.PLP>
-45.6687

> <Gold.PLP.part.hbond>
-4.0000

> <Gold.PLP.part.metal>
0.0000

> <Gold.PLP.part.buried>
-0.0528

> <Gold.PLP.part.nonpolar>
-42.8121

> <Gold.PLP.part.repulsive>
0.1716

> <Gold.PLP.ligand.clash>
0.0000

> <Gold.PLP.ligand.torsion>
0.9554

> <Gold.PLP.Chemscore.Hbond>
3.9840

> <Gold.PLP.Chemscore.CHOScore>
0.8973

> <Gold.PLP.Chemscore.Metal>
0.0000

> <Gold.Chemscore.Hbonds>
donor molecule, donor type, donor heavy atom, donor atom, acceptor molecule, acceptor atom, score
      L1  H    10    34       P1  8028  0.88
      L1  H    15    56       P1  7948  1.95
      L1  H    19    47       P1 10175  1.00
      L1  C     6    30       P1  8028  0.69

> <Gold.PLP.Chemscore.Internal.Correction>
0.1411

> <Gold.Rescore>
     Score         DG    S(hbond)    S(metal)    S(lipo)     H(rot)  DE(clash)    DE(int)     intcor
     17.70     -21.02       2.64        0.00     124.47       3.07       2.28       1.04       ----

> <Gold.Chemscore.Fitness>
17.7035

> <Gold.Chemscore.DG>
-21.0186

> <Gold.Chemscore.ZeroCoef>
-5.4800

> <Gold.Chemscore.Hbond>
2.6415

> <Gold.Chemscore.Metal>
0.0000

> <Gold.Chemscore.Lipo>
124.4668

> <Gold.Chemscore.Internal_Hbond>
0.0000

> <Gold.Chemscore.DEClash>
2.2799

> <Gold.Chemscore.DEInternal>
1.0352

> <Gold.Chemscore.Rot>
3.0650

> <Gold.Chemscore.Internal.Correction>
   9.000000E+99

> <Gold.Chemscore.Hbonds>
donor molecule, donor type, donor heavy atom, donor atom, acceptor molecule, acceptor atom, score
      L1  H    10    34       P1  8028  0.33
      L1  H    15    56       P1  7948  0.93
      L1  H    19    47       P1 10175  0.93

> <Gold.Chemscore.Hbond.Weighted>
-8.8225

> <Gold.Chemscore.Metal.Weighted>
-0.0000

> <Gold.Chemscore.Lipo.Weighted>
-14.5626

> <Gold.Chemscore.Internal_Hbond.Weighted>
0.0000

> <Gold.Chemscore.DEClash.Weighted>
2.2799

> <Gold.Chemscore.DEInternal.Weighted>
1.0352

> <Gold.Chemscore.Rot.Weighted>
7.8465

> <Gold.Chemscore.Internal.Correction.Weighted>
   9.000000E+99

> <Gold.Protein.RotatedTorsions>
[ 6907 6896 6895 6894 ] final    7.77 input  -60.11 | X-H torsion
[ 7974 7965 7964 7962 ] final  109.48 input  175.53 | X-H torsion
[ 8008 7997 7996 7995 ] final  168.88 input   59.86 | X-H torsion
[ 10167 10162 10161 10158 ] final  116.32 input  -65.29 | X-H torsion
[ 10718 10713 10712 10709 ] final   90.45 input   66.30 | X-H torsion
[ 10763 10752 10751 10750 ] final  112.81 input  -60.55 | X-H torsion
[ 11005 11000 10999 10996 ] final   92.95 input  -57.11 | X-H torsion

> <Gold.Protein.ActiveResidues>
 VAL166  LYS551  ARG553  GLY616  TRP617  ASP618  TYR619  PRO620  LYS621  CYS622 
 ASP623  PHE694  ASN695  SER759  ASP760  ASP761  ALA762  ILE779  LEU786  VAL792 
 PHE793  MET794  SER795  GLU796  ALA797  LYS798  CYS799  TRP800  GLU811  SER814 

> <Gold.Protein.RotatedAtoms>
  151.6952  135.0939  160.0240 H   0  0  0  0  0  0  0  0  0  0  0  0  # atno 6907 bound_to 6896
  152.3754  133.6470  159.6128 H   0  0  0  0  0  0  0  0  0  0  0  0  # atno 6908 bound_to 6896
  150.7705  133.9118  159.3413 H   0  0  0  0  0  0  0  0  0  0  0  0  # atno 6909 bound_to 6896
  145.2672  139.2680  143.3985 H   0  0  0  0  0  0  0  0  0  0  0  0  # atno 7974 bound_to 7965
  156.1507  140.1579  156.8774 H   0  0  0  0  0  0  0  0  0  0  0  0  # atno 8008 bound_to 7997
  154.5069  140.0811  156.7949 H   0  0  0  0  0  0  0  0  0  0  0  0  # atno 8009 bound_to 7997
  155.3901  140.3409  155.4253 H   0  0  0  0  0  0  0  0  0  0  0  0  # atno 8010 bound_to 7997
  139.6255  144.7108  151.2543 H   0  0  0  0  0  0  0  0  0  0  0  0  # atno 10167 bound_to 10162
  157.6959  131.0371  150.3580 H   0  0  0  0  0  0  0  0  0  0  0  0  # atno 10718 bound_to 10713
  153.4832  135.3675  155.2453 H   0  0  0  0  0  0  0  0  0  0  0  0  # atno 10763 bound_to 10752
  154.8754  135.3959  154.3675 H   0  0  0  0  0  0  0  0  0  0  0  0  # atno 10764 bound_to 10752
  153.4282  135.7082  153.6313 H   0  0  0  0  0  0  0  0  0  0  0  0  # atno 10765 bound_to 10752
  139.8816  134.8762  156.3647 H   0  0  0  0  0  0  0  0  0  0  0  0  # atno 11005 bound_to 11000
  146.3257  140.3105  142.8626 LP  0  0  0  0  0  0  0  0  0  0  0  0  # atno 17320 bound_to 7965
  144.9366  140.8033  143.5656 LP  0  0  0  0  0  0  0  0  0  0  0  0  # atno 17321 bound_to 7965
  140.7408  143.6576  150.8193 LP  0  0  0  0  0  0  0  0  0  0  0  0  # atno 17342 bound_to 10162
  140.0193  143.5559  152.2807 LP  0  0  0  0  0  0  0  0  0  0  0  0  # atno 17343 bound_to 10162
  156.4020  130.3917  149.6953 LP  0  0  0  0  0  0  0  0  0  0  0  0  # atno 17370 bound_to 10713
  156.4267  130.7795  151.2814 LP  0  0  0  0  0  0  0  0  0  0  0  0  # atno 17371 bound_to 10713
  140.9505  133.7454  156.0266 LP  0  0  0  0  0  0  0  0  0  0  0  0  # atno 17394 bound_to 11000
  140.8111  134.3398  157.5411 LP  0  0  0  0  0  0  0  0  0  0  0  0  # atno 17395 bound_to 11000

$$$$
