AV-unprocessed.smi:239|AV-procd|sdf|1822|dock7
  -GOLD-   2262020423D 1   1.00000     0.00000
 Structure written by MMmdl.
 54 58  0  0  0  0  0  0  0  0  1 V2000
  151.2272  145.4006  159.3363 C   0  0  0  0  0  0  0  0  0  0  0  0
  151.9683  144.1930  158.7534 C   0  0  2  0  0  0  0  0  0  0  0  0
  151.0253  143.2564  157.9747 C   0  0  0  0  0  0  0  0  0  0  0  0
  151.7441  142.0617  157.5380 N   0  0  0  0  0  0  0  0  0  0  0  0
  151.1383  141.2430  156.6398 C   0  0  0  0  0  0  0  0  0  0  0  0
  150.0406  141.6739  155.9612 N   0  0  0  0  0  0  0  0  0  0  0  0
  149.4296  140.8730  155.0834 C   0  0  0  0  0  0  0  0  0  0  0  0
  149.7454  139.6255  154.7321 N   0  0  0  0  0  0  0  0  0  0  0  0
  150.8522  139.1899  155.3989 C   0  0  0  0  0  0  0  0  0  0  0  0
  151.6012  139.9250  156.3614 C   0  0  0  0  0  0  0  0  0  0  0  0
  152.6643  139.1543  156.8181 N   0  0  0  0  0  0  0  0  0  0  0  0
  152.5419  138.0258  156.1744 C   0  0  0  0  0  0  0  0  0  0  0  0
  151.4887  137.9656  155.2902 N   0  0  0  0  0  0  0  0  0  0  0  0
  151.1216  136.8392  154.4459 C   0  0  0  0  0  0  0  0  0  0  0  0
  150.0267  135.9181  155.0422 C   0  0  0  0  0  0  0  0  0  0  0  0
  148.7977  136.5488  154.7291 O   0  0  0  0  0  0  0  0  0  0  0  0
  150.0211  134.5036  154.4227 C   0  0  0  0  0  0  0  0  0  0  0  0
  148.9847  133.5867  155.0972 C   0  0  0  0  0  0  0  0  0  0  0  0
  149.2225  133.5317  156.4992 O   0  0  0  0  0  0  0  0  0  0  0  0
  149.0840  134.7973  157.1348 C   0  0  0  0  0  0  0  0  0  0  0  0
  150.1257  135.7844  156.5773 C   0  0  0  0  0  0  0  0  0  0  0  0
  152.4305  141.3791  158.6297 C   0  0  0  0  0  0  0  0  0  0  0  0
  153.3417  142.3666  159.3797 C   0  0  2  0  0  0  0  0  0  0  0  0
  153.9972  141.7246  160.5852 C   0  0  0  0  0  0  0  0  0  0  0  0
  155.1915  140.8137  160.4211 C   0  0  0  0  0  0  0  0  0  0  0  0
  153.8585  140.2415  160.8392 C   0  0  0  0  0  0  0  0  0  0  0  0
  152.5605  143.4700  159.8291 O   0  0  0  0  0  0  0  0  0  0  0  0
  150.7710  145.9992  158.5475 H   0  0  0  0  0  0  0  0  0  0  0  0
  151.9093  146.0452  159.8912 H   0  0  0  0  0  0  0  0  0  0  0  0
  150.4366  145.0864  160.0185 H   0  0  0  0  0  0  0  0  0  0  0  0
  152.7563  144.5552  158.0908 H   0  0  0  0  0  0  0  0  0  0  0  0
  150.1854  142.9617  158.6058 H   0  0  0  0  0  0  0  0  0  0  0  0
  150.6166  143.7835  157.1114 H   0  0  0  0  0  0  0  0  0  0  0  0
  148.5631  141.2921  154.5937 H   0  0  0  0  0  0  0  0  0  0  0  0
  153.2270  137.2035  156.3214 H   0  0  0  0  0  0  0  0  0  0  0  0
  150.7950  137.2343  153.4827 H   0  0  0  0  0  0  0  0  0  0  0  0
  152.0258  136.2627  154.2437 H   0  0  0  0  0  0  0  0  0  0  0  0
  148.6741  136.5185  153.7927 H   0  0  0  0  0  0  0  0  0  0  0  0
  149.8379  134.5551  153.3488 H   0  0  0  0  0  0  0  0  0  0  0  0
  151.0008  134.0418  154.5447 H   0  0  0  0  0  0  0  0  0  0  0  0
  147.9674  133.9291  154.9023 H   0  0  0  0  0  0  0  0  0  0  0  0
  149.0595  132.5781  154.6903 H   0  0  0  0  0  0  0  0  0  0  0  0
  148.0695  135.1753  157.0011 H   0  0  0  0  0  0  0  0  0  0  0  0
  149.2317  134.6675  158.2069 H   0  0  0  0  0  0  0  0  0  0  0  0
  151.1130  135.4162  156.8548 H   0  0  0  0  0  0  0  0  0  0  0  0
  150.0150  136.7586  157.0551 H   0  0  0  0  0  0  0  0  0  0  0  0
  151.6848  140.9651  159.3100 H   0  0  0  0  0  0  0  0  0  0  0  0
  153.0255  140.5417  158.2684 H   0  0  0  0  0  0  0  0  0  0  0  0
  154.1246  142.7268  158.7094 H   0  0  0  0  0  0  0  0  0  0  0  0
  153.9993  142.3570  161.4712 H   0  0  0  0  0  0  0  0  0  0  0  0
  155.5338  140.6022  159.4098 H   0  0  0  0  0  0  0  0  0  0  0  0
  155.9738  140.8729  161.1748 H   0  0  0  0  0  0  0  0  0  0  0  0
  153.7522  139.9168  161.8723 H   0  0  0  0  0  0  0  0  0  0  0  0
  153.3135  139.6503  160.1056 H   0  0  0  0  0  0  0  0  0  0  0  0
  1  2  1  0  0  0  0
  1 28  1  0  0  0  0
  1 29  1  0  0  0  0
  1 30  1  0  0  0  0
  2 27  1  0  0  0  0
  2  3  1  0  0  0  0
  2 31  1  0  0  0  0
  3  4  1  0  0  0  0
  3 32  1  0  0  0  0
  3 33  1  0  0  0  0
  4  5  1  0  0  0  0
  4 22  1  0  0  0  0
  5 10  1  0  0  0  0
  5  6  2  0  0  0  0
  6  7  1  0  0  0  0
  7  8  2  0  0  0  0
  7 34  1  0  0  0  0
  8  9  1  0  0  0  0
  9 13  1  0  0  0  0
  9 10  2  0  0  0  0
 10 11  1  0  0  0  0
 11 12  2  0  0  0  0
 12 13  1  0  0  0  0
 12 35  1  0  0  0  0
 13 14  1  0  0  0  0
 14 15  1  0  0  0  0
 14 36  1  0  0  0  0
 14 37  1  0  0  0  0
 15 21  1  0  0  0  0
 15 16  1  0  0  0  0
 15 17  1  0  0  0  0
 16 38  1  0  0  0  0
 17 18  1  0  0  0  0
 17 39  1  0  0  0  0
 17 40  1  0  0  0  0
 18 19  1  0  0  0  0
 18 41  1  0  0  0  0
 18 42  1  0  0  0  0
 19 20  1  0  0  0  0
 20 21  1  0  0  0  0
 20 43  1  0  0  0  0
 20 44  1  0  0  0  0
 21 45  1  0  0  0  0
 21 46  1  0  0  0  0
 22 23  1  0  0  0  0
 22 47  1  0  0  0  0
 22 48  1  0  0  0  0
 23 24  1  0  0  0  0
 23 27  1  0  0  0  0
 23 49  1  0  0  0  0
 24 26  1  0  0  0  0
 24 25  1  0  0  0  0
 24 50  1  0  0  0  0
 25 26  1  0  0  0  0
 25 51  1  0  0  0  0
 25 52  1  0  0  0  0
 26 53  1  0  0  0  0
 26 54  1  0  0  0  0
M  END
> <s_m_source_file>
AV-unprocessed.smi

> <i_m_source_file_index>
239

> <i_lp_mmshare_version>
43012

> <i_f3d_flags>
0

> <s_epik_input>
W0NIMl0xW0NIMl1bQ0hdMVtDQEBIXShPMilbQ0gyXU4oW0NIMl1bQ0BIXTJbQ0gzXSljKG5bY0hdbjMpYyhjMzQpbltjSF1uNFtDSDJdQzUoW09IXSlbQ0gyXVtDSDJdT1tDSDJdW0NIMl01

> <s_epik_cmdline>
J2VwaWtfcHl0aG9uJywgJy1waCcsICc3LjAnLCAnLXRuJywgJzgnLCAnLW1hJywgJzIwMCcsICctbWV0YWxfYmluZGluZycsICctaW1hZScsICc8aW5maWxlLm1hZT4nLCAnLW9tYWUnLCAnPG91dGZpbGUubWFlPic=

> <r_lp_tautomer_probability>
1

> <r_epik_Ionization_Penalty>
9.13091e-05

> <r_epik_Ionization_Penalty_Charging>
0

> <r_epik_Ionization_Penalty_Neutral>
9.13091e-05

> <r_epik_State_Penalty>
-0

> <r_epik_Charging_Adjusted_Penalty>
0

> <i_epik_Tot_Q>
0

> <i_epik_Tot_abs_Q>
0

> <r_epik_Metal_State_Penalty>
-0

> <b_epik_Metal_Only>
0

> <s_lp_Force_Field>
OPLS_2005

> <r_lp_Energy>
38.8789

> <b_lp_Chiralities_Consistent>
1

> <s_lp_Variant>
AV-unprocessed.smi:239-3

> <Gold.Version>
5.8.1

> <Gold.Id.Protein>
6NUR|6NUR_protein|mol2

> <Gold.PLP.Fitness>
48.4301

> <Gold.PLP.PLP>
-45.3008

> <Gold.PLP.part.hbond>
-2.0000

> <Gold.PLP.part.metal>
0.0000

> <Gold.PLP.part.buried>
-2.3392

> <Gold.PLP.part.nonpolar>
-41.2298

> <Gold.PLP.part.repulsive>
0.2270

> <Gold.PLP.ligand.clash>
0.0000

> <Gold.PLP.ligand.torsion>
2.1254

> <Gold.PLP.Chemscore.Hbond>
2.0000

> <Gold.PLP.Chemscore.CHOScore>
0.0000

> <Gold.PLP.Chemscore.Metal>
0.0000

> <Gold.Chemscore.Hbonds>
donor molecule, donor type, donor heavy atom, donor atom, acceptor molecule, acceptor atom, score
      L1  H    16    38       P1  7948  1.00
      P1  H  7997  8009       L1    11  1.00

> <Gold.PLP.Chemscore.Internal.Correction>
1.3801

> <Gold.Rescore>
     Score         DG    S(hbond)    S(metal)    S(lipo)     H(rot)  DE(clash)    DE(int)     intcor
     16.21     -19.77       1.91        0.00     116.67       2.24       0.29       3.27       ----

> <Gold.Chemscore.Fitness>
16.2094

> <Gold.Chemscore.DG>
-19.7692

> <Gold.Chemscore.ZeroCoef>
-5.4800

> <Gold.Chemscore.Hbond>
1.9070

> <Gold.Chemscore.Metal>
0.0000

> <Gold.Chemscore.Lipo>
116.6749

> <Gold.Chemscore.Internal_Hbond>
0.0000

> <Gold.Chemscore.DEClash>
0.2866

> <Gold.Chemscore.DEInternal>
3.2732

> <Gold.Chemscore.Rot>
2.2387

> <Gold.Chemscore.Internal.Correction>
   9.000000E+99

> <Gold.Chemscore.Hbonds>
donor molecule, donor type, donor heavy atom, donor atom, acceptor molecule, acceptor atom, score
      L1  H    16    38       P1  7948  0.98
      P1  H  7997  8009       L1    11  0.70

> <Gold.Chemscore.Hbond.Weighted>
-6.3693

> <Gold.Chemscore.Metal.Weighted>
-0.0000

> <Gold.Chemscore.Lipo.Weighted>
-13.6510

> <Gold.Chemscore.Internal_Hbond.Weighted>
0.0000

> <Gold.Chemscore.DEClash.Weighted>
0.2866

> <Gold.Chemscore.DEInternal.Weighted>
3.2732

> <Gold.Chemscore.Rot.Weighted>
5.7311

> <Gold.Chemscore.Internal.Correction.Weighted>
   9.000000E+99

> <Gold.Protein.RotatedTorsions>
[ 6907 6896 6895 6894 ] final   11.26 input  -60.11 | X-H torsion
[ 7974 7965 7964 7962 ] final  140.67 input  175.53 | X-H torsion
[ 8008 7997 7996 7995 ] final -174.34 input   59.86 | X-H torsion
[ 10167 10162 10161 10158 ] final   71.19 input  -65.29 | X-H torsion
[ 10718 10713 10712 10709 ] final -126.28 input   66.30 | X-H torsion
[ 10763 10752 10751 10750 ] final   69.61 input  -60.55 | X-H torsion
[ 11005 11000 10999 10996 ] final -136.05 input  -57.11 | X-H torsion

> <Gold.Protein.ActiveResidues>
 VAL166  LYS551  ARG553  GLY616  TRP617  ASP618  TYR619  PRO620  LYS621  CYS622 
 ASP623  PHE694  ASN695  SER759  ASP760  ASP761  ALA762  ILE779  LEU786  VAL792 
 PHE793  MET794  SER795  GLU796  ALA797  LYS798  CYS799  TRP800  GLU811  SER814 

> <Gold.Protein.RotatedAtoms>
  151.7514  135.0831  160.0331 H   0  0  0  0  0  0  0  0  0  0  0  0  # atno 6907 bound_to 6896
  152.3414  133.6067  159.5887 H   0  0  0  0  0  0  0  0  0  0  0  0  # atno 6908 bound_to 6896
  150.7481  133.9633  159.3564 H   0  0  0  0  0  0  0  0  0  0  0  0  # atno 6909 bound_to 6896
  144.9165  139.5223  143.5684 H   0  0  0  0  0  0  0  0  0  0  0  0  # atno 7974 bound_to 7965
  155.9689  140.1159  157.0830 H   0  0  0  0  0  0  0  0  0  0  0  0  # atno 8008 bound_to 7997
  154.4151  140.1167  156.5347 H   0  0  0  0  0  0  0  0  0  0  0  0  # atno 8009 bound_to 7997
  155.6623  140.3473  155.4789 H   0  0  0  0  0  0  0  0  0  0  0  0  # atno 8010 bound_to 7997
  140.0488  144.5329  150.7379 H   0  0  0  0  0  0  0  0  0  0  0  0  # atno 10167 bound_to 10162
  156.1751  130.6694  151.0231 H   0  0  0  0  0  0  0  0  0  0  0  0  # atno 10718 bound_to 10713
  153.0296  135.5204  154.7314 H   0  0  0  0  0  0  0  0  0  0  0  0  # atno 10763 bound_to 10752
  154.6340  135.2904  155.0184 H   0  0  0  0  0  0  0  0  0  0  0  0  # atno 10764 bound_to 10752
  154.1126  135.6620  153.4940 H   0  0  0  0  0  0  0  0  0  0  0  0  # atno 10765 bound_to 10752
  140.8841  134.1894  157.4571 H   0  0  0  0  0  0  0  0  0  0  0  0  # atno 11005 bound_to 11000
  146.3184  139.8012  142.8965 LP  0  0  0  0  0  0  0  0  0  0  0  0  # atno 17320 bound_to 7965
  145.3367  141.0278  143.3416 LP  0  0  0  0  0  0  0  0  0  0  0  0  # atno 17321 bound_to 7965
  140.7226  143.2604  151.4226 LP  0  0  0  0  0  0  0  0  0  0  0  0  # atno 17342 bound_to 10162
  139.5966  144.1383  152.2151 LP  0  0  0  0  0  0  0  0  0  0  0  0  # atno 17343 bound_to 10162
  157.6830  131.0833  150.7319 LP  0  0  0  0  0  0  0  0  0  0  0  0  # atno 17370 bound_to 10713
  156.7377  130.4729  149.5484 LP  0  0  0  0  0  0  0  0  0  0  0  0  # atno 17371 bound_to 10713
  139.8722  134.9830  156.5180 LP  0  0  0  0  0  0  0  0  0  0  0  0  # atno 17394 bound_to 11000
  140.8426  133.8194  155.9089 LP  0  0  0  0  0  0  0  0  0  0  0  0  # atno 17395 bound_to 11000

$$$$
