AV-unprocessed.smi:1419|AV-procd|sdf|5774|dock3
  -GOLD-   22720 5413D 1   1.00000     0.00000
 Structure written by MMmdl.
 42 43  0  0  0  0  0  0  0  0  2 V2000
  153.3424  138.9431  159.2295 C   0  0  0  0  0  0  0  0  0  0  0  0
  152.7625  140.1372  158.4600 C   0  0  2  0  0  0  0  0  0  0  0  0
  152.3593  141.2802  159.4172 C   0  0  0  0  0  0  0  0  0  0  0  0
  152.1559  142.5600  158.7293 N   0  0  0  0  0  0  0  0  0  0  0  0
  152.8523  143.7264  158.9196 C   0  0  0  0  0  0  0  0  0  0  0  0
  152.2978  144.6544  158.0764 C   0  0  0  0  0  0  0  0  0  0  0  0
  151.2923  144.0140  157.4028 N   0  3  0  0  0  0  0  0  0  0  0  0
  151.2111  142.7391  157.7975 C   0  0  0  0  0  0  0  0  0  0  0  0
  151.6109  139.6866  157.6798 N   0  0  0  0  0  0  0  0  0  0  0  0
  151.4675  139.8001  156.3475 C   0  0  0  0  0  0  0  0  0  0  0  0
  152.3658  140.2339  155.6247 O   0  0  0  0  0  0  0  0  0  0  0  0
  150.2613  139.4028  155.8735 N   0  0  0  0  0  0  0  0  0  0  0  0
  149.1651  138.8204  156.6589 C   0  0  0  0  0  0  0  0  0  0  0  0
  148.1081  139.9203  156.8840 C   0  0  2  0  0  0  0  0  0  0  0  0
  146.8909  139.4064  157.6598 C   0  0  0  0  0  0  0  0  0  0  0  0
  147.6598  140.4022  155.6170 O   0  0  0  0  0  0  0  0  0  0  0  0
  148.7016  140.9227  154.7904 C   0  0  2  0  0  0  0  0  0  0  0  0
  148.0770  141.4058  153.4777 C   0  0  0  0  0  0  0  0  0  0  0  0
  149.7606  139.8244  154.5640 C   0  0  0  0  0  0  0  0  0  0  0  0
  154.2154  139.2387  159.8123 H   0  0  0  0  0  0  0  0  0  0  0  0
  153.6564  138.1518  158.5480 H   0  0  0  0  0  0  0  0  0  0  0  0
  152.6107  138.5195  159.9183 H   0  0  0  0  0  0  0  0  0  0  0  0
  153.5457  140.4975  157.7905 H   0  0  0  0  0  0  0  0  0  0  0  0
  151.4391  141.0324  159.9484 H   0  0  0  0  0  0  0  0  0  0  0  0
  153.1296  141.4347  160.1741 H   0  0  0  0  0  0  0  0  0  0  0  0
  153.6632  143.8097  159.6286 H   0  0  0  0  0  0  0  0  0  0  0  0
  152.5362  145.6947  157.9101 H   0  0  0  0  0  0  0  0  0  0  0  0
  150.5108  142.0036  157.4433 H   0  0  0  0  0  0  0  0  0  0  0  0
  150.8377  139.2979  158.2001 H   0  0  0  0  0  0  0  0  0  0  0  0
  148.7296  137.9865  156.1062 H   0  0  0  0  0  0  0  0  0  0  0  0
  149.4809  138.4019  157.6147 H   0  0  0  0  0  0  0  0  0  0  0  0
  148.5517  140.7478  157.4404 H   0  0  0  0  0  0  0  0  0  0  0  0
  147.1791  139.0410  158.6458 H   0  0  0  0  0  0  0  0  0  0  0  0
  146.4012  138.5891  157.1294 H   0  0  0  0  0  0  0  0  0  0  0  0
  146.1557  140.1988  157.8013 H   0  0  0  0  0  0  0  0  0  0  0  0
  149.1592  141.7766  155.2937 H   0  0  0  0  0  0  0  0  0  0  0  0
  148.8324  141.8312  152.8166 H   0  0  0  0  0  0  0  0  0  0  0  0
  147.3269  142.1749  153.6632 H   0  0  0  0  0  0  0  0  0  0  0  0
  147.5903  140.5869  152.9471 H   0  0  0  0  0  0  0  0  0  0  0  0
  150.5536  140.1897  153.9096 H   0  0  0  0  0  0  0  0  0  0  0  0
  149.3190  138.9700  154.0491 H   0  0  0  0  0  0  0  0  0  0  0  0
  150.6926  144.4415  156.7084 H   0  0  0  0  0  0  0  0  0  0  0  0
  1  2  1  0  0  0  0
  1 20  1  0  0  0  0
  1 21  1  0  0  0  0
  1 22  1  0  0  0  0
  2  3  1  0  0  0  0
  2  9  1  0  0  0  0
  2 23  1  0  0  0  0
  3  4  1  0  0  0  0
  3 24  1  0  0  0  0
  3 25  1  0  0  0  0
  4  8  1  0  0  0  0
  4  5  1  0  0  0  0
  5  6  2  0  0  0  0
  5 26  1  0  0  0  0
  6  7  1  0  0  0  0
  6 27  1  0  0  0  0
  7  8  2  0  0  0  0
  7 42  1  0  0  0  0
  8 28  1  0  0  0  0
  9 10  1  0  0  0  0
  9 29  1  0  0  0  0
 10 11  2  0  0  0  0
 10 12  1  0  0  0  0
 12 19  1  0  0  0  0
 12 13  1  0  0  0  0
 13 14  1  0  0  0  0
 13 30  1  0  0  0  0
 13 31  1  0  0  0  0
 14 15  1  0  0  0  0
 14 16  1  0  0  0  0
 14 32  1  0  0  0  0
 15 33  1  0  0  0  0
 15 34  1  0  0  0  0
 15 35  1  0  0  0  0
 16 17  1  0  0  0  0
 17 18  1  0  0  0  0
 17 19  1  0  0  0  0
 17 36  1  0  0  0  0
 18 37  1  0  0  0  0
 18 38  1  0  0  0  0
 18 39  1  0  0  0  0
 19 40  1  0  0  0  0
 19 41  1  0  0  0  0
M  CHG  1   7   1
M  END
> <s_m_source_file>
AV-unprocessed.smi

> <i_m_source_file_index>
1419

> <i_lp_mmshare_version>
43012

> <i_f3d_flags>
0

> <s_epik_input>
W2NIXTFuW2NIXVtjSF1uMVtDSDJdW0NAQEhdKFtDSDNdKVtOSF1DKD1PKU4yW0NIMl1bQ0BASF0oW0NIM10pT1tDQEBIXShbQ0gzXSlbQ0gyXTI=

> <s_epik_cmdline>
J2VwaWtfcHl0aG9uJywgJy1waCcsICc3LjAnLCAnLXRuJywgJzgnLCAnLW1hJywgJzIwMCcsICctbWV0YWxfYmluZGluZycsICctaW1hZScsICc8aW5maWxlLm1hZT4nLCAnLW9tYWUnLCAnPG91dGZpbGUubWFlPic=

> <r_lp_tautomer_probability>
1

> <r_epik_Ionization_Penalty>
0.253607

> <r_epik_Ionization_Penalty_Charging>
0

> <r_epik_Ionization_Penalty_Neutral>
0.253607

> <r_epik_State_Penalty>
0.245018

> <r_epik_Charging_Adjusted_Penalty>
0.245018

> <i_epik_Tot_Q>
1

> <i_epik_Tot_abs_Q>
1

> <r_epik_Metal_State_Penalty>
0.535379

> <b_epik_Metal_Only>
0

> <s_lp_Force_Field>
OPLS_2005

> <r_lp_Energy>
29.0063

> <b_lp_Chiralities_Consistent>
1

> <s_lp_Variant>
AV-unprocessed.smi:1419-1

> <Gold.Version>
5.8.1

> <Gold.Id.Protein>
6NUR|6NUR_protein|mol2

> <Gold.PLP.Fitness>
41.2456

> <Gold.PLP.PLP>
-32.1544

> <Gold.PLP.part.hbond>
-3.0000

> <Gold.PLP.part.metal>
0.0000

> <Gold.PLP.part.buried>
0.0877

> <Gold.PLP.part.nonpolar>
-27.7482

> <Gold.PLP.part.repulsive>
0.1085

> <Gold.PLP.ligand.clash>
0.0000

> <Gold.PLP.ligand.torsion>
0.2215

> <Gold.PLP.Chemscore.Hbond>
3.1505

> <Gold.PLP.Chemscore.CHOScore>
0.0000

> <Gold.PLP.Chemscore.Metal>
0.0000

> <Gold.Chemscore.Hbonds>
donor molecule, donor type, donor heavy atom, donor atom, acceptor molecule, acceptor atom, score
      L1  H     7    42       P1  8028  1.79
      P1  H  7989  7998       L1    11  0.18
      P1  H  7997  8010       L1    11  0.94

> <Gold.PLP.Chemscore.Internal.Correction>
0.0827

> <Gold.Rescore>
     Score         DG    S(hbond)    S(metal)    S(lipo)     H(rot)  DE(clash)    DE(int)     intcor
     15.71     -16.37       1.91        0.00      74.20       1.63       0.44       0.22       ----

> <Gold.Chemscore.Fitness>
15.7133

> <Gold.Chemscore.DG>
-16.3744

> <Gold.Chemscore.ZeroCoef>
-5.4800

> <Gold.Chemscore.Hbond>
1.9099

> <Gold.Chemscore.Metal>
0.0000

> <Gold.Chemscore.Lipo>
74.1974

> <Gold.Chemscore.Internal_Hbond>
0.0000

> <Gold.Chemscore.DEClash>
0.4434

> <Gold.Chemscore.DEInternal>
0.2177

> <Gold.Chemscore.Rot>
1.6273

> <Gold.Chemscore.Internal.Correction>
   9.000000E+99

> <Gold.Chemscore.Hbonds>
donor molecule, donor type, donor heavy atom, donor atom, acceptor molecule, acceptor atom, score
      L1  H     7    42       P1  8028  0.82
      P1  H  7989  7998       L1    11  0.16
      P1  H  7997  8010       L1    11  0.89

> <Gold.Chemscore.Hbond.Weighted>
-6.3791

> <Gold.Chemscore.Metal.Weighted>
-0.0000

> <Gold.Chemscore.Lipo.Weighted>
-8.6811

> <Gold.Chemscore.Internal_Hbond.Weighted>
0.0000

> <Gold.Chemscore.DEClash.Weighted>
0.4434

> <Gold.Chemscore.DEInternal.Weighted>
0.2177

> <Gold.Chemscore.Rot.Weighted>
4.1658

> <Gold.Chemscore.Internal.Correction.Weighted>
   9.000000E+99

> <Gold.Protein.RotatedTorsions>
[ 6907 6896 6895 6894 ] final  103.02 input  -60.11 | X-H torsion
[ 7974 7965 7964 7962 ] final   71.96 input  175.53 | X-H torsion
[ 8008 7997 7996 7995 ] final   89.38 input   59.86 | X-H torsion
[ 10167 10162 10161 10158 ] final   -4.06 input  -65.29 | X-H torsion
[ 10718 10713 10712 10709 ] final  -74.85 input   66.30 | X-H torsion
[ 10763 10752 10751 10750 ] final  172.29 input  -60.55 | X-H torsion
[ 11005 11000 10999 10996 ] final   38.79 input  -57.11 | X-H torsion

> <Gold.Protein.ActiveResidues>
 VAL166  LYS551  ARG553  GLY616  TRP617  ASP618  TYR619  PRO620  LYS621  CYS622 
 ASP623  PHE694  ASN695  SER759  ASP760  ASP761  ALA762  ILE779  LEU786  VAL792 
 PHE793  MET794  SER795  GLU796  ALA797  LYS798  CYS799  TRP800  GLU811  SER814 

> <Gold.Protein.RotatedAtoms>
  152.5307  133.9888  159.7840 H   0  0  0  0  0  0  0  0  0  0  0  0  # atno 6907 bound_to 6896
  151.0128  133.5941  159.2687 H   0  0  0  0  0  0  0  0  0  0  0  0  # atno 6908 bound_to 6896
  151.3010  135.0775  159.9292 H   0  0  0  0  0  0  0  0  0  0  0  0  # atno 6909 bound_to 6896
  145.7593  139.2793  143.1386 H   0  0  0  0  0  0  0  0  0  0  0  0  # atno 7974 bound_to 7965
  155.9993  140.3361  155.6829 H   0  0  0  0  0  0  0  0  0  0  0  0  # atno 8008 bound_to 7997
  155.6313  140.0685  157.2666 H   0  0  0  0  0  0  0  0  0  0  0  0  # atno 8009 bound_to 7997
  154.4244  140.1759  156.1462 H   0  0  0  0  0  0  0  0  0  0  0  0  # atno 8010 bound_to 7997
  140.6913  143.6468  150.8386 H   0  0  0  0  0  0  0  0  0  0  0  0  # atno 10167 bound_to 10162
  156.0228  130.4427  150.2954 H   0  0  0  0  0  0  0  0  0  0  0  0  # atno 10718 bound_to 10713
  154.4240  135.2758  155.1957 H   0  0  0  0  0  0  0  0  0  0  0  0  # atno 10763 bound_to 10752
  154.3891  135.6070  153.5836 H   0  0  0  0  0  0  0  0  0  0  0  0  # atno 10764 bound_to 10752
  152.9834  135.5899  154.4540 H   0  0  0  0  0  0  0  0  0  0  0  0  # atno 10765 bound_to 10752
  140.2091  134.3776  155.8058 H   0  0  0  0  0  0  0  0  0  0  0  0  # atno 11005 bound_to 11000
  146.0280  140.8285  142.9890 LP  0  0  0  0  0  0  0  0  0  0  0  0  # atno 17320 bound_to 7965
  144.6834  140.2727  143.7303 LP  0  0  0  0  0  0  0  0  0  0  0  0  # atno 17321 bound_to 7965
  140.0181  143.5572  152.2812 LP  0  0  0  0  0  0  0  0  0  0  0  0  # atno 17342 bound_to 10162
  139.6320  144.7645  151.2517 LP  0  0  0  0  0  0  0  0  0  0  0  0  # atno 17343 bound_to 10162
  157.1057  131.0208  151.3068 LP  0  0  0  0  0  0  0  0  0  0  0  0  # atno 17370 bound_to 10713
  157.4744  130.7728  149.7354 LP  0  0  0  0  0  0  0  0  0  0  0  0  # atno 17371 bound_to 10713
  141.2226  133.7134  156.8388 LP  0  0  0  0  0  0  0  0  0  0  0  0  # atno 17394 bound_to 11000
  140.1970  134.8924  157.3126 LP  0  0  0  0  0  0  0  0  0  0  0  0  # atno 17395 bound_to 11000

$$$$
