AV-unprocessed.smi:424|AV-procd|sdf|2539|dock3
  -GOLD-   2262022503D 1   1.00000     0.00000
 Structure written by MMmdl.
 34 35  0  0  0  0  0  0  0  0  1 V2000
  146.5151  138.7090  152.0180 C   0  0  0  0  0  0  0  0  0  0  0  0
  146.8906  140.1916  152.1737 C   0  0  0  0  0  0  0  0  0  0  0  0
  147.5335  140.5291  153.5238 C   0  0  0  0  0  0  0  0  0  0  0  0
  146.8565  141.0082  154.4335 O   0  0  0  0  0  0  0  0  0  0  0  0
  148.8540  140.2815  153.6021 N   0  0  0  0  0  0  0  0  0  0  0  0
  149.7362  140.4655  154.7021 C   0  0  0  0  0  0  0  0  0  0  0  0
  150.8188  139.6111  155.0158 C   0  0  0  0  0  0  0  0  0  0  0  0
  151.6316  139.9179  156.1239 C   0  0  0  0  0  0  0  0  0  0  0  0
  151.3517  141.0729  156.8915 C   0  0  0  0  0  0  0  0  0  0  0  0
  152.1566  141.3995  158.0046 N   0  0  0  0  0  0  0  0  0  0  0  0
  152.2655  140.3695  159.0349 C   0  0  0  0  0  0  0  0  0  0  0  0
  153.3988  140.7118  160.0178 C   0  0  0  0  0  0  0  0  0  0  0  0
  153.1981  142.0154  160.5541 O   0  0  0  0  0  0  0  0  0  0  0  0
  153.2114  143.0126  159.5384 C   0  0  0  0  0  0  0  0  0  0  0  0
  152.0649  142.7542  158.5463 C   0  0  0  0  0  0  0  0  0  0  0  0
  150.3235  141.8984  156.5772 N   0  0  0  0  0  0  0  0  0  0  0  0
  149.5462  141.6003  155.5154 C   0  0  0  0  0  0  0  0  0  0  0  0
  146.0802  138.5237  151.0358 H   0  0  0  0  0  0  0  0  0  0  0  0
  145.7812  138.4031  152.7646 H   0  0  0  0  0  0  0  0  0  0  0  0
  147.3885  138.0631  152.1179 H   0  0  0  0  0  0  0  0  0  0  0  0
  147.5811  140.4745  151.3781 H   0  0  0  0  0  0  0  0  0  0  0  0
  145.9996  140.8075  152.0492 H   0  0  0  0  0  0  0  0  0  0  0  0
  149.2907  139.9613  152.7499 H   0  0  0  0  0  0  0  0  0  0  0  0
  151.0567  138.7408  154.4248 H   0  0  0  0  0  0  0  0  0  0  0  0
  152.4690  139.2775  156.3569 H   0  0  0  0  0  0  0  0  0  0  0  0
  151.3163  140.3055  159.5685 H   0  0  0  0  0  0  0  0  0  0  0  0
  152.4545  139.3865  158.6063 H   0  0  0  0  0  0  0  0  0  0  0  0
  153.4162  139.9911  160.8353 H   0  0  0  0  0  0  0  0  0  0  0  0
  154.3704  140.6560  159.5242 H   0  0  0  0  0  0  0  0  0  0  0  0
  153.0946  143.9930  160.0004 H   0  0  0  0  0  0  0  0  0  0  0  0
  154.1755  143.0143  159.0271 H   0  0  0  0  0  0  0  0  0  0  0  0
  152.1129  143.4883  157.7409 H   0  0  0  0  0  0  0  0  0  0  0  0
  151.1035  142.8789  159.0464 H   0  0  0  0  0  0  0  0  0  0  0  0
  148.7434  142.2937  155.3109 H   0  0  0  0  0  0  0  0  0  0  0  0
  1  2  1  0  0  0  0
  1 18  1  0  0  0  0
  1 19  1  0  0  0  0
  1 20  1  0  0  0  0
  2  3  1  0  0  0  0
  2 21  1  0  0  0  0
  2 22  1  0  0  0  0
  3  4  2  0  0  0  0
  3  5  1  0  0  0  0
  5  6  1  0  0  0  0
  5 23  1  0  0  0  0
  6 17  1  0  0  0  0
  6  7  2  0  0  0  0
  7  8  1  0  0  0  0
  7 24  1  0  0  0  0
  8  9  2  0  0  0  0
  8 25  1  0  0  0  0
  9 10  1  0  0  0  0
  9 16  1  0  0  0  0
 10 15  1  0  0  0  0
 10 11  1  0  0  0  0
 11 12  1  0  0  0  0
 11 26  1  0  0  0  0
 11 27  1  0  0  0  0
 12 13  1  0  0  0  0
 12 28  1  0  0  0  0
 12 29  1  0  0  0  0
 13 14  1  0  0  0  0
 14 15  1  0  0  0  0
 14 30  1  0  0  0  0
 14 31  1  0  0  0  0
 15 32  1  0  0  0  0
 15 33  1  0  0  0  0
 16 17  2  0  0  0  0
 17 34  1  0  0  0  0
M  END
> <s_m_source_file>
AV-unprocessed.smi

> <i_m_source_file_index>
424

> <i_lp_mmshare_version>
43012

> <i_f3d_flags>
0

> <s_epik_input>
W0NIM11bQ0gyXUMoPU8pW05IXWMxW2NIXVtjSF1jKG5bY0hdMSlOMltDSDJdW0NIMl1PW0NIMl1bQ0gyXTI=

> <s_epik_cmdline>
J2VwaWtfcHl0aG9uJywgJy1waCcsICc3LjAnLCAnLXRuJywgJzgnLCAnLW1hJywgJzIwMCcsICctbWV0YWxfYmluZGluZycsICctaW1hZScsICc8aW5maWxlLm1hZT4nLCAnLW9tYWUnLCAnPG91dGZpbGUubWFlPic=

> <r_lp_tautomer_probability>
1

> <r_epik_Ionization_Penalty>
0.000622595

> <r_epik_Ionization_Penalty_Charging>
0

> <r_epik_Ionization_Penalty_Neutral>
0.000622595

> <r_epik_State_Penalty>
0.000387388

> <r_epik_Charging_Adjusted_Penalty>
0.000387388

> <i_epik_Tot_Q>
0

> <i_epik_Tot_abs_Q>
0

> <r_epik_Metal_State_Penalty>
-0

> <b_epik_Metal_Only>
0

> <s_lp_Force_Field>
OPLS_2005

> <r_lp_Energy>
21.9993

> <b_lp_Chiralities_Consistent>
1

> <s_lp_Variant>
AV-unprocessed.smi:424-1

> <Gold.Version>
5.8.1

> <Gold.Id.Protein>
6NUR|6NUR_protein|mol2

> <Gold.PLP.Fitness>
38.0267

> <Gold.PLP.PLP>
-33.5666

> <Gold.PLP.part.hbond>
-1.0000

> <Gold.PLP.part.metal>
0.0000

> <Gold.PLP.part.buried>
1.1837

> <Gold.PLP.part.nonpolar>
-33.0149

> <Gold.PLP.part.repulsive>
0.3825

> <Gold.PLP.ligand.clash>
0.0000

> <Gold.PLP.ligand.torsion>
0.8038

> <Gold.PLP.Chemscore.Hbond>
1.0000

> <Gold.PLP.Chemscore.CHOScore>
0.9054

> <Gold.PLP.Chemscore.Metal>
0.0000

> <Gold.Chemscore.Hbonds>
donor molecule, donor type, donor heavy atom, donor atom, acceptor molecule, acceptor atom, score
      L1  H     5    23       P1  7957  1.00
      L1  C    17    34       P1  8028  0.90

> <Gold.PLP.Chemscore.Internal.Correction>
0.3514

> <Gold.Rescore>
     Score         DG    S(hbond)    S(metal)    S(lipo)     H(rot)  DE(clash)    DE(int)     intcor
     12.91     -15.34       0.90        0.00      84.67       1.18       0.51       1.92       ----

> <Gold.Chemscore.Fitness>
12.9119

> <Gold.Chemscore.DG>
-15.3440

> <Gold.Chemscore.ZeroCoef>
-5.4800

> <Gold.Chemscore.Hbond>
0.8955

> <Gold.Chemscore.Metal>
0.0000

> <Gold.Chemscore.Lipo>
84.6682

> <Gold.Chemscore.Internal_Hbond>
0.0000

> <Gold.Chemscore.DEClash>
0.5138

> <Gold.Chemscore.DEInternal>
1.9183

> <Gold.Chemscore.Rot>
1.1848

> <Gold.Chemscore.Internal.Correction>
   9.000000E+99

> <Gold.Chemscore.Hbonds>
donor molecule, donor type, donor heavy atom, donor atom, acceptor molecule, acceptor atom, score
      L1  H     5    23       P1  7957  0.97

> <Gold.Chemscore.Hbond.Weighted>
-2.9909

> <Gold.Chemscore.Metal.Weighted>
-0.0000

> <Gold.Chemscore.Lipo.Weighted>
-9.9062

> <Gold.Chemscore.Internal_Hbond.Weighted>
0.0000

> <Gold.Chemscore.DEClash.Weighted>
0.5138

> <Gold.Chemscore.DEInternal.Weighted>
1.9183

> <Gold.Chemscore.Rot.Weighted>
3.0331

> <Gold.Chemscore.Internal.Correction.Weighted>
   9.000000E+99

> <Gold.Protein.RotatedTorsions>
[ 6907 6896 6895 6894 ] final   83.57 input  -60.11 | X-H torsion
[ 7974 7965 7964 7962 ] final   78.83 input  175.53 | X-H torsion
[ 8008 7997 7996 7995 ] final  -85.64 input   59.86 | X-H torsion
[ 10167 10162 10161 10158 ] final   50.26 input  -65.29 | X-H torsion
[ 10718 10713 10712 10709 ] final   55.88 input   66.30 | X-H torsion
[ 10763 10752 10751 10750 ] final  141.51 input  -60.55 | X-H torsion
[ 11005 11000 10999 10996 ] final  153.31 input  -57.11 | X-H torsion

> <Gold.Protein.ActiveResidues>
 VAL166  LYS551  ARG553  GLY616  TRP617  ASP618  TYR619  PRO620  LYS621  CYS622 
 ASP623  PHE694  ASN695  SER759  ASP760  ASP761  ALA762  ILE779  LEU786  VAL792 
 PHE793  MET794  SER795  GLU796  ALA797  LYS798  CYS799  TRP800  GLU811  SER814 

> <Gold.Protein.RotatedAtoms>
  152.5330  134.2875  159.9030 H   0  0  0  0  0  0  0  0  0  0  0  0  # atno 6907 bound_to 6896
  151.2828  133.4195  159.2635 H   0  0  0  0  0  0  0  0  0  0  0  0  # atno 6908 bound_to 6896
  151.0269  134.9526  159.8146 H   0  0  0  0  0  0  0  0  0  0  0  0  # atno 6909 bound_to 6896
  145.6720  139.2499  143.1863 H   0  0  0  0  0  0  0  0  0  0  0  0  # atno 7974 bound_to 7965
  154.6430  140.0589  156.9867 H   0  0  0  0  0  0  0  0  0  0  0  0  # atno 8008 bound_to 7997
  155.1488  140.3272  155.4417 H   0  0  0  0  0  0  0  0  0  0  0  0  # atno 8009 bound_to 7997
  156.2540  140.1951  156.6601 H   0  0  0  0  0  0  0  0  0  0  0  0  # atno 8010 bound_to 7997
  140.2742  144.3230  150.6281 H   0  0  0  0  0  0  0  0  0  0  0  0  # atno 10167 bound_to 10162
  157.5383  130.8679  149.8785 H   0  0  0  0  0  0  0  0  0  0  0  0  # atno 10718 bound_to 10713
  153.9404  135.2980  155.3443 H   0  0  0  0  0  0  0  0  0  0  0  0  # atno 10763 bound_to 10752
  154.7480  135.4994  153.9241 H   0  0  0  0  0  0  0  0  0  0  0  0  # atno 10764 bound_to 10752
  153.1045  135.6743  153.9718 H   0  0  0  0  0  0  0  0  0  0  0  0  # atno 10765 bound_to 10752
  140.1386  134.8754  157.2301 H   0  0  0  0  0  0  0  0  0  0  0  0  # atno 11005 bound_to 11000
  146.1037  140.7513  142.9537 LP  0  0  0  0  0  0  0  0  0  0  0  0  # atno 17320 bound_to 7965
  144.7054  140.3828  143.7123 LP  0  0  0  0  0  0  0  0  0  0  0  0  # atno 17321 bound_to 7965
  140.5864  143.2170  151.7333 LP  0  0  0  0  0  0  0  0  0  0  0  0  # atno 17342 bound_to 10162
  139.4980  144.4004  152.0187 LP  0  0  0  0  0  0  0  0  0  0  0  0  # atno 17343 bound_to 10162
  156.0476  130.3724  150.1279 LP  0  0  0  0  0  0  0  0  0  0  0  0  # atno 17370 bound_to 10713
  156.9461  130.9760  151.3507 LP  0  0  0  0  0  0  0  0  0  0  0  0  # atno 17371 bound_to 10713
  140.2751  134.3415  155.7361 LP  0  0  0  0  0  0  0  0  0  0  0  0  # atno 17394 bound_to 11000
  141.2182  133.7445  156.9280 LP  0  0  0  0  0  0  0  0  0  0  0  0  # atno 17395 bound_to 11000

$$$$
