AV-unprocessed.smi:3306|AV-procd|sdf|12703|dock3
  -GOLD-   2272019 33D 1   1.00000     0.00000
 Structure written by MMmdl.
 44 45  0  0  0  0  0  0  0  0  2 V2000
  151.2201  140.4205  157.6953 C   0  0  0  0  0  0  0  0  0  0  0  0
  151.4972  141.1262  156.3488 C   0  0  0  0  0  0  0  0  0  0  0  0
  151.1914  142.6306  156.5241 C   0  0  0  0  0  0  0  0  0  0  0  0
  150.7175  140.5274  155.2441 N   0  0  0  0  0  0  0  0  0  0  0  0
  149.3260  141.0068  155.2515 C   0  0  0  0  0  0  0  0  0  0  0  0
  148.5365  140.4570  154.0511 C   0  0  0  0  0  0  0  0  0  0  0  0
  148.5092  138.9254  154.0609 C   0  0  0  0  0  0  0  0  0  0  0  0
  147.8090  138.4193  152.8595 N   0  3  0  0  0  0  0  0  0  0  0  0
  146.3373  138.3453  152.9708 C   0  0  0  0  0  0  0  0  0  0  0  0
  145.7882  137.1428  152.1910 C   0  0  0  0  0  0  0  0  0  0  0  0
  144.4337  136.6935  152.7053 C   0  0  0  0  0  0  0  0  0  0  0  0
  143.4189  137.6341  152.9830 C   0  0  0  0  0  0  0  0  0  0  0  0
  142.1811  137.1628  153.4624 C   0  0  0  0  0  0  0  0  0  0  0  0
  142.0078  135.7775  153.6458 C   0  0  0  0  0  0  0  0  0  0  0  0
  143.0843  134.9209  153.3411 C   0  0  0  0  0  0  0  0  0  0  0  0
  144.2758  135.3625  152.8827 N   0  0  0  0  0  0  0  0  0  0  0  0
  149.9594  138.4280  154.1393 C   0  0  0  0  0  0  0  0  0  0  0  0
  150.6974  139.0585  155.3336 C   0  0  0  0  0  0  0  0  0  0  0  0
  151.6723  140.9668  158.5237 H   0  0  0  0  0  0  0  0  0  0  0  0
  151.6446  139.4183  157.7387 H   0  0  0  0  0  0  0  0  0  0  0  0
  150.1506  140.3500  157.8969 H   0  0  0  0  0  0  0  0  0  0  0  0
  152.5601  141.0220  156.1240 H   0  0  0  0  0  0  0  0  0  0  0  0
  151.6432  143.0183  157.4378 H   0  0  0  0  0  0  0  0  0  0  0  0
  150.1186  142.8158  156.5873 H   0  0  0  0  0  0  0  0  0  0  0  0
  151.5982  143.2365  155.7153 H   0  0  0  0  0  0  0  0  0  0  0  0
  148.8386  140.7298  156.1876 H   0  0  0  0  0  0  0  0  0  0  0  0
  149.2872  142.0918  155.1799 H   0  0  0  0  0  0  0  0  0  0  0  0
  147.5185  140.8481  154.0746 H   0  0  0  0  0  0  0  0  0  0  0  0
  148.9860  140.8199  153.1251 H   0  0  0  0  0  0  0  0  0  0  0  0
  147.9628  138.5960  154.9462 H   0  0  0  0  0  0  0  0  0  0  0  0
  148.0227  139.0457  152.0965 H   0  0  0  0  0  0  0  0  0  0  0  0
  146.0524  138.2647  154.0200 H   0  0  0  0  0  0  0  0  0  0  0  0
  145.8982  139.2663  152.5849 H   0  0  0  0  0  0  0  0  0  0  0  0
  145.7045  137.3911  151.1321 H   0  0  0  0  0  0  0  0  0  0  0  0
  146.4847  136.3052  152.2550 H   0  0  0  0  0  0  0  0  0  0  0  0
  143.5811  138.6914  152.8340 H   0  0  0  0  0  0  0  0  0  0  0  0
  141.3793  137.8511  153.6855 H   0  0  0  0  0  0  0  0  0  0  0  0
  141.0721  135.3805  154.0113 H   0  0  0  0  0  0  0  0  0  0  0  0
  142.9861  133.8531  153.4700 H   0  0  0  0  0  0  0  0  0  0  0  0
  149.9870  137.3431  154.2406 H   0  0  0  0  0  0  0  0  0  0  0  0
  150.4896  138.6671  153.2159 H   0  0  0  0  0  0  0  0  0  0  0  0
  151.7076  138.6540  155.3243 H   0  0  0  0  0  0  0  0  0  0  0  0
  150.2371  138.7476  156.2730 H   0  0  0  0  0  0  0  0  0  0  0  0
  148.1708  137.5040  152.6320 H   0  0  0  0  0  0  0  0  0  0  0  0
  1  2  1  0  0  0  0
  1 19  1  0  0  0  0
  1 20  1  0  0  0  0
  1 21  1  0  0  0  0
  2  3  1  0  0  0  0
  2  4  1  0  0  0  0
  2 22  1  0  0  0  0
  3 23  1  0  0  0  0
  3 24  1  0  0  0  0
  3 25  1  0  0  0  0
  4 18  1  0  0  0  0
  4  5  1  0  0  0  0
  5  6  1  0  0  0  0
  5 26  1  0  0  0  0
  5 27  1  0  0  0  0
  6  7  1  0  0  0  0
  6 28  1  0  0  0  0
  6 29  1  0  0  0  0
  7  8  1  0  0  0  0
  7 17  1  0  0  0  0
  7 30  1  0  0  0  0
  8  9  1  0  0  0  0
  8 31  1  0  0  0  0
  8 44  1  0  0  0  0
  9 10  1  0  0  0  0
  9 32  1  0  0  0  0
  9 33  1  0  0  0  0
 10 11  1  0  0  0  0
 10 34  1  0  0  0  0
 10 35  1  0  0  0  0
 11 16  1  0  0  0  0
 11 12  2  0  0  0  0
 12 13  1  0  0  0  0
 12 36  1  0  0  0  0
 13 14  2  0  0  0  0
 13 37  1  0  0  0  0
 14 15  1  0  0  0  0
 14 38  1  0  0  0  0
 15 16  2  0  0  0  0
 15 39  1  0  0  0  0
 17 18  1  0  0  0  0
 17 40  1  0  0  0  0
 17 41  1  0  0  0  0
 18 42  1  0  0  0  0
 18 43  1  0  0  0  0
M  CHG  1   8   1
M  END
> <s_m_source_file>
AV-unprocessed.smi

> <i_m_source_file_index>
3306

> <i_lp_mmshare_version>
43012

> <i_f3d_flags>
0

> <s_epik_input>
W0NIM11bQ0hdKFtDSDNdKU4xW0NIMl1bQ0gyXVtDSF0oW0NIMl1bQ0gyXTEpW05IXVtDSDJdW0NIMl1jMltjSF1bY0hdW2NIXVtjSF1uMg==

> <s_epik_cmdline>
J2VwaWtfcHl0aG9uJywgJy1waCcsICc3LjAnLCAnLXRuJywgJzgnLCAnLW1hJywgJzIwMCcsICctbWV0YWxfYmluZGluZycsICctaW1hZScsICc8aW5maWxlLm1hZT4nLCAnLW9tYWUnLCAnPG91dGZpbGUubWFlPic=

> <r_epik_Ionization_Penalty>
1.34673

> <r_epik_Ionization_Penalty_Charging>
0.000531593

> <r_epik_Ionization_Penalty_Neutral>
1.3462

> <r_epik_State_Penalty>
1.43277

> <r_epik_Charging_Adjusted_Penalty>
1.4333

> <i_epik_Tot_Q>
1

> <i_epik_Tot_abs_Q>
1

> <r_epik_Metal_State_Penalty>
1.43418

> <b_epik_Metal_Only>
0

> <s_lp_Force_Field>
OPLS_2005

> <r_lp_Energy>
21.3297

> <b_lp_Chiralities_Consistent>
1

> <s_lp_Variant>
AV-unprocessed.smi:3306-3

> <Gold.Version>
5.8.1

> <Gold.Id.Protein>
6NUR|6NUR_protein|mol2

> <Gold.PLP.Fitness>
43.3258

> <Gold.PLP.PLP>
-31.2637

> <Gold.PLP.part.hbond>
-3.0000

> <Gold.PLP.part.metal>
0.0000

> <Gold.PLP.part.buried>
-1.2457

> <Gold.PLP.part.nonpolar>
-27.5139

> <Gold.PLP.part.repulsive>
0.2010

> <Gold.PLP.ligand.clash>
0.0000

> <Gold.PLP.ligand.torsion>
1.1201

> <Gold.PLP.Chemscore.Hbond>
3.7524

> <Gold.PLP.Chemscore.CHOScore>
1.0000

> <Gold.PLP.Chemscore.Metal>
0.0000

> <Gold.Chemscore.Hbonds>
donor molecule, donor type, donor heavy atom, donor atom, acceptor molecule, acceptor atom, score
      L1  H     8    31       P1  7957  0.79
      L1  H     8    44       P1  7948  2.00
      P1  H  7989  7998       L1     4  0.98
      L1  C    15    39       P1 10957  1.00

> <Gold.PLP.Chemscore.Internal.Correction>
0.0452

> <Gold.Rescore>
     Score         DG    S(hbond)    S(metal)    S(lipo)     H(rot)  DE(clash)    DE(int)     intcor
     16.16     -18.73       2.02        0.00      86.39       1.41       1.38       1.19       ----

> <Gold.Chemscore.Fitness>
16.1644

> <Gold.Chemscore.DG>
-18.7291

> <Gold.Chemscore.ZeroCoef>
-5.4800

> <Gold.Chemscore.Hbond>
2.0216

> <Gold.Chemscore.Metal>
0.0000

> <Gold.Chemscore.Lipo>
86.3948

> <Gold.Chemscore.Internal_Hbond>
0.0000

> <Gold.Chemscore.DEClash>
1.3793

> <Gold.Chemscore.DEInternal>
1.1854

> <Gold.Chemscore.Rot>
1.4106

> <Gold.Chemscore.Internal.Correction>
   9.000000E+99

> <Gold.Chemscore.Hbonds>
donor molecule, donor type, donor heavy atom, donor atom, acceptor molecule, acceptor atom, score
      L1  H     8    31       P1  7957  0.74
      L1  H     8    44       P1  7948  1.00
      P1  H  7989  7998       L1     4  0.25

> <Gold.Chemscore.Hbond.Weighted>
-6.7521

> <Gold.Chemscore.Metal.Weighted>
-0.0000

> <Gold.Chemscore.Lipo.Weighted>
-10.1082

> <Gold.Chemscore.Internal_Hbond.Weighted>
0.0000

> <Gold.Chemscore.DEClash.Weighted>
1.3793

> <Gold.Chemscore.DEInternal.Weighted>
1.1854

> <Gold.Chemscore.Rot.Weighted>
3.6112

> <Gold.Chemscore.Internal.Correction.Weighted>
   9.000000E+99

> <Gold.Protein.RotatedTorsions>
[ 6907 6896 6895 6894 ] final  179.14 input  -60.11 | X-H torsion
[ 7974 7965 7964 7962 ] final   38.19 input  175.53 | X-H torsion
[ 8008 7997 7996 7995 ] final   35.58 input   59.86 | X-H torsion
[ 10167 10162 10161 10158 ] final -113.94 input  -65.29 | X-H torsion
[ 10718 10713 10712 10709 ] final   -1.47 input   66.30 | X-H torsion
[ 10763 10752 10751 10750 ] final  127.94 input  -60.55 | X-H torsion
[ 11005 11000 10999 10996 ] final -141.57 input  -57.11 | X-H torsion

> <Gold.Protein.ActiveResidues>
 VAL166  LYS551  ARG553  GLY616  TRP617  ASP618  TYR619  PRO620  LYS621  CYS622 
 ASP623  PHE694  ASN695  SER759  ASP760  ASP761  ALA762  ILE779  LEU786  VAL792 
 PHE793  MET794  SER795  GLU796  ALA797  LYS798  CYS799  TRP800  GLU811  SER814 

> <Gold.Protein.RotatedAtoms>
  151.6765  133.3313  159.3208 H   0  0  0  0  0  0  0  0  0  0  0  0  # atno 6907 bound_to 6896
  150.7843  134.6817  159.6457 H   0  0  0  0  0  0  0  0  0  0  0  0  # atno 6908 bound_to 6896
  152.3908  134.6447  160.0160 H   0  0  0  0  0  0  0  0  0  0  0  0  # atno 6909 bound_to 6896
  146.1080  139.5802  142.9371 H   0  0  0  0  0  0  0  0  0  0  0  0  # atno 7974 bound_to 7965
  155.1735  140.3294  155.4388 H   0  0  0  0  0  0  0  0  0  0  0  0  # atno 8008 bound_to 7997
  156.2502  140.1939  156.6787 H   0  0  0  0  0  0  0  0  0  0  0  0  # atno 8009 bound_to 7997
  154.6321  140.0581  156.9731 H   0  0  0  0  0  0  0  0  0  0  0  0  # atno 8010 bound_to 7997
  140.1064  143.4567  152.1780 H   0  0  0  0  0  0  0  0  0  0  0  0  # atno 10167 bound_to 10162
  156.8051  130.5406  149.5716 H   0  0  0  0  0  0  0  0  0  0  0  0  # atno 10718 bound_to 10713
  153.7175  135.3258  155.3259 H   0  0  0  0  0  0  0  0  0  0  0  0  # atno 10763 bound_to 10752
  154.8366  135.4491  154.1251 H   0  0  0  0  0  0  0  0  0  0  0  0  # atno 10764 bound_to 10752
  153.2362  135.6965  153.7914 H   0  0  0  0  0  0  0  0  0  0  0  0  # atno 10765 bound_to 10752
  140.8311  134.2516  157.4856 H   0  0  0  0  0  0  0  0  0  0  0  0  # atno 11005 bound_to 11000
  145.5721  141.0393  143.2168 LP  0  0  0  0  0  0  0  0  0  0  0  0  # atno 17320 bound_to 7965
  144.7487  139.7250  143.7282 LP  0  0  0  0  0  0  0  0  0  0  0  0  # atno 17321 bound_to 7965
  139.5643  144.7425  151.4066 LP  0  0  0  0  0  0  0  0  0  0  0  0  # atno 17342 bound_to 10162
  140.6950  143.7771  150.7312 LP  0  0  0  0  0  0  0  0  0  0  0  0  # atno 17343 bound_to 10162
  156.1078  130.6017  150.9998 LP  0  0  0  0  0  0  0  0  0  0  0  0  # atno 17370 bound_to 10713
  157.6534  131.0893  150.8001 LP  0  0  0  0  0  0  0  0  0  0  0  0  # atno 17371 bound_to 10713
  139.8705  134.9586  156.4307 LP  0  0  0  0  0  0  0  0  0  0  0  0  # atno 17394 bound_to 11000
  140.8997  133.7788  155.9666 LP  0  0  0  0  0  0  0  0  0  0  0  0  # atno 17395 bound_to 11000

$$$$
