AV-unprocessed.smi:1933|AV-procd|sdf|7815|dock2
  -GOLD-   22720 9553D 1   1.00000     0.00000
 Structure written by MMmdl.
 47 49  0  0  0  0  0  0  0  0  1 V2000
  145.2364  135.9766  154.2183 O   0  0  0  0  0  0  0  0  0  0  0  0
  146.2318  135.9809  153.4936 C   0  0  0  0  0  0  0  0  0  0  0  0
  147.2977  136.7683  153.7006 N   0  0  0  0  0  0  0  0  0  0  0  0
  147.4556  137.7243  154.7938 C   0  0  0  0  0  0  0  0  0  0  0  0
  148.5027  138.8247  154.4736 C   0  0  2  0  0  0  0  0  0  0  0  0
  149.9262  138.4927  155.0096 C   0  0  2  0  0  0  0  0  0  0  0  0
  151.0944  139.3900  154.6458 C   0  0  0  0  0  0  0  0  0  0  0  0
  152.2669  138.5397  155.1227 C   0  0  0  0  0  0  0  0  0  0  0  0
  151.8816  137.1905  154.8686 O   0  0  0  0  0  0  0  0  0  0  0  0
  150.4783  137.1194  154.6217 C   0  0  0  0  0  0  0  0  0  0  0  0
  148.0438  140.2036  154.7364 N   0  0  0  0  0  0  0  0  0  0  0  0
  147.0598  140.6636  153.7590 C   0  0  0  0  0  0  0  0  0  0  0  0
  146.6879  142.1413  153.9750 C   0  0  0  0  0  0  0  0  0  0  0  0
  146.2135  142.3301  155.3041 O   0  0  0  0  0  0  0  0  0  0  0  0
  147.1605  141.9289  156.2888 C   0  0  0  0  0  0  0  0  0  0  0  0
  147.5163  140.4473  156.0817 C   0  0  0  0  0  0  0  0  0  0  0  0
  146.4033  135.2106  152.4049 N   0  0  0  0  0  0  0  0  0  0  0  0
  145.5297  134.2195  151.8831 C   0  0  0  0  0  0  0  0  0  0  0  0
  146.1709  133.0796  151.3469 C   0  0  0  0  0  0  0  0  0  0  0  0
  145.3931  132.0353  150.8099 C   0  0  0  0  0  0  0  0  0  0  0  0
  143.9924  132.1580  150.8226 C   0  0  0  0  0  0  0  0  0  0  0  0
  143.4339  133.3257  151.3743 C   0  0  0  0  0  0  0  0  0  0  0  0
  144.1774  134.3276  151.8897 N   0  0  0  0  0  0  0  0  0  0  0  0
  148.0665  136.7004  153.0500 H   0  0  0  0  0  0  0  0  0  0  0  0
  146.4757  138.1730  154.9555 H   0  0  0  0  0  0  0  0  0  0  0  0
  147.7090  137.2128  155.7237 H   0  0  0  0  0  0  0  0  0  0  0  0
  148.6419  138.7626  153.3930 H   0  0  0  0  0  0  0  0  0  0  0  0
  149.8678  138.4873  156.0987 H   0  0  0  0  0  0  0  0  0  0  0  0
  151.1915  139.5181  153.5710 H   0  0  0  0  0  0  0  0  0  0  0  0
  151.0588  140.3721  155.1166 H   0  0  0  0  0  0  0  0  0  0  0  0
  153.2003  138.7917  154.6188 H   0  0  0  0  0  0  0  0  0  0  0  0
  152.4160  138.6648  156.1960 H   0  0  0  0  0  0  0  0  0  0  0  0
  150.0169  136.3109  155.1892 H   0  0  0  0  0  0  0  0  0  0  0  0
  150.3300  136.9149  153.5610 H   0  0  0  0  0  0  0  0  0  0  0  0
  147.4535  140.5441  152.7490 H   0  0  0  0  0  0  0  0  0  0  0  0
  146.1580  140.0535  153.8176 H   0  0  0  0  0  0  0  0  0  0  0  0
  147.5501  142.7856  153.7959 H   0  0  0  0  0  0  0  0  0  0  0  0
  145.9114  142.4433  153.2722 H   0  0  0  0  0  0  0  0  0  0  0  0
  148.0525  142.5542  156.2253 H   0  0  0  0  0  0  0  0  0  0  0  0
  146.7311  142.0810  157.2790 H   0  0  0  0  0  0  0  0  0  0  0  0
  146.6154  139.8542  156.2429 H   0  0  0  0  0  0  0  0  0  0  0  0
  148.2182  140.1419  156.8503 H   0  0  0  0  0  0  0  0  0  0  0  0
  147.2667  135.3367  151.8980 H   0  0  0  0  0  0  0  0  0  0  0  0
  147.2484  133.0012  151.3455 H   0  0  0  0  0  0  0  0  0  0  0  0
  145.8641  131.1558  150.3967 H   0  0  0  0  0  0  0  0  0  0  0  0
  143.3628  131.3781  150.4206 H   0  0  0  0  0  0  0  0  0  0  0  0
  142.3626  133.4592  151.4035 H   0  0  0  0  0  0  0  0  0  0  0  0
  1  2  2  0  0  0  0
  2  3  1  0  0  0  0
  2 17  1  0  0  0  0
  3  4  1  0  0  0  0
  3 24  1  0  0  0  0
  4  5  1  0  0  0  0
  4 25  1  0  0  0  0
  4 26  1  0  0  0  0
  5  6  1  0  0  0  0
  5 11  1  0  0  0  0
  5 27  1  0  0  0  0
  6 10  1  0  0  0  0
  6  7  1  0  0  0  0
  6 28  1  0  0  0  0
  7  8  1  0  0  0  0
  7 29  1  0  0  0  0
  7 30  1  0  0  0  0
  8  9  1  0  0  0  0
  8 31  1  0  0  0  0
  8 32  1  0  0  0  0
  9 10  1  0  0  0  0
 10 33  1  0  0  0  0
 10 34  1  0  0  0  0
 11 16  1  0  0  0  0
 11 12  1  0  0  0  0
 12 13  1  0  0  0  0
 12 35  1  0  0  0  0
 12 36  1  0  0  0  0
 13 14  1  0  0  0  0
 13 37  1  0  0  0  0
 13 38  1  0  0  0  0
 14 15  1  0  0  0  0
 15 16  1  0  0  0  0
 15 39  1  0  0  0  0
 15 40  1  0  0  0  0
 16 41  1  0  0  0  0
 16 42  1  0  0  0  0
 17 18  1  0  0  0  0
 17 43  1  0  0  0  0
 18 23  1  0  0  0  0
 18 19  2  0  0  0  0
 19 20  1  0  0  0  0
 19 44  1  0  0  0  0
 20 21  2  0  0  0  0
 20 45  1  0  0  0  0
 21 22  1  0  0  0  0
 21 46  1  0  0  0  0
 22 23  2  0  0  0  0
 22 47  1  0  0  0  0
M  END
> <s_m_source_file>
AV-unprocessed.smi

> <i_m_source_file_index>
1933

> <i_lp_mmshare_version>
43012

> <i_f3d_flags>
0

> <s_epik_input>
bjFbY0hdW2NIXVtjSF1bY0hdYzFbTkhdQyg9TylbTkhdW0NIMl1bQ0BIXShbQ0BASF0yW0NIMl1bQ0gyXU9bQ0gyXTIpTjNbQ0gyXVtDSDJdT1tDSDJdW0NIMl0z

> <s_epik_cmdline>
J2VwaWtfcHl0aG9uJywgJy1waCcsICc3LjAnLCAnLXRuJywgJzgnLCAnLW1hJywgJzIwMCcsICctbWV0YWxfYmluZGluZycsICctaW1hZScsICc8aW5maWxlLm1hZT4nLCAnLW9tYWUnLCAnPG91dGZpbGUubWFlPic=

> <r_epik_Ionization_Penalty>
0.125062

> <r_epik_Ionization_Penalty_Charging>
0

> <r_epik_Ionization_Penalty_Neutral>
0.125062

> <r_epik_State_Penalty>
0.114484

> <r_epik_Charging_Adjusted_Penalty>
0.114484

> <i_epik_Tot_Q>
0

> <i_epik_Tot_abs_Q>
0

> <r_epik_Metal_State_Penalty>
0.114484

> <b_epik_Metal_Only>
0

> <s_lp_Force_Field>
OPLS_2005

> <r_lp_Energy>
57.3648

> <b_lp_Chiralities_Consistent>
1

> <s_lp_Variant>
AV-unprocessed.smi:1933-1

> <Gold.Version>
5.8.1

> <Gold.Id.Protein>
6NUR|6NUR_protein|mol2

> <Gold.PLP.Fitness>
43.7551

> <Gold.PLP.PLP>
-34.4389

> <Gold.PLP.part.hbond>
-2.9466

> <Gold.PLP.part.metal>
0.0000

> <Gold.PLP.part.buried>
-4.4142

> <Gold.PLP.part.nonpolar>
-27.4669

> <Gold.PLP.part.repulsive>
0.4946

> <Gold.PLP.ligand.clash>
0.0000

> <Gold.PLP.ligand.torsion>
1.3575

> <Gold.PLP.Chemscore.Hbond>
2.9200

> <Gold.PLP.Chemscore.CHOScore>
0.9785

> <Gold.PLP.Chemscore.Metal>
0.0000

> <Gold.Chemscore.Hbonds>
donor molecule, donor type, donor heavy atom, donor atom, acceptor molecule, acceptor atom, score
      L1  H     3    24       P1  7948  1.00
      L1  H    17    43       P1  7948  0.94
      P1  H 10752 10763       L1     9  0.96
      L1  C    22    47       P1 10186  0.91

> <Gold.PLP.Chemscore.Internal.Correction>
0.3356

> <Gold.Rescore>
     Score         DG    S(hbond)    S(metal)    S(lipo)     H(rot)  DE(clash)    DE(int)     intcor
     17.87     -20.09       2.86        0.00      80.80       1.72       0.08       2.14       ----

> <Gold.Chemscore.Fitness>
17.8668

> <Gold.Chemscore.DG>
-20.0874

> <Gold.Chemscore.ZeroCoef>
-5.4800

> <Gold.Chemscore.Hbond>
2.8584

> <Gold.Chemscore.Metal>
0.0000

> <Gold.Chemscore.Lipo>
80.7992

> <Gold.Chemscore.Internal_Hbond>
0.0000

> <Gold.Chemscore.DEClash>
0.0797

> <Gold.Chemscore.DEInternal>
2.1409

> <Gold.Chemscore.Rot>
1.7161

> <Gold.Chemscore.Internal.Correction>
   9.000000E+99

> <Gold.Chemscore.Hbonds>
donor molecule, donor type, donor heavy atom, donor atom, acceptor molecule, acceptor atom, score
      L1  H     3    24       P1  7948  0.95
      L1  H    17    43       P1  7948  0.90
      P1  H 10752 10763       L1     9  0.88

> <Gold.Chemscore.Hbond.Weighted>
-9.5471

> <Gold.Chemscore.Metal.Weighted>
-0.0000

> <Gold.Chemscore.Lipo.Weighted>
-9.4535

> <Gold.Chemscore.Internal_Hbond.Weighted>
0.0000

> <Gold.Chemscore.DEClash.Weighted>
0.0797

> <Gold.Chemscore.DEInternal.Weighted>
2.1409

> <Gold.Chemscore.Rot.Weighted>
4.3932

> <Gold.Chemscore.Internal.Correction.Weighted>
   9.000000E+99

> <Gold.Protein.RotatedTorsions>
[ 6907 6896 6895 6894 ] final -173.08 input  -60.11 | X-H torsion
[ 7974 7965 7964 7962 ] final  -32.33 input  175.53 | X-H torsion
[ 8008 7997 7996 7995 ] final  -22.67 input   59.86 | X-H torsion
[ 10167 10162 10161 10158 ] final  113.55 input  -65.29 | X-H torsion
[ 10718 10713 10712 10709 ] final -102.10 input   66.30 | X-H torsion
[ 10763 10752 10751 10750 ] final   58.13 input  -60.55 | X-H torsion
[ 11005 11000 10999 10996 ] final  -40.11 input  -57.11 | X-H torsion

> <Gold.Protein.ActiveResidues>
 VAL166  LYS551  ARG553  GLY616  TRP617  ASP618  TYR619  PRO620  LYS621  CYS622 
 ASP623  PHE694  ASN695  SER759  ASP760  ASP761  ALA762  ILE779  LEU786  VAL792 
 PHE793  MET794  SER795  GLU796  ALA797  LYS798  CYS799  TRP800  GLU811  SER814 

> <Gold.Protein.RotatedAtoms>
  151.5504  133.3418  159.2951 H   0  0  0  0  0  0  0  0  0  0  0  0  # atno 6907 bound_to 6896
  150.8482  134.7800  159.6998 H   0  0  0  0  0  0  0  0  0  0  0  0  # atno 6908 bound_to 6896
  152.4534  134.5351  159.9874 H   0  0  0  0  0  0  0  0  0  0  0  0  # atno 6909 bound_to 6896
  146.0998  140.5779  142.8826 H   0  0  0  0  0  0  0  0  0  0  0  0  # atno 7974 bound_to 7965
  154.4630  140.2001  156.0193 H   0  0  0  0  0  0  0  0  0  0  0  0  # atno 8008 bound_to 7997
  156.0875  140.3263  155.7744 H   0  0  0  0  0  0  0  0  0  0  0  0  # atno 8009 bound_to 7997
  155.5010  140.0554  157.2930 H   0  0  0  0  0  0  0  0  0  0  0  0  # atno 8010 bound_to 7997
  139.6453  144.7126  151.2155 H   0  0  0  0  0  0  0  0  0  0  0  0  # atno 10167 bound_to 10162
  156.0217  130.5404  150.7059 H   0  0  0  0  0  0  0  0  0  0  0  0  # atno 10718 bound_to 10713
  152.9864  135.5617  154.5502 H   0  0  0  0  0  0  0  0  0  0  0  0  # atno 10763 bound_to 10752
  154.4940  135.2794  155.1476 H   0  0  0  0  0  0  0  0  0  0  0  0  # atno 10764 bound_to 10752
  154.2933  135.6322  153.5447 H   0  0  0  0  0  0  0  0  0  0  0  0  # atno 10765 bound_to 10752
  141.0151  133.6889  156.2277 H   0  0  0  0  0  0  0  0  0  0  0  0  # atno 11005 bound_to 11000
  144.7424  140.4977  143.6860 LP  0  0  0  0  0  0  0  0  0  0  0  0  # atno 17320 bound_to 7965
  145.5877  139.1493  143.3200 LP  0  0  0  0  0  0  0  0  0  0  0  0  # atno 17321 bound_to 7965
  140.7511  143.6242  150.8484 LP  0  0  0  0  0  0  0  0  0  0  0  0  # atno 17342 bound_to 10162
  139.9884  143.5874  152.2919 LP  0  0  0  0  0  0  0  0  0  0  0  0  # atno 17343 bound_to 10162
  157.4708  131.0893  151.0644 LP  0  0  0  0  0  0  0  0  0  0  0  0  # atno 17370 bound_to 10713
  157.1105  130.6019  149.5481 LP  0  0  0  0  0  0  0  0  0  0  0  0  # atno 17371 bound_to 10713
  140.6668  134.4910  157.5586 LP  0  0  0  0  0  0  0  0  0  0  0  0  # atno 17394 bound_to 11000
  139.9112  134.8340  156.1522 LP  0  0  0  0  0  0  0  0  0  0  0  0  # atno 17395 bound_to 11000

$$$$
