AV-unprocessed.smi:3249|AV-procd|sdf|12422|dock7
  -GOLD-   2272018303D 1   1.00000     0.00000
 Structure written by MMmdl.
 44 45  0  0  0  0  0  0  0  0  2 V2000
  152.9405  142.8640  163.0905 C   0  0  0  0  0  0  0  0  0  0  0  0
  152.6937  142.7864  161.6115 C   0  0  0  0  0  0  0  0  0  0  0  0
  153.4851  142.1317  160.6260 C   0  0  0  0  0  0  0  0  0  0  0  0
  152.9916  142.2574  159.4054 N   0  0  0  0  0  0  0  0  0  0  0  0
  151.8657  142.9882  159.5655 N   0  0  0  0  0  0  0  0  0  0  0  0
  151.0499  143.3523  158.4116 C   0  0  1  0  0  0  0  0  0  0  0  0
  151.8381  144.3289  157.5190 C   0  0  0  0  0  0  0  0  0  0  0  0
  150.5346  142.1019  157.6460 C   0  0  2  0  0  0  0  0  0  0  0  0
  151.6276  141.4606  156.7690 C   0  0  0  0  0  0  0  0  0  0  0  0
  149.3667  142.4676  156.8095 N   0  3  0  0  0  0  0  0  0  0  0  0
  148.1307  141.7018  157.0766 C   0  0  0  0  0  0  0  0  0  0  0  0
  147.1525  141.7877  155.8952 C   0  0  1  0  0  0  0  0  0  0  0  0
  146.0967  142.8986  156.0762 C   0  0  0  0  0  0  0  0  0  0  0  0
  145.2122  143.0115  154.8293 C   0  0  0  0  0  0  0  0  0  0  0  0
  146.0910  143.1767  153.5852 C   0  0  0  0  0  0  0  0  0  0  0  0
  147.1472  142.0619  153.5264 C   0  0  0  0  0  0  0  0  0  0  0  0
  147.9184  142.0612  154.7243 O   0  0  0  0  0  0  0  0  0  0  0  0
  151.6706  143.3301  160.8877 C   0  0  0  0  0  0  0  0  0  0  0  0
  153.6405  142.0983  163.4254 H   0  0  0  0  0  0  0  0  0  0  0  0
  152.0213  142.7291  163.6609 H   0  0  0  0  0  0  0  0  0  0  0  0
  153.3589  143.8290  163.3769 H   0  0  0  0  0  0  0  0  0  0  0  0
  154.4001  141.5736  160.7609 H   0  0  0  0  0  0  0  0  0  0  0  0
  150.1828  143.8897  158.7993 H   0  0  0  0  0  0  0  0  0  0  0  0
  151.2113  144.7654  156.7423 H   0  0  0  0  0  0  0  0  0  0  0  0
  152.6793  143.8339  157.0324 H   0  0  0  0  0  0  0  0  0  0  0  0
  152.2375  145.1576  158.1051 H   0  0  0  0  0  0  0  0  0  0  0  0
  150.2083  141.3641  158.3809 H   0  0  0  0  0  0  0  0  0  0  0  0
  152.4669  141.1063  157.3663 H   0  0  0  0  0  0  0  0  0  0  0  0
  152.0152  142.1698  156.0368 H   0  0  0  0  0  0  0  0  0  0  0  0
  151.2523  140.5953  156.2236 H   0  0  0  0  0  0  0  0  0  0  0  0
  149.1571  143.4377  156.9987 H   0  0  0  0  0  0  0  0  0  0  0  0
  148.3626  140.6600  157.2971 H   0  0  0  0  0  0  0  0  0  0  0  0
  147.6554  142.1175  157.9662 H   0  0  0  0  0  0  0  0  0  0  0  0
  146.6602  140.8211  155.7715 H   0  0  0  0  0  0  0  0  0  0  0  0
  145.4761  142.6994  156.9502 H   0  0  0  0  0  0  0  0  0  0  0  0
  146.5932  143.8532  156.2564 H   0  0  0  0  0  0  0  0  0  0  0  0
  144.5994  142.1145  154.7305 H   0  0  0  0  0  0  0  0  0  0  0  0
  144.5247  143.8526  154.9240 H   0  0  0  0  0  0  0  0  0  0  0  0
  145.4769  143.1647  152.6842 H   0  0  0  0  0  0  0  0  0  0  0  0
  146.5878  144.1475  153.6126 H   0  0  0  0  0  0  0  0  0  0  0  0
  146.6779  141.0873  153.3820 H   0  0  0  0  0  0  0  0  0  0  0  0
  147.8140  142.2219  152.6787 H   0  0  0  0  0  0  0  0  0  0  0  0
  150.8272  143.9267  161.2033 H   0  0  0  0  0  0  0  0  0  0  0  0
  149.6171  142.3779  155.8354 H   0  0  0  0  0  0  0  0  0  0  0  0
  1  2  1  0  0  0  0
  1 19  1  0  0  0  0
  1 20  1  0  0  0  0
  1 21  1  0  0  0  0
  2 18  2  0  0  0  0
  2  3  1  0  0  0  0
  3  4  2  0  0  0  0
  3 22  1  0  0  0  0
  4  5  1  0  0  0  0
  5  6  1  0  0  0  0
  5 18  1  0  0  0  0
  6  7  1  0  0  0  0
  6  8  1  0  0  0  0
  6 23  1  0  0  0  0
  7 24  1  0  0  0  0
  7 25  1  0  0  0  0
  7 26  1  0  0  0  0
  8  9  1  0  0  0  0
  8 10  1  0  0  0  0
  8 27  1  0  0  0  0
  9 28  1  0  0  0  0
  9 29  1  0  0  0  0
  9 30  1  0  0  0  0
 10 11  1  0  0  0  0
 10 31  1  0  0  0  0
 10 44  1  0  0  0  0
 11 12  1  0  0  0  0
 11 32  1  0  0  0  0
 11 33  1  0  0  0  0
 12 17  1  0  0  0  0
 12 13  1  0  0  0  0
 12 34  1  0  0  0  0
 13 14  1  0  0  0  0
 13 35  1  0  0  0  0
 13 36  1  0  0  0  0
 14 15  1  0  0  0  0
 14 37  1  0  0  0  0
 14 38  1  0  0  0  0
 15 16  1  0  0  0  0
 15 39  1  0  0  0  0
 15 40  1  0  0  0  0
 16 17  1  0  0  0  0
 16 41  1  0  0  0  0
 16 42  1  0  0  0  0
 18 43  1  0  0  0  0
M  CHG  1  10   1
M  END
> <s_m_source_file>
AV-unprocessed.smi

> <i_m_source_file_index>
3249

> <i_lp_mmshare_version>
43012

> <i_f3d_flags>
0

> <s_epik_input>
W0NIM11jMVtjSF1ubihbY0hdMSlbQ0BIXShbQ0gzXSlbQ0BIXShbQ0gzXSlbTkhdW0NIMl1bQ0BASF0yW0NIMl1bQ0gyXVtDSDJdW0NIMl1PMg==

> <s_epik_cmdline>
J2VwaWtfcHl0aG9uJywgJy1waCcsICc3LjAnLCAnLXRuJywgJzgnLCAnLW1hJywgJzIwMCcsICctbWV0YWxfYmluZGluZycsICctaW1hZScsICc8aW5maWxlLm1hZT4nLCAnLW9tYWUnLCAnPG91dGZpbGUubWFlPic=

> <r_lp_tautomer_probability>
1

> <r_epik_Ionization_Penalty>
0.00659207

> <r_epik_Ionization_Penalty_Charging>
0.00656881

> <r_epik_Ionization_Penalty_Neutral>
2.32662e-05

> <r_epik_State_Penalty>
0.0048654

> <r_epik_Charging_Adjusted_Penalty>
0.0114342

> <i_epik_Tot_Q>
1

> <i_epik_Tot_abs_Q>
1

> <r_epik_Metal_State_Penalty>
-0

> <b_epik_Metal_Only>
0

> <s_lp_Force_Field>
OPLS_2005

> <r_lp_Energy>
17.782

> <b_lp_Chiralities_Consistent>
1

> <s_lp_Variant>
AV-unprocessed.smi:3249-6

> <Gold.Version>
5.8.1

> <Gold.Id.Protein>
6NUR|6NUR_protein|mol2

> <Gold.PLP.Fitness>
42.9529

> <Gold.PLP.PLP>
-42.8127

> <Gold.PLP.part.hbond>
-1.0000

> <Gold.PLP.part.metal>
0.0000

> <Gold.PLP.part.buried>
-7.5317

> <Gold.PLP.part.nonpolar>
-33.6314

> <Gold.PLP.part.repulsive>
0.6537

> <Gold.PLP.ligand.clash>
0.0000

> <Gold.PLP.ligand.torsion>
1.6252

> <Gold.PLP.Chemscore.Hbond>
1.0880

> <Gold.PLP.Chemscore.CHOScore>
0.0000

> <Gold.PLP.Chemscore.Metal>
0.0000

> <Gold.Chemscore.Hbonds>
donor molecule, donor type, donor heavy atom, donor atom, acceptor molecule, acceptor atom, score
      L1  H    10    31       P1  8028  0.99

> <Gold.PLP.Chemscore.Internal.Correction>
0.1265

> <Gold.Rescore>
     Score         DG    S(hbond)    S(metal)    S(lipo)     H(rot)  DE(clash)    DE(int)     intcor
     14.79     -16.85       0.77        0.00     108.63       1.53       0.44       1.61       ----

> <Gold.Chemscore.Fitness>
14.7906

> <Gold.Chemscore.DG>
-16.8453

> <Gold.Chemscore.ZeroCoef>
-5.4800

> <Gold.Chemscore.Hbond>
0.7728

> <Gold.Chemscore.Metal>
0.0000

> <Gold.Chemscore.Lipo>
108.6255

> <Gold.Chemscore.Internal_Hbond>
0.0000

> <Gold.Chemscore.DEClash>
0.4448

> <Gold.Chemscore.DEInternal>
1.6098

> <Gold.Chemscore.Rot>
1.5333

> <Gold.Chemscore.Internal.Correction>
   9.000000E+99

> <Gold.Chemscore.Hbonds>
donor molecule, donor type, donor heavy atom, donor atom, acceptor molecule, acceptor atom, score
      L1  H    10    31       P1  8028  0.41

> <Gold.Chemscore.Hbond.Weighted>
-2.5813

> <Gold.Chemscore.Metal.Weighted>
-0.0000

> <Gold.Chemscore.Lipo.Weighted>
-12.7092

> <Gold.Chemscore.Internal_Hbond.Weighted>
0.0000

> <Gold.Chemscore.DEClash.Weighted>
0.4448

> <Gold.Chemscore.DEInternal.Weighted>
1.6098

> <Gold.Chemscore.Rot.Weighted>
3.9252

> <Gold.Chemscore.Internal.Correction.Weighted>
   9.000000E+99

> <Gold.Protein.RotatedTorsions>
[ 6907 6896 6895 6894 ] final   17.80 input  -60.11 | X-H torsion
[ 7974 7965 7964 7962 ] final   15.26 input  175.53 | X-H torsion
[ 8008 7997 7996 7995 ] final   88.92 input   59.86 | X-H torsion
[ 10167 10162 10161 10158 ] final -141.01 input  -65.29 | X-H torsion
[ 10718 10713 10712 10709 ] final  149.64 input   66.30 | X-H torsion
[ 10763 10752 10751 10750 ] final  175.29 input  -60.55 | X-H torsion
[ 11005 11000 10999 10996 ] final  -87.98 input  -57.11 | X-H torsion

> <Gold.Protein.ActiveResidues>
 VAL166  LYS551  ARG553  GLY616  TRP617  ASP618  TYR619  PRO620  LYS621  CYS622 
 ASP623  PHE694  ASN695  SER759  ASP760  ASP761  ALA762  ILE779  LEU786  VAL792 
 PHE793  MET794  SER795  GLU796  ALA797  LYS798  CYS799  TRP800  GLU811  SER814 

> <Gold.Protein.RotatedAtoms>
  151.8552  135.0543  160.0463 H   0  0  0  0  0  0  0  0  0  0  0  0  # atno 6907 bound_to 6896
  152.2705  133.5374  159.5445 H   0  0  0  0  0  0  0  0  0  0  0  0  # atno 6908 bound_to 6896
  150.7150  134.0620  159.3877 H   0  0  0  0  0  0  0  0  0  0  0  0  # atno 6909 bound_to 6896
  146.2283  139.8920  142.8553 H   0  0  0  0  0  0  0  0  0  0  0  0  # atno 7974 bound_to 7965
  155.9936  140.3366  155.6777 H   0  0  0  0  0  0  0  0  0  0  0  0  # atno 8008 bound_to 7997
  155.6386  140.0693  157.2644 H   0  0  0  0  0  0  0  0  0  0  0  0  # atno 8009 bound_to 7997
  154.4227  140.1746  156.1537 H   0  0  0  0  0  0  0  0  0  0  0  0  # atno 8010 bound_to 7997
  139.8226  143.7553  152.2666 H   0  0  0  0  0  0  0  0  0  0  0  0  # atno 10167 bound_to 10162
  157.2936  131.0858  151.1443 H   0  0  0  0  0  0  0  0  0  0  0  0  # atno 10718 bound_to 10713
  154.4656  135.2769  155.1681 H   0  0  0  0  0  0  0  0  0  0  0  0  # atno 10763 bound_to 10752
  154.3451  135.6162  153.5619 H   0  0  0  0  0  0  0  0  0  0  0  0  # atno 10764 bound_to 10752
  152.9859  135.5798  154.5027 H   0  0  0  0  0  0  0  0  0  0  0  0  # atno 10765 bound_to 10752
  141.1609  133.7543  156.9385 H   0  0  0  0  0  0  0  0  0  0  0  0  # atno 11005 bound_to 11000
  145.2408  141.0008  143.3937 LP  0  0  0  0  0  0  0  0  0  0  0  0  # atno 17320 bound_to 7965
  144.9453  139.4143  143.6429 LP  0  0  0  0  0  0  0  0  0  0  0  0  # atno 17321 bound_to 7965
  139.7736  144.7468  151.0189 LP  0  0  0  0  0  0  0  0  0  0  0  0  # atno 17342 bound_to 10162
  140.7812  143.4618  151.0267 LP  0  0  0  0  0  0  0  0  0  0  0  0  # atno 17343 bound_to 10162
  157.2830  130.6759  149.6075 LP  0  0  0  0  0  0  0  0  0  0  0  0  # atno 17370 bound_to 10713
  155.9668  130.4444  150.5459 LP  0  0  0  0  0  0  0  0  0  0  0  0  # atno 17371 bound_to 10713
  140.1338  134.9338  157.2373 LP  0  0  0  0  0  0  0  0  0  0  0  0  # atno 17394 bound_to 11000
  140.2920  134.3229  155.7312 LP  0  0  0  0  0  0  0  0  0  0  0  0  # atno 17395 bound_to 11000

$$$$
