AV-unprocessed.smi:1877|AV-procd|sdf|7624|dock3
  -GOLD-   22720 9353D 1   1.00000     0.00000
 Structure written by MMmdl.
 33 35  0  0  0  0  0  0  0  0  2 V2000
  150.5184  139.5077  157.8591 O   0  0  0  0  0  0  0  0  0  0  0  0
  150.7672  140.7729  157.2818 C   0  0  2  0  0  0  0  0  0  0  0  0
  151.4491  140.5477  155.9170 C   0  0  0  0  0  0  0  0  0  0  0  0
  150.5858  139.8378  154.9649 N   0  0  0  0  0  0  0  0  0  0  0  0
  150.7343  138.6107  154.3956 C   0  0  0  0  0  0  0  0  0  0  0  0
  149.6742  138.4127  153.5639 N   0  3  0  0  0  0  0  0  0  0  0  0
  148.8335  139.5273  153.6064 C   0  0  0  0  0  0  0  0  0  0  0  0
  147.6413  139.7970  152.9416 C   0  0  0  0  0  0  0  0  0  0  0  0
  147.0322  141.0400  153.2137 C   0  0  0  0  0  0  0  0  0  0  0  0
  147.6075  141.9589  154.1156 C   0  0  0  0  0  0  0  0  0  0  0  0
  148.8170  141.6753  154.7835 C   0  0  0  0  0  0  0  0  0  0  0  0
  149.4120  140.4451  154.5082 C   0  0  0  0  0  0  0  0  0  0  0  0
  151.5900  141.6763  158.1937 C   0  0  0  0  0  0  0  0  0  0  0  0
  151.4881  143.0811  158.0842 C   0  0  0  0  0  0  0  0  0  0  0  0
  152.2327  143.9183  158.9372 C   0  0  0  0  0  0  0  0  0  0  0  0
  152.1282  145.2634  158.8251 F   0  0  0  0  0  0  0  0  0  0  0  0
  153.0829  143.3570  159.9084 C   0  0  0  0  0  0  0  0  0  0  0  0
  153.1859  141.9581  160.0271 C   0  0  0  0  0  0  0  0  0  0  0  0
  152.4418  141.1187  159.1752 C   0  0  0  0  0  0  0  0  0  0  0  0
  152.5428  139.7747  159.3140 F   0  0  0  0  0  0  0  0  0  0  0  0
  150.0427  138.9804  157.2351 H   0  0  0  0  0  0  0  0  0  0  0  0
  149.7884  141.2259  157.1245 H   0  0  0  0  0  0  0  0  0  0  0  0
  151.7280  141.5008  155.4648 H   0  0  0  0  0  0  0  0  0  0  0  0
  152.3712  139.9755  156.0293 H   0  0  0  0  0  0  0  0  0  0  0  0
  151.5511  137.9238  154.5649 H   0  0  0  0  0  0  0  0  0  0  0  0
  147.1980  139.0953  152.2501 H   0  0  0  0  0  0  0  0  0  0  0  0
  146.1047  141.2934  152.7210 H   0  0  0  0  0  0  0  0  0  0  0  0
  147.1115  142.9010  154.2990 H   0  0  0  0  0  0  0  0  0  0  0  0
  149.2513  142.3851  155.4718 H   0  0  0  0  0  0  0  0  0  0  0  0
  150.8337  143.5232  157.3473 H   0  0  0  0  0  0  0  0  0  0  0  0
  153.6533  143.9989  160.5635 H   0  0  0  0  0  0  0  0  0  0  0  0
  153.8353  141.5281  160.7754 H   0  0  0  0  0  0  0  0  0  0  0  0
  149.5375  137.5777  153.0086 H   0  0  0  0  0  0  0  0  0  0  0  0
  1  2  1  0  0  0  0
  1 21  1  0  0  0  0
  2  3  1  0  0  0  0
  2 13  1  0  0  0  0
  2 22  1  0  0  0  0
  3  4  1  0  0  0  0
  3 23  1  0  0  0  0
  3 24  1  0  0  0  0
  4 12  1  0  0  0  0
  4  5  1  0  0  0  0
  5  6  2  0  0  0  0
  5 25  1  0  0  0  0
  6  7  1  0  0  0  0
  6 33  1  0  0  0  0
  7 12  2  0  0  0  0
  7  8  1  0  0  0  0
  8  9  2  0  0  0  0
  8 26  1  0  0  0  0
  9 10  1  0  0  0  0
  9 27  1  0  0  0  0
 10 11  2  0  0  0  0
 10 28  1  0  0  0  0
 11 12  1  0  0  0  0
 11 29  1  0  0  0  0
 13 19  1  0  0  0  0
 13 14  2  0  0  0  0
 14 15  1  0  0  0  0
 14 30  1  0  0  0  0
 15 16  1  0  0  0  0
 15 17  2  0  0  0  0
 17 18  1  0  0  0  0
 17 31  1  0  0  0  0
 18 19  2  0  0  0  0
 18 32  1  0  0  0  0
 19 20  1  0  0  0  0
M  CHG  1   6   1
M  END
> <s_m_source_file>
AV-unprocessed.smi

> <i_m_source_file_index>
1877

> <i_lp_mmshare_version>
43012

> <i_f3d_flags>
0

> <s_epik_input>
RmMxW2NIXVtjSF1jKEYpW2NIXWMxW0NASF0oW09IXSlbQ0gyXW4oW2NIXW4yKWMoYzIzKVtjSF1bY0hdW2NIXVtjSF0z

> <s_epik_cmdline>
J2VwaWtfcHl0aG9uJywgJy1waCcsICc3LjAnLCAnLXRuJywgJzgnLCAnLW1hJywgJzIwMCcsICctbWV0YWxfYmluZGluZycsICctaW1hZScsICc8aW5maWxlLm1hZT4nLCAnLW9tYWUnLCAnPG91dGZpbGUubWFlPic=

> <r_epik_Ionization_Penalty>
1.3029

> <r_epik_Ionization_Penalty_Charging>
1.3029

> <r_epik_Ionization_Penalty_Neutral>
3.53208e-06

> <r_epik_State_Penalty>
1.377

> <r_epik_Charging_Adjusted_Penalty>
2.6799

> <i_epik_Tot_Q>
1

> <i_epik_Tot_abs_Q>
1

> <r_epik_Metal_State_Penalty>
5.40879

> <b_epik_Metal_Only>
0

> <s_lp_Force_Field>
OPLS_2005

> <r_lp_Energy>
17.5281

> <b_lp_Chiralities_Consistent>
1

> <s_lp_Variant>
AV-unprocessed.smi:1877-3

> <Gold.Version>
5.8.1

> <Gold.Id.Protein>
6NUR|6NUR_protein|mol2

> <Gold.PLP.Fitness>
54.0424

> <Gold.PLP.PLP>
-49.4887

> <Gold.PLP.part.hbond>
-2.0000

> <Gold.PLP.part.metal>
0.0000

> <Gold.PLP.part.buried>
3.5352

> <Gold.PLP.part.nonpolar>
-49.4605

> <Gold.PLP.part.repulsive>
0.0735

> <Gold.PLP.ligand.clash>
0.0000

> <Gold.PLP.ligand.torsion>
0.7297

> <Gold.PLP.Chemscore.Hbond>
2.0000

> <Gold.PLP.Chemscore.CHOScore>
0.0000

> <Gold.PLP.Chemscore.Metal>
0.0000

> <Gold.Chemscore.Hbonds>
donor molecule, donor type, donor heavy atom, donor atom, acceptor molecule, acceptor atom, score
      L1  H     6    33       P1  7948  2.00

> <Gold.PLP.Chemscore.Internal.Correction>
0.0132

> <Gold.Rescore>
     Score         DG    S(hbond)    S(metal)    S(lipo)     H(rot)  DE(clash)    DE(int)     intcor
     14.44     -17.26       0.98        0.00     117.67       2.06       0.31       2.51       ----

> <Gold.Chemscore.Fitness>
14.4405

> <Gold.Chemscore.DG>
-17.2619

> <Gold.Chemscore.ZeroCoef>
-5.4800

> <Gold.Chemscore.Hbond>
0.9843

> <Gold.Chemscore.Metal>
0.0000

> <Gold.Chemscore.Lipo>
117.6665

> <Gold.Chemscore.Internal_Hbond>
0.0000

> <Gold.Chemscore.DEClash>
0.3146

> <Gold.Chemscore.DEInternal>
2.5068

> <Gold.Chemscore.Rot>
2.0597

> <Gold.Chemscore.Internal.Correction>
   9.000000E+99

> <Gold.Chemscore.Hbonds>
donor molecule, donor type, donor heavy atom, donor atom, acceptor molecule, acceptor atom, score
      L1  H     6    33       P1  7948  0.82

> <Gold.Chemscore.Hbond.Weighted>
-3.2877

> <Gold.Chemscore.Metal.Weighted>
-0.0000

> <Gold.Chemscore.Lipo.Weighted>
-13.7670

> <Gold.Chemscore.Internal_Hbond.Weighted>
0.0000

> <Gold.Chemscore.DEClash.Weighted>
0.3146

> <Gold.Chemscore.DEInternal.Weighted>
2.5068

> <Gold.Chemscore.Rot.Weighted>
5.2728

> <Gold.Chemscore.Internal.Correction.Weighted>
   9.000000E+99

> <Gold.Protein.RotatedTorsions>
[ 6907 6896 6895 6894 ] final   21.18 input  -60.11 | X-H torsion
[ 7974 7965 7964 7962 ] final   37.45 input  175.53 | X-H torsion
[ 8008 7997 7996 7995 ] final  131.31 input   59.86 | X-H torsion
[ 10167 10162 10161 10158 ] final   51.16 input  -65.29 | X-H torsion
[ 10718 10713 10712 10709 ] final   98.37 input   66.30 | X-H torsion
[ 10763 10752 10751 10750 ] final   34.80 input  -60.55 | X-H torsion
[ 11005 11000 10999 10996 ] final  171.84 input  -57.11 | X-H torsion

> <Gold.Protein.ActiveResidues>
 VAL166  LYS551  ARG553  GLY616  TRP617  ASP618  TYR619  PRO620  LYS621  CYS622 
 ASP623  PHE694  ASN695  SER759  ASP760  ASP761  ALA762  ILE779  LEU786  VAL792 
 PHE793  MET794  SER795  GLU796  ALA797  LYS798  CYS799  TRP800  GLU811  SER814 

> <Gold.Protein.RotatedAtoms>
  151.9078  135.0351  160.0511 H   0  0  0  0  0  0  0  0  0  0  0  0  # atno 6907 bound_to 6896
  152.2304  133.5049  159.5221 H   0  0  0  0  0  0  0  0  0  0  0  0  # atno 6908 bound_to 6896
  150.7024  134.1140  159.4053 H   0  0  0  0  0  0  0  0  0  0  0  0  # atno 6909 bound_to 6896
  146.1137  139.5893  142.9335 H   0  0  0  0  0  0  0  0  0  0  0  0  # atno 7974 bound_to 7965
  156.2968  140.2574  156.2905 H   0  0  0  0  0  0  0  0  0  0  0  0  # atno 8008 bound_to 7997
  154.9515  140.0394  157.2165 H   0  0  0  0  0  0  0  0  0  0  0  0  # atno 8009 bound_to 7997
  154.8032  140.2832  155.5911 H   0  0  0  0  0  0  0  0  0  0  0  0  # atno 8010 bound_to 7997
  140.2648  144.3332  150.6307 H   0  0  0  0  0  0  0  0  0  0  0  0  # atno 10167 bound_to 10162
  157.6896  131.0638  150.4786 H   0  0  0  0  0  0  0  0  0  0  0  0  # atno 10718 bound_to 10713
  153.0147  135.6350  154.1726 H   0  0  0  0  0  0  0  0  0  0  0  0  # atno 10763 bound_to 10752
  154.1466  135.2831  155.3148 H   0  0  0  0  0  0  0  0  0  0  0  0  # atno 10764 bound_to 10752
  154.6085  135.5564  153.7509 H   0  0  0  0  0  0  0  0  0  0  0  0  # atno 10765 bound_to 10752
  140.3233  134.7419  157.4080 H   0  0  0  0  0  0  0  0  0  0  0  0  # atno 11005 bound_to 11000
  145.5611  141.0404  143.2225 LP  0  0  0  0  0  0  0  0  0  0  0  0  # atno 17320 bound_to 7965
  144.7534  139.7136  143.7264 LP  0  0  0  0  0  0  0  0  0  0  0  0  # atno 17321 bound_to 7965
  140.5937  143.2167  151.7205 LP  0  0  0  0  0  0  0  0  0  0  0  0  # atno 17342 bound_to 10162
  139.5006  144.3900  152.0289 LP  0  0  0  0  0  0  0  0  0  0  0  0  # atno 17343 bound_to 10162
  156.5119  130.4141  149.6296 LP  0  0  0  0  0  0  0  0  0  0  0  0  # atno 17370 bound_to 10713
  156.3233  130.7292  151.2208 LP  0  0  0  0  0  0  0  0  0  0  0  0  # atno 17371 bound_to 10713
  140.0923  134.5584  155.8432 LP  0  0  0  0  0  0  0  0  0  0  0  0  # atno 17394 bound_to 11000
  141.2081  133.6670  156.6350 LP  0  0  0  0  0  0  0  0  0  0  0  0  # atno 17395 bound_to 11000

$$$$
