#       Name:                AV-unprocessed.smi:2147
#       Creating user name   scv26
#       Creation time:       Fri Mar 27 11:51:56 2020


#       File generated by GOLD software.
#

@<TRIPOS>MOLECULE
AV-unprocessed.smi:2147
    48    50     1
SMALL
NO_CHARGES


@<TRIPOS>ATOM
      1 ****        -4.2261   5.9215  -0.2379 C.3            1 S1                 0.0000
      2 ****        -2.6984   5.9258  -0.2457 C.2            1 S1                 0.0000
      3 ****        -2.1104   7.0068  -0.2340 O.2            1 S1                 0.0000
      4 ****        -1.9997   4.6094  -0.2690 C.ar           1 S1                 0.0000
      5 ****        -2.7105   3.3870  -0.2513 C.ar           1 S1                 0.0000
      6 ****        -2.0207   2.1597  -0.2700 C.ar           1 S1                 0.0000
      7 ****        -0.6131   2.1203  -0.3060 C.ar           1 S1                 0.0000
      8 ****        -0.0216   0.8757  -0.3186 O.3            1 S1                 0.0000
      9 ****         1.3982   0.8053  -0.3264 C.3            1 S1                 0.0000
     10 ****         1.8221  -0.6702  -0.3013 C.3            1 S1                 0.0000
     11 ****         3.2171  -0.7403  -0.5212 O.3            1 S1                 0.0000
     12 ****         1.4684  -1.3616   1.0300 C.3            1 S1                 0.0000
     13 ****         1.8640  -2.7583   1.0514 N.pl3          1 S1                 0.0000
     14 ****         2.9356  -3.2918   1.6692 C.2            1 S1                 0.0000
     15 ****         3.1127  -4.6051   1.5559 N.2            1 S1                 0.0000
     16 ****         2.0264  -4.9674   0.7778 C.ar           1 S1                 0.0000
     17 ****         1.6264  -6.2333   0.2932 C.ar           1 S1                 0.0000
     18 ****         0.4632  -6.3620  -0.4942 C.ar           1 S1                 0.0000
     19 ****        -0.3164  -5.2298  -0.8091 C.ar           1 S1                 0.0000
     20 ****         0.0623  -3.9580  -0.3380 C.ar           1 S1                 0.0000
     21 ****         1.2238  -3.8341   0.4468 C.ar           1 S1                 0.0000
     22 ****         0.1005   3.3436  -0.3260 C.ar           1 S1                 0.0000
     23 ****        -0.5878   4.5721  -0.3066 C.ar           1 S1                 0.0000
     24 ****        -4.6024   5.4146   0.6510 H              1 S1                 0.0000
     25 ****        -4.6109   5.4133  -1.1222 H              1 S1                 0.0000
     26 ****        -4.6110   6.9416  -0.2369 H              1 S1                 0.0000
     27 ****        -3.7895   3.3650  -0.2216 H              1 S1                 0.0000
     28 ****        -2.5803   1.2358  -0.2548 H              1 S1                 0.0000
     29 ****         1.7776   1.2811  -1.2325 H              1 S1                 0.0000
     30 ****         1.8185   1.3301   0.5334 H              1 S1                 0.0000
     31 ****         1.3352  -1.1919  -1.1263 H              1 S1                 0.0000
     32 ****         3.4671  -1.6508  -0.5653 H              1 S1                 0.0000
     33 ****         1.9474  -0.8492   1.8657 H              1 S1                 0.0000
     34 ****         0.3938  -1.3118   1.2092 H              1 S1                 0.0000
     35 ****         3.6278  -2.6803   2.2297 H              1 S1                 0.0000
     36 ****         2.2161  -7.1071   0.5276 H              1 S1                 0.0000
     37 ****         0.1676  -7.3349  -0.8584 H              1 S1                 0.0000
     38 ****        -1.2056  -5.3385  -1.4127 H              1 S1                 0.0000
     39 ****        -0.5319  -3.0883  -0.5770 H              1 S1                 0.0000
     40 ****         1.1792   3.3687  -0.3561 H              1 S1                 0.0000
     41 ****        -0.0145   5.4879  -0.3213 H              1 S1                 0.0000
     42 ****        -2.6323   7.8597  -0.2197 LP             1 S1                 0.0000
     43 ****        -1.1107   7.0323  -0.2388 LP             1 S1                 0.0000
     44 ****        -0.3462   0.4017  -1.1371 LP             1 S1                 0.0000
     45 ****        -0.3379   0.3891   0.4958 LP             1 S1                 0.0000
     46 ****         3.7005  -0.2935   0.2316 LP             1 S1                 0.0000
     47 ****         3.4466  -0.2851  -1.3815 LP             1 S1                 0.0000
     48 ****         3.8391  -5.1795   1.9333 LP             1 S1                 0.0000
@<TRIPOS>BOND
    1    1    2 1     
    2    1   24 1     
    3    1   25 1     
    4    1   26 1     
    5    2    3 2     
    6    2    4 1     
    7    4   23 ar    
    8    4    5 ar    
    9    5    6 ar    
   10    5   27 1     
   11    6    7 ar    
   12    6   28 1     
   13    7    8 1     
   14    7   22 ar    
   15    8    9 1     
   16    9   10 1     
   17    9   29 1     
   18    9   30 1     
   19   10   11 1     
   20   10   12 1     
   21   10   31 1     
   22   11   32 1     
   23   12   13 1     
   24   12   33 1     
   25   12   34 1     
   26   13   21 1     
   27   13   14 1     
   28   14   15 2     
   29   14   35 1     
   30   15   16 1     
   31   16   21 ar    
   32   16   17 ar    
   33   17   18 ar    
   34   17   36 1     
   35   18   19 ar    
   36   18   37 1     
   37   19   20 ar    
   38   19   38 1     
   39   20   21 ar    
   40   20   39 1     
   41   22   23 ar    
   42   22   40 1     
   43   23   41 1     
   44    3   42 1     
   45    3   43 1     
   46    8   44 1     
   47    8   45 1     
   48   11   46 1     
   49   11   47 1     
   50   15   48 1     
@<TRIPOS>SUBSTRUCTURE
      1 S1             1
@<TRIPOS>SET
LONE_PAIRS      STATIC     ATOMS    <user>   **** ""
7 42 43 44 45 46 47 48
DONOR_HYDROGENS      STATIC     ATOMS    <user>   **** ""
1 32
ATOM$BLUE        STATIC     ATOMS    COLORGROUP SYSTEM
7 42 43 44 45 46 47 48
ATOM$RED        STATIC     ATOMS    COLORGROUP SYSTEM
1 32
