#       Name:                AV-unprocessed.smi:2787
#       Creating user name   scv26
#       Creation time:       Fri Mar 27 15:19:07 2020


#       File generated by GOLD software.
#

@<TRIPOS>MOLECULE
AV-unprocessed.smi:2787
    40    41     1
SMALL
NO_CHARGES


@<TRIPOS>ATOM
      1 ****        -4.4144   1.6180   0.8140 O.3            1 S1                 0.0000
      2 ****        -3.8927   2.1847  -0.3691 C.3            1 S1                 0.0000
      3 ****        -2.3574   2.1697  -0.3398 C.3            1 S1                 0.0000
      4 ****        -1.7675   0.7496  -0.4179 C.3            1 S1                 0.0000
      5 ****        -0.2695   0.7243  -0.4044 C.2            1 S1                 0.0000
      6 ****         0.5708   1.7995  -0.4218 N.pl3          1 S1                 1.0000
      7 ****         1.8968   1.3667  -0.4080 C.ar           1 S1                 0.0000
      8 ****         3.0891   2.0842  -0.4152 C.ar           1 S1                 0.0000
      9 ****         4.2810   1.3308  -0.3938 C.ar           1 S1                 0.0000
     10 ****         4.2579  -0.0788  -0.3660 C.ar           1 S1                 0.0000
     11 ****         3.0426  -0.7948  -0.3604 C.ar           1 S1                 0.0000
     12 ****         1.8680  -0.0426  -0.3833 C.ar           1 S1                 0.0000
     13 ****         0.5122  -0.3937  -0.3849 N.pl3          1 S1                 0.0000
     14 ****         0.1251  -1.8144  -0.3743 C.3            1 S1                 0.0000
     15 ****        -0.1623  -2.3493   1.0437 C.3            1 S1                 0.0000
     16 ****         0.9885  -2.2016   1.8531 O.3            1 S1                 0.0000
     17 ****        -0.6029  -3.8260   1.0485 C.3            1 S1                 0.0000
     18 ****        -0.8663  -4.2223   2.2939 F              1 S1                 0.0000
     19 ****        -1.7182  -3.9582   0.3304 F              1 S1                 0.0000
     20 ****         0.3397  -4.6073   0.5197 F              1 S1                 0.0000
     21 ****        -5.3584   1.6489   0.7727 H              1 S1                 0.0000
     22 ****        -4.2712   1.6379  -1.2332 H              1 S1                 0.0000
     23 ****        -4.2563   3.2094  -0.4508 H              1 S1                 0.0000
     24 ****        -1.9914   2.7549  -1.1844 H              1 S1                 0.0000
     25 ****        -2.0056   2.6742   0.5613 H              1 S1                 0.0000
     26 ****        -2.1280   0.1517   0.4196 H              1 S1                 0.0000
     27 ****        -2.1128   0.2557  -1.3267 H              1 S1                 0.0000
     28 ****         3.1096   3.1641  -0.4363 H              1 S1                 0.0000
     29 ****         5.2318   1.8440  -0.3985 H              1 S1                 0.0000
     30 ****         5.1912  -0.6228  -0.3483 H              1 S1                 0.0000
     31 ****         3.0388  -1.8745  -0.3346 H              1 S1                 0.0000
     32 ****        -0.7660  -1.9092  -0.9951 H              1 S1                 0.0000
     33 ****         0.8981  -2.4016  -0.8700 H              1 S1                 0.0000
     34 ****        -0.9537  -1.7494   1.4952 H              1 S1                 0.0000
     35 ****         1.1991  -1.2823   1.9075 H              1 S1                 0.0000
     36 ****         0.2551   2.7607  -0.4412 H              1 S1                 0.0000
     37 ****        -4.0947   2.1381   1.6060 LP             1 S1                 0.0000
     38 ****        -4.1117   0.6683   0.8945 LP             1 S1                 0.0000
     39 ****         1.7539  -2.6999   1.4458 LP             1 S1                 0.0000
     40 ****         0.8060  -2.5610   2.7682 LP             1 S1                 0.0000
@<TRIPOS>BOND
    1    1    2 1     
    2    1   21 1     
    3    2    3 1     
    4    2   22 1     
    5    2   23 1     
    6    3    4 1     
    7    3   24 1     
    8    3   25 1     
    9    4    5 1     
   10    4   26 1     
   11    4   27 1     
   12    5   13 1     
   13    5    6 2     
   14    6    7 1     
   15    6   36 1     
   16    7   12 ar    
   17    7    8 ar    
   18    8    9 ar    
   19    8   28 1     
   20    9   10 ar    
   21    9   29 1     
   22   10   11 ar    
   23   10   30 1     
   24   11   12 ar    
   25   11   31 1     
   26   12   13 1     
   27   13   14 1     
   28   14   15 1     
   29   14   32 1     
   30   14   33 1     
   31   15   16 1     
   32   15   17 1     
   33   15   34 1     
   34   16   35 1     
   35   17   18 1     
   36   17   19 1     
   37   17   20 1     
   38    1   37 1     
   39    1   38 1     
   40   16   39 1     
   41   16   40 1     
@<TRIPOS>SUBSTRUCTURE
      1 S1             1
@<TRIPOS>SET
LONE_PAIRS      STATIC     ATOMS    <user>   **** ""
4 37 38 39 40
DONOR_HYDROGENS      STATIC     ATOMS    <user>   **** ""
3 21 36 35
ATOM$BLUE        STATIC     ATOMS    COLORGROUP SYSTEM
4 37 38 39 40
ATOM$RED        STATIC     ATOMS    COLORGROUP SYSTEM
3 21 36 35
