AV-unprocessed.smi:1822|AV-procd|sdf|7390|dock10
  -GOLD-   22720 9 63D 1   1.00000     0.00000
 Structure written by MMmdl.
 46 47  0  0  0  0  0  0  0  0  1 V2000
  147.8313  129.5928  161.8251 C   0  0  0  0  0  0  0  0  0  0  0  0
  147.7668  131.0461  161.8591 N   0  0  0  0  0  0  0  0  0  0  0  0
  147.8790  131.8388  160.7804 C   0  0  0  0  0  0  0  0  0  0  0  0
  148.0428  131.3751  159.6505 O   0  0  0  0  0  0  0  0  0  0  0  0
  147.7906  133.2691  161.0847 C   0  0  0  0  0  0  0  0  0  0  0  0
  147.6044  133.7865  162.4321 C   0  0  0  0  0  0  0  0  0  0  0  0
  147.5326  135.1139  162.6526 C   0  0  0  0  0  0  0  0  0  0  0  0
  147.6366  136.0851  161.5599 C   0  0  0  0  0  0  0  0  0  0  0  0
  147.5715  137.2986  161.7566 O   0  0  0  0  0  0  0  0  0  0  0  0
  147.8083  135.5577  160.3100 N   0  0  0  0  0  0  0  0  0  0  0  0
  147.9272  136.4341  159.1323 C   0  0  0  0  0  0  0  0  0  0  0  0
  149.3545  136.9623  158.9401 C   0  0  0  0  0  0  0  0  0  0  0  0
  150.2940  136.1649  158.9380 O   0  0  0  0  0  0  0  0  0  0  0  0
  149.4683  138.2966  158.7734 N   0  0  0  0  0  0  0  0  0  0  0  0
  150.5950  139.0088  158.5833 C   0  0  0  0  0  0  0  0  0  0  0  0
  151.7373  138.5478  158.5290 O   0  0  0  0  0  0  0  0  0  0  0  0
  150.3191  140.3147  158.4514 N   0  0  0  0  0  0  0  0  0  0  0  0
  151.3044  141.3696  158.2330 C   0  0  0  0  0  0  0  0  0  0  0  0
  152.2316  141.4689  159.4592 C   0  0  0  0  0  0  0  0  0  0  0  0
  153.2461  142.6140  159.3081 C   0  0  0  0  0  0  0  0  0  0  0  0
  152.5401  143.9534  159.0459 C   0  0  0  0  0  0  0  0  0  0  0  0
  151.6194  143.8630  157.8189 C   0  0  0  0  0  0  0  0  0  0  0  0
  150.6039  142.7179  157.9644 C   0  0  0  0  0  0  0  0  0  0  0  0
  147.8842  134.1685  160.0858 C   0  0  0  0  0  0  0  0  0  0  0  0
  147.7471  129.1941  162.8360 H   0  0  0  0  0  0  0  0  0  0  0  0
  148.7787  129.2548  161.4036 H   0  0  0  0  0  0  0  0  0  0  0  0
  147.0169  129.1819  161.2276 H   0  0  0  0  0  0  0  0  0  0  0  0
  147.6323  131.4804  162.7607 H   0  0  0  0  0  0  0  0  0  0  0  0
  147.5187  133.1256  163.2819 H   0  0  0  0  0  0  0  0  0  0  0  0
  147.3939  135.4744  163.6614 H   0  0  0  0  0  0  0  0  0  0  0  0
  147.6091  135.9055  158.2315 H   0  0  0  0  0  0  0  0  0  0  0  0
  147.2515  137.2871  159.2116 H   0  0  0  0  0  0  0  0  0  0  0  0
  148.6065  138.8214  158.7979 H   0  0  0  0  0  0  0  0  0  0  0  0
  149.3530  140.6030  158.5010 H   0  0  0  0  0  0  0  0  0  0  0  0
  151.9173  141.1115  157.3669 H   0  0  0  0  0  0  0  0  0  0  0  0
  151.6379  141.6308  160.3601 H   0  0  0  0  0  0  0  0  0  0  0  0
  152.7621  140.5272  159.6041 H   0  0  0  0  0  0  0  0  0  0  0  0
  153.8600  142.6876  160.2060 H   0  0  0  0  0  0  0  0  0  0  0  0
  153.9269  142.3924  158.4852 H   0  0  0  0  0  0  0  0  0  0  0  0
  151.9553  144.2365  159.9220 H   0  0  0  0  0  0  0  0  0  0  0  0
  153.2792  144.7415  158.8992 H   0  0  0  0  0  0  0  0  0  0  0  0
  151.0954  144.8085  157.6769 H   0  0  0  0  0  0  0  0  0  0  0  0
  152.2203  143.7052  156.9226 H   0  0  0  0  0  0  0  0  0  0  0  0
  149.9969  142.6538  157.0606 H   0  0  0  0  0  0  0  0  0  0  0  0
  149.9172  142.9464  158.7808 H   0  0  0  0  0  0  0  0  0  0  0  0
  148.0200  133.8916  159.0494 H   0  0  0  0  0  0  0  0  0  0  0  0
  1  2  1  0  0  0  0
  1 25  1  0  0  0  0
  1 26  1  0  0  0  0
  1 27  1  0  0  0  0
  2  3  1  0  0  0  0
  2 28  1  0  0  0  0
  3  4  2  0  0  0  0
  3  5  1  0  0  0  0
  5 24  2  0  0  0  0
  5  6  1  0  0  0  0
  6  7  2  0  0  0  0
  6 29  1  0  0  0  0
  7  8  1  0  0  0  0
  7 30  1  0  0  0  0
  8  9  2  0  0  0  0
  8 10  1  0  0  0  0
 10 11  1  0  0  0  0
 10 24  1  0  0  0  0
 11 12  1  0  0  0  0
 11 31  1  0  0  0  0
 11 32  1  0  0  0  0
 12 13  2  0  0  0  0
 12 14  1  0  0  0  0
 14 15  1  0  0  0  0
 14 33  1  0  0  0  0
 15 16  2  0  0  0  0
 15 17  1  0  0  0  0
 17 18  1  0  0  0  0
 17 34  1  0  0  0  0
 18 23  1  0  0  0  0
 18 19  1  0  0  0  0
 18 35  1  0  0  0  0
 19 20  1  0  0  0  0
 19 36  1  0  0  0  0
 19 37  1  0  0  0  0
 20 21  1  0  0  0  0
 20 38  1  0  0  0  0
 20 39  1  0  0  0  0
 21 22  1  0  0  0  0
 21 40  1  0  0  0  0
 21 41  1  0  0  0  0
 22 23  1  0  0  0  0
 22 42  1  0  0  0  0
 22 43  1  0  0  0  0
 23 44  1  0  0  0  0
 23 45  1  0  0  0  0
 24 46  1  0  0  0  0
M  END
> <s_m_source_file>
AV-unprocessed.smi

> <i_m_source_file_index>
1822

> <i_lp_mmshare_version>
43012

> <i_f3d_flags>
0

> <s_epik_input>
W0NIM11bTkhdQyg9TyljMVtjSF1bY0hdYyg9TyluKFtjSF0xKVtDSDJdQyg9TylbTkhdQyg9TylbTkhdW0NIXTJbQ0gyXVtDSDJdW0NIMl1bQ0gyXVtDSDJdMg==

> <s_epik_cmdline>
J2VwaWtfcHl0aG9uJywgJy1waCcsICc3LjAnLCAnLXRuJywgJzgnLCAnLW1hJywgJzIwMCcsICctbWV0YWxfYmluZGluZycsICctaW1hZScsICc8aW5maWxlLm1hZT4nLCAnLW9tYWUnLCAnPG91dGZpbGUubWFlPic=

> <r_lp_tautomer_probability>
1

> <r_epik_Ionization_Penalty>
3.30797e-05

> <r_epik_Ionization_Penalty_Charging>
3.7169e-08

> <r_epik_Ionization_Penalty_Neutral>
3.30425e-05

> <r_epik_State_Penalty>
-0

> <r_epik_Charging_Adjusted_Penalty>
3.7169e-08

> <i_epik_Tot_Q>
0

> <i_epik_Tot_abs_Q>
0

> <r_epik_Metal_State_Penalty>
-0

> <b_epik_Metal_Only>
0

> <s_lp_Force_Field>
OPLS_2005

> <r_lp_Energy>
24.3679

> <b_lp_Chiralities_Consistent>
1

> <s_lp_Variant>
AV-unprocessed.smi:1822-1

> <Gold.Version>
5.8.1

> <Gold.Id.Protein>
6NUR|6NUR_protein|mol2

> <Gold.PLP.Fitness>
50.3568

> <Gold.PLP.PLP>
-42.9486

> <Gold.PLP.part.hbond>
-3.0000

> <Gold.PLP.part.metal>
0.0000

> <Gold.PLP.part.buried>
-5.8023

> <Gold.PLP.part.nonpolar>
-35.3559

> <Gold.PLP.part.repulsive>
0.4072

> <Gold.PLP.ligand.clash>
0.0000

> <Gold.PLP.ligand.torsion>
0.4411

> <Gold.PLP.Chemscore.Hbond>
2.7600

> <Gold.PLP.Chemscore.CHOScore>
0.0000

> <Gold.PLP.Chemscore.Metal>
0.0000

> <Gold.Chemscore.Hbonds>
donor molecule, donor type, donor heavy atom, donor atom, acceptor molecule, acceptor atom, score
      P1  H  6896  6909       L1    13  1.00
      P1  H  6931  6943       L1     9  0.93
      P1  H  6934  6947       L1     9  0.72

> <Gold.PLP.Chemscore.Internal.Correction>
0.0103

> <Gold.Rescore>
     Score         DG    S(hbond)    S(metal)    S(lipo)     H(rot)  DE(clash)    DE(int)     intcor
     19.54     -21.24       2.68        0.00      93.67       1.62       0.01       1.70       ----

> <Gold.Chemscore.Fitness>
19.5369

> <Gold.Chemscore.DG>
-21.2447

> <Gold.Chemscore.ZeroCoef>
-5.4800

> <Gold.Chemscore.Hbond>
2.6767

> <Gold.Chemscore.Metal>
0.0000

> <Gold.Chemscore.Lipo>
93.6688

> <Gold.Chemscore.Internal_Hbond>
0.0000

> <Gold.Chemscore.DEClash>
0.0073

> <Gold.Chemscore.DEInternal>
1.7005

> <Gold.Chemscore.Rot>
1.6151

> <Gold.Chemscore.Internal.Correction>
   9.000000E+99

> <Gold.Chemscore.Hbonds>
donor molecule, donor type, donor heavy atom, donor atom, acceptor molecule, acceptor atom, score
      P1  H  6896  6909       L1    13  0.97
      P1  H  6931  6943       L1     9  0.88
      P1  H  6934  6947       L1     9  0.71

> <Gold.Chemscore.Hbond.Weighted>
-8.9401

> <Gold.Chemscore.Metal.Weighted>
-0.0000

> <Gold.Chemscore.Lipo.Weighted>
-10.9592

> <Gold.Chemscore.Internal_Hbond.Weighted>
0.0000

> <Gold.Chemscore.DEClash.Weighted>
0.0073

> <Gold.Chemscore.DEInternal.Weighted>
1.7005

> <Gold.Chemscore.Rot.Weighted>
4.1346

> <Gold.Chemscore.Internal.Correction.Weighted>
   9.000000E+99

> <Gold.Protein.RotatedTorsions>
[ 6907 6896 6895 6894 ] final   66.34 input  -60.11 | X-H torsion
[ 7974 7965 7964 7962 ] final -106.15 input  175.53 | X-H torsion
[ 8008 7997 7996 7995 ] final   60.14 input   59.86 | X-H torsion
[ 10167 10162 10161 10158 ] final   50.60 input  -65.29 | X-H torsion
[ 10718 10713 10712 10709 ] final -156.50 input   66.30 | X-H torsion
[ 10763 10752 10751 10750 ] final -170.47 input  -60.55 | X-H torsion
[ 11005 11000 10999 10996 ] final  -76.79 input  -57.11 | X-H torsion

> <Gold.Protein.ActiveResidues>
 VAL166  LYS551  ARG553  GLY616  TRP617  ASP618  TYR619  PRO620  LYS621  CYS622 
 ASP623  PHE694  ASN695  SER759  ASP760  ASP761  ALA762  ILE779  LEU786  VAL792 
 PHE793  MET794  SER795  GLU796  ALA797  LYS798  CYS799  TRP800  GLU811  SER814 

> <Gold.Protein.RotatedAtoms>
  152.4473  134.5467  159.9854 H   0  0  0  0  0  0  0  0  0  0  0  0  # atno 6907 bound_to 6896
  151.5548  133.3406  159.2968 H   0  0  0  0  0  0  0  0  0  0  0  0  # atno 6908 bound_to 6896
  150.8393  134.7711  159.6982 H   0  0  0  0  0  0  0  0  0  0  0  0  # atno 6909 bound_to 6896
  145.2215  140.9136  143.3257 H   0  0  0  0  0  0  0  0  0  0  0  0  # atno 7974 bound_to 7965
  155.5775  140.3491  155.4531 H   0  0  0  0  0  0  0  0  0  0  0  0  # atno 8008 bound_to 7997
  156.0398  140.1293  157.0193 H   0  0  0  0  0  0  0  0  0  0  0  0  # atno 8009 bound_to 7997
  154.4387  140.1026  156.6206 H   0  0  0  0  0  0  0  0  0  0  0  0  # atno 8010 bound_to 7997
  140.2707  144.3268  150.6291 H   0  0  0  0  0  0  0  0  0  0  0  0  # atno 10167 bound_to 10162
  156.5273  130.8505  151.2704 H   0  0  0  0  0  0  0  0  0  0  0  0  # atno 10718 bound_to 10713
  154.6412  135.2899  155.0101 H   0  0  0  0  0  0  0  0  0  0  0  0  # atno 10763 bound_to 10752
  154.1227  135.6545  153.4910 H   0  0  0  0  0  0  0  0  0  0  0  0  # atno 10764 bound_to 10752
  153.0327  135.5291  154.7279 H   0  0  0  0  0  0  0  0  0  0  0  0  # atno 10765 bound_to 10752
  141.1656  133.6997  156.7723 H   0  0  0  0  0  0  0  0  0  0  0  0  # atno 11005 bound_to 11000
  144.9761  139.3830  143.6285 LP  0  0  0  0  0  0  0  0  0  0  0  0  # atno 17320 bound_to 7965
  146.3375  139.8881  142.8813 LP  0  0  0  0  0  0  0  0  0  0  0  0  # atno 17321 bound_to 7965
  140.5891  143.2168  151.7286 LP  0  0  0  0  0  0  0  0  0  0  0  0  # atno 17342 bound_to 10162
  139.4989  144.3965  152.0225 LP  0  0  0  0  0  0  0  0  0  0  0  0  # atno 17343 bound_to 10162
  157.7427  130.9897  150.2538 LP  0  0  0  0  0  0  0  0  0  0  0  0  # atno 17370 bound_to 10713
  156.3092  130.3769  149.7677 LP  0  0  0  0  0  0  0  0  0  0  0  0  # atno 17371 bound_to 10713
  140.2455  134.8581  157.3616 LP  0  0  0  0  0  0  0  0  0  0  0  0  # atno 17394 bound_to 11000
  140.1754  134.4556  155.7805 LP  0  0  0  0  0  0  0  0  0  0  0  0  # atno 17395 bound_to 11000

$$$$
