AV-unprocessed.smi:2090|AV-procd|sdf|8533|dock2
  -GOLD-   2272011253D 1   1.00000     0.00000
 Structure written by MMmdl.
 42 43  0  0  0  0  0  0  0  0  2 V2000
  151.4990  141.7678  157.6827 C   0  0  0  0  0  0  0  0  0  0  0  0
  151.2708  140.7910  156.5804 C   0  0  0  0  0  0  0  0  0  0  0  0
  150.2311  140.5880  155.7170 C   0  0  0  0  0  0  0  0  0  0  0  0
  150.6792  139.4947  154.9290 C   0  0  0  0  0  0  0  0  0  0  0  0
  149.8727  138.9675  153.8882 N   0  0  0  0  0  0  0  0  0  0  0  0
  148.6089  139.3073  153.5824 C   0  0  0  0  0  0  0  0  0  0  0  0
  147.9424  140.1637  154.1647 O   0  0  0  0  0  0  0  0  0  0  0  0
  148.1427  138.5879  152.5510 N   0  0  0  0  0  0  0  0  0  0  0  0
  146.8047  138.7185  151.9852 C   0  0  0  0  0  0  0  0  0  0  0  0
  145.7947  137.8031  152.7046 C   0  0  0  0  0  0  0  0  0  0  0  0
  146.0169  136.3659  152.4064 N   0  3  2  0  0  0  0  0  0  0  0  0
  145.6074  136.0132  151.0223 C   0  0  0  0  0  0  0  0  0  0  0  0
  145.9745  134.5573  150.6842 C   0  0  0  0  0  0  0  0  0  0  0  0
  145.3780  133.5580  151.6916 C   0  0  2  0  0  0  0  0  0  0  0  0
  143.8621  133.3639  151.5116 C   0  0  0  0  0  0  0  0  0  0  0  0
  145.7591  133.9852  153.1207 C   0  0  0  0  0  0  0  0  0  0  0  0
  145.4007  135.4550  153.4073 C   0  0  0  0  0  0  0  0  0  0  0  0
  151.8827  139.0682  155.2801 N   0  0  0  0  0  0  0  0  0  0  0  0
  152.2675  139.8962  156.3411 O   0  0  0  0  0  0  0  0  0  0  0  0
  150.7052  142.5142  157.7129 H   0  0  0  0  0  0  0  0  0  0  0  0
  152.4471  142.2886  157.5478 H   0  0  0  0  0  0  0  0  0  0  0  0
  151.5244  141.2615  158.6477 H   0  0  0  0  0  0  0  0  0  0  0  0
  149.3026  141.1367  155.6603 H   0  0  0  0  0  0  0  0  0  0  0  0
  150.3019  138.2496  153.3234 H   0  0  0  0  0  0  0  0  0  0  0  0
  148.7561  137.9069  152.1268 H   0  0  0  0  0  0  0  0  0  0  0  0
  146.4810  139.7597  152.0347 H   0  0  0  0  0  0  0  0  0  0  0  0
  146.8762  138.4651  150.9282 H   0  0  0  0  0  0  0  0  0  0  0  0
  145.8214  137.9667  153.7831 H   0  0  0  0  0  0  0  0  0  0  0  0
  144.7906  138.0777  152.3788 H   0  0  0  0  0  0  0  0  0  0  0  0
  144.5357  136.1768  150.9039 H   0  0  0  0  0  0  0  0  0  0  0  0
  146.1049  136.6750  150.3121 H   0  0  0  0  0  0  0  0  0  0  0  0
  145.6492  134.3144  149.6718 H   0  0  0  0  0  0  0  0  0  0  0  0
  147.0608  134.4585  150.6835 H   0  0  0  0  0  0  0  0  0  0  0  0
  145.8374  132.5865  151.5036 H   0  0  0  0  0  0  0  0  0  0  0  0
  143.3051  134.2844  151.6836 H   0  0  0  0  0  0  0  0  0  0  0  0
  143.4798  132.6140  152.2048 H   0  0  0  0  0  0  0  0  0  0  0  0
  143.6304  133.0225  150.5023 H   0  0  0  0  0  0  0  0  0  0  0  0
  145.2780  133.3332  153.8504 H   0  0  0  0  0  0  0  0  0  0  0  0
  146.8330  133.8511  153.2585 H   0  0  0  0  0  0  0  0  0  0  0  0
  145.7460  135.7067  154.4090 H   0  0  0  0  0  0  0  0  0  0  0  0
  144.3184  135.5905  153.4092 H   0  0  0  0  0  0  0  0  0  0  0  0
  147.0154  136.2185  152.4478 H   0  0  0  0  0  0  0  0  0  0  0  0
  1  2  1  0  0  0  0
  1 20  1  0  0  0  0
  1 21  1  0  0  0  0
  1 22  1  0  0  0  0
  2 19  1  0  0  0  0
  2  3  2  0  0  0  0
  3  4  1  0  0  0  0
  3 23  1  0  0  0  0
  4  5  1  0  0  0  0
  4 18  2  0  0  0  0
  5  6  1  0  0  0  0
  5 24  1  0  0  0  0
  6  7  2  0  0  0  0
  6  8  1  0  0  0  0
  8  9  1  0  0  0  0
  8 25  1  0  0  0  0
  9 10  1  0  0  0  0
  9 26  1  0  0  0  0
  9 27  1  0  0  0  0
 10 11  1  0  0  0  0
 10 28  1  0  0  0  0
 10 29  1  0  0  0  0
 11 17  1  0  0  0  0
 11 12  1  0  0  0  0
 11 42  1  0  0  0  0
 12 13  1  0  0  0  0
 12 30  1  0  0  0  0
 12 31  1  0  0  0  0
 13 14  1  0  0  0  0
 13 32  1  0  0  0  0
 13 33  1  0  0  0  0
 14 15  1  0  0  0  0
 14 16  1  0  0  0  0
 14 34  1  0  0  0  0
 15 35  1  0  0  0  0
 15 36  1  0  0  0  0
 15 37  1  0  0  0  0
 16 17  1  0  0  0  0
 16 38  1  0  0  0  0
 16 39  1  0  0  0  0
 17 40  1  0  0  0  0
 17 41  1  0  0  0  0
 18 19  1  0  0  0  0
M  CHG  1  11   1
M  END
> <s_m_source_file>
AV-unprocessed.smi

> <i_m_source_file_index>
2090

> <i_lp_mmshare_version>
43012

> <i_f3d_flags>
0

> <s_epik_input>
W0NIM11jMVtjSF1jKG5vMSlbTkhdQyg9TylbTkhdW0NIMl1bQ0gyXU4yW0NIMl1bQ0gyXVtDSF0oW0NIM10pW0NIMl1bQ0gyXTI=

> <s_epik_cmdline>
J2VwaWtfcHl0aG9uJywgJy1waCcsICc3LjAnLCAnLXRuJywgJzgnLCAnLW1hJywgJzIwMCcsICctbWV0YWxfYmluZGluZycsICctaW1hZScsICc8aW5maWxlLm1hZT4nLCAnLW9tYWUnLCAnPG91dGZpbGUubWFlPic=

> <r_epik_Ionization_Penalty>
0.00176265

> <r_epik_Ionization_Penalty_Charging>
0.00172695

> <r_epik_Ionization_Penalty_Neutral>
3.56992e-05

> <r_epik_State_Penalty>
0.00116803

> <r_epik_Charging_Adjusted_Penalty>
0.00289498

> <i_epik_Tot_Q>
1

> <i_epik_Tot_abs_Q>
1

> <r_epik_Metal_State_Penalty>
0.0215312

> <b_epik_Metal_Only>
0

> <s_lp_Force_Field>
OPLS_2005

> <r_lp_Energy>
14.8541

> <b_lp_Chiralities_Consistent>
1

> <s_lp_Variant>
AV-unprocessed.smi:2090-2

> <Gold.Version>
5.8.1

> <Gold.Id.Protein>
6NUR|6NUR_protein|mol2

> <Gold.PLP.Fitness>
42.7460

> <Gold.PLP.PLP>
-31.7017

> <Gold.PLP.part.hbond>
-4.7846

> <Gold.PLP.part.metal>
0.0000

> <Gold.PLP.part.buried>
0.2620

> <Gold.PLP.part.nonpolar>
-25.5625

> <Gold.PLP.part.repulsive>
0.3323

> <Gold.PLP.ligand.clash>
0.0000

> <Gold.PLP.ligand.torsion>
0.3535

> <Gold.PLP.Chemscore.Hbond>
3.9120

> <Gold.PLP.Chemscore.CHOScore>
0.0000

> <Gold.PLP.Chemscore.Metal>
0.0000

> <Gold.Chemscore.Hbonds>
donor molecule, donor type, donor heavy atom, donor atom, acceptor molecule, acceptor atom, score
      L1  H     8    25       P1  7948  0.90
      L1  H    11    42       P1  7948  2.00
      P1  H  7997  8009       L1    19  0.86

> <Gold.PLP.Chemscore.Internal.Correction>
0.0153

> <Gold.Rescore>
     Score         DG    S(hbond)    S(metal)    S(lipo)     H(rot)  DE(clash)    DE(int)     intcor
     14.65     -17.81       2.66        0.00      63.81       1.57       1.47       1.68       ----

> <Gold.Chemscore.Fitness>
14.6543

> <Gold.Chemscore.DG>
-17.8057

> <Gold.Chemscore.ZeroCoef>
-5.4800

> <Gold.Chemscore.Hbond>
2.6582

> <Gold.Chemscore.Metal>
0.0000

> <Gold.Chemscore.Lipo>
63.8086

> <Gold.Chemscore.Internal_Hbond>
0.0000

> <Gold.Chemscore.DEClash>
1.4679

> <Gold.Chemscore.DEInternal>
1.6835

> <Gold.Chemscore.Rot>
1.5697

> <Gold.Chemscore.Internal.Correction>
   9.000000E+99

> <Gold.Chemscore.Hbonds>
donor molecule, donor type, donor heavy atom, donor atom, acceptor molecule, acceptor atom, score
      L1  H     8    25       P1  7948  0.88
      L1  H    11    42       P1  7948  0.94
      P1  H  7997  8009       L1    19  0.55

> <Gold.Chemscore.Hbond.Weighted>
-8.8785

> <Gold.Chemscore.Metal.Weighted>
-0.0000

> <Gold.Chemscore.Lipo.Weighted>
-7.4656

> <Gold.Chemscore.Internal_Hbond.Weighted>
0.0000

> <Gold.Chemscore.DEClash.Weighted>
1.4679

> <Gold.Chemscore.DEInternal.Weighted>
1.6835

> <Gold.Chemscore.Rot.Weighted>
4.0185

> <Gold.Chemscore.Internal.Correction.Weighted>
   9.000000E+99

> <Gold.Protein.RotatedTorsions>
[ 6907 6896 6895 6894 ] final  -46.30 input  -60.11 | X-H torsion
[ 7974 7965 7964 7962 ] final   39.39 input  175.53 | X-H torsion
[ 8008 7997 7996 7995 ] final -155.82 input   59.86 | X-H torsion
[ 10167 10162 10161 10158 ] final  148.60 input  -65.29 | X-H torsion
[ 10718 10713 10712 10709 ] final   17.67 input   66.30 | X-H torsion
[ 10763 10752 10751 10750 ] final  -91.46 input  -60.55 | X-H torsion
[ 11005 11000 10999 10996 ] final   59.28 input  -57.11 | X-H torsion

> <Gold.Protein.ActiveResidues>
 VAL166  LYS551  ARG553  GLY616  TRP617  ASP618  TYR619  PRO620  LYS621  CYS622 
 ASP623  PHE694  ASN695  SER759  ASP760  ASP761  ALA762  ILE779  LEU786  VAL792 
 PHE793  MET794  SER795  GLU796  ALA797  LYS798  CYS799  TRP800  GLU811  SER814 

> <Gold.Protein.RotatedAtoms>
  150.9127  134.8544  159.7435 H   0  0  0  0  0  0  0  0  0  0  0  0  # atno 6907 bound_to 6896
  152.4952  134.4335  159.9530 H   0  0  0  0  0  0  0  0  0  0  0  0  # atno 6908 bound_to 6896
  151.4376  133.3613  159.2812 H   0  0  0  0  0  0  0  0  0  0  0  0  # atno 6909 bound_to 6896
  146.0988  139.5657  142.9428 H   0  0  0  0  0  0  0  0  0  0  0  0  # atno 7974 bound_to 7965
  155.7078  140.0774  157.2384 H   0  0  0  0  0  0  0  0  0  0  0  0  # atno 8008 bound_to 7997
  154.4063  140.1635  156.2316 H   0  0  0  0  0  0  0  0  0  0  0  0  # atno 8009 bound_to 7997
  155.9310  140.3391  155.6252 H   0  0  0  0  0  0  0  0  0  0  0  0  # atno 8010 bound_to 7997
  139.4872  144.5666  151.7132 H   0  0  0  0  0  0  0  0  0  0  0  0  # atno 10167 bound_to 10162
  157.0854  130.6405  149.5836 H   0  0  0  0  0  0  0  0  0  0  0  0  # atno 10718 bound_to 10713
  154.6762  135.5267  153.8203 H   0  0  0  0  0  0  0  0  0  0  0  0  # atno 10763 bound_to 10752
  153.0534  135.6541  154.0647 H   0  0  0  0  0  0  0  0  0  0  0  0  # atno 10764 bound_to 10752
  154.0540  135.2967  155.3316 H   0  0  0  0  0  0  0  0  0  0  0  0  # atno 10765 bound_to 10752
  140.0315  134.6005  155.9500 H   0  0  0  0  0  0  0  0  0  0  0  0  # atno 11005 bound_to 11000
  145.5895  141.0371  143.2078 LP  0  0  0  0  0  0  0  0  0  0  0  0  # atno 17320 bound_to 7965
  144.7416  139.7433  143.7308 LP  0  0  0  0  0  0  0  0  0  0  0  0  # atno 17321 bound_to 7965
  140.5246  144.0826  150.6033 LP  0  0  0  0  0  0  0  0  0  0  0  0  # atno 17342 bound_to 10162
  140.3795  143.2810  152.0186 LP  0  0  0  0  0  0  0  0  0  0  0  0  # atno 17343 bound_to 10162
  155.9912  130.4966  150.7289 LP  0  0  0  0  0  0  0  0  0  0  0  0  # atno 17370 bound_to 10713
  157.4765  131.0898  151.0584 LP  0  0  0  0  0  0  0  0  0  0  0  0  # atno 17371 bound_to 10713
  141.1834  133.6550  156.5113 LP  0  0  0  0  0  0  0  0  0  0  0  0  # atno 17394 bound_to 11000
  140.4217  134.7181  157.4894 LP  0  0  0  0  0  0  0  0  0  0  0  0  # atno 17395 bound_to 11000

$$$$
