AV-unprocessed.smi:2059|AV-procd|sdf|8351|dock5
  -GOLD-   2272011 23D 1   1.00000     0.00000
 Structure written by MMmdl.
 29 30  0  0  0  0  0  0  0  0  2 V2000
  151.2658  145.1429  159.3824 C   0  0  0  0  0  0  0  0  0  0  0  0
  151.9366  143.9385  159.9491 C   0  0  0  0  0  0  0  0  0  0  0  0
  152.6164  142.9009  159.3774 C   0  0  0  0  0  0  0  0  0  0  0  0
  152.9918  142.1041  160.4929 C   0  0  0  0  0  0  0  0  0  0  0  0
  153.6849  140.9529  160.4391 N   0  5  0  0  0  0  0  0  0  0  0  0
  153.5181  140.0375  159.4478 C   0  0  0  0  0  0  0  0  0  0  0  0
  154.4406  139.3661  158.9872 O   0  0  0  0  0  0  0  0  0  0  0  0
  152.2778  139.8664  158.9507 N   0  0  0  0  0  0  0  0  0  0  0  0
  151.8923  138.9326  157.8977 C   0  0  1  0  0  0  0  0  0  0  0  0
  150.3597  138.8352  157.7869 C   0  0  0  0  0  0  0  0  0  0  0  0
  150.0056  138.1424  156.4657 C   0  0  0  0  0  0  0  0  0  0  0  0
  151.3295  138.5993  155.2833 S   0  0  0  0  0  0  0  0  0  0  0  0
  151.9442  137.3703  154.7588 O   0  0  0  0  0  0  0  0  0  0  0  0
  150.8377  139.6460  154.3745 O   0  0  0  0  0  0  0  0  0  0  0  0
  152.4407  139.3587  156.5262 C   0  0  0  0  0  0  0  0  0  0  0  0
  152.5664  142.6069  161.6399 N   0  0  0  0  0  0  0  0  0  0  0  0
  151.8935  143.7868  161.3002 O   0  0  0  0  0  0  0  0  0  0  0  0
  150.3626  144.8609  158.8414 H   0  0  0  0  0  0  0  0  0  0  0  0
  151.9271  145.6629  158.6892 H   0  0  0  0  0  0  0  0  0  0  0  0
  150.9840  145.8431  160.1689 H   0  0  0  0  0  0  0  0  0  0  0  0
  152.8154  142.7370  158.3291 H   0  0  0  0  0  0  0  0  0  0  0  0
  151.5419  140.4353  159.3435 H   0  0  0  0  0  0  0  0  0  0  0  0
  152.2740  137.9378  158.1352 H   0  0  0  0  0  0  0  0  0  0  0  0
  149.9229  138.3168  158.6411 H   0  0  0  0  0  0  0  0  0  0  0  0
  149.9370  139.8409  157.7756 H   0  0  0  0  0  0  0  0  0  0  0  0
  150.0205  137.0588  156.5831 H   0  0  0  0  0  0  0  0  0  0  0  0
  149.0313  138.4385  156.0769 H   0  0  0  0  0  0  0  0  0  0  0  0
  152.3920  140.4409  156.4010 H   0  0  0  0  0  0  0  0  0  0  0  0
  153.4686  139.0356  156.3610 H   0  0  0  0  0  0  0  0  0  0  0  0
  1  2  1  0  0  0  0
  1 18  1  0  0  0  0
  1 19  1  0  0  0  0
  1 20  1  0  0  0  0
  2 17  1  0  0  0  0
  2  3  2  0  0  0  0
  3  4  1  0  0  0  0
  3 21  1  0  0  0  0
  4  5  1  0  0  0  0
  4 16  2  0  0  0  0
  5  6  1  0  0  0  0
  6  7  2  0  0  0  0
  6  8  1  0  0  0  0
  8  9  1  0  0  0  0
  8 22  1  0  0  0  0
  9 15  1  0  0  0  0
  9 10  1  0  0  0  0
  9 23  1  0  0  0  0
 10 11  1  0  0  0  0
 10 24  1  0  0  0  0
 10 25  1  0  0  0  0
 11 12  1  0  0  0  0
 11 26  1  0  0  0  0
 11 27  1  0  0  0  0
 12 13  2  0  0  0  0
 12 14  2  0  0  0  0
 12 15  1  0  0  0  0
 15 28  1  0  0  0  0
 15 29  1  0  0  0  0
 16 17  1  0  0  0  0
M  CHG  1   5  -1
M  END
> <s_m_source_file>
AV-unprocessed.smi

> <i_m_source_file_index>
2059

> <i_lp_mmshare_version>
43012

> <i_f3d_flags>
0

> <s_epik_input>
W0NIM11jMVtjSF1jKG5vMSlbTkhdQyg9TylbTkhdW0NAQEhdKFtDSDJdMilbQ0gyXVtDSDJdUzIoPU8pPU8=

> <s_epik_cmdline>
J2VwaWtfcHl0aG9uJywgJy1waCcsICc3LjAnLCAnLXRuJywgJzgnLCAnLW1hJywgJzIwMCcsICctbWV0YWxfYmluZGluZycsICctaW1hZScsICc8aW5maWxlLm1hZT4nLCAnLW9tYWUnLCAnPG91dGZpbGUubWFlPic=

> <r_lp_tautomer_probability>
1

> <r_epik_Ionization_Penalty>
6.15571

> <r_epik_Ionization_Penalty_Charging>
6.1556

> <r_epik_Ionization_Penalty_Neutral>
0.000110918

> <r_epik_State_Penalty>
6.15558

> <r_epik_Charging_Adjusted_Penalty>
12.3112

> <i_epik_Tot_Q>
-1

> <i_epik_Tot_abs_Q>
1

> <r_epik_Metal_State_Penalty>
2.1059

> <b_epik_Metal_Only>
1

> <s_lp_Force_Field>
OPLS_2005

> <r_lp_Energy>
-1.66836

> <b_lp_Chiralities_Consistent>
1

> <s_lp_Variant>
AV-unprocessed.smi:2059-4

> <Gold.Version>
5.8.1

> <Gold.Id.Protein>
6NUR|6NUR_protein|mol2

> <Gold.PLP.Fitness>
37.6737

> <Gold.PLP.PLP>
-29.9590

> <Gold.PLP.part.hbond>
-3.0000

> <Gold.PLP.part.metal>
0.0000

> <Gold.PLP.part.buried>
-5.4385

> <Gold.PLP.part.nonpolar>
-22.1186

> <Gold.PLP.part.repulsive>
0.5487

> <Gold.PLP.ligand.clash>
0.0000

> <Gold.PLP.ligand.torsion>
0.6322

> <Gold.PLP.Chemscore.Hbond>
2.9920

> <Gold.PLP.Chemscore.CHOScore>
0.0000

> <Gold.PLP.Chemscore.Metal>
0.0000

> <Gold.Chemscore.Hbonds>
donor molecule, donor type, donor heavy atom, donor atom, acceptor molecule, acceptor atom, score
      P1  H  7989  7998       L1    14  1.00
      P1  H  7997  8009       L1     7  1.00
      P1  H 10752 10765       L1    13  0.91

> <Gold.PLP.Chemscore.Internal.Correction>
0.0031

> <Gold.Rescore>
     Score         DG    S(hbond)    S(metal)    S(lipo)     H(rot)  DE(clash)    DE(int)     intcor
     17.78     -18.57       2.80        0.00      53.83       1.00       0.11       0.68       ----

> <Gold.Chemscore.Fitness>
17.7772

> <Gold.Chemscore.DG>
-18.5671

> <Gold.Chemscore.ZeroCoef>
-5.4800

> <Gold.Chemscore.Hbond>
2.7992

> <Gold.Chemscore.Metal>
0.0000

> <Gold.Chemscore.Lipo>
53.8258

> <Gold.Chemscore.Internal_Hbond>
0.0000

> <Gold.Chemscore.DEClash>
0.1085

> <Gold.Chemscore.DEInternal>
0.6813

> <Gold.Chemscore.Rot>
1.0000

> <Gold.Chemscore.Internal.Correction>
   9.000000E+99

> <Gold.Chemscore.Hbonds>
donor molecule, donor type, donor heavy atom, donor atom, acceptor molecule, acceptor atom, score
      P1  H  7989  7998       L1    14  1.00
      P1  H  7997  8009       L1     7  0.78
      P1  H 10752 10765       L1    13  0.85

> <Gold.Chemscore.Hbond.Weighted>
-9.3494

> <Gold.Chemscore.Metal.Weighted>
-0.0000

> <Gold.Chemscore.Lipo.Weighted>
-6.2976

> <Gold.Chemscore.Internal_Hbond.Weighted>
0.0000

> <Gold.Chemscore.DEClash.Weighted>
0.1085

> <Gold.Chemscore.DEInternal.Weighted>
0.6813

> <Gold.Chemscore.Rot.Weighted>
2.5600

> <Gold.Chemscore.Internal.Correction.Weighted>
   9.000000E+99

> <Gold.Protein.RotatedTorsions>
[ 6907 6896 6895 6894 ] final  -94.51 input  -60.11 | X-H torsion
[ 7974 7965 7964 7962 ] final   14.10 input  175.53 | X-H torsion
[ 8008 7997 7996 7995 ] final  127.55 input   59.86 | X-H torsion
[ 10167 10162 10161 10158 ] final  -37.70 input  -65.29 | X-H torsion
[ 10718 10713 10712 10709 ] final  -30.46 input   66.30 | X-H torsion
[ 10763 10752 10751 10750 ] final  172.60 input  -60.55 | X-H torsion
[ 11005 11000 10999 10996 ] final    9.29 input  -57.11 | X-H torsion

> <Gold.Protein.ActiveResidues>
 VAL166  LYS551  ARG553  GLY616  TRP617  ASP618  TYR619  PRO620  LYS621  CYS622 
 ASP623  PHE694  ASN695  SER759  ASP760  ASP761  ALA762  ILE779  LEU786  VAL792 
 PHE793  MET794  SER795  GLU796  ALA797  LYS798  CYS799  TRP800  GLU811  SER814 

> <Gold.Protein.RotatedAtoms>
  150.6943  134.1801  159.4245 H   0  0  0  0  0  0  0  0  0  0  0  0  # atno 6907 bound_to 6896
  151.9776  135.0042  160.0565 H   0  0  0  0  0  0  0  0  0  0  0  0  # atno 6908 bound_to 6896
  152.1784  133.4656  159.4982 H   0  0  0  0  0  0  0  0  0  0  0  0  # atno 6909 bound_to 6896
  146.2313  139.9091  142.8527 H   0  0  0  0  0  0  0  0  0  0  0  0  # atno 7974 bound_to 7965
  156.2894  140.2666  156.2292 H   0  0  0  0  0  0  0  0  0  0  0  0  # atno 8008 bound_to 7997
  155.0089  140.0387  157.2409 H   0  0  0  0  0  0  0  0  0  0  0  0  # atno 8009 bound_to 7997
  154.7535  140.2747  155.6278 H   0  0  0  0  0  0  0  0  0  0  0  0  # atno 8010 bound_to 7997
  140.7111  143.3325  151.2538 H   0  0  0  0  0  0  0  0  0  0  0  0  # atno 10167 bound_to 10162
  156.3995  130.4387  149.7333 H   0  0  0  0  0  0  0  0  0  0  0  0  # atno 10718 bound_to 10713
  154.4283  135.2759  155.1929 H   0  0  0  0  0  0  0  0  0  0  0  0  # atno 10763 bound_to 10752
  154.3846  135.6080  153.5813 H   0  0  0  0  0  0  0  0  0  0  0  0  # atno 10764 bound_to 10752
  152.9835  135.5888  154.4590 H   0  0  0  0  0  0  0  0  0  0  0  0  # atno 10765 bound_to 10752
  140.5274  134.0499  155.7863 H   0  0  0  0  0  0  0  0  0  0  0  0  # atno 11005 bound_to 11000
  145.2248  140.9949  143.4025 LP  0  0  0  0  0  0  0  0  0  0  0  0  # atno 17320 bound_to 7965
  144.9580  139.4010  143.6370 LP  0  0  0  0  0  0  0  0  0  0  0  0  # atno 17321 bound_to 7965
  139.6810  143.9854  152.2808 LP  0  0  0  0  0  0  0  0  0  0  0  0  # atno 17342 bound_to 10162
  139.9484  144.6636  150.8196 LP  0  0  0  0  0  0  0  0  0  0  0  0  # atno 17343 bound_to 10162
  156.4355  130.7835  151.2856 LP  0  0  0  0  0  0  0  0  0  0  0  0  # atno 17370 bound_to 10713
  157.7503  131.0141  150.3450 LP  0  0  0  0  0  0  0  0  0  0  0  0  # atno 17371 bound_to 10713
  141.1300  133.9318  157.2555 LP  0  0  0  0  0  0  0  0  0  0  0  0  # atno 17394 bound_to 11000
  139.9572  135.0162  156.9162 LP  0  0  0  0  0  0  0  0  0  0  0  0  # atno 17395 bound_to 11000

$$$$
