AV-unprocessed.smi:2329|AV-procd|sdf|9307|dock5
  -GOLD-   2272012523D 1   1.00000     0.00000
 Structure written by MMmdl.
 45 48  0  0  0  0  0  0  0  0  1 V2000
  152.0752  144.6388  160.8827 C   0  0  0  0  0  0  0  0  0  0  0  0
  152.5325  143.2027  160.7356 C   0  0  0  0  0  0  0  0  0  0  0  0
  153.3131  142.5843  161.7320 C   0  0  0  0  0  0  0  0  0  0  0  0
  153.7089  141.2501  161.5309 C   0  0  0  0  0  0  0  0  0  0  0  0
  153.3109  140.5936  160.3504 C   0  0  0  0  0  0  0  0  0  0  0  0
  152.5255  141.2857  159.4015 C   0  0  0  0  0  0  0  0  0  0  0  0
  152.1787  140.5363  158.2468 N   0  0  0  0  0  0  0  0  0  0  0  0
  151.5204  140.9524  157.1465 C   0  0  0  0  0  0  0  0  0  0  0  0
  151.0582  142.0810  156.9890 O   0  0  0  0  0  0  0  0  0  0  0  0
  151.3588  139.9980  156.2134 N   0  0  0  0  0  0  0  0  0  0  0  0
  150.6922  140.1191  154.9109 C   0  0  1  0  0  0  0  0  0  0  0  0
  150.4054  138.7610  154.2249 C   0  0  1  0  0  0  0  0  0  0  0  0
  151.0003  137.4537  154.6916 C   0  0  0  0  0  0  0  0  0  0  0  0
  149.8876  136.8639  155.5626 C   0  0  0  0  0  0  0  0  0  0  0  0
  149.0751  137.9793  155.9212 O   0  0  0  0  0  0  0  0  0  0  0  0
  148.9953  138.8406  154.7886 C   0  0  1  0  0  0  0  0  0  0  0  0
  149.1692  140.3490  155.0593 C   0  0  0  0  0  0  0  0  0  0  0  0
  148.5936  140.9103  156.3609 C   0  0  0  0  0  0  0  0  0  0  0  0
  147.1580  141.3516  156.0647 C   0  0  0  0  0  0  0  0  0  0  0  0
  147.1018  141.5811  154.5513 C   0  0  0  0  0  0  0  0  0  0  0  0
  148.5086  141.2682  154.0335 C   0  0  0  0  0  0  0  0  0  0  0  0
  152.1499  142.5731  159.6039 N   0  0  0  0  0  0  0  0  0  0  0  0
  152.3186  145.0316  161.8703 H   0  0  0  0  0  0  0  0  0  0  0  0
  150.9960  144.7117  160.7451 H   0  0  0  0  0  0  0  0  0  0  0  0
  152.5611  145.2672  160.1359 H   0  0  0  0  0  0  0  0  0  0  0  0
  153.6033  143.1160  162.6263 H   0  0  0  0  0  0  0  0  0  0  0  0
  154.3085  140.7380  162.2687 H   0  0  0  0  0  0  0  0  0  0  0  0
  153.6069  139.5686  160.1799 H   0  0  0  0  0  0  0  0  0  0  0  0
  152.4665  139.5691  158.2533 H   0  0  0  0  0  0  0  0  0  0  0  0
  151.6645  139.0682  156.4623 H   0  0  0  0  0  0  0  0  0  0  0  0
  151.1536  140.8468  154.2409 H   0  0  0  0  0  0  0  0  0  0  0  0
  150.3965  138.8735  153.1396 H   0  0  0  0  0  0  0  0  0  0  0  0
  151.2397  136.7899  153.8605 H   0  0  0  0  0  0  0  0  0  0  0  0
  151.9156  137.5948  155.2642 H   0  0  0  0  0  0  0  0  0  0  0  0
  149.2865  136.1575  154.9883 H   0  0  0  0  0  0  0  0  0  0  0  0
  150.2713  136.3488  156.4433 H   0  0  0  0  0  0  0  0  0  0  0  0
  148.2138  138.5613  154.0803 H   0  0  0  0  0  0  0  0  0  0  0  0
  148.6250  140.1936  157.1820 H   0  0  0  0  0  0  0  0  0  0  0  0
  149.1751  141.7768  156.6796 H   0  0  0  0  0  0  0  0  0  0  0  0
  146.4560  140.5657  156.3467 H   0  0  0  0  0  0  0  0  0  0  0  0
  146.8916  142.2476  156.6265 H   0  0  0  0  0  0  0  0  0  0  0  0
  146.3751  140.9027  154.1024 H   0  0  0  0  0  0  0  0  0  0  0  0
  146.8001  142.5987  154.3010 H   0  0  0  0  0  0  0  0  0  0  0  0
  149.0751  142.1966  153.9487 H   0  0  0  0  0  0  0  0  0  0  0  0
  148.4762  140.8292  153.0356 H   0  0  0  0  0  0  0  0  0  0  0  0
  1  2  1  0  0  0  0
  1 23  1  0  0  0  0
  1 24  1  0  0  0  0
  1 25  1  0  0  0  0
  2 22  1  0  0  0  0
  2  3  2  0  0  0  0
  3  4  1  0  0  0  0
  3 26  1  0  0  0  0
  4  5  2  0  0  0  0
  4 27  1  0  0  0  0
  5  6  1  0  0  0  0
  5 28  1  0  0  0  0
  6  7  1  0  0  0  0
  6 22  2  0  0  0  0
  7  8  1  0  0  0  0
  7 29  1  0  0  0  0
  8  9  2  0  0  0  0
  8 10  1  0  0  0  0
 10 11  1  0  0  0  0
 10 30  1  0  0  0  0
 11 17  1  0  0  0  0
 11 12  1  0  0  0  0
 11 31  1  0  0  0  0
 12 16  1  0  0  0  0
 12 13  1  0  0  0  0
 12 32  1  0  0  0  0
 13 14  1  0  0  0  0
 13 33  1  0  0  0  0
 13 34  1  0  0  0  0
 14 15  1  0  0  0  0
 14 35  1  0  0  0  0
 14 36  1  0  0  0  0
 15 16  1  0  0  0  0
 16 17  1  0  0  0  0
 16 37  1  0  0  0  0
 17 21  1  0  0  0  0
 17 18  1  0  0  0  0
 18 19  1  0  0  0  0
 18 38  1  0  0  0  0
 18 39  1  0  0  0  0
 19 20  1  0  0  0  0
 19 40  1  0  0  0  0
 19 41  1  0  0  0  0
 20 21  1  0  0  0  0
 20 42  1  0  0  0  0
 20 43  1  0  0  0  0
 21 44  1  0  0  0  0
 21 45  1  0  0  0  0
M  END
> <s_m_source_file>
AV-unprocessed.smi

> <i_m_source_file_index>
2329

> <i_lp_mmshare_version>
43012

> <i_f3d_flags>
0

> <s_epik_input>
W0NIM11jMVtjSF1bY0hdW2NIXWMobjEpW05IXUMoPU8pW05IXVtDQEBIXTJbQ0BASF0oW0NIMl1bQ0gyXU8zKVtDQEhdM0MyNFtDSDJdW0NIMl1bQ0gyXVtDSDJdNA==

> <s_epik_cmdline>
J2VwaWtfcHl0aG9uJywgJy1waCcsICc3LjAnLCAnLXRuJywgJzgnLCAnLW1hJywgJzIwMCcsICctbWV0YWxfYmluZGluZycsICctaW1hZScsICc8aW5maWxlLm1hZT4nLCAnLW9tYWUnLCAnPG91dGZpbGUubWFlPic=

> <r_lp_tautomer_probability>
1

> <r_epik_Ionization_Penalty>
8.97002e-05

> <r_epik_Ionization_Penalty_Charging>
0

> <r_epik_Ionization_Penalty_Neutral>
8.97002e-05

> <r_epik_State_Penalty>
-0

> <r_epik_Charging_Adjusted_Penalty>
0

> <i_epik_Tot_Q>
0

> <i_epik_Tot_abs_Q>
0

> <r_epik_Metal_State_Penalty>
-0

> <b_epik_Metal_Only>
0

> <s_lp_Force_Field>
OPLS_2005

> <r_lp_Energy>
67.5757

> <b_lp_Chiralities_Consistent>
1

> <s_lp_Variant>
AV-unprocessed.smi:2329-6

> <Gold.Version>
5.8.1

> <Gold.Id.Protein>
6NUR|6NUR_protein|mol2

> <Gold.PLP.Fitness>
40.6847

> <Gold.PLP.PLP>
-40.7027

> <Gold.PLP.part.hbond>
0.0000

> <Gold.PLP.part.metal>
0.0000

> <Gold.PLP.part.buried>
-3.2252

> <Gold.PLP.part.nonpolar>
-36.9872

> <Gold.PLP.part.repulsive>
0.3353

> <Gold.PLP.ligand.clash>
0.0000

> <Gold.PLP.ligand.torsion>
0.1059

> <Gold.PLP.Chemscore.Hbond>
0.0000

> <Gold.PLP.Chemscore.CHOScore>
0.0000

> <Gold.PLP.Chemscore.Metal>
0.0000

> <Gold.PLP.Chemscore.Internal.Correction>
0.1937

> <Gold.Rescore>
     Score         DG    S(hbond)    S(metal)    S(lipo)     H(rot)  DE(clash)    DE(int)     intcor
     11.87     -16.34       0.00        0.00     114.74       1.00       1.34       3.13       ----

> <Gold.Chemscore.Fitness>
11.8716

> <Gold.Chemscore.DG>
-16.3442

> <Gold.Chemscore.ZeroCoef>
-5.4800

> <Gold.Chemscore.Hbond>
0.0000

> <Gold.Chemscore.Metal>
0.0000

> <Gold.Chemscore.Lipo>
114.7366

> <Gold.Chemscore.Internal_Hbond>
0.0000

> <Gold.Chemscore.DEClash>
1.3399

> <Gold.Chemscore.DEInternal>
3.1326

> <Gold.Chemscore.Rot>
1.0000

> <Gold.Chemscore.Internal.Correction>
   9.000000E+99

> <Gold.Chemscore.Hbond.Weighted>
-0.0000

> <Gold.Chemscore.Metal.Weighted>
-0.0000

> <Gold.Chemscore.Lipo.Weighted>
-13.4242

> <Gold.Chemscore.Internal_Hbond.Weighted>
0.0000

> <Gold.Chemscore.DEClash.Weighted>
1.3399

> <Gold.Chemscore.DEInternal.Weighted>
3.1326

> <Gold.Chemscore.Rot.Weighted>
2.5600

> <Gold.Chemscore.Internal.Correction.Weighted>
   9.000000E+99

> <Gold.Protein.RotatedTorsions>
[ 6907 6896 6895 6894 ] final  103.84 input  -60.11 | X-H torsion
[ 7974 7965 7964 7962 ] final  109.93 input  175.53 | X-H torsion
[ 8008 7997 7996 7995 ] final   70.56 input   59.86 | X-H torsion
[ 10167 10162 10161 10158 ] final   -3.29 input  -65.29 | X-H torsion
[ 10718 10713 10712 10709 ] final  162.58 input   66.30 | X-H torsion
[ 10763 10752 10751 10750 ] final  -26.44 input  -60.55 | X-H torsion
[ 11005 11000 10999 10996 ] final -161.74 input  -57.11 | X-H torsion

> <Gold.Protein.ActiveResidues>
 VAL166  LYS551  ARG553  GLY616  TRP617  ASP618  TYR619  PRO620  LYS621  CYS622 
 ASP623  PHE694  ASN695  SER759  ASP760  ASP761  ALA762  ILE779  LEU786  VAL792 
 PHE793  MET794  SER795  GLU796  ALA797  LYS798  CYS799  TRP800  GLU811  SER814 

> <Gold.Protein.RotatedAtoms>
  152.5283  133.9765  159.7786 H   0  0  0  0  0  0  0  0  0  0  0  0  # atno 6907 bound_to 6896
  151.0027  133.6033  159.2700 H   0  0  0  0  0  0  0  0  0  0  0  0  # atno 6908 bound_to 6896
  151.3136  135.0807  159.9334 H   0  0  0  0  0  0  0  0  0  0  0  0  # atno 6909 bound_to 6896
  145.2615  139.2700  143.4014 H   0  0  0  0  0  0  0  0  0  0  0  0  # atno 7974 bound_to 7965
  155.7407  140.3490  155.5102 H   0  0  0  0  0  0  0  0  0  0  0  0  # atno 8008 bound_to 7997
  155.9097  140.1048  157.1310 H   0  0  0  0  0  0  0  0  0  0  0  0  # atno 8009 bound_to 7997
  154.4054  140.1270  156.4528 H   0  0  0  0  0  0  0  0  0  0  0  0  # atno 8010 bound_to 7997
  140.6884  143.6557  150.8311 H   0  0  0  0  0  0  0  0  0  0  0  0  # atno 10167 bound_to 10162
  157.1205  131.0491  151.2417 H   0  0  0  0  0  0  0  0  0  0  0  0  # atno 10718 bound_to 10713
  153.7160  135.6948  153.5025 H   0  0  0  0  0  0  0  0  0  0  0  0  # atno 10763 bound_to 10752
  153.2238  135.4361  155.0518 H   0  0  0  0  0  0  0  0  0  0  0  0  # atno 10764 bound_to 10752
  154.8299  135.3467  154.6696 H   0  0  0  0  0  0  0  0  0  0  0  0  # atno 10765 bound_to 10752
  140.6170  134.4790  157.5220 H   0  0  0  0  0  0  0  0  0  0  0  0  # atno 11005 bound_to 11000
  146.3274  140.3034  142.8622 LP  0  0  0  0  0  0  0  0  0  0  0  0  # atno 17320 bound_to 7965
  144.9414  140.8082  143.5628 LP  0  0  0  0  0  0  0  0  0  0  0  0  # atno 17321 bound_to 7965
  140.0266  143.5486  152.2778 LP  0  0  0  0  0  0  0  0  0  0  0  0  # atno 17342 bound_to 10162
  139.6264  144.7638  151.2629 LP  0  0  0  0  0  0  0  0  0  0  0  0  # atno 17343 bound_to 10162
  157.4480  130.7582  149.7127 LP  0  0  0  0  0  0  0  0  0  0  0  0  # atno 17370 bound_to 10713
  155.9829  130.4005  150.3389 LP  0  0  0  0  0  0  0  0  0  0  0  0  # atno 17371 bound_to 10713
  139.9169  134.8229  156.1338 LP  0  0  0  0  0  0  0  0  0  0  0  0  # atno 17394 bound_to 11000
  141.0769  133.6771  156.2254 LP  0  0  0  0  0  0  0  0  0  0  0  0  # atno 17395 bound_to 11000

$$$$
