AV-unprocessed.smi:649|AV-procd|sdf|3178|dock4
  -GOLD-   22720 0103D 1   1.00000     0.00000
 Structure written by MMmdl.
 35 36  0  0  0  0  0  0  0  0  1 V2000
  154.6636  140.3530  160.9534 C   0  0  0  0  0  0  0  0  0  0  0  0
  153.6249  141.0577  160.1053 C   0  0  0  0  0  0  0  0  0  0  0  0
  153.4040  142.4402  160.2494 C   0  0  0  0  0  0  0  0  0  0  0  0
  152.4428  143.0850  159.4502 C   0  0  0  0  0  0  0  0  0  0  0  0
  151.6889  142.3584  158.5040 C   0  0  0  0  0  0  0  0  0  0  0  0
  150.6766  143.1070  157.6538 C   0  0  0  0  0  0  0  0  0  0  0  0
  151.8957  140.9605  158.3629 C   0  0  0  0  0  0  0  0  0  0  0  0
  151.1037  140.1303  157.3525 C   0  0  2  0  0  0  0  0  0  0  0  0
  151.5169  138.7761  157.3415 O   0  0  0  0  0  0  0  0  0  0  0  0
  151.2554  140.7048  155.9266 C   0  0  0  0  0  0  0  0  0  0  0  0
  150.1529  140.3799  155.0522 N   0  0  0  0  0  0  0  0  0  0  0  0
  149.1056  141.2592  154.8234 C   0  0  0  0  0  0  0  0  0  0  0  0
  148.0773  140.9875  153.9839 C   0  0  0  0  0  0  0  0  0  0  0  0
  146.8094  142.1369  153.7494 Cl  0  0  0  0  0  0  0  0  0  0  0  0
  148.0370  139.7151  153.2641 C   0  0  0  0  0  0  0  0  0  0  0  0
  147.1558  139.3678  152.4801 O   0  0  0  0  0  0  0  0  0  0  0  0
  149.1139  138.8619  153.5227 N   0  0  0  0  0  0  0  0  0  0  0  0
  150.1769  139.1338  154.3844 C   0  0  0  0  0  0  0  0  0  0  0  0
  151.0769  138.3066  154.5276 O   0  0  0  0  0  0  0  0  0  0  0  0
  152.8749  140.3269  159.1635 C   0  0  0  0  0  0  0  0  0  0  0  0
  149.1251  137.9745  153.0414 H   0  0  0  0  0  0  0  0  0  0  0  0
  155.1382  141.0395  161.6552 H   0  0  0  0  0  0  0  0  0  0  0  0
  155.4394  139.9239  160.3189 H   0  0  0  0  0  0  0  0  0  0  0  0
  154.2024  139.5471  161.5250 H   0  0  0  0  0  0  0  0  0  0  0  0
  153.9725  143.0125  160.9678 H   0  0  0  0  0  0  0  0  0  0  0  0
  152.2893  144.1479  159.5663 H   0  0  0  0  0  0  0  0  0  0  0  0
  150.8711  142.9426  156.5944 H   0  0  0  0  0  0  0  0  0  0  0  0
  150.7227  144.1815  157.8341 H   0  0  0  0  0  0  0  0  0  0  0  0
  149.6633  142.7751  157.8806 H   0  0  0  0  0  0  0  0  0  0  0  0
  150.0541  140.1167  157.6410 H   0  0  0  0  0  0  0  0  0  0  0  0
  150.7498  138.2302  157.4230 H   0  0  0  0  0  0  0  0  0  0  0  0
  151.3402  141.7938  155.9309 H   0  0  0  0  0  0  0  0  0  0  0  0
  152.1616  140.3380  155.4413 H   0  0  0  0  0  0  0  0  0  0  0  0
  149.1077  142.2118  155.3341 H   0  0  0  0  0  0  0  0  0  0  0  0
  153.0588  139.2676  159.0563 H   0  0  0  0  0  0  0  0  0  0  0  0
  1  2  1  0  0  0  0
  1 22  1  0  0  0  0
  1 23  1  0  0  0  0
  1 24  1  0  0  0  0
  2 20  1  0  0  0  0
  2  3  2  0  0  0  0
  3  4  1  0  0  0  0
  3 25  1  0  0  0  0
  4  5  2  0  0  0  0
  4 26  1  0  0  0  0
  5  6  1  0  0  0  0
  5  7  1  0  0  0  0
  6 27  1  0  0  0  0
  6 28  1  0  0  0  0
  6 29  1  0  0  0  0
  7  8  1  0  0  0  0
  7 20  2  0  0  0  0
  8  9  1  0  0  0  0
  8 10  1  0  0  0  0
  8 30  1  0  0  0  0
  9 31  1  0  0  0  0
 10 11  1  0  0  0  0
 10 32  1  0  0  0  0
 10 33  1  0  0  0  0
 11 18  1  0  0  0  0
 11 12  1  0  0  0  0
 12 13  2  0  0  0  0
 12 34  1  0  0  0  0
 13 14  1  0  0  0  0
 13 15  1  0  0  0  0
 15 16  2  0  0  0  0
 15 17  1  0  0  0  0
 17 21  1  0  0  0  0
 17 18  1  0  0  0  0
 18 19  2  0  0  0  0
 20 35  1  0  0  0  0
M  END
> <s_m_source_file>
AV-unprocessed.smi

> <i_m_source_file_index>
649

> <i_lp_mmshare_version>
43012

> <i_f3d_flags>
0

> <s_epik_input>
W0NIM11jMVtjSF1bY0hdYyhbQ0gzXSljKFtjSF0xKVtDQEhdKFtPSF0pW0NIMl1uMltjSF1jKENsKWMoPU8pW25IXWMyPU8=

> <s_epik_cmdline>
J2VwaWtfcHl0aG9uJywgJy1waCcsICc3LjAnLCAnLXRuJywgJzgnLCAnLW1hJywgJzIwMCcsICctbWV0YWxfYmluZGluZycsICctaW1hZScsICc8aW5maWxlLm1hZT4nLCAnLW9tYWUnLCAnPG91dGZpbGUubWFlPic=

> <r_lp_tautomer_probability>
0.999537

> <r_epik_Ionization_Penalty>
0.0292058

> <r_epik_Ionization_Penalty_Charging>
0.0292057

> <r_epik_Ionization_Penalty_Neutral>
4.85868e-08

> <r_epik_State_Penalty>
0.0240115

> <r_epik_Charging_Adjusted_Penalty>
0.0532172

> <i_epik_Tot_Q>
0

> <i_epik_Tot_abs_Q>
0

> <r_epik_Metal_State_Penalty>
2.21956

> <b_epik_Metal_Only>
0

> <s_lp_Force_Field>
OPLS_2005

> <r_lp_Energy>
13.7265

> <b_lp_Chiralities_Consistent>
1

> <s_lp_Variant>
AV-unprocessed.smi:649-1

> <Gold.Version>
5.8.1

> <Gold.Id.Protein>
6NUR|6NUR_protein|mol2

> <Gold.PLP.Fitness>
46.7221

> <Gold.PLP.PLP>
-42.4269

> <Gold.PLP.part.hbond>
-1.7506

> <Gold.PLP.part.metal>
0.0000

> <Gold.PLP.part.buried>
-1.8985

> <Gold.PLP.part.nonpolar>
-39.3393

> <Gold.PLP.part.repulsive>
1.6767

> <Gold.PLP.ligand.clash>
0.0000

> <Gold.PLP.ligand.torsion>
0.6002

> <Gold.PLP.Chemscore.Hbond>
0.8288

> <Gold.PLP.Chemscore.CHOScore>
1.0000

> <Gold.PLP.Chemscore.Metal>
0.0000

> <Gold.Chemscore.Hbonds>
donor molecule, donor type, donor heavy atom, donor atom, acceptor molecule, acceptor atom, score
      L1  H    17    21       P1  7948  0.88
      L1  C    12    34       P1  8028  0.99

> <Gold.PLP.Chemscore.Internal.Correction>
0.0094

> <Gold.Rescore>
     Score         DG    S(hbond)    S(metal)    S(lipo)     H(rot)  DE(clash)    DE(int)     intcor
     14.12     -15.70       1.00        0.00     105.66       2.14       0.16       1.43       ----

> <Gold.Chemscore.Fitness>
14.1193

> <Gold.Chemscore.DG>
-15.7048

> <Gold.Chemscore.ZeroCoef>
-5.4800

> <Gold.Chemscore.Hbond>
0.9966

> <Gold.Chemscore.Metal>
0.0000

> <Gold.Chemscore.Lipo>
105.6586

> <Gold.Chemscore.Internal_Hbond>
0.0000

> <Gold.Chemscore.DEClash>
0.1583

> <Gold.Chemscore.DEInternal>
1.4272

> <Gold.Chemscore.Rot>
2.1351

> <Gold.Chemscore.Internal.Correction>
   9.000000E+99

> <Gold.Chemscore.Hbonds>
donor molecule, donor type, donor heavy atom, donor atom, acceptor molecule, acceptor atom, score
      L1  H    17    21       P1  7948  0.85

> <Gold.Chemscore.Hbond.Weighted>
-3.3287

> <Gold.Chemscore.Metal.Weighted>
-0.0000

> <Gold.Chemscore.Lipo.Weighted>
-12.3621

> <Gold.Chemscore.Internal_Hbond.Weighted>
0.0000

> <Gold.Chemscore.DEClash.Weighted>
0.1583

> <Gold.Chemscore.DEInternal.Weighted>
1.4272

> <Gold.Chemscore.Rot.Weighted>
5.4660

> <Gold.Chemscore.Internal.Correction.Weighted>
   9.000000E+99

> <Gold.Protein.RotatedTorsions>
[ 6907 6896 6895 6894 ] final  -89.06 input  -60.11 | X-H torsion
[ 7974 7965 7964 7962 ] final  145.34 input  175.53 | X-H torsion
[ 8008 7997 7996 7995 ] final  -20.89 input   59.86 | X-H torsion
[ 10167 10162 10161 10158 ] final   18.01 input  -65.29 | X-H torsion
[ 10718 10713 10712 10709 ] final   10.36 input   66.30 | X-H torsion
[ 10763 10752 10751 10750 ] final -109.10 input  -60.55 | X-H torsion
[ 11005 11000 10999 10996 ] final    3.28 input  -57.11 | X-H torsion

> <Gold.Protein.ActiveResidues>
 VAL166  LYS551  ARG553  GLY616  TRP617  ASP618  TYR619  PRO620  LYS621  CYS622 
 ASP623  PHE694  ASN695  SER759  ASP760  ASP761  ALA762  ILE779  LEU786  VAL792 
 PHE793  MET794  SER795  GLU796  ALA797  LYS798  CYS799  TRP800  GLU811  SER814 

> <Gold.Protein.RotatedAtoms>
  150.6871  134.2645  159.4562 H   0  0  0  0  0  0  0  0  0  0  0  0  # atno 6907 bound_to 6896
  152.0573  134.9614  160.0584 H   0  0  0  0  0  0  0  0  0  0  0  0  # atno 6908 bound_to 6896
  152.1055  133.4237  159.4643 H   0  0  0  0  0  0  0  0  0  0  0  0  # atno 6909 bound_to 6896
  144.8760  139.5772  143.5865 H   0  0  0  0  0  0  0  0  0  0  0  0  # atno 7974 bound_to 7965
  154.4740  140.2049  155.9923 H   0  0  0  0  0  0  0  0  0  0  0  0  # atno 8008 bound_to 7997
  156.1059  140.3236  155.7975 H   0  0  0  0  0  0  0  0  0  0  0  0  # atno 8009 bound_to 7997
  155.4718  140.0532  157.2969 H   0  0  0  0  0  0  0  0  0  0  0  0  # atno 8010 bound_to 7997
  140.5684  143.9206  150.6694 H   0  0  0  0  0  0  0  0  0  0  0  0  # atno 10167 bound_to 10162
  156.9799  130.6001  149.5676 H   0  0  0  0  0  0  0  0  0  0  0  0  # atno 10718 bound_to 10713
  154.8174  135.4613  154.0681 H   0  0  0  0  0  0  0  0  0  0  0  0  # atno 10763 bound_to 10752
  153.2063  135.6876  153.8176 H   0  0  0  0  0  0  0  0  0  0  0  0  # atno 10764 bound_to 10752
  153.7643  135.3279  155.3319 H   0  0  0  0  0  0  0  0  0  0  0  0  # atno 10765 bound_to 10752
  140.5949  133.9890  155.8105 H   0  0  0  0  0  0  0  0  0  0  0  0  # atno 11005 bound_to 11000
  146.2963  139.7288  142.9124 LP  0  0  0  0  0  0  0  0  0  0  0  0  # atno 17320 bound_to 7965
  145.4042  141.0389  143.3054 LP  0  0  0  0  0  0  0  0  0  0  0  0  # atno 17321 bound_to 7965
  140.2675  143.3479  152.1267 LP  0  0  0  0  0  0  0  0  0  0  0  0  # atno 17342 bound_to 10162
  139.5105  144.6885  151.5823 LP  0  0  0  0  0  0  0  0  0  0  0  0  # atno 17343 bound_to 10162
  156.0249  130.5343  150.8378 LP  0  0  0  0  0  0  0  0  0  0  0  0  # atno 17370 bound_to 10713
  157.5534  131.0944  150.9664 LP  0  0  0  0  0  0  0  0  0  0  0  0  # atno 17371 bound_to 10713
  141.0911  133.9915  157.3236 LP  0  0  0  0  0  0  0  0  0  0  0  0  # atno 17394 bound_to 11000
  139.9258  135.0201  156.8228 LP  0  0  0  0  0  0  0  0  0  0  0  0  # atno 17395 bound_to 11000

$$$$
