AV-unprocessed.smi:1360|AV-procd|sdf|5554|dock7
  -GOLD-   22720 5143D 1   1.00000     0.00000
 Structure written by MMmdl.
 36 37  0  0  0  0  0  0  0  0  1 V2000
  152.1613  139.0364  155.0922 C   0  0  0  0  0  0  0  0  0  0  0  0
  151.0252  140.0682  155.0002 C   0  0  1  0  0  0  0  0  0  0  0  0
  149.6197  139.4438  155.1379 C   0  0  0  0  0  0  0  0  0  0  0  0
  148.5834  140.2538  154.5237 N   0  0  0  0  0  0  0  0  0  0  0  0
  148.3519  141.6042  154.6788 C   0  0  0  0  0  0  0  0  0  0  0  0
  147.2727  141.9228  153.9055 C   0  0  0  0  0  0  0  0  0  0  0  0
  146.9066  140.6837  153.3093 C   0  0  0  0  0  0  0  0  0  0  0  0
  147.6914  139.6858  153.6831 N   0  0  0  0  0  0  0  0  0  0  0  0
  151.2233  141.0873  156.0267 N   0  0  0  0  0  0  0  0  0  0  0  0
  150.8222  140.9953  157.3043 C   0  0  0  0  0  0  0  0  0  0  0  0
  150.2380  140.0117  157.7601 O   0  0  0  0  0  0  0  0  0  0  0  0
  151.1323  142.1978  158.2055 C   0  0  1  0  0  0  0  0  0  0  0  0
  152.3390  141.9077  159.1267 C   0  0  0  0  0  0  0  0  0  0  0  0
  152.8179  143.1539  159.8503 C   0  0  0  0  0  0  0  0  0  0  0  0
  152.4767  144.4000  159.4801 C   0  0  0  0  0  0  0  0  0  0  0  0
  151.5787  144.7037  158.2934 C   0  0  0  0  0  0  0  0  0  0  0  0
  151.3807  143.4775  157.3814 C   0  0  0  0  0  0  0  0  0  0  0  0
  152.1037  138.3048  154.2863 H   0  0  0  0  0  0  0  0  0  0  0  0
  152.1287  138.4940  156.0377 H   0  0  0  0  0  0  0  0  0  0  0  0
  153.1359  139.5200  155.0184 H   0  0  0  0  0  0  0  0  0  0  0  0
  151.0989  140.5429  154.0199 H   0  0  0  0  0  0  0  0  0  0  0  0
  149.6014  138.4479  154.6920 H   0  0  0  0  0  0  0  0  0  0  0  0
  149.3624  139.3161  156.1901 H   0  0  0  0  0  0  0  0  0  0  0  0
  148.9693  142.2181  155.3181 H   0  0  0  0  0  0  0  0  0  0  0  0
  146.8141  142.8929  153.7843 H   0  0  0  0  0  0  0  0  0  0  0  0
  146.0988  140.4803  152.6220 H   0  0  0  0  0  0  0  0  0  0  0  0
  151.6996  141.9309  155.7418 H   0  0  0  0  0  0  0  0  0  0  0  0
  150.2612  142.3804  158.8380 H   0  0  0  0  0  0  0  0  0  0  0  0
  152.0638  141.1585  159.8699 H   0  0  0  0  0  0  0  0  0  0  0  0
  153.1806  141.5017  158.5637 H   0  0  0  0  0  0  0  0  0  0  0  0
  153.4744  143.0052  160.6951 H   0  0  0  0  0  0  0  0  0  0  0  0
  152.8393  145.2460  160.0453 H   0  0  0  0  0  0  0  0  0  0  0  0
  150.6173  145.0469  158.6766 H   0  0  0  0  0  0  0  0  0  0  0  0
  152.0053  145.5274  157.7205 H   0  0  0  0  0  0  0  0  0  0  0  0
  152.2709  143.3462  156.7638 H   0  0  0  0  0  0  0  0  0  0  0  0
  150.5546  143.6627  156.6935 H   0  0  0  0  0  0  0  0  0  0  0  0
  1  2  1  0  0  0  0
  1 18  1  0  0  0  0
  1 19  1  0  0  0  0
  1 20  1  0  0  0  0
  2  3  1  0  0  0  0
  2  9  1  0  0  0  0
  2 21  1  0  0  0  0
  3  4  1  0  0  0  0
  3 22  1  0  0  0  0
  3 23  1  0  0  0  0
  4  8  1  0  0  0  0
  4  5  1  0  0  0  0
  5  6  2  0  0  0  0
  5 24  1  0  0  0  0
  6  7  1  0  0  0  0
  6 25  1  0  0  0  0
  7  8  2  0  0  0  0
  7 26  1  0  0  0  0
  9 10  1  0  0  0  0
  9 27  1  0  0  0  0
 10 11  2  0  0  0  0
 10 12  1  0  0  0  0
 12 17  1  0  0  0  0
 12 13  1  0  0  0  0
 12 28  1  0  0  0  0
 13 14  1  0  0  0  0
 13 29  1  0  0  0  0
 13 30  1  0  0  0  0
 14 15  2  0  0  0  0
 14 31  1  0  0  0  0
 15 16  1  0  0  0  0
 15 32  1  0  0  0  0
 16 17  1  0  0  0  0
 16 33  1  0  0  0  0
 16 34  1  0  0  0  0
 17 35  1  0  0  0  0
 17 36  1  0  0  0  0
M  END
> <s_m_source_file>
AV-unprocessed.smi

> <i_m_source_file_index>
1360

> <i_lp_mmshare_version>
43012

> <i_f3d_flags>
0

> <s_epik_input>
bjFbY0hdW2NIXVtjSF1uMVtDSDJdW0NAQEhdKFtDSDNdKVtOSF1DKD1PKVtDQEBIXTJbQ0gyXVtDSF09W0NIXVtDSDJdW0NIMl0y

> <s_epik_cmdline>
J2VwaWtfcHl0aG9uJywgJy1waCcsICc3LjAnLCAnLXRuJywgJzgnLCAnLW1hJywgJzIwMCcsICctbWV0YWxfYmluZGluZycsICctaW1hZScsICc8aW5maWxlLm1hZT4nLCAnLW9tYWUnLCAnPG91dGZpbGUubWFlPic=

> <r_lp_tautomer_probability>
1

> <r_epik_Ionization_Penalty>
0.000315076

> <r_epik_Ionization_Penalty_Charging>
0

> <r_epik_Ionization_Penalty_Neutral>
0.000315076

> <r_epik_State_Penalty>
-0

> <r_epik_Charging_Adjusted_Penalty>
0

> <i_epik_Tot_Q>
0

> <i_epik_Tot_abs_Q>
0

> <r_epik_Metal_State_Penalty>
-0

> <b_epik_Metal_Only>
0

> <s_lp_Force_Field>
OPLS_2005

> <r_lp_Energy>
7.88056

> <b_lp_Chiralities_Consistent>
1

> <s_lp_Variant>
AV-unprocessed.smi:1360-4

> <Gold.Version>
5.8.1

> <Gold.Id.Protein>
6NUR|6NUR_protein|mol2

> <Gold.PLP.Fitness>
42.7029

> <Gold.PLP.PLP>
-39.1941

> <Gold.PLP.part.hbond>
0.0000

> <Gold.PLP.part.metal>
0.0000

> <Gold.PLP.part.buried>
-2.6016

> <Gold.PLP.part.nonpolar>
-36.9442

> <Gold.PLP.part.repulsive>
0.7084

> <Gold.PLP.ligand.clash>
0.0000

> <Gold.PLP.ligand.torsion>
1.1708

> <Gold.PLP.Chemscore.Hbond>
0.0000

> <Gold.PLP.Chemscore.CHOScore>
1.9390

> <Gold.PLP.Chemscore.Metal>
0.0000

> <Gold.Chemscore.Hbonds>
donor molecule, donor type, donor heavy atom, donor atom, acceptor molecule, acceptor atom, score
      L1  C     5    24       P1  8028  0.96
      L1  C     7    26       P1 10175  1.00

> <Gold.PLP.Chemscore.Internal.Correction>
0.0335

> <Gold.Rescore>
     Score         DG    S(hbond)    S(metal)    S(lipo)     H(rot)  DE(clash)    DE(int)     intcor
     11.67     -14.41       0.00        0.00     109.23       1.51       0.09       2.65       ----

> <Gold.Chemscore.Fitness>
11.6683

> <Gold.Chemscore.DG>
-14.4058

> <Gold.Chemscore.ZeroCoef>
-5.4800

> <Gold.Chemscore.Hbond>
0.0000

> <Gold.Chemscore.Metal>
0.0000

> <Gold.Chemscore.Lipo>
109.2343

> <Gold.Chemscore.Internal_Hbond>
0.0000

> <Gold.Chemscore.DEClash>
0.0862

> <Gold.Chemscore.DEInternal>
2.6513

> <Gold.Chemscore.Rot>
1.5057

> <Gold.Chemscore.Internal.Correction>
   9.000000E+99

> <Gold.Chemscore.Hbond.Weighted>
-0.0000

> <Gold.Chemscore.Metal.Weighted>
-0.0000

> <Gold.Chemscore.Lipo.Weighted>
-12.7804

> <Gold.Chemscore.Internal_Hbond.Weighted>
0.0000

> <Gold.Chemscore.DEClash.Weighted>
0.0862

> <Gold.Chemscore.DEInternal.Weighted>
2.6513

> <Gold.Chemscore.Rot.Weighted>
3.8546

> <Gold.Chemscore.Internal.Correction.Weighted>
   9.000000E+99

> <Gold.Protein.RotatedTorsions>
[ 6907 6896 6895 6894 ] final   35.24 input  -60.11 | X-H torsion
[ 7974 7965 7964 7962 ] final  -77.82 input  175.53 | X-H torsion
[ 8008 7997 7996 7995 ] final  -91.02 input   59.86 | X-H torsion
[ 10167 10162 10161 10158 ] final   97.90 input  -65.29 | X-H torsion
[ 10718 10713 10712 10709 ] final   38.48 input   66.30 | X-H torsion
[ 10763 10752 10751 10750 ] final   -0.15 input  -60.55 | X-H torsion
[ 11005 11000 10999 10996 ] final   35.83 input  -57.11 | X-H torsion

> <Gold.Protein.ActiveResidues>
 VAL166  LYS551  ARG553  GLY616  TRP617  ASP618  TYR619  PRO620  LYS621  CYS622 
 ASP623  PHE694  ASN695  SER759  ASP760  ASP761  ALA762  ILE779  LEU786  VAL792 
 PHE793  MET794  SER795  GLU796  ALA797  LYS798  CYS799  TRP800  GLU811  SER814 

> <Gold.Protein.RotatedAtoms>
  152.1134  134.9258  160.0565 H   0  0  0  0  0  0  0  0  0  0  0  0  # atno 6907 bound_to 6896
  152.0426  133.3979  159.4351 H   0  0  0  0  0  0  0  0  0  0  0  0  # atno 6908 bound_to 6896
  150.6845  134.3318  159.4874 H   0  0  0  0  0  0  0  0  0  0  0  0  # atno 6909 bound_to 6896
  145.5946  140.9422  143.1274 H   0  0  0  0  0  0  0  0  0  0  0  0  # atno 7974 bound_to 7965
  154.7057  140.0524  157.0501 H   0  0  0  0  0  0  0  0  0  0  0  0  # atno 8008 bound_to 7997
  155.0624  140.3191  155.4637 H   0  0  0  0  0  0  0  0  0  0  0  0  # atno 8009 bound_to 7997
  156.2774  140.2096  156.5751 H   0  0  0  0  0  0  0  0  0  0  0  0  # atno 8010 bound_to 7997
  139.7758  144.6906  151.0091 H   0  0  0  0  0  0  0  0  0  0  0  0  # atno 10167 bound_to 10162
  157.3593  130.7640  149.7035 H   0  0  0  0  0  0  0  0  0  0  0  0  # atno 10718 bound_to 10713
  153.3282  135.6973  153.6971 H   0  0  0  0  0  0  0  0  0  0  0  0  # atno 10763 bound_to 10752
  153.5784  135.3502  155.2866 H   0  0  0  0  0  0  0  0  0  0  0  0  # atno 10764 bound_to 10752
  154.8612  135.4289  154.2463 H   0  0  0  0  0  0  0  0  0  0  0  0  # atno 10765 bound_to 10752
  140.2387  134.3441  155.7934 H   0  0  0  0  0  0  0  0  0  0  0  0  # atno 11005 bound_to 11000
  144.7336  139.7651  143.7338 LP  0  0  0  0  0  0  0  0  0  0  0  0  # atno 17320 bound_to 7965
  146.1621  139.4740  142.9981 LP  0  0  0  0  0  0  0  0  0  0  0  0  # atno 17321 bound_to 7965
  140.7816  143.4537  151.0376 LP  0  0  0  0  0  0  0  0  0  0  0  0  # atno 17342 bound_to 10162
  139.8220  143.7808  152.3177 LP  0  0  0  0  0  0  0  0  0  0  0  0  # atno 17343 bound_to 10162
  155.9734  130.4118  150.4001 LP  0  0  0  0  0  0  0  0  0  0  0  0  # atno 17370 bound_to 10713
  157.2076  131.0453  151.2617 LP  0  0  0  0  0  0  0  0  0  0  0  0  # atno 17371 bound_to 10713
  141.2212  133.7286  156.8849 LP  0  0  0  0  0  0  0  0  0  0  0  0  # atno 17394 bound_to 11000
  140.1676  134.9122  157.2793 LP  0  0  0  0  0  0  0  0  0  0  0  0  # atno 17395 bound_to 11000

$$$$
