AV-unprocessed.smi:213|AV-procd|sdf|1647|dock5
  -GOLD-   2262020 23D 1   1.00000     0.00000
 Structure written by MMmdl.
 58 61  0  0  0  0  0  0  0  0  1 V2000
  151.5741  140.0332  155.6243 C   0  0  0  0  0  0  0  0  0  0  0  0
  150.6590  140.1537  156.8556 C   0  0  2  0  0  0  0  0  0  0  0  0
  151.4578  140.3933  158.1565 C   0  0  0  0  0  0  0  0  0  0  0  0
  152.0869  141.7093  158.2754 N   0  0  0  0  0  0  0  0  0  0  0  0
  152.7117  141.8737  159.5837 C   0  0  0  0  0  0  0  0  0  0  0  0
  153.3848  143.2491  159.7310 C   0  0  0  0  0  0  0  0  0  0  0  0
  152.4251  144.2751  159.5014 O   0  0  0  0  0  0  0  0  0  0  0  0
  151.8184  144.1809  158.2169 C   0  0  0  0  0  0  0  0  0  0  0  0
  151.1444  142.8064  158.0608 C   0  0  0  0  0  0  0  0  0  0  0  0
  149.7941  138.9774  156.9829 N   0  0  0  0  0  0  0  0  0  0  0  0
  149.8255  138.1404  158.1804 C   0  0  0  0  0  0  0  0  0  0  0  0
  148.8714  138.6959  156.0250 C   0  0  0  0  0  0  0  0  0  0  0  0
  148.6737  139.6067  155.0349 N   0  0  0  0  0  0  0  0  0  0  0  0
  147.7837  139.3747  154.0662 C   0  0  0  0  0  0  0  0  0  0  0  0
  146.9903  138.3160  153.8990 N   0  0  0  0  0  0  0  0  0  0  0  0
  147.1679  137.4035  154.8964 C   0  0  0  0  0  0  0  0  0  0  0  0
  148.0772  137.5107  155.9884 C   0  0  0  0  0  0  0  0  0  0  0  0
  147.9553  136.3914  156.8062 N   0  0  0  0  0  0  0  0  0  0  0  0
  147.0409  135.6634  156.2270 C   0  0  0  0  0  0  0  0  0  0  0  0
  146.5129  136.1976  155.0753 N   0  0  0  0  0  0  0  0  0  0  0  0
  145.4795  135.6077  154.2425 C   0  0  0  0  0  0  0  0  0  0  0  0
  145.9384  135.4185  152.7831 C   0  0  1  0  0  0  0  0  0  0  0  0
  147.0923  134.6009  152.7244 O   0  0  0  0  0  0  0  0  0  0  0  0
  144.8249  134.8591  151.8733 C   0  0  1  0  0  0  0  0  0  0  0  0
  145.2341  134.4705  150.4493 C   0  0  0  0  0  0  0  0  0  0  0  0
  144.1477  133.4815  150.0901 C   0  0  0  0  0  0  0  0  0  0  0  0
  143.9467  132.7474  151.4135 C   0  0  0  0  0  0  0  0  0  0  0  0
  144.2002  133.7075  152.4354 O   0  0  0  0  0  0  0  0  0  0  0  0
  152.1458  140.9485  155.4707 H   0  0  0  0  0  0  0  0  0  0  0  0
  150.9932  139.8578  154.7188 H   0  0  0  0  0  0  0  0  0  0  0  0
  152.2861  139.2143  155.7266 H   0  0  0  0  0  0  0  0  0  0  0  0
  150.0221  141.0227  156.7125 H   0  0  0  0  0  0  0  0  0  0  0  0
  150.8041  140.2311  159.0152 H   0  0  0  0  0  0  0  0  0  0  0  0
  152.2308  139.6267  158.2250 H   0  0  0  0  0  0  0  0  0  0  0  0
  151.9642  141.7519  160.3693 H   0  0  0  0  0  0  0  0  0  0  0  0
  153.4565  141.0923  159.7391 H   0  0  0  0  0  0  0  0  0  0  0  0
  153.7976  143.3641  160.7332 H   0  0  0  0  0  0  0  0  0  0  0  0
  154.2135  143.3517  159.0284 H   0  0  0  0  0  0  0  0  0  0  0  0
  151.0825  144.9782  158.1106 H   0  0  0  0  0  0  0  0  0  0  0  0
  152.5694  144.3327  157.4400 H   0  0  0  0  0  0  0  0  0  0  0  0
  150.7094  142.7483  157.0640 H   0  0  0  0  0  0  0  0  0  0  0  0
  150.3175  142.7282  158.7684 H   0  0  0  0  0  0  0  0  0  0  0  0
  149.6951  137.0884  157.9232 H   0  0  0  0  0  0  0  0  0  0  0  0
  149.0290  138.4294  158.8666 H   0  0  0  0  0  0  0  0  0  0  0  0
  150.7748  138.2363  158.7065 H   0  0  0  0  0  0  0  0  0  0  0  0
  147.6948  140.1480  153.3177 H   0  0  0  0  0  0  0  0  0  0  0  0
  146.7202  134.7137  156.6297 H   0  0  0  0  0  0  0  0  0  0  0  0
  145.1810  134.6539  154.6794 H   0  0  0  0  0  0  0  0  0  0  0  0
  144.6024  136.2547  154.2798 H   0  0  0  0  0  0  0  0  0  0  0  0
  146.2316  136.3912  152.3862 H   0  0  0  0  0  0  0  0  0  0  0  0
  147.8062  135.1127  152.3763 H   0  0  0  0  0  0  0  0  0  0  0  0
  144.0386  135.6121  151.7968 H   0  0  0  0  0  0  0  0  0  0  0  0
  145.2783  135.3233  149.7714 H   0  0  0  0  0  0  0  0  0  0  0  0
  146.2017  133.9681  150.4284 H   0  0  0  0  0  0  0  0  0  0  0  0
  143.2355  134.0105  149.8101 H   0  0  0  0  0  0  0  0  0  0  0  0
  144.4235  132.8165  149.2712 H   0  0  0  0  0  0  0  0  0  0  0  0
  142.9484  132.3192  151.5066 H   0  0  0  0  0  0  0  0  0  0  0  0
  144.6722  131.9391  151.5126 H   0  0  0  0  0  0  0  0  0  0  0  0
  1  2  1  0  0  0  0
  1 29  1  0  0  0  0
  1 30  1  0  0  0  0
  1 31  1  0  0  0  0
  2  3  1  0  0  0  0
  2 10  1  0  0  0  0
  2 32  1  0  0  0  0
  3  4  1  0  0  0  0
  3 33  1  0  0  0  0
  3 34  1  0  0  0  0
  4  9  1  0  0  0  0
  4  5  1  0  0  0  0
  5  6  1  0  0  0  0
  5 35  1  0  0  0  0
  5 36  1  0  0  0  0
  6  7  1  0  0  0  0
  6 37  1  0  0  0  0
  6 38  1  0  0  0  0
  7  8  1  0  0  0  0
  8  9  1  0  0  0  0
  8 39  1  0  0  0  0
  8 40  1  0  0  0  0
  9 41  1  0  0  0  0
  9 42  1  0  0  0  0
 10 11  1  0  0  0  0
 10 12  1  0  0  0  0
 11 43  1  0  0  0  0
 11 44  1  0  0  0  0
 11 45  1  0  0  0  0
 12 17  1  0  0  0  0
 12 13  2  0  0  0  0
 13 14  1  0  0  0  0
 14 15  2  0  0  0  0
 14 46  1  0  0  0  0
 15 16  1  0  0  0  0
 16 20  1  0  0  0  0
 16 17  2  0  0  0  0
 17 18  1  0  0  0  0
 18 19  2  0  0  0  0
 19 20  1  0  0  0  0
 19 47  1  0  0  0  0
 20 21  1  0  0  0  0
 21 22  1  0  0  0  0
 21 48  1  0  0  0  0
 21 49  1  0  0  0  0
 22 23  1  0  0  0  0
 22 24  1  0  0  0  0
 22 50  1  0  0  0  0
 23 51  1  0  0  0  0
 24 28  1  0  0  0  0
 24 25  1  0  0  0  0
 24 52  1  0  0  0  0
 25 26  1  0  0  0  0
 25 53  1  0  0  0  0
 25 54  1  0  0  0  0
 26 27  1  0  0  0  0
 26 55  1  0  0  0  0
 26 56  1  0  0  0  0
 27 28  1  0  0  0  0
 27 57  1  0  0  0  0
 27 58  1  0  0  0  0
M  END
> <s_m_source_file>
AV-unprocessed.smi

> <i_m_source_file_index>
213

> <i_lp_mmshare_version>
43012

> <i_f3d_flags>
0

> <s_epik_input>
W0NIMl0xW0NIMl1PW0NIMl1bQ0gyXU4xW0NIMl1bQ0BASF0oW0NIM10pTihbQ0gzXSljKG5bY0hdbjIpYyhjMjMpbltjSF1uM1tDSDJdW0NASF0oW09IXSlbQ0BASF00W0NIMl1bQ0gyXVtDSDJdTzQ=

> <s_epik_cmdline>
J2VwaWtfcHl0aG9uJywgJy1waCcsICc3LjAnLCAnLXRuJywgJzgnLCAnLW1hJywgJzIwMCcsICctbWV0YWxfYmluZGluZycsICctaW1hZScsICc8aW5maWxlLm1hZT4nLCAnLW9tYWUnLCAnPG91dGZpbGUubWFlPic=

> <r_lp_tautomer_probability>
1

> <r_epik_Ionization_Penalty>
0.423322

> <r_epik_Ionization_Penalty_Charging>
0

> <r_epik_Ionization_Penalty_Neutral>
0.423322

> <r_epik_State_Penalty>
0.569486

> <r_epik_Charging_Adjusted_Penalty>
0.569486

> <i_epik_Tot_Q>
0

> <i_epik_Tot_abs_Q>
0

> <r_epik_Metal_State_Penalty>
0.568671

> <b_epik_Metal_Only>
0

> <s_lp_Force_Field>
OPLS_2005

> <r_lp_Energy>
53.6453

> <b_lp_Chiralities_Consistent>
1

> <s_lp_Variant>
AV-unprocessed.smi:213-15

> <Gold.Version>
5.8.1

> <Gold.Id.Protein>
6NUR|6NUR_protein|mol2

> <Gold.PLP.Fitness>
41.9279

> <Gold.PLP.PLP>
-36.4209

> <Gold.PLP.part.hbond>
-1.0000

> <Gold.PLP.part.metal>
0.0000

> <Gold.PLP.part.buried>
-4.6433

> <Gold.PLP.part.nonpolar>
-31.2191

> <Gold.PLP.part.repulsive>
0.4177

> <Gold.PLP.ligand.clash>
0.0000

> <Gold.PLP.ligand.torsion>
0.3375

> <Gold.PLP.Chemscore.Hbond>
1.0000

> <Gold.PLP.Chemscore.CHOScore>
1.0000

> <Gold.PLP.Chemscore.Metal>
0.0000

> <Gold.Chemscore.Hbonds>
donor molecule, donor type, donor heavy atom, donor atom, acceptor molecule, acceptor atom, score
      L1  H    23    51       P1  7948  1.00
      L1  C    14    46       P1  7957  0.10

> <Gold.PLP.Chemscore.Internal.Correction>
0.1821

> <Gold.Rescore>
     Score         DG    S(hbond)    S(metal)    S(lipo)     H(rot)  DE(clash)    DE(int)     intcor
     11.02     -12.98       0.98        0.00      95.94       2.74       0.11       1.85       ----

> <Gold.Chemscore.Fitness>
11.0169

> <Gold.Chemscore.DG>
-12.9826

> <Gold.Chemscore.ZeroCoef>
-5.4800

> <Gold.Chemscore.Hbond>
0.9838

> <Gold.Chemscore.Metal>
0.0000

> <Gold.Chemscore.Lipo>
95.9430

> <Gold.Chemscore.Internal_Hbond>
0.0000

> <Gold.Chemscore.DEClash>
0.1135

> <Gold.Chemscore.DEInternal>
1.8522

> <Gold.Chemscore.Rot>
2.7378

> <Gold.Chemscore.Internal.Correction>
   9.000000E+99

> <Gold.Chemscore.Hbonds>
donor molecule, donor type, donor heavy atom, donor atom, acceptor molecule, acceptor atom, score
      L1  H    23    51       P1  7948  0.96

> <Gold.Chemscore.Hbond.Weighted>
-3.2859

> <Gold.Chemscore.Metal.Weighted>
-0.0000

> <Gold.Chemscore.Lipo.Weighted>
-11.2253

> <Gold.Chemscore.Internal_Hbond.Weighted>
0.0000

> <Gold.Chemscore.DEClash.Weighted>
0.1135

> <Gold.Chemscore.DEInternal.Weighted>
1.8522

> <Gold.Chemscore.Rot.Weighted>
7.0087

> <Gold.Chemscore.Internal.Correction.Weighted>
   9.000000E+99

> <Gold.Protein.RotatedTorsions>
[ 6907 6896 6895 6894 ] final   91.76 input  -60.11 | X-H torsion
[ 7974 7965 7964 7962 ] final -148.12 input  175.53 | X-H torsion
[ 8008 7997 7996 7995 ] final  -81.58 input   59.86 | X-H torsion
[ 10167 10162 10161 10158 ] final   47.00 input  -65.29 | X-H torsion
[ 10718 10713 10712 10709 ] final   91.68 input   66.30 | X-H torsion
[ 10763 10752 10751 10750 ] final  -66.87 input  -60.55 | X-H torsion
[ 11005 11000 10999 10996 ] final  149.80 input  -57.11 | X-H torsion

> <Gold.Protein.ActiveResidues>
 VAL166  LYS551  ARG553  GLY616  TRP617  ASP618  TYR619  PRO620  LYS621  CYS622 
 ASP623  PHE694  ASN695  SER759  ASP760  ASP761  ALA762  ILE779  LEU786  VAL792 
 PHE793  MET794  SER795  GLU796  ALA797  LYS798  CYS799  TRP800  GLU811  SER814 

> <Gold.Protein.RotatedAtoms>
  152.5451  134.1607  159.8556 H   0  0  0  0  0  0  0  0  0  0  0  0  # atno 6907 bound_to 6896
  151.1625  133.4829  159.2601 H   0  0  0  0  0  0  0  0  0  0  0  0  # atno 6908 bound_to 6896
  151.1358  135.0165  159.8658 H   0  0  0  0  0  0  0  0  0  0  0  0  # atno 6909 bound_to 6896
  144.8049  140.5237  143.5682 H   0  0  0  0  0  0  0  0  0  0  0  0  # atno 7974 bound_to 7965
  154.5998  140.0645  156.9353 H   0  0  0  0  0  0  0  0  0  0  0  0  # atno 8008 bound_to 7997
  155.2151  140.3326  155.4305 H   0  0  0  0  0  0  0  0  0  0  0  0  # atno 8009 bound_to 7997
  156.2311  140.1841  156.7224 H   0  0  0  0  0  0  0  0  0  0  0  0  # atno 8010 bound_to 7997
  140.3082  144.2853  150.6205 H   0  0  0  0  0  0  0  0  0  0  0  0  # atno 10167 bound_to 10162
  157.6960  131.0416  150.3766 H   0  0  0  0  0  0  0  0  0  0  0  0  # atno 10718 bound_to 10713
  154.3662  135.6105  153.5716 H   0  0  0  0  0  0  0  0  0  0  0  0  # atno 10763 bound_to 10752
  152.9791  135.5827  154.4575 H   0  0  0  0  0  0  0  0  0  0  0  0  # atno 10764 bound_to 10752
  154.4321  135.2848  155.1882 H   0  0  0  0  0  0  0  0  0  0  0  0  # atno 10765 bound_to 10752
  140.1076  134.8944  157.1888 H   0  0  0  0  0  0  0  0  0  0  0  0  # atno 11005 bound_to 11000
  145.5462  139.1476  143.3419 LP  0  0  0  0  0  0  0  0  0  0  0  0  # atno 17320 bound_to 7965
  146.2338  140.5601  142.8963 LP  0  0  0  0  0  0  0  0  0  0  0  0  # atno 17321 bound_to 7965
  140.5592  143.2194  151.7795 LP  0  0  0  0  0  0  0  0  0  0  0  0  # atno 17342 bound_to 10162
  139.4899  144.4372  151.9805 LP  0  0  0  0  0  0  0  0  0  0  0  0  # atno 17343 bound_to 10162
  156.4185  130.3948  149.6842 LP  0  0  0  0  0  0  0  0  0  0  0  0  # atno 17370 bound_to 10713
  156.4101  130.7718  151.2730 LP  0  0  0  0  0  0  0  0  0  0  0  0  # atno 17371 bound_to 10713
  140.3135  134.2997  155.7261 LP  0  0  0  0  0  0  0  0  0  0  0  0  # atno 17394 bound_to 11000
  141.2122  133.7665  156.9810 LP  0  0  0  0  0  0  0  0  0  0  0  0  # atno 17395 bound_to 11000

$$$$
