AV-unprocessed.smi:623|AV-procd|sdf|3097|dock7
  -GOLD-   22720 0 13D 1   1.00000     0.00000
 Structure written by MMmdl.
 44 46  0  0  0  0  0  0  0  0  2 V2000
  151.8353  144.9867  157.3549 C   0  0  0  0  0  0  0  0  0  0  0  0
  151.7716  144.8146  158.8989 C   0  0  0  0  0  0  0  0  0  0  0  0
  152.8405  145.7942  159.4602 C   0  0  0  0  0  0  0  0  0  0  0  0
  150.3637  144.9991  159.5000 C   0  0  2  0  0  0  0  0  0  0  0  0
  150.5644  144.6710  160.9969 C   0  0  0  0  0  0  0  0  0  0  0  0
  151.6163  143.5424  160.9544 C   0  0  0  0  0  0  0  0  0  0  0  0
  151.8586  143.3573  159.4341 C   0  0  2  0  0  0  0  0  0  0  0  0
  153.1700  142.6043  159.1312 C   0  0  0  0  0  0  0  0  0  0  0  0
  150.5636  142.6689  158.9041 C   0  0  2  0  0  0  0  0  0  0  0  0
  150.7501  142.0511  157.5968 N   0  0  0  0  0  0  0  0  0  0  0  0
  149.8087  141.4633  156.8431 C   0  0  0  0  0  0  0  0  0  0  0  0
  148.6356  141.3574  157.1991 O   0  0  0  0  0  0  0  0  0  0  0  0
  150.2369  140.9256  155.4659 C   0  0  0  0  0  0  0  0  0  0  0  0
  150.5785  139.4900  155.4575 N   0  0  0  0  0  0  0  0  0  0  0  0
  149.5381  138.5766  155.7042 C   0  0  0  0  0  0  0  0  0  0  0  0
  149.7369  137.2454  155.6684 C   0  0  0  0  0  0  0  0  0  0  0  0
  151.0758  136.7561  155.3651 C   0  0  0  0  0  0  0  0  0  0  0  0
  151.2758  135.5438  155.3248 O   0  0  0  0  0  0  0  0  0  0  0  0
  152.0528  137.6814  155.1356 N   0  5  0  0  0  0  0  0  0  0  0  0
  151.8350  139.0324  155.1712 C   0  0  0  0  0  0  0  0  0  0  0  0
  152.7264  139.8496  154.9407 O   0  0  0  0  0  0  0  0  0  0  0  0
  149.5473  143.8343  158.8948 C   0  0  0  0  0  0  0  0  0  0  0  0
  151.7036  146.0335  157.0798 H   0  0  0  0  0  0  0  0  0  0  0  0
  151.0844  144.4377  156.7942 H   0  0  0  0  0  0  0  0  0  0  0  0
  152.8061  144.6749  156.9680 H   0  0  0  0  0  0  0  0  0  0  0  0
  152.9407  145.8004  160.5432 H   0  0  0  0  0  0  0  0  0  0  0  0
  152.6119  146.8196  159.1679 H   0  0  0  0  0  0  0  0  0  0  0  0
  153.8272  145.5601  159.0593 H   0  0  0  0  0  0  0  0  0  0  0  0
  149.9138  145.9772  159.3272 H   0  0  0  0  0  0  0  0  0  0  0  0
  150.9324  145.5345  161.5512 H   0  0  0  0  0  0  0  0  0  0  0  0
  149.6391  144.3524  161.4784 H   0  0  0  0  0  0  0  0  0  0  0  0
  152.5260  143.8345  161.4793 H   0  0  0  0  0  0  0  0  0  0  0  0
  151.2605  142.6322  161.4383 H   0  0  0  0  0  0  0  0  0  0  0  0
  153.1326  141.5866  159.5208 H   0  0  0  0  0  0  0  0  0  0  0  0
  154.0265  143.1002  159.5877 H   0  0  0  0  0  0  0  0  0  0  0  0
  153.3653  142.5400  158.0605 H   0  0  0  0  0  0  0  0  0  0  0  0
  150.2395  141.8838  159.5901 H   0  0  0  0  0  0  0  0  0  0  0  0
  151.6870  142.0791  157.2202 H   0  0  0  0  0  0  0  0  0  0  0  0
  149.4422  141.1357  154.7485 H   0  0  0  0  0  0  0  0  0  0  0  0
  151.0906  141.5109  155.1214 H   0  0  0  0  0  0  0  0  0  0  0  0
  148.5758  139.0220  155.9101 H   0  0  0  0  0  0  0  0  0  0  0  0
  148.9253  136.5574  155.8534 H   0  0  0  0  0  0  0  0  0  0  0  0
  148.6599  143.6018  159.4843 H   0  0  0  0  0  0  0  0  0  0  0  0
  149.1992  144.0730  157.8895 H   0  0  0  0  0  0  0  0  0  0  0  0
  1  2  1  0  0  0  0
  1 23  1  0  0  0  0
  1 24  1  0  0  0  0
  1 25  1  0  0  0  0
  2  7  1  0  0  0  0
  2  3  1  0  0  0  0
  2  4  1  0  0  0  0
  3 26  1  0  0  0  0
  3 27  1  0  0  0  0
  3 28  1  0  0  0  0
  4 22  1  0  0  0  0
  4  5  1  0  0  0  0
  4 29  1  0  0  0  0
  5  6  1  0  0  0  0
  5 30  1  0  0  0  0
  5 31  1  0  0  0  0
  6  7  1  0  0  0  0
  6 32  1  0  0  0  0
  6 33  1  0  0  0  0
  7  8  1  0  0  0  0
  7  9  1  0  0  0  0
  8 34  1  0  0  0  0
  8 35  1  0  0  0  0
  8 36  1  0  0  0  0
  9 10  1  0  0  0  0
  9 22  1  0  0  0  0
  9 37  1  0  0  0  0
 10 11  1  0  0  0  0
 10 38  1  0  0  0  0
 11 12  2  0  0  0  0
 11 13  1  0  0  0  0
 13 14  1  0  0  0  0
 13 39  1  0  0  0  0
 13 40  1  0  0  0  0
 14 20  1  0  0  0  0
 14 15  1  0  0  0  0
 15 16  2  0  0  0  0
 15 41  1  0  0  0  0
 16 17  1  0  0  0  0
 16 42  1  0  0  0  0
 17 18  2  0  0  0  0
 17 19  1  0  0  0  0
 19 20  1  0  0  0  0
 20 21  2  0  0  0  0
 22 43  1  0  0  0  0
 22 44  1  0  0  0  0
M  CHG  1  19  -1
M  END
> <s_m_source_file>
AV-unprocessed.smi

> <i_m_source_file_index>
623

> <i_lp_mmshare_version>
43012

> <i_f3d_flags>
0

> <s_epik_input>
W0NIM11bQ0BdMTJDKFtDSDNdKShbQ0gzXSlbQ0BIXShbQ0gyXVtDSDJdMSlbQ0gyXVtDQEBIXTJbTkhdQyg9TylbQ0gyXW4zW2NIXVtjSF1jKD1PKVtuSF1jMz1P

> <s_epik_cmdline>
J2VwaWtfcHl0aG9uJywgJy1waCcsICc3LjAnLCAnLXRuJywgJzgnLCAnLW1hJywgJzIwMCcsICctbWV0YWxfYmluZGluZycsICctaW1hZScsICc8aW5maWxlLm1hZT4nLCAnLW9tYWUnLCAnPG91dGZpbGUubWFlPic=

> <r_lp_tautomer_probability>
0.999537

> <r_epik_Ionization_Penalty>
3.12624

> <r_epik_Ionization_Penalty_Charging>
3.01273e-08

> <r_epik_Ionization_Penalty_Neutral>
3.12624

> <r_epik_State_Penalty>
3.12534

> <r_epik_Charging_Adjusted_Penalty>
3.12534

> <i_epik_Tot_Q>
-1

> <i_epik_Tot_abs_Q>
1

> <r_epik_Metal_State_Penalty>
0.46406

> <b_epik_Metal_Only>
1

> <s_lp_Force_Field>
OPLS_2005

> <r_lp_Energy>
63.0451

> <b_lp_Chiralities_Consistent>
1

> <s_lp_Variant>
AV-unprocessed.smi:623-7

> <Gold.Version>
5.8.1

> <Gold.Id.Protein>
6NUR|6NUR_protein|mol2

> <Gold.PLP.Fitness>
35.0915

> <Gold.PLP.PLP>
-28.6728

> <Gold.PLP.part.hbond>
-3.5945

> <Gold.PLP.part.metal>
0.0000

> <Gold.PLP.part.buried>
-2.6159

> <Gold.PLP.part.nonpolar>
-23.5997

> <Gold.PLP.part.repulsive>
0.3022

> <Gold.PLP.ligand.clash>
0.0000

> <Gold.PLP.ligand.torsion>
0.3874

> <Gold.PLP.Chemscore.Hbond>
2.3933

> <Gold.PLP.Chemscore.CHOScore>
0.0000

> <Gold.PLP.Chemscore.Metal>
0.0000

> <Gold.Chemscore.Hbonds>
donor molecule, donor type, donor heavy atom, donor atom, acceptor molecule, acceptor atom, score
      P1  H  7989  7998       L1    21  0.38
      P1  H  7997  8008       L1    21  1.00
      P1  H 10752 10765       L1    18  0.95

> <Gold.PLP.Chemscore.Internal.Correction>
0.0135

> <Gold.Rescore>
     Score         DG    S(hbond)    S(metal)    S(lipo)     H(rot)  DE(clash)    DE(int)     intcor
     12.41     -20.49       1.61        0.00     118.15       1.63       7.68       0.40       ----

> <Gold.Chemscore.Fitness>
12.4149

> <Gold.Chemscore.DG>
-20.4928

> <Gold.Chemscore.ZeroCoef>
-5.4800

> <Gold.Chemscore.Hbond>
1.6071

> <Gold.Chemscore.Metal>
0.0000

> <Gold.Chemscore.Lipo>
118.1497

> <Gold.Chemscore.Internal_Hbond>
0.0000

> <Gold.Chemscore.DEClash>
7.6786

> <Gold.Chemscore.DEInternal>
0.3993

> <Gold.Chemscore.Rot>
1.6322

> <Gold.Chemscore.Internal.Correction>
   9.000000E+99

> <Gold.Chemscore.Hbonds>
donor molecule, donor type, donor heavy atom, donor atom, acceptor molecule, acceptor atom, score
      P1  H  7989  7998       L1    21  0.05
      P1  H  7997  8008       L1    21  0.96
      P1  H 10752 10765       L1    18  0.21

> <Gold.Chemscore.Hbond.Weighted>
-5.3676

> <Gold.Chemscore.Metal.Weighted>
-0.0000

> <Gold.Chemscore.Lipo.Weighted>
-13.8235

> <Gold.Chemscore.Internal_Hbond.Weighted>
0.0000

> <Gold.Chemscore.DEClash.Weighted>
7.6786

> <Gold.Chemscore.DEInternal.Weighted>
0.3993

> <Gold.Chemscore.Rot.Weighted>
4.1783

> <Gold.Chemscore.Internal.Correction.Weighted>
   9.000000E+99

> <Gold.Protein.RotatedTorsions>
[ 6907 6896 6895 6894 ] final  -42.90 input  -60.11 | X-H torsion
[ 7974 7965 7964 7962 ] final  163.91 input  175.53 | X-H torsion
[ 8008 7997 7996 7995 ] final  -20.40 input   59.86 | X-H torsion
[ 10167 10162 10161 10158 ] final  154.19 input  -65.29 | X-H torsion
[ 10718 10713 10712 10709 ] final   11.23 input   66.30 | X-H torsion
[ 10763 10752 10751 10750 ] final -174.84 input  -60.55 | X-H torsion
[ 11005 11000 10999 10996 ] final -148.61 input  -57.11 | X-H torsion

> <Gold.Protein.ActiveResidues>
 VAL166  LYS551  ARG553  GLY616  TRP617  ASP618  TYR619  PRO620  LYS621  CYS622 
 ASP623  PHE694  ASN695  SER759  ASP760  ASP761  ALA762  ILE779  LEU786  VAL792 
 PHE793  MET794  SER795  GLU796  ALA797  LYS798  CYS799  TRP800  GLU811  SER814 

> <Gold.Protein.RotatedAtoms>
  150.9499  134.8900  159.7665 H   0  0  0  0  0  0  0  0  0  0  0  0  # atno 6907 bound_to 6896
  152.5115  134.3821  159.9364 H   0  0  0  0  0  0  0  0  0  0  0  0  # atno 6908 bound_to 6896
  151.3837  133.3772  159.2748 H   0  0  0  0  0  0  0  0  0  0  0  0  # atno 6909 bound_to 6896
  144.7568  139.8251  143.6347 H   0  0  0  0  0  0  0  0  0  0  0  0  # atno 7974 bound_to 7965
  154.4772  140.2063  155.9849 H   0  0  0  0  0  0  0  0  0  0  0  0  # atno 8008 bound_to 7997
  156.1109  140.3229  155.8041 H   0  0  0  0  0  0  0  0  0  0  0  0  # atno 8009 bound_to 7997
  155.4637  140.0526  157.2978 H   0  0  0  0  0  0  0  0  0  0  0  0  # atno 8010 bound_to 7997
  139.4824  144.5208  151.7879 H   0  0  0  0  0  0  0  0  0  0  0  0  # atno 10167 bound_to 10162
  156.9926  130.6048  149.5687 H   0  0  0  0  0  0  0  0  0  0  0  0  # atno 10718 bound_to 10713
  154.5915  135.2845  155.0630 H   0  0  0  0  0  0  0  0  0  0  0  0  # atno 10763 bound_to 10752
  154.1929  135.6437  153.5069 H   0  0  0  0  0  0  0  0  0  0  0  0  # atno 10764 bound_to 10752
  153.0123  135.5450  154.6603 H   0  0  0  0  0  0  0  0  0  0  0  0  # atno 10765 bound_to 10752
  140.7594  134.3315  157.5105 H   0  0  0  0  0  0  0  0  0  0  0  0  # atno 11005 bound_to 11000
  146.1588  139.4695  143.0002 LP  0  0  0  0  0  0  0  0  0  0  0  0  # atno 17320 bound_to 7965
  145.6751  141.0206  143.1636 LP  0  0  0  0  0  0  0  0  0  0  0  0  # atno 17321 bound_to 7965
  140.4722  144.1570  150.5919 LP  0  0  0  0  0  0  0  0  0  0  0  0  # atno 17342 bound_to 10162
  140.4370  143.2543  151.9523 LP  0  0  0  0  0  0  0  0  0  0  0  0  # atno 17343 bound_to 10162
  156.0201  130.5296  150.8251 LP  0  0  0  0  0  0  0  0  0  0  0  0  # atno 17370 bound_to 10713
  157.5448  131.0942  150.9778 LP  0  0  0  0  0  0  0  0  0  0  0  0  # atno 17371 bound_to 10713
  139.8773  134.9193  156.3222 LP  0  0  0  0  0  0  0  0  0  0  0  0  # atno 17394 bound_to 11000
  140.9677  133.7347  156.0490 LP  0  0  0  0  0  0  0  0  0  0  0  0  # atno 17395 bound_to 11000

$$$$
