AV-unprocessed.smi:45|AV-procd|sdf|414|dock3
  -GOLD-   2262016283D 1   1.00000     0.00000
 Structure written by MMmdl.
 59 62  0  0  0  0  0  0  0  0  2 V2000
  136.6281  142.1696  153.8924 C   0  0  0  0  0  0  0  0  0  0  0  0
  137.9623  142.1076  154.3743 O   0  0  0  0  0  0  0  0  0  0  0  0
  138.7033  140.9762  154.1015 C   0  0  0  0  0  0  0  0  0  0  0  0
  138.1679  139.8079  153.5017 C   0  0  0  0  0  0  0  0  0  0  0  0
  138.9881  138.6907  153.2527 C   0  0  0  0  0  0  0  0  0  0  0  0
  140.3540  138.7209  153.5969 C   0  0  0  0  0  0  0  0  0  0  0  0
  141.2371  137.5193  153.3265 C   0  0  0  0  0  0  0  0  0  0  0  0
  142.6559  137.8422  153.3223 N   0  0  0  0  0  0  0  0  0  0  0  0
  143.6245  136.8868  153.6733 C   0  0  0  0  0  0  0  0  0  0  0  0
  143.7347  135.7855  152.8917 N   0  0  0  0  0  0  0  0  0  0  0  0
  144.6624  134.8816  153.2111 C   0  0  0  0  0  0  0  0  0  0  0  0
  144.7209  133.7596  152.3993 N   0  0  0  0  0  0  0  0  0  0  0  0
  143.6263  133.4914  151.4692 C   0  0  0  0  0  0  0  0  0  0  0  0
  144.2502  132.9126  150.1928 C   0  0  0  0  0  0  0  0  0  0  0  0
  145.6222  132.4256  150.6444 C   0  0  0  0  0  0  0  0  0  0  0  0
  145.9759  133.4529  151.7212 C   0  0  2  0  0  0  0  0  0  0  0  0
  147.1305  133.0636  152.6683 C   0  0  0  0  0  0  0  0  0  0  0  0
  148.3460  132.8867  151.9697 O   0  0  0  0  0  0  0  0  0  0  0  0
  145.5065  134.9476  154.2438 N   0  0  0  0  0  0  0  0  0  0  0  0
  145.4155  136.0379  155.0349 C   0  0  0  0  0  0  0  0  0  0  0  0
  144.4754  137.0699  154.7983 C   0  0  0  0  0  0  0  0  0  0  0  0
  144.3755  138.2554  155.7253 C   0  0  0  0  0  0  0  0  0  0  0  0
  143.4277  139.0361  155.5832 O   0  0  0  0  0  0  0  0  0  0  0  0
  145.4128  138.2975  156.6060 N   0  5  0  0  0  0  0  0  0  0  0  0
  146.0938  139.5249  157.0176 C   0  0  0  0  0  0  0  0  0  0  0  0
  146.5047  140.3641  155.8159 C   0  0  0  0  0  0  0  0  0  0  0  0
  147.2842  139.7711  154.9027 N   0  0  0  0  0  0  0  0  0  0  0  0
  147.6270  140.5029  153.8209 C   0  0  0  0  0  0  0  0  0  0  0  0
  147.1897  141.8322  153.6555 C   0  0  0  0  0  0  0  0  0  0  0  0
  146.3778  142.3535  154.6828 C   0  0  0  0  0  0  0  0  0  0  0  0
  146.0377  141.6179  155.7631 N   0  0  0  0  0  0  0  0  0  0  0  0
  140.8932  139.8775  154.1928 C   0  0  0  0  0  0  0  0  0  0  0  0
  140.0740  140.9954  154.4444 C   0  0  0  0  0  0  0  0  0  0  0  0
  140.7671  142.3969  155.1790 Cl  0  0  0  0  0  0  0  0  0  0  0  0
  146.2769  134.3700  151.2116 H   0  0  0  0  0  0  0  0  0  0  0  0
  136.1864  143.1233  154.1807 H   0  0  0  0  0  0  0  0  0  0  0  0
  136.0115  141.3781  154.3205 H   0  0  0  0  0  0  0  0  0  0  0  0
  136.5944  142.1065  152.8040 H   0  0  0  0  0  0  0  0  0  0  0  0
  137.1274  139.7420  153.2223 H   0  0  0  0  0  0  0  0  0  0  0  0
  138.5653  137.8077  152.7960 H   0  0  0  0  0  0  0  0  0  0  0  0
  141.0407  136.7674  154.0918 H   0  0  0  0  0  0  0  0  0  0  0  0
  140.9678  137.0770  152.3666 H   0  0  0  0  0  0  0  0  0  0  0  0
  142.9497  138.7690  153.0469 H   0  0  0  0  0  0  0  0  0  0  0  0
  142.9683  132.7553  151.9315 H   0  0  0  0  0  0  0  0  0  0  0  0
  143.0251  134.3746  151.2509 H   0  0  0  0  0  0  0  0  0  0  0  0
  143.6446  132.1248  149.7445 H   0  0  0  0  0  0  0  0  0  0  0  0
  144.3698  133.7054  149.4533 H   0  0  0  0  0  0  0  0  0  0  0  0
  145.5345  131.4239  151.0670 H   0  0  0  0  0  0  0  0  0  0  0  0
  146.3502  132.3917  149.8335 H   0  0  0  0  0  0  0  0  0  0  0  0
  147.2797  133.8531  153.4051 H   0  0  0  0  0  0  0  0  0  0  0  0
  146.8972  132.1576  153.2277 H   0  0  0  0  0  0  0  0  0  0  0  0
  148.2345  132.1836  151.3484 H   0  0  0  0  0  0  0  0  0  0  0  0
  146.0952  136.0731  155.8740 H   0  0  0  0  0  0  0  0  0  0  0  0
  145.4565  140.1312  157.6634 H   0  0  0  0  0  0  0  0  0  0  0  0
  146.9888  139.3275  157.6107 H   0  0  0  0  0  0  0  0  0  0  0  0
  148.2532  140.0249  153.0823 H   0  0  0  0  0  0  0  0  0  0  0  0
  147.4615  142.4185  152.7907 H   0  0  0  0  0  0  0  0  0  0  0  0
  145.9995  143.3638  154.6372 H   0  0  0  0  0  0  0  0  0  0  0  0
  141.9391  139.9098  154.4617 H   0  0  0  0  0  0  0  0  0  0  0  0
  1  2  1  0  0  0  0
  1 36  1  0  0  0  0
  1 37  1  0  0  0  0
  1 38  1  0  0  0  0
  2  3  1  0  0  0  0
  3 33  1  0  0  0  0
  3  4  2  0  0  0  0
  4  5  1  0  0  0  0
  4 39  1  0  0  0  0
  5  6  2  0  0  0  0
  5 40  1  0  0  0  0
  6  7  1  0  0  0  0
  6 32  1  0  0  0  0
  7  8  1  0  0  0  0
  7 41  1  0  0  0  0
  7 42  1  0  0  0  0
  8  9  1  0  0  0  0
  8 43  1  0  0  0  0
  9 21  1  0  0  0  0
  9 10  2  0  0  0  0
 10 11  1  0  0  0  0
 11 12  1  0  0  0  0
 11 19  2  0  0  0  0
 12 16  1  0  0  0  0
 12 13  1  0  0  0  0
 13 14  1  0  0  0  0
 13 44  1  0  0  0  0
 13 45  1  0  0  0  0
 14 15  1  0  0  0  0
 14 46  1  0  0  0  0
 14 47  1  0  0  0  0
 15 16  1  0  0  0  0
 15 48  1  0  0  0  0
 15 49  1  0  0  0  0
 16 35  1  0  0  0  0
 16 17  1  0  0  0  0
 17 18  1  0  0  0  0
 17 50  1  0  0  0  0
 17 51  1  0  0  0  0
 18 52  1  0  0  0  0
 19 20  1  0  0  0  0
 20 21  2  0  0  0  0
 20 53  1  0  0  0  0
 21 22  1  0  0  0  0
 22 23  2  0  0  0  0
 22 24  1  0  0  0  0
 24 25  1  0  0  0  0
 25 26  1  0  0  0  0
 25 54  1  0  0  0  0
 25 55  1  0  0  0  0
 26 31  1  0  0  0  0
 26 27  2  0  0  0  0
 27 28  1  0  0  0  0
 28 29  2  0  0  0  0
 28 56  1  0  0  0  0
 29 30  1  0  0  0  0
 29 57  1  0  0  0  0
 30 31  2  0  0  0  0
 30 58  1  0  0  0  0
 32 33  2  0  0  0  0
 32 59  1  0  0  0  0
 33 34  1  0  0  0  0
M  CHG  1  24  -1
M  END
> <s_m_source_file>
AV-unprocessed.smi

> <i_m_source_file_index>
45

> <i_lp_mmshare_version>
43012

> <i_f3d_flags>
0

> <s_epik_input>
W0NIM11PYzFbY0hdW2NIXWMoW2NIXWMxQ2wpW0NIMl1bTkhdYzJuYyhOM1tDSDJdW0NIMl1bQ0gyXVtDQEhdM1tDSDJdW09IXSluW2NIXWMyQyg9TylbTkhdW0NIMl1jNG5bY0hdW2NIXVtjSF1uNA==

> <s_epik_cmdline>
J2VwaWtfcHl0aG9uJywgJy1waCcsICc3LjAnLCAnLXRuJywgJzgnLCAnLW1hJywgJzIwMCcsICctbWV0YWxfYmluZGluZycsICctaW1hZScsICc8aW5maWxlLm1hZT4nLCAnLW9tYWUnLCAnPG91dGZpbGUubWFlPic=

> <r_lp_tautomer_probability>
1

> <r_epik_Ionization_Penalty>
7.35269

> <r_epik_Ionization_Penalty_Charging>
6.82087

> <r_epik_Ionization_Penalty_Neutral>
0.53182

> <r_epik_State_Penalty>
6.85781

> <r_epik_Charging_Adjusted_Penalty>
13.6787

> <i_epik_Tot_Q>
-1

> <i_epik_Tot_abs_Q>
1

> <r_epik_Metal_State_Penalty>
2.8146

> <b_epik_Metal_Only>
1

> <s_epik_Chemistry_Notes>
This compound contains an electron-poor aromatic ring that is susceptible to covalent hydrolysis at low pH, typically resulting in measured values for nitrogen ring protonation that are around two units higher than predicted values.

> <s_lp_Force_Field>
OPLS_2005

> <r_lp_Energy>
50.4559

> <b_lp_Chiralities_Consistent>
1

> <s_lp_Variant>
AV-unprocessed.smi:45-8

> <Gold.Version>
5.8.1

> <Gold.Id.Protein>
6NUR|6NUR_protein|mol2

> <Gold.PLP.Fitness>
50.2650

> <Gold.PLP.PLP>
-43.6239

> <Gold.PLP.part.hbond>
-2.0000

> <Gold.PLP.part.metal>
0.0000

> <Gold.PLP.part.buried>
-6.5067

> <Gold.PLP.part.nonpolar>
-35.3236

> <Gold.PLP.part.repulsive>
0.5168

> <Gold.PLP.ligand.clash>
0.0000

> <Gold.PLP.ligand.torsion>
1.6574

> <Gold.PLP.Chemscore.Hbond>
2.0000

> <Gold.PLP.Chemscore.CHOScore>
1.0000

> <Gold.PLP.Chemscore.Metal>
0.0000

> <Gold.Chemscore.Hbonds>
donor molecule, donor type, donor heavy atom, donor atom, acceptor molecule, acceptor atom, score
      L1  H     8    43       P1 10175  1.00
      L1  H    18    52       P1 10747  0.98
      L1  C    28    56       P1  7957  1.00

> <Gold.PLP.Chemscore.Internal.Correction>
0.9558

> <Gold.Rescore>
     Score         DG    S(hbond)    S(metal)    S(lipo)     H(rot)  DE(clash)    DE(int)     intcor
     12.26     -16.97       1.96        0.00     110.14       3.11       0.34       4.37       ----

> <Gold.Chemscore.Fitness>
12.2616

> <Gold.Chemscore.DG>
-16.9673

> <Gold.Chemscore.ZeroCoef>
-5.4800

> <Gold.Chemscore.Hbond>
1.9632

> <Gold.Chemscore.Metal>
0.0000

> <Gold.Chemscore.Lipo>
110.1361

> <Gold.Chemscore.Internal_Hbond>
0.0000

> <Gold.Chemscore.DEClash>
0.3377

> <Gold.Chemscore.DEInternal>
4.3679

> <Gold.Chemscore.Rot>
3.1077

> <Gold.Chemscore.Internal.Correction>
   9.000000E+99

> <Gold.Chemscore.Hbonds>
donor molecule, donor type, donor heavy atom, donor atom, acceptor molecule, acceptor atom, score
      L1  H     8    43       P1 10175  1.00
      L1  H    18    52       P1 10747  0.93

> <Gold.Chemscore.Hbond.Weighted>
-6.5570

> <Gold.Chemscore.Metal.Weighted>
-0.0000

> <Gold.Chemscore.Lipo.Weighted>
-12.8859

> <Gold.Chemscore.Internal_Hbond.Weighted>
0.0000

> <Gold.Chemscore.DEClash.Weighted>
0.3377

> <Gold.Chemscore.DEInternal.Weighted>
4.3679

> <Gold.Chemscore.Rot.Weighted>
7.9557

> <Gold.Chemscore.Internal.Correction.Weighted>
   9.000000E+99

> <Gold.Protein.RotatedTorsions>
[ 6907 6896 6895 6894 ] final   84.75 input  -60.11 | X-H torsion
[ 7974 7965 7964 7962 ] final  -51.90 input  175.53 | X-H torsion
[ 8008 7997 7996 7995 ] final  -73.30 input   59.86 | X-H torsion
[ 10167 10162 10161 10158 ] final  173.98 input  -65.29 | X-H torsion
[ 10718 10713 10712 10709 ] final  141.89 input   66.30 | X-H torsion
[ 10763 10752 10751 10750 ] final -137.07 input  -60.55 | X-H torsion
[ 11005 11000 10999 10996 ] final   97.01 input  -57.11 | X-H torsion

> <Gold.Protein.ActiveResidues>
 VAL166  LYS551  ARG553  GLY616  TRP617  ASP618  TYR619  PRO620  LYS621  CYS622 
 ASP623  PHE694  ASN695  SER759  ASP760  ASP761  ALA762  ILE779  LEU786  VAL792 
 PHE793  MET794  SER795  GLU796  ALA797  LYS798  CYS799  TRP800  GLU811  SER814 

> <Gold.Protein.RotatedAtoms>
  152.5359  134.2693  159.8964 H   0  0  0  0  0  0  0  0  0  0  0  0  # atno 6907 bound_to 6896
  151.2650  133.4276  159.2626 H   0  0  0  0  0  0  0  0  0  0  0  0  # atno 6908 bound_to 6896
  151.0418  134.9627  159.8222 H   0  0  0  0  0  0  0  0  0  0  0  0  # atno 6909 bound_to 6896
  145.9139  140.7892  142.9681 H   0  0  0  0  0  0  0  0  0  0  0  0  # atno 7974 bound_to 7965
  154.5236  140.0781  156.8217 H   0  0  0  0  0  0  0  0  0  0  0  0  # atno 8008 bound_to 7997
  155.3523  140.3413  155.4221 H   0  0  0  0  0  0  0  0  0  0  0  0  # atno 8009 bound_to 7997
  156.1708  140.1619  156.8438 H   0  0  0  0  0  0  0  0  0  0  0  0  # atno 8010 bound_to 7997
  139.5126  144.3199  152.0212 H   0  0  0  0  0  0  0  0  0  0  0  0  # atno 10167 bound_to 10162
  157.3869  131.0999  151.0685 H   0  0  0  0  0  0  0  0  0  0  0  0  # atno 10718 bound_to 10713
  154.8670  135.3653  154.5163 H   0  0  0  0  0  0  0  0  0  0  0  0  # atno 10763 bound_to 10752
  153.5796  135.7018  153.5474 H   0  0  0  0  0  0  0  0  0  0  0  0  # atno 10764 bound_to 10752
  153.3469  135.4082  155.1578 H   0  0  0  0  0  0  0  0  0  0  0  0  # atno 10765 bound_to 10752
  139.8778  134.8979  156.4244 H   0  0  0  0  0  0  0  0  0  0  0  0  # atno 11005 bound_to 11000
  144.6746  140.1868  143.7400 LP  0  0  0  0  0  0  0  0  0  0  0  0  # atno 17320 bound_to 7965
  145.8637  139.2236  143.1702 LP  0  0  0  0  0  0  0  0  0  0  0  0  # atno 17321 bound_to 7965
  140.2641  144.4035  150.6175 LP  0  0  0  0  0  0  0  0  0  0  0  0  # atno 17342 bound_to 10162
  140.6136  143.2171  151.6837 LP  0  0  0  0  0  0  0  0  0  0  0  0  # atno 17343 bound_to 10162
  157.1733  130.6277  149.5647 LP  0  0  0  0  0  0  0  0  0  0  0  0  # atno 17370 bound_to 10713
  155.9789  130.4778  150.6681 LP  0  0  0  0  0  0  0  0  0  0  0  0  # atno 17371 bound_to 10713
  140.9111  133.7711  155.9793 LP  0  0  0  0  0  0  0  0  0  0  0  0  # atno 17394 bound_to 11000
  140.8545  134.2914  157.5261 LP  0  0  0  0  0  0  0  0  0  0  0  0  # atno 17395 bound_to 11000

$$$$
