AV-unprocessed.smi:1240|AV-procd|sdf|5199|dock9
  -GOLD-   22720 4283D 1   1.00000     0.00000
 Structure written by MMmdl.
 48 50  0  0  0  0  0  0  0  0  2 V2000
  149.9902  134.3232  155.8278 O   0  0  0  0  0  0  0  0  0  0  0  0
  149.6702  134.9096  154.7941 C   0  0  0  0  0  0  0  0  0  0  0  0
  148.7290  134.4595  153.9534 N   0  0  0  0  0  0  0  0  0  0  0  0
  147.9301  133.2567  154.1570 C   0  0  0  0  0  0  0  0  0  0  0  0
  147.2941  132.7364  152.8400 C   0  0  2  0  0  0  0  0  0  0  0  0
  146.0698  133.5707  152.3646 C   0  0  2  0  0  0  0  0  0  0  0  0
  146.0747  133.8908  150.8780 C   0  0  0  0  0  0  0  0  0  0  0  0
  145.0716  135.0325  150.7934 C   0  0  0  0  0  0  0  0  0  0  0  0
  145.2737  135.7825  151.9828 O   0  0  0  0  0  0  0  0  0  0  0  0
  145.9504  134.9856  152.9506 C   0  0  0  0  0  0  0  0  0  0  0  0
  146.9167  131.2937  152.9371 N   0  3  0  0  0  0  0  0  0  0  0  0
  146.1359  130.7902  151.7806 C   0  0  0  0  0  0  0  0  0  0  0  0
  145.6297  129.3656  152.0652 C   0  0  0  0  0  0  0  0  0  0  0  0
  146.7297  128.5158  152.3695 O   0  0  0  0  0  0  0  0  0  0  0  0
  147.4373  128.9477  153.5259 C   0  0  0  0  0  0  0  0  0  0  0  0
  148.0129  130.3517  153.2802 C   0  0  0  0  0  0  0  0  0  0  0  0
  150.2069  136.0581  154.3468 N   0  0  0  0  0  0  0  0  0  0  0  0
  151.1829  136.8897  154.9609 C   0  0  0  0  0  0  0  0  0  0  0  0
  151.6164  138.0246  154.2449 C   0  0  0  0  0  0  0  0  0  0  0  0
  152.5696  138.8782  154.8352 C   0  0  0  0  0  0  0  0  0  0  0  0
  153.0894  138.6726  156.0634 N   0  0  0  0  0  0  0  0  0  0  0  0
  152.6639  137.5931  156.7533 C   0  0  0  0  0  0  0  0  0  0  0  0
  151.7156  136.6767  156.2555 C   0  0  0  0  0  0  0  0  0  0  0  0
  148.5400  134.9983  153.1207 H   0  0  0  0  0  0  0  0  0  0  0  0
  148.5850  132.5046  154.5962 H   0  0  0  0  0  0  0  0  0  0  0  0
  147.1470  133.4591  154.8892 H   0  0  0  0  0  0  0  0  0  0  0  0
  148.0477  132.8084  152.0538 H   0  0  0  0  0  0  0  0  0  0  0  0
  145.1476  133.0350  152.5941 H   0  0  0  0  0  0  0  0  0  0  0  0
  147.0606  134.2360  150.5630 H   0  0  0  0  0  0  0  0  0  0  0  0
  145.7920  133.0436  150.2523 H   0  0  0  0  0  0  0  0  0  0  0  0
  145.2061  135.6469  149.9030 H   0  0  0  0  0  0  0  0  0  0  0  0
  144.0522  134.6447  150.7906 H   0  0  0  0  0  0  0  0  0  0  0  0
  145.4093  134.9965  153.8970 H   0  0  0  0  0  0  0  0  0  0  0  0
  146.9343  135.4256  153.1186 H   0  0  0  0  0  0  0  0  0  0  0  0
  145.2861  131.4458  151.5878 H   0  0  0  0  0  0  0  0  0  0  0  0
  146.7525  130.7890  150.8815 H   0  0  0  0  0  0  0  0  0  0  0  0
  144.9153  129.3633  152.8901 H   0  0  0  0  0  0  0  0  0  0  0  0
  145.1090  128.9704  151.1928 H   0  0  0  0  0  0  0  0  0  0  0  0
  146.7777  128.9431  154.3953 H   0  0  0  0  0  0  0  0  0  0  0  0
  148.2422  128.2421  153.7321 H   0  0  0  0  0  0  0  0  0  0  0  0
  148.7401  130.3033  152.4691 H   0  0  0  0  0  0  0  0  0  0  0  0
  148.5425  130.6875  154.1713 H   0  0  0  0  0  0  0  0  0  0  0  0
  149.8936  136.3673  153.4384 H   0  0  0  0  0  0  0  0  0  0  0  0
  151.2314  138.2403  153.2589 H   0  0  0  0  0  0  0  0  0  0  0  0
  152.9218  139.7515  154.3064 H   0  0  0  0  0  0  0  0  0  0  0  0
  153.0876  137.4582  157.7375 H   0  0  0  0  0  0  0  0  0  0  0  0
  151.4139  135.8486  156.8771 H   0  0  0  0  0  0  0  0  0  0  0  0
  146.2745  131.2527  153.7156 H   0  0  0  0  0  0  0  0  0  0  0  0
  1  2  2  0  0  0  0
  2  3  1  0  0  0  0
  2 17  1  0  0  0  0
  3  4  1  0  0  0  0
  3 24  1  0  0  0  0
  4  5  1  0  0  0  0
  4 25  1  0  0  0  0
  4 26  1  0  0  0  0
  5  6  1  0  0  0  0
  5 11  1  0  0  0  0
  5 27  1  0  0  0  0
  6 10  1  0  0  0  0
  6  7  1  0  0  0  0
  6 28  1  0  0  0  0
  7  8  1  0  0  0  0
  7 29  1  0  0  0  0
  7 30  1  0  0  0  0
  8  9  1  0  0  0  0
  8 31  1  0  0  0  0
  8 32  1  0  0  0  0
  9 10  1  0  0  0  0
 10 33  1  0  0  0  0
 10 34  1  0  0  0  0
 11 16  1  0  0  0  0
 11 12  1  0  0  0  0
 11 48  1  0  0  0  0
 12 13  1  0  0  0  0
 12 35  1  0  0  0  0
 12 36  1  0  0  0  0
 13 14  1  0  0  0  0
 13 37  1  0  0  0  0
 13 38  1  0  0  0  0
 14 15  1  0  0  0  0
 15 16  1  0  0  0  0
 15 39  1  0  0  0  0
 15 40  1  0  0  0  0
 16 41  1  0  0  0  0
 16 42  1  0  0  0  0
 17 18  1  0  0  0  0
 17 43  1  0  0  0  0
 18 23  1  0  0  0  0
 18 19  2  0  0  0  0
 19 20  1  0  0  0  0
 19 44  1  0  0  0  0
 20 21  2  0  0  0  0
 20 45  1  0  0  0  0
 21 22  1  0  0  0  0
 22 23  2  0  0  0  0
 22 46  1  0  0  0  0
 23 47  1  0  0  0  0
M  CHG  1  11   1
M  END
> <s_m_source_file>
AV-unprocessed.smi

> <i_m_source_file_index>
1240

> <i_lp_mmshare_version>
43012

> <i_f3d_flags>
0

> <s_epik_input>
W2NIXTFbY0hdbltjSF1bY0hdYzFbTkhdQyg9TylbTkhdW0NIMl1bQ0BIXShbQ0BASF0yW0NIMl1bQ0gyXU9bQ0gyXTIpTjNbQ0gyXVtDSDJdT1tDSDJdW0NIMl0z

> <s_epik_cmdline>
J2VwaWtfcHl0aG9uJywgJy1waCcsICc3LjAnLCAnLXRuJywgJzgnLCAnLW1hJywgJzIwMCcsICctbWV0YWxfYmluZGluZycsICctaW1hZScsICc8aW5maWxlLm1hZT4nLCAnLW9tYWUnLCAnPG91dGZpbGUubWFlPic=

> <r_epik_Ionization_Penalty>
1.08433

> <r_epik_Ionization_Penalty_Charging>
0.98326

> <r_epik_Ionization_Penalty_Neutral>
0.10107

> <r_epik_State_Penalty>
1.11265

> <r_epik_Charging_Adjusted_Penalty>
2.09591

> <i_epik_Tot_Q>
1

> <i_epik_Tot_abs_Q>
1

> <r_epik_Metal_State_Penalty>
1.10731

> <b_epik_Metal_Only>
0

> <s_lp_Force_Field>
OPLS_2005

> <r_lp_Energy>
43.6027

> <b_lp_Chiralities_Consistent>
1

> <s_lp_Variant>
AV-unprocessed.smi:1240-5

> <Gold.Version>
5.8.1

> <Gold.Id.Protein>
6NUR|6NUR_protein|mol2

> <Gold.PLP.Fitness>
42.3818

> <Gold.PLP.PLP>
-36.1727

> <Gold.PLP.part.hbond>
-3.7445

> <Gold.PLP.part.metal>
0.0000

> <Gold.PLP.part.buried>
-4.3788

> <Gold.PLP.part.nonpolar>
-28.6808

> <Gold.PLP.part.repulsive>
0.3348

> <Gold.PLP.ligand.clash>
0.0000

> <Gold.PLP.ligand.torsion>
1.4893

> <Gold.PLP.Chemscore.Hbond>
3.0000

> <Gold.PLP.Chemscore.CHOScore>
0.0000

> <Gold.PLP.Chemscore.Metal>
0.0000

> <Gold.Chemscore.Hbonds>
donor molecule, donor type, donor heavy atom, donor atom, acceptor molecule, acceptor atom, score
      L1  H     3    24       P1  7948  1.00
      L1  H    17    43       P1  7948  0.80
      P1  H  7997  8008       L1    21  1.00

> <Gold.PLP.Chemscore.Internal.Correction>
0.1878

> <Gold.Rescore>
     Score         DG    S(hbond)    S(metal)    S(lipo)     H(rot)  DE(clash)    DE(int)     intcor
     15.85     -19.58       2.41        0.00      88.92       1.70       0.06       3.66       ----

> <Gold.Chemscore.Fitness>
15.8540

> <Gold.Chemscore.DG>
-19.5767

> <Gold.Chemscore.ZeroCoef>
-5.4800

> <Gold.Chemscore.Hbond>
2.4102

> <Gold.Chemscore.Metal>
0.0000

> <Gold.Chemscore.Lipo>
88.9243

> <Gold.Chemscore.Internal_Hbond>
0.0000

> <Gold.Chemscore.DEClash>
0.0605

> <Gold.Chemscore.DEInternal>
3.6622

> <Gold.Chemscore.Rot>
1.7021

> <Gold.Chemscore.Internal.Correction>
   9.000000E+99

> <Gold.Chemscore.Hbonds>
donor molecule, donor type, donor heavy atom, donor atom, acceptor molecule, acceptor atom, score
      L1  H     3    24       P1  7948  0.68
      L1  H    17    43       P1  7948  0.12
      P1  H  7997  8008       L1    21  0.66

> <Gold.Chemscore.Hbond.Weighted>
-8.0501

> <Gold.Chemscore.Metal.Weighted>
-0.0000

> <Gold.Chemscore.Lipo.Weighted>
-10.4041

> <Gold.Chemscore.Internal_Hbond.Weighted>
0.0000

> <Gold.Chemscore.DEClash.Weighted>
0.0605

> <Gold.Chemscore.DEInternal.Weighted>
3.6622

> <Gold.Chemscore.Rot.Weighted>
4.3575

> <Gold.Chemscore.Internal.Correction.Weighted>
   9.000000E+99

> <Gold.Protein.RotatedTorsions>
[ 6907 6896 6895 6894 ] final    9.13 input  -60.11 | X-H torsion
[ 7974 7965 7964 7962 ] final -140.93 input  175.53 | X-H torsion
[ 8008 7997 7996 7995 ] final  -50.99 input   59.86 | X-H torsion
[ 10167 10162 10161 10158 ] final   73.69 input  -65.29 | X-H torsion
[ 10718 10713 10712 10709 ] final   99.57 input   66.30 | X-H torsion
[ 10763 10752 10751 10750 ] final -163.85 input  -60.55 | X-H torsion
[ 11005 11000 10999 10996 ] final  146.24 input  -57.11 | X-H torsion

> <Gold.Protein.ActiveResidues>
 VAL166  LYS551  ARG553  GLY616  TRP617  ASP618  TYR619  PRO620  LYS621  CYS622 
 ASP623  PHE694  ASN695  SER759  ASP760  ASP761  ALA762  ILE779  LEU786  VAL792 
 PHE793  MET794  SER795  GLU796  ALA797  LYS798  CYS799  TRP800  GLU811  SER814 

> <Gold.Protein.RotatedAtoms>
  151.7172  135.0901  160.0277 H   0  0  0  0  0  0  0  0  0  0  0  0  # atno 6907 bound_to 6896
  152.3625  133.6310  159.6034 H   0  0  0  0  0  0  0  0  0  0  0  0  # atno 6908 bound_to 6896
  150.7614  133.9317  159.3470 H   0  0  0  0  0  0  0  0  0  0  0  0  # atno 6909 bound_to 6896
  144.8559  140.6141  143.5360 H   0  0  0  0  0  0  0  0  0  0  0  0  # atno 7974 bound_to 7965
  154.4073  140.1259  156.4755 H   0  0  0  0  0  0  0  0  0  0  0  0  # atno 8008 bound_to 7997
  155.7137  140.3493  155.4965 H   0  0  0  0  0  0  0  0  0  0  0  0  # atno 8009 bound_to 7997
  155.9277  140.1064  157.1147 H   0  0  0  0  0  0  0  0  0  0  0  0  # atno 8010 bound_to 7997
  140.0218  144.5535  150.7576 H   0  0  0  0  0  0  0  0  0  0  0  0  # atno 10167 bound_to 10162
  157.6873  131.0673  150.4968 H   0  0  0  0  0  0  0  0  0  0  0  0  # atno 10718 bound_to 10713
  154.7084  135.3001  154.9235 H   0  0  0  0  0  0  0  0  0  0  0  0  # atno 10763 bound_to 10752
  154.0145  135.6690  153.4772 H   0  0  0  0  0  0  0  0  0  0  0  0  # atno 10764 bound_to 10752
  153.0735  135.5047  154.8268 H   0  0  0  0  0  0  0  0  0  0  0  0  # atno 10765 bound_to 10752
  140.0777  134.9115  157.1450 H   0  0  0  0  0  0  0  0  0  0  0  0  # atno 11005 bound_to 11000
  145.4407  139.1536  143.3972 LP  0  0  0  0  0  0  0  0  0  0  0  0  # atno 17320 bound_to 7965
  146.2822  140.4529  142.8772 LP  0  0  0  0  0  0  0  0  0  0  0  0  # atno 17321 bound_to 7965
  140.7339  143.2723  151.3850 LP  0  0  0  0  0  0  0  0  0  0  0  0  # atno 17342 bound_to 10162
  139.6135  144.1050  152.2322 LP  0  0  0  0  0  0  0  0  0  0  0  0  # atno 17343 bound_to 10162
  156.5292  130.4180  149.6210 LP  0  0  0  0  0  0  0  0  0  0  0  0  # atno 17370 bound_to 10713
  156.3085  130.7216  151.2103 LP  0  0  0  0  0  0  0  0  0  0  0  0  # atno 17371 bound_to 10713
  140.3533  134.2575  155.7196 LP  0  0  0  0  0  0  0  0  0  0  0  0  # atno 17394 bound_to 11000
  141.2035  133.7909  157.0333 LP  0  0  0  0  0  0  0  0  0  0  0  0  # atno 17395 bound_to 11000

$$$$
