AV-unprocessed.smi:177|AV-procd|sdf|1442|dock8
  -GOLD-   2262019233D 1   1.00000     0.00000
 Structure written by MMmdl.
 61 65  0  0  0  0  0  0  0  0  1 V2000
  154.5328  137.8123  158.4910 C   0  0  0  0  0  0  0  0  0  0  0  0
  153.8562  138.9332  157.9427 O   0  0  0  0  0  0  0  0  0  0  0  0
  153.1362  139.7057  158.8950 C   0  0  1  0  0  0  0  0  0  0  0  0
  154.1623  140.3474  159.8427 C   0  0  0  0  0  0  0  0  0  0  0  0
  153.4765  141.2393  160.8893 C   0  0  0  0  0  0  0  0  0  0  0  0
  152.5831  142.3131  160.2441 C   0  0  1  0  0  0  0  0  0  0  0  0
  153.3976  143.2834  159.5909 O   0  0  0  0  0  0  0  0  0  0  0  0
  152.6294  144.3705  159.0861 C   0  0  0  0  0  0  0  0  0  0  0  0
  151.6262  143.8594  158.0394 C   0  0  0  0  0  0  0  0  0  0  0  0
  150.8145  142.7758  158.5959 N   0  0  0  0  0  0  0  0  0  0  0  0
  149.7004  142.3986  157.9116 C   0  0  0  0  0  0  0  0  0  0  0  0
  149.8307  141.7442  156.7257 N   0  0  0  0  0  0  0  0  0  0  0  0
  148.7518  141.3509  156.0438 C   0  0  0  0  0  0  0  0  0  0  0  0
  147.4653  141.5053  156.3582 N   0  0  0  0  0  0  0  0  0  0  0  0
  147.3222  142.1637  157.5436 C   0  0  0  0  0  0  0  0  0  0  0  0
  148.3748  142.6465  158.3734 C   0  0  0  0  0  0  0  0  0  0  0  0
  147.8371  143.2886  159.4831 N   0  0  0  0  0  0  0  0  0  0  0  0
  146.5471  143.1773  159.3268 C   0  0  0  0  0  0  0  0  0  0  0  0
  146.1482  142.5013  158.1961 N   0  0  0  0  0  0  0  0  0  0  0  0
  144.7784  142.2442  157.7733 C   0  0  0  0  0  0  0  0  0  0  0  0
  144.4265  140.7415  157.5337 C   0  0  0  0  0  0  0  0  0  0  0  0
  144.9836  140.3194  156.1456 C   0  0  0  0  0  0  0  0  0  0  0  0
  144.6040  141.1904  155.0978 O   0  0  0  0  0  0  0  0  0  0  0  0
  145.0139  139.8218  158.6357 C   0  0  0  0  0  0  0  0  0  0  0  0
  144.3287  140.0306  159.9977 C   0  0  0  0  0  0  0  0  0  0  0  0
  142.9300  139.8062  159.8720 O   0  0  0  0  0  0  0  0  0  0  0  0
  142.2973  140.7187  158.9827 C   0  0  0  0  0  0  0  0  0  0  0  0
  142.8846  140.5755  157.5650 C   0  0  0  0  0  0  0  0  0  0  0  0
  151.5852  141.7025  159.2315 C   0  0  1  0  0  0  0  0  0  0  0  0
  152.3013  140.7987  158.2008 C   0  0  0  0  0  0  0  0  0  0  0  0
  155.0742  137.2943  157.6996 H   0  0  0  0  0  0  0  0  0  0  0  0
  153.8436  137.0984  158.9408 H   0  0  0  0  0  0  0  0  0  0  0  0
  155.2590  138.1200  159.2443 H   0  0  0  0  0  0  0  0  0  0  0  0
  152.4835  139.0561  159.4818 H   0  0  0  0  0  0  0  0  0  0  0  0
  154.7392  139.5702  160.3448 H   0  0  0  0  0  0  0  0  0  0  0  0
  154.8766  140.9395  159.2685 H   0  0  0  0  0  0  0  0  0  0  0  0
  152.8674  140.6149  161.5437 H   0  0  0  0  0  0  0  0  0  0  0  0
  154.2248  141.7110  161.5269 H   0  0  0  0  0  0  0  0  0  0  0  0
  152.0293  142.8113  161.0422 H   0  0  0  0  0  0  0  0  0  0  0  0
  152.1125  144.8753  159.9036 H   0  0  0  0  0  0  0  0  0  0  0  0
  153.3005  145.1019  158.6356 H   0  0  0  0  0  0  0  0  0  0  0  0
  150.9861  144.6845  157.7244 H   0  0  0  0  0  0  0  0  0  0  0  0
  152.1562  143.5079  157.1536 H   0  0  0  0  0  0  0  0  0  0  0  0
  148.9484  140.8373  155.1141 H   0  0  0  0  0  0  0  0  0  0  0  0
  145.8469  143.5871  160.0400 H   0  0  0  0  0  0  0  0  0  0  0  0
  144.1258  142.6898  158.5221 H   0  0  0  0  0  0  0  0  0  0  0  0
  144.5977  142.8147  156.8613 H   0  0  0  0  0  0  0  0  0  0  0  0
  146.0730  140.2789  156.1709 H   0  0  0  0  0  0  0  0  0  0  0  0
  144.6356  139.3225  155.8757 H   0  0  0  0  0  0  0  0  0  0  0  0
  144.3944  140.6710  154.3366 H   0  0  0  0  0  0  0  0  0  0  0  0
  144.8730  138.7766  158.3586 H   0  0  0  0  0  0  0  0  0  0  0  0
  146.0915  139.9531  158.7278 H   0  0  0  0  0  0  0  0  0  0  0  0
  144.7295  139.3244  160.7250 H   0  0  0  0  0  0  0  0  0  0  0  0
  144.5172  141.0278  160.3959 H   0  0  0  0  0  0  0  0  0  0  0  0
  141.2302  140.4971  158.9625 H   0  0  0  0  0  0  0  0  0  0  0  0
  142.3909  141.7370  159.3604 H   0  0  0  0  0  0  0  0  0  0  0  0
  142.4108  141.2907  156.8915 H   0  0  0  0  0  0  0  0  0  0  0  0
  142.6034  139.5882  157.1981 H   0  0  0  0  0  0  0  0  0  0  0  0
  150.9138  141.0687  159.8069 H   0  0  0  0  0  0  0  0  0  0  0  0
  152.9561  141.3933  157.5635 H   0  0  0  0  0  0  0  0  0  0  0  0
  151.5611  140.3453  157.5423 H   0  0  0  0  0  0  0  0  0  0  0  0
  1  2  1  0  0  0  0
  1 31  1  0  0  0  0
  1 32  1  0  0  0  0
  1 33  1  0  0  0  0
  2  3  1  0  0  0  0
  3 30  1  0  0  0  0
  3  4  1  0  0  0  0
  3 34  1  0  0  0  0
  4  5  1  0  0  0  0
  4 35  1  0  0  0  0
  4 36  1  0  0  0  0
  5  6  1  0  0  0  0
  5 37  1  0  0  0  0
  5 38  1  0  0  0  0
  6 29  1  0  0  0  0
  6  7  1  0  0  0  0
  6 39  1  0  0  0  0
  7  8  1  0  0  0  0
  8  9  1  0  0  0  0
  8 40  1  0  0  0  0
  8 41  1  0  0  0  0
  9 10  1  0  0  0  0
  9 42  1  0  0  0  0
  9 43  1  0  0  0  0
 10 11  1  0  0  0  0
 10 29  1  0  0  0  0
 11 16  1  0  0  0  0
 11 12  2  0  0  0  0
 12 13  1  0  0  0  0
 13 14  2  0  0  0  0
 13 44  1  0  0  0  0
 14 15  1  0  0  0  0
 15 19  1  0  0  0  0
 15 16  2  0  0  0  0
 16 17  1  0  0  0  0
 17 18  2  0  0  0  0
 18 19  1  0  0  0  0
 18 45  1  0  0  0  0
 19 20  1  0  0  0  0
 20 21  1  0  0  0  0
 20 46  1  0  0  0  0
 20 47  1  0  0  0  0
 21 28  1  0  0  0  0
 21 22  1  0  0  0  0
 21 24  1  0  0  0  0
 22 23  1  0  0  0  0
 22 48  1  0  0  0  0
 22 49  1  0  0  0  0
 23 50  1  0  0  0  0
 24 25  1  0  0  0  0
 24 51  1  0  0  0  0
 24 52  1  0  0  0  0
 25 26  1  0  0  0  0
 25 53  1  0  0  0  0
 25 54  1  0  0  0  0
 26 27  1  0  0  0  0
 27 28  1  0  0  0  0
 27 55  1  0  0  0  0
 27 56  1  0  0  0  0
 28 57  1  0  0  0  0
 28 58  1  0  0  0  0
 29 30  1  0  0  0  0
 29 59  1  0  0  0  0
 30 60  1  0  0  0  0
 30 61  1  0  0  0  0
M  END
> <s_m_source_file>
AV-unprocessed.smi

> <i_m_source_file_index>
177

> <i_lp_mmshare_version>
43012

> <i_f3d_flags>
0

> <s_epik_input>
W0NIM11PW0NASF0oW0NIMl1bQ0gyXTEpW0NIMl1bQ0BIXShbQ0BASF0xMilOKFtDSDJdW0NIMl1PMiljKG5bY0hdbjMpYyhjMzQpbltjSF1uNFtDSDJdQzUoW0NIMl1bT0hdKVtDSDJdW0NIMl1PW0NIMl1bQ0gyXTU=

> <s_epik_cmdline>
J2VwaWtfcHl0aG9uJywgJy1waCcsICc3LjAnLCAnLXRuJywgJzgnLCAnLW1hJywgJzIwMCcsICctbWV0YWxfYmluZGluZycsICctaW1hZScsICc8aW5maWxlLm1hZT4nLCAnLW9tYWUnLCAnPG91dGZpbGUubWFlPic=

> <r_lp_tautomer_probability>
1

> <r_epik_Ionization_Penalty>
0.0065899

> <r_epik_Ionization_Penalty_Charging>
0

> <r_epik_Ionization_Penalty_Neutral>
0.0065899

> <r_epik_State_Penalty>
0.00470042

> <r_epik_Charging_Adjusted_Penalty>
0.00470042

> <i_epik_Tot_Q>
0

> <i_epik_Tot_abs_Q>
0

> <r_epik_Metal_State_Penalty>
-0

> <b_epik_Metal_Only>
0

> <s_lp_Force_Field>
OPLS_2005

> <r_lp_Energy>
44.6168

> <b_lp_Chiralities_Consistent>
1

> <s_lp_Variant>
AV-unprocessed.smi:177-6

> <Gold.Version>
5.8.1

> <Gold.Id.Protein>
6NUR|6NUR_protein|mol2

> <Gold.PLP.Fitness>
43.0638

> <Gold.PLP.PLP>
-36.3910

> <Gold.PLP.part.hbond>
-2.9061

> <Gold.PLP.part.metal>
0.0000

> <Gold.PLP.part.buried>
-6.8799

> <Gold.PLP.part.nonpolar>
-28.4158

> <Gold.PLP.part.repulsive>
0.4096

> <Gold.PLP.ligand.clash>
0.0000

> <Gold.PLP.ligand.torsion>
0.5428

> <Gold.PLP.Chemscore.Hbond>
2.4290

> <Gold.PLP.Chemscore.CHOScore>
0.0000

> <Gold.PLP.Chemscore.Metal>
0.0000

> <Gold.Chemscore.Hbonds>
donor molecule, donor type, donor heavy atom, donor atom, acceptor molecule, acceptor atom, score
      L1  H    23    50       P1 10175  1.00
      P1  H  6933  6944       L1    17  0.34
      P1  H  7997  8010       L1     2  1.00

> <Gold.PLP.Chemscore.Internal.Correction>
0.4713

> <Gold.Rescore>
     Score         DG    S(hbond)    S(metal)    S(lipo)     H(rot)  DE(clash)    DE(int)     intcor
     15.30     -17.46       2.61        0.00      84.51       2.58       0.12       2.05       ----

> <Gold.Chemscore.Fitness>
15.2995

> <Gold.Chemscore.DG>
-17.4634

> <Gold.Chemscore.ZeroCoef>
-5.4800

> <Gold.Chemscore.Hbond>
2.6052

> <Gold.Chemscore.Metal>
0.0000

> <Gold.Chemscore.Lipo>
84.5145

> <Gold.Chemscore.Internal_Hbond>
0.0000

> <Gold.Chemscore.DEClash>
0.1164

> <Gold.Chemscore.DEInternal>
2.0475

> <Gold.Chemscore.Rot>
2.5806

> <Gold.Chemscore.Internal.Correction>
   9.000000E+99

> <Gold.Chemscore.Hbonds>
donor molecule, donor type, donor heavy atom, donor atom, acceptor molecule, acceptor atom, score
      L1  H    23    50       P1 10175  0.92
      P1  H  6933  6944       L1    17  0.22
      P1  H  7997  8010       L1     2  0.45

> <Gold.Chemscore.Hbond.Weighted>
-8.7015

> <Gold.Chemscore.Metal.Weighted>
-0.0000

> <Gold.Chemscore.Lipo.Weighted>
-9.8882

> <Gold.Chemscore.Internal_Hbond.Weighted>
0.0000

> <Gold.Chemscore.DEClash.Weighted>
0.1164

> <Gold.Chemscore.DEInternal.Weighted>
2.0475

> <Gold.Chemscore.Rot.Weighted>
6.6062

> <Gold.Chemscore.Internal.Correction.Weighted>
   9.000000E+99

> <Gold.Protein.RotatedTorsions>
[ 6907 6896 6895 6894 ] final  111.05 input  -60.11 | X-H torsion
[ 7974 7965 7964 7962 ] final  -87.77 input  175.53 | X-H torsion
[ 8008 7997 7996 7995 ] final   19.77 input   59.86 | X-H torsion
[ 10167 10162 10161 10158 ] final  176.92 input  -65.29 | X-H torsion
[ 10718 10713 10712 10709 ] final -141.05 input   66.30 | X-H torsion
[ 10763 10752 10751 10750 ] final  -20.22 input  -60.55 | X-H torsion
[ 11005 11000 10999 10996 ] final -144.51 input  -57.11 | X-H torsion

> <Gold.Protein.ActiveResidues>
 VAL166  LYS551  ARG553  GLY616  TRP617  ASP618  TYR619  PRO620  LYS621  CYS622 
 ASP623  PHE694  ASN695  SER759  ASP760  ASP761  ALA762  ILE779  LEU786  VAL792 
 PHE793  MET794  SER795  GLU796  ALA797  LYS798  CYS799  TRP800  GLU811  SER814 

> <Gold.Protein.RotatedAtoms>
  152.4989  133.8713  159.7299 H   0  0  0  0  0  0  0  0  0  0  0  0  # atno 6907 bound_to 6896
  150.9199  133.6884  159.2841 H   0  0  0  0  0  0  0  0  0  0  0  0  # atno 6908 bound_to 6896
  151.4265  135.1009  159.9682 H   0  0  0  0  0  0  0  0  0  0  0  0  # atno 6909 bound_to 6896
  145.4621  140.9561  143.1964 H   0  0  0  0  0  0  0  0  0  0  0  0  # atno 7974 bound_to 7965
  154.9257  140.3033  155.5193 H   0  0  0  0  0  0  0  0  0  0  0  0  # atno 8008 bound_to 7997
  156.3007  140.2363  156.4248 H   0  0  0  0  0  0  0  0  0  0  0  0  # atno 8009 bound_to 7997
  154.8287  140.0419  157.1450 H   0  0  0  0  0  0  0  0  0  0  0  0  # atno 8010 bound_to 7997
  139.5233  144.2859  152.0506 H   0  0  0  0  0  0  0  0  0  0  0  0  # atno 10167 bound_to 10162
  156.3295  130.7578  151.1693 H   0  0  0  0  0  0  0  0  0  0  0  0  # atno 10718 bound_to 10713
  153.6171  135.6994  153.5324 H   0  0  0  0  0  0  0  0  0  0  0  0  # atno 10763 bound_to 10752
  153.2968  135.4140  155.1216 H   0  0  0  0  0  0  0  0  0  0  0  0  # atno 10764 bound_to 10752
  154.8551  135.3639  154.5711 H   0  0  0  0  0  0  0  0  0  0  0  0  # atno 10765 bound_to 10752
  140.8017  134.2849  157.4976 H   0  0  0  0  0  0  0  0  0  0  0  0  # atno 11005 bound_to 11000
  144.7996  139.6166  143.7077 LP  0  0  0  0  0  0  0  0  0  0  0  0  # atno 17320 bound_to 7965
  146.2445  139.6070  142.9469 LP  0  0  0  0  0  0  0  0  0  0  0  0  # atno 17321 bound_to 7965
  140.2312  144.4366  150.6299 LP  0  0  0  0  0  0  0  0  0  0  0  0  # atno 17342 bound_to 10162
  140.6354  143.2194  151.6407 LP  0  0  0  0  0  0  0  0  0  0  0  0  # atno 17343 bound_to 10162
  157.7427  131.0485  150.5000 LP  0  0  0  0  0  0  0  0  0  0  0  0  # atno 17370 bound_to 10713
  156.5164  130.4151  149.6274 LP  0  0  0  0  0  0  0  0  0  0  0  0  # atno 17371 bound_to 10713
  139.8721  134.9433  156.3849 LP  0  0  0  0  0  0  0  0  0  0  0  0  # atno 17394 bound_to 11000
  140.9288  133.7593  155.9998 LP  0  0  0  0  0  0  0  0  0  0  0  0  # atno 17395 bound_to 11000

$$$$
