AV-unprocessed.smi:236|AV-procd|sdf|1813|dock5
  -GOLD-   2262020403D 1   1.00000     0.00000
 Structure written by MMmdl.
 58 62  0  0  0  0  0  0  0  0  1 V2000
  147.4395  135.1113  162.8784 C   0  0  0  0  0  0  0  0  0  0  0  0
  145.9491  135.4762  162.8099 C   0  0  2  0  0  0  0  0  0  0  0  0
  145.1361  134.3403  163.0933 O   0  0  0  0  0  0  0  0  0  0  0  0
  143.9396  134.3863  162.3204 C   0  0  0  0  0  0  0  0  0  0  0  0
  143.9439  135.7485  161.6334 C   0  0  0  0  0  0  0  0  0  0  0  0
  145.4326  136.0295  161.4679 C   0  0  1  0  0  0  0  0  0  0  0  0
  145.6323  137.4294  161.4044 O   0  0  0  0  0  0  0  0  0  0  0  0
  146.0658  135.3583  160.2187 C   0  0  0  0  0  0  0  0  0  0  0  0
  147.2976  135.9910  159.7736 N   0  0  0  0  0  0  0  0  0  0  0  0
  148.5787  135.6667  160.1579 C   0  0  0  0  0  0  0  0  0  0  0  0
  149.5208  136.3910  159.6189 N   0  0  0  0  0  0  0  0  0  0  0  0
  148.8411  137.2734  158.7864 C   0  0  0  0  0  0  0  0  0  0  0  0
  149.2414  138.3280  157.9160 C   0  0  0  0  0  0  0  0  0  0  0  0
  150.5404  138.6784  157.7260 N   0  0  0  0  0  0  0  0  0  0  0  0
  151.5086  137.6167  157.4598 C   0  0  0  0  0  0  0  0  0  0  0  0
  152.8387  138.2210  156.9835 C   0  0  0  0  0  0  0  0  0  0  0  0
  153.2984  139.1699  157.9400 O   0  0  0  0  0  0  0  0  0  0  0  0
  152.3922  140.2591  158.0980 C   0  0  2  0  0  0  0  0  0  0  0  0
  153.0156  141.2687  159.0698 C   0  0  0  0  0  0  0  0  0  0  0  0
  152.2216  142.4434  159.0881 O   0  0  0  0  0  0  0  0  0  0  0  0
  152.9489  143.5878  159.4992 C   0  0  0  0  0  0  0  0  0  0  0  0
  152.3606  144.8130  158.8328 C   0  0  0  0  0  0  0  0  0  0  0  0
  151.3066  145.6361  159.5383 C   0  0  0  0  0  0  0  0  0  0  0  0
  150.9333  144.8095  158.3340 C   0  0  0  0  0  0  0  0  0  0  0  0
  151.0534  139.7073  158.6260 C   0  0  0  0  0  0  0  0  0  0  0  0
  148.2562  139.0039  157.2647 N   0  0  0  0  0  0  0  0  0  0  0  0
  146.9744  138.6701  157.4396 C   0  0  0  0  0  0  0  0  0  0  0  0
  146.4604  137.7111  158.2109 N   0  0  0  0  0  0  0  0  0  0  0  0
  147.4400  137.0339  158.8749 C   0  0  0  0  0  0  0  0  0  0  0  0
  148.0650  135.9674  162.6250 H   0  0  0  0  0  0  0  0  0  0  0  0
  147.6883  134.2963  162.1987 H   0  0  0  0  0  0  0  0  0  0  0  0
  147.7103  134.7893  163.8840 H   0  0  0  0  0  0  0  0  0  0  0  0
  145.7346  136.2041  163.5950 H   0  0  0  0  0  0  0  0  0  0  0  0
  143.9687  133.5838  161.5827 H   0  0  0  0  0  0  0  0  0  0  0  0
  143.0573  134.2400  162.9434 H   0  0  0  0  0  0  0  0  0  0  0  0
  143.3676  135.7655  160.7091 H   0  0  0  0  0  0  0  0  0  0  0  0
  143.4947  136.4824  162.3051 H   0  0  0  0  0  0  0  0  0  0  0  0
  144.8024  137.8424  161.2207 H   0  0  0  0  0  0  0  0  0  0  0  0
  146.2824  134.3084  160.4190 H   0  0  0  0  0  0  0  0  0  0  0  0
  145.3612  135.3671  159.3863 H   0  0  0  0  0  0  0  0  0  0  0  0
  148.7935  134.8754  160.8613 H   0  0  0  0  0  0  0  0  0  0  0  0
  151.6694  137.0357  158.3690 H   0  0  0  0  0  0  0  0  0  0  0  0
  151.1241  136.9357  156.6994 H   0  0  0  0  0  0  0  0  0  0  0  0
  153.5888  137.4384  156.8697 H   0  0  0  0  0  0  0  0  0  0  0  0
  152.7231  138.6970  156.0085 H   0  0  0  0  0  0  0  0  0  0  0  0
  152.2284  140.7480  157.1355 H   0  0  0  0  0  0  0  0  0  0  0  0
  153.0448  140.8423  160.0736 H   0  0  0  0  0  0  0  0  0  0  0  0
  154.0422  141.4979  158.7797 H   0  0  0  0  0  0  0  0  0  0  0  0
  152.9032  143.6985  160.5839 H   0  0  0  0  0  0  0  0  0  0  0  0
  153.9979  143.4984  159.2132 H   0  0  0  0  0  0  0  0  0  0  0  0
  153.0751  145.3704  158.2299 H   0  0  0  0  0  0  0  0  0  0  0  0
  150.9589  145.2911  160.5102 H   0  0  0  0  0  0  0  0  0  0  0  0
  151.3467  146.7163  159.4139 H   0  0  0  0  0  0  0  0  0  0  0  0
  150.7255  145.3377  157.4056 H   0  0  0  0  0  0  0  0  0  0  0  0
  150.3399  143.9131  158.5029 H   0  0  0  0  0  0  0  0  0  0  0  0
  150.3468  140.5273  158.7429 H   0  0  0  0  0  0  0  0  0  0  0  0
  151.1934  139.2701  159.6156 H   0  0  0  0  0  0  0  0  0  0  0  0
  146.2582  139.2560  156.8825 H   0  0  0  0  0  0  0  0  0  0  0  0
  1  2  1  0  0  0  0
  1 30  1  0  0  0  0
  1 31  1  0  0  0  0
  1 32  1  0  0  0  0
  2  6  1  0  0  0  0
  2  3  1  0  0  0  0
  2 33  1  0  0  0  0
  3  4  1  0  0  0  0
  4  5  1  0  0  0  0
  4 34  1  0  0  0  0
  4 35  1  0  0  0  0
  5  6  1  0  0  0  0
  5 36  1  0  0  0  0
  5 37  1  0  0  0  0
  6  7  1  0  0  0  0
  6  8  1  0  0  0  0
  7 38  1  0  0  0  0
  8  9  1  0  0  0  0
  8 39  1  0  0  0  0
  8 40  1  0  0  0  0
  9 29  1  0  0  0  0
  9 10  1  0  0  0  0
 10 11  2  0  0  0  0
 10 41  1  0  0  0  0
 11 12  1  0  0  0  0
 12 29  2  0  0  0  0
 12 13  1  0  0  0  0
 13 14  1  0  0  0  0
 13 26  2  0  0  0  0
 14 25  1  0  0  0  0
 14 15  1  0  0  0  0
 15 16  1  0  0  0  0
 15 42  1  0  0  0  0
 15 43  1  0  0  0  0
 16 17  1  0  0  0  0
 16 44  1  0  0  0  0
 16 45  1  0  0  0  0
 17 18  1  0  0  0  0
 18 19  1  0  0  0  0
 18 25  1  0  0  0  0
 18 46  1  0  0  0  0
 19 20  1  0  0  0  0
 19 47  1  0  0  0  0
 19 48  1  0  0  0  0
 20 21  1  0  0  0  0
 21 22  1  0  0  0  0
 21 49  1  0  0  0  0
 21 50  1  0  0  0  0
 22 24  1  0  0  0  0
 22 23  1  0  0  0  0
 22 51  1  0  0  0  0
 23 24  1  0  0  0  0
 23 52  1  0  0  0  0
 23 53  1  0  0  0  0
 24 54  1  0  0  0  0
 24 55  1  0  0  0  0
 25 56  1  0  0  0  0
 25 57  1  0  0  0  0
 26 27  1  0  0  0  0
 27 28  2  0  0  0  0
 27 58  1  0  0  0  0
 28 29  1  0  0  0  0
M  END
> <s_m_source_file>
AV-unprocessed.smi

> <i_m_source_file_index>
236

> <i_lp_mmshare_version>
43012

> <i_f3d_flags>
0

> <s_epik_input>
W0NIMl0xW0NIMl1PW0NAQEhdKFtDSDNdKVtDQEBdMShbT0hdKVtDSDJdbihbY0hdbjIpYyhjMjMpbltjSF1uYzNONFtDSDJdW0NIMl1PW0NASF0oW0NIMl00KVtDSDJdT1tDSDJdW0NIXTVbQ0gyXVtDSDJdNQ==

> <s_epik_cmdline>
J2VwaWtfcHl0aG9uJywgJy1waCcsICc3LjAnLCAnLXRuJywgJzgnLCAnLW1hJywgJzIwMCcsICctbWV0YWxfYmluZGluZycsICctaW1hZScsICc8aW5maWxlLm1hZT4nLCAnLW9tYWUnLCAnPG91dGZpbGUubWFlPic=

> <r_lp_tautomer_probability>
1

> <r_epik_Ionization_Penalty>
7.21838e-05

> <r_epik_Ionization_Penalty_Charging>
0

> <r_epik_Ionization_Penalty_Neutral>
7.21838e-05

> <r_epik_State_Penalty>
-0

> <r_epik_Charging_Adjusted_Penalty>
0

> <i_epik_Tot_Q>
0

> <i_epik_Tot_abs_Q>
0

> <r_epik_Metal_State_Penalty>
-0

> <b_epik_Metal_Only>
0

> <s_lp_Force_Field>
OPLS_2005

> <r_lp_Energy>
47.7421

> <b_lp_Chiralities_Consistent>
1

> <s_lp_Variant>
AV-unprocessed.smi:236-5

> <Gold.Version>
5.8.1

> <Gold.Id.Protein>
6NUR|6NUR_protein|mol2

> <Gold.PLP.Fitness>
47.9864

> <Gold.PLP.PLP>
-44.4948

> <Gold.PLP.part.hbond>
-3.4632

> <Gold.PLP.part.metal>
0.0000

> <Gold.PLP.part.buried>
-7.9169

> <Gold.PLP.part.nonpolar>
-32.8820

> <Gold.PLP.part.repulsive>
0.0472

> <Gold.PLP.ligand.clash>
0.0000

> <Gold.PLP.ligand.torsion>
2.1247

> <Gold.PLP.Chemscore.Hbond>
2.2071

> <Gold.PLP.Chemscore.CHOScore>
0.0000

> <Gold.PLP.Chemscore.Metal>
0.0000

> <Gold.Chemscore.Hbonds>
donor molecule, donor type, donor heavy atom, donor atom, acceptor molecule, acceptor atom, score
      P1  H  6896  6907       L1    11  0.80
      P1  H  6934  6947       L1     7  0.45
      P1  H  7997  8009       L1    17  0.95

> <Gold.PLP.Chemscore.Internal.Correction>
1.1197

> <Gold.Rescore>
     Score         DG    S(hbond)    S(metal)    S(lipo)     H(rot)  DE(clash)    DE(int)     intcor
     11.31     -13.77       0.57        0.00     117.16       2.87       0.09       2.37       ----

> <Gold.Chemscore.Fitness>
11.3142

> <Gold.Chemscore.DG>
-13.7675

> <Gold.Chemscore.ZeroCoef>
-5.4800

> <Gold.Chemscore.Hbond>
0.5735

> <Gold.Chemscore.Metal>
0.0000

> <Gold.Chemscore.Lipo>
117.1603

> <Gold.Chemscore.Internal_Hbond>
0.0000

> <Gold.Chemscore.DEClash>
0.0863

> <Gold.Chemscore.DEInternal>
2.3670

> <Gold.Chemscore.Rot>
2.8655

> <Gold.Chemscore.Internal.Correction>
   9.000000E+99

> <Gold.Chemscore.Hbonds>
donor molecule, donor type, donor heavy atom, donor atom, acceptor molecule, acceptor atom, score
      P1  H  6896  6907       L1    11  0.11
      P1  H  6934  6947       L1     7  0.19
      P1  H  7997  8009       L1    17  0.09

> <Gold.Chemscore.Hbond.Weighted>
-1.9155

> <Gold.Chemscore.Metal.Weighted>
-0.0000

> <Gold.Chemscore.Lipo.Weighted>
-13.7078

> <Gold.Chemscore.Internal_Hbond.Weighted>
0.0000

> <Gold.Chemscore.DEClash.Weighted>
0.0863

> <Gold.Chemscore.DEInternal.Weighted>
2.3670

> <Gold.Chemscore.Rot.Weighted>
7.3358

> <Gold.Chemscore.Internal.Correction.Weighted>
   9.000000E+99

> <Gold.Protein.RotatedTorsions>
[ 6907 6896 6895 6894 ] final  -36.22 input  -60.11 | X-H torsion
[ 7974 7965 7964 7962 ] final  160.31 input  175.53 | X-H torsion
[ 8008 7997 7996 7995 ] final  152.35 input   59.86 | X-H torsion
[ 10167 10162 10161 10158 ] final  -26.36 input  -65.29 | X-H torsion
[ 10718 10713 10712 10709 ] final  -23.43 input   66.30 | X-H torsion
[ 10763 10752 10751 10750 ] final  164.22 input  -60.55 | X-H torsion
[ 11005 11000 10999 10996 ] final   36.98 input  -57.11 | X-H torsion

> <Gold.Protein.ActiveResidues>
 VAL166  LYS551  ARG553  GLY616  TRP617  ASP618  TYR619  PRO620  LYS621  CYS622 
 ASP623  PHE694  ASN695  SER759  ASP760  ASP761  ALA762  ILE779  LEU786  VAL792 
 PHE793  MET794  SER795  GLU796  ALA797  LYS798  CYS799  TRP800  GLU811  SER814 

> <Gold.Protein.RotatedAtoms>
  151.0299  134.9531  159.8105 H   0  0  0  0  0  0  0  0  0  0  0  0  # atno 6907 bound_to 6896
  152.5343  134.2794  159.9011 H   0  0  0  0  0  0  0  0  0  0  0  0  # atno 6908 bound_to 6896
  151.2803  133.4170  159.2660 H   0  0  0  0  0  0  0  0  0  0  0  0  # atno 6909 bound_to 6896
  144.7743  139.7739  143.6284 H   0  0  0  0  0  0  0  0  0  0  0  0  # atno 7974 bound_to 7965
  156.2633  140.2023  156.6319 H   0  0  0  0  0  0  0  0  0  0  0  0  # atno 8008 bound_to 7997
  154.6676  140.0553  157.0155 H   0  0  0  0  0  0  0  0  0  0  0  0  # atno 8009 bound_to 7997
  155.1184  140.3222  155.4506 H   0  0  0  0  0  0  0  0  0  0  0  0  # atno 8010 bound_to 7997
  140.7283  143.4185  151.0990 H   0  0  0  0  0  0  0  0  0  0  0  0  # atno 10167 bound_to 10162
  156.4912  130.4567  149.6754 H   0  0  0  0  0  0  0  0  0  0  0  0  # atno 10718 bound_to 10713
  154.3057  135.2758  155.2590 H   0  0  0  0  0  0  0  0  0  0  0  0  # atno 10763 bound_to 10752
  154.5007  135.5809  153.6532 H   0  0  0  0  0  0  0  0  0  0  0  0  # atno 10764 bound_to 10752
  152.9894  135.6157  154.3230 H   0  0  0  0  0  0  0  0  0  0  0  0  # atno 10765 bound_to 10752
  140.2271  134.3571  155.7979 H   0  0  0  0  0  0  0  0  0  0  0  0  # atno 11005 bound_to 11000
  146.1913  139.5154  142.9803 LP  0  0  0  0  0  0  0  0  0  0  0  0  # atno 17320 bound_to 7965
  145.6230  141.0319  143.1904 LP  0  0  0  0  0  0  0  0  0  0  0  0  # atno 17321 bound_to 7965
  139.7827  143.8332  152.3140 LP  0  0  0  0  0  0  0  0  0  0  0  0  # atno 17342 bound_to 10162
  139.8288  144.7263  150.9477 LP  0  0  0  0  0  0  0  0  0  0  0  0  # atno 17343 bound_to 10162
  156.3425  130.7389  151.2337 LP  0  0  0  0  0  0  0  0  0  0  0  0  # atno 17370 bound_to 10713
  157.7473  131.0399  150.4575 LP  0  0  0  0  0  0  0  0  0  0  0  0  # atno 17371 bound_to 10713
  141.2220  133.7225  156.8671 LP  0  0  0  0  0  0  0  0  0  0  0  0  # atno 17394 bound_to 11000
  140.1789  134.9047  157.2924 LP  0  0  0  0  0  0  0  0  0  0  0  0  # atno 17395 bound_to 11000

$$$$
