AV-unprocessed.smi:1658|AV-procd|sdf|6649|dock3
  -GOLD-   22720 7353D 1   1.00000     0.00000
 Structure written by MMmdl.
 47 48  0  0  0  0  0  0  0  0  2 V2000
  151.5004  141.3637  158.1456 C   0  0  0  0  0  0  0  0  0  0  0  0
  151.3417  141.3688  156.7310 O   0  0  0  0  0  0  0  0  0  0  0  0
  150.7165  140.2911  156.1378 C   0  0  0  0  0  0  0  0  0  0  0  0
  149.9829  139.4057  156.9520 C   0  0  0  0  0  0  0  0  0  0  0  0
  149.3465  138.3028  156.3523 C   0  0  0  0  0  0  0  0  0  0  0  0
  149.4519  138.1215  154.9586 C   0  0  0  0  0  0  0  0  0  0  0  0
  148.8212  136.9858  154.3833 N   0  0  0  0  0  0  0  0  0  0  0  0
  148.0786  136.0453  154.9915 C   0  0  0  0  0  0  0  0  0  0  0  0
  147.8766  135.9706  156.2032 O   0  0  0  0  0  0  0  0  0  0  0  0
  147.5849  135.1704  154.1034 N   0  0  0  0  0  0  0  0  0  0  0  0
  146.7420  134.0158  154.4165 C   0  0  0  0  0  0  0  0  0  0  0  0
  146.9341  132.7988  153.4576 C   0  0  0  0  0  0  0  0  0  0  0  0
  148.3546  132.8029  152.8406 C   0  0  0  0  0  0  0  0  0  0  0  0
  146.7886  131.5045  154.3021 C   0  0  0  0  0  0  0  0  0  0  0  0
  145.8765  132.8628  152.3807 N   0  3  0  0  0  0  0  0  0  0  0  0
  145.8552  134.1207  151.5785 C   0  0  0  0  0  0  0  0  0  0  0  0
  144.6321  134.1553  150.6491 C   0  0  0  0  0  0  0  0  0  0  0  0
  144.6667  133.0299  149.7845 O   0  0  0  0  0  0  0  0  0  0  0  0
  144.5961  131.8123  150.5112 C   0  0  0  0  0  0  0  0  0  0  0  0
  145.8012  131.6909  151.4603 C   0  0  0  0  0  0  0  0  0  0  0  0
  150.2199  139.0608  154.2282 C   0  0  0  0  0  0  0  0  0  0  0  0
  150.8349  140.1193  154.7979 N   0  0  0  0  0  0  0  0  0  0  0  0
  152.0007  142.2810  158.4553 H   0  0  0  0  0  0  0  0  0  0  0  0
  152.1141  140.5242  158.4752 H   0  0  0  0  0  0  0  0  0  0  0  0
  150.5368  141.3252  158.6557 H   0  0  0  0  0  0  0  0  0  0  0  0
  149.9122  139.5680  158.0175 H   0  0  0  0  0  0  0  0  0  0  0  0
  148.7827  137.6081  156.9577 H   0  0  0  0  0  0  0  0  0  0  0  0
  148.9799  136.8583  153.3944 H   0  0  0  0  0  0  0  0  0  0  0  0
  147.8108  135.3122  153.1296 H   0  0  0  0  0  0  0  0  0  0  0  0
  146.9805  133.7133  155.4369 H   0  0  0  0  0  0  0  0  0  0  0  0
  145.7059  134.3498  154.4466 H   0  0  0  0  0  0  0  0  0  0  0  0
  149.1187  132.6243  153.5973 H   0  0  0  0  0  0  0  0  0  0  0  0
  148.5951  133.7571  152.3712 H   0  0  0  0  0  0  0  0  0  0  0  0
  148.4733  132.0227  152.0890 H   0  0  0  0  0  0  0  0  0  0  0  0
  147.4739  131.4871  155.1496 H   0  0  0  0  0  0  0  0  0  0  0  0
  147.0238  130.6084  153.7278 H   0  0  0  0  0  0  0  0  0  0  0  0
  145.7790  131.3978  154.7004 H   0  0  0  0  0  0  0  0  0  0  0  0
  145.8221  135.0045  152.2112 H   0  0  0  0  0  0  0  0  0  0  0  0
  146.7588  134.1961  150.9730 H   0  0  0  0  0  0  0  0  0  0  0  0
  143.7033  134.1686  151.2218 H   0  0  0  0  0  0  0  0  0  0  0  0
  144.6463  135.0623  150.0443 H   0  0  0  0  0  0  0  0  0  0  0  0
  143.6578  131.7608  151.0660 H   0  0  0  0  0  0  0  0  0  0  0  0
  144.5919  130.9817  149.8051 H   0  0  0  0  0  0  0  0  0  0  0  0
  146.7218  131.6100  150.8818 H   0  0  0  0  0  0  0  0  0  0  0  0
  145.6763  130.7572  152.0058 H   0  0  0  0  0  0  0  0  0  0  0  0
  150.3772  138.9670  153.1650 H   0  0  0  0  0  0  0  0  0  0  0  0
  145.0005  132.8489  152.8837 H   0  0  0  0  0  0  0  0  0  0  0  0
  1  2  1  0  0  0  0
  1 23  1  0  0  0  0
  1 24  1  0  0  0  0
  1 25  1  0  0  0  0
  2  3  1  0  0  0  0
  3 22  1  0  0  0  0
  3  4  2  0  0  0  0
  4  5  1  0  0  0  0
  4 26  1  0  0  0  0
  5  6  2  0  0  0  0
  5 27  1  0  0  0  0
  6  7  1  0  0  0  0
  6 21  1  0  0  0  0
  7  8  1  0  0  0  0
  7 28  1  0  0  0  0
  8  9  2  0  0  0  0
  8 10  1  0  0  0  0
 10 11  1  0  0  0  0
 10 29  1  0  0  0  0
 11 12  1  0  0  0  0
 11 30  1  0  0  0  0
 11 31  1  0  0  0  0
 12 13  1  0  0  0  0
 12 14  1  0  0  0  0
 12 15  1  0  0  0  0
 13 32  1  0  0  0  0
 13 33  1  0  0  0  0
 13 34  1  0  0  0  0
 14 35  1  0  0  0  0
 14 36  1  0  0  0  0
 14 37  1  0  0  0  0
 15 20  1  0  0  0  0
 15 16  1  0  0  0  0
 15 47  1  0  0  0  0
 16 17  1  0  0  0  0
 16 38  1  0  0  0  0
 16 39  1  0  0  0  0
 17 18  1  0  0  0  0
 17 40  1  0  0  0  0
 17 41  1  0  0  0  0
 18 19  1  0  0  0  0
 19 20  1  0  0  0  0
 19 42  1  0  0  0  0
 19 43  1  0  0  0  0
 20 44  1  0  0  0  0
 20 45  1  0  0  0  0
 21 22  2  0  0  0  0
 21 46  1  0  0  0  0
M  CHG  1  15   1
M  END
> <s_m_source_file>
AV-unprocessed.smi

> <i_m_source_file_index>
1658

> <i_lp_mmshare_version>
43012

> <i_f3d_flags>
0

> <s_epik_input>
W0NIM11PYzFbY0hdW2NIXWMoW2NIXW4xKVtOSF1DKD1PKVtOSF1bQ0gyXUMoW0NIM10pKFtDSDNdKU4yW0NIMl1bQ0gyXU9bQ0gyXVtDSDJdMg==

> <s_epik_cmdline>
J2VwaWtfcHl0aG9uJywgJy1waCcsICc3LjAnLCAnLXRuJywgJzgnLCAnLW1hJywgJzIwMCcsICctbWV0YWxfYmluZGluZycsICctaW1hZScsICc8aW5maWxlLm1hZT4nLCAnLW9tYWUnLCAnPG91dGZpbGUubWFlPic=

> <r_lp_tautomer_probability>
1

> <r_epik_Ionization_Penalty>
0.602608

> <r_epik_Ionization_Penalty_Charging>
0.602531

> <r_epik_Ionization_Penalty_Neutral>
7.74737e-05

> <r_epik_State_Penalty>
0.617039

> <r_epik_Charging_Adjusted_Penalty>
1.21957

> <i_epik_Tot_Q>
1

> <i_epik_Tot_abs_Q>
1

> <r_epik_Metal_State_Penalty>
0.617043

> <b_epik_Metal_Only>
0

> <s_lp_Force_Field>
OPLS_2005

> <r_lp_Energy>
28.7753

> <b_lp_Chiralities_Consistent>
1

> <s_lp_Variant>
AV-unprocessed.smi:1658-2

> <Gold.Version>
5.8.1

> <Gold.Id.Protein>
6NUR|6NUR_protein|mol2

> <Gold.PLP.Fitness>
38.8235

> <Gold.PLP.PLP>
-29.0660

> <Gold.PLP.part.hbond>
-3.0000

> <Gold.PLP.part.metal>
0.0000

> <Gold.PLP.part.buried>
-5.7303

> <Gold.PLP.part.nonpolar>
-21.1430

> <Gold.PLP.part.repulsive>
0.4538

> <Gold.PLP.ligand.clash>
0.0086

> <Gold.PLP.ligand.torsion>
1.1324

> <Gold.PLP.Chemscore.Hbond>
2.9600

> <Gold.PLP.Chemscore.CHOScore>
1.0000

> <Gold.PLP.Chemscore.Metal>
0.0000

> <Gold.Chemscore.Hbonds>
donor molecule, donor type, donor heavy atom, donor atom, acceptor molecule, acceptor atom, score
      L1  H     7    28       P1  7948  1.00
      L1  H    10    29       P1  7948  0.93
      P1  H  7989  7998       L1    22  1.00
      L1  C    21    46       P1  7957  1.00

> <Gold.PLP.Chemscore.Internal.Correction>
0.1509

> <Gold.Rescore>
     Score         DG    S(hbond)    S(metal)    S(lipo)     H(rot)  DE(clash)    DE(int)     intcor
     14.86     -17.42       2.51        0.00      68.93       1.76       0.00       2.57       ----

> <Gold.Chemscore.Fitness>
14.8570

> <Gold.Chemscore.DG>
-17.4228

> <Gold.Chemscore.ZeroCoef>
-5.4800

> <Gold.Chemscore.Hbond>
2.5084

> <Gold.Chemscore.Metal>
0.0000

> <Gold.Chemscore.Lipo>
68.9287

> <Gold.Chemscore.Internal_Hbond>
0.0000

> <Gold.Chemscore.DEClash>
0.0000

> <Gold.Chemscore.DEInternal>
2.5658

> <Gold.Chemscore.Rot>
1.7577

> <Gold.Chemscore.Internal.Correction>
   9.000000E+99

> <Gold.Chemscore.Hbonds>
donor molecule, donor type, donor heavy atom, donor atom, acceptor molecule, acceptor atom, score
      L1  H     7    28       P1  7948  1.00
      L1  H    10    29       P1  7948  0.91
      P1  H  7989  7998       L1    22  0.45

> <Gold.Chemscore.Hbond.Weighted>
-8.3779

> <Gold.Chemscore.Metal.Weighted>
-0.0000

> <Gold.Chemscore.Lipo.Weighted>
-8.0647

> <Gold.Chemscore.Internal_Hbond.Weighted>
0.0000

> <Gold.Chemscore.DEClash.Weighted>
0.0000

> <Gold.Chemscore.DEInternal.Weighted>
2.5658

> <Gold.Chemscore.Rot.Weighted>
4.4997

> <Gold.Chemscore.Internal.Correction.Weighted>
   9.000000E+99

> <Gold.Protein.RotatedTorsions>
[ 6907 6896 6895 6894 ] final  -65.75 input  -60.11 | X-H torsion
[ 7974 7965 7964 7962 ] final  173.35 input  175.53 | X-H torsion
[ 8008 7997 7996 7995 ] final  -66.25 input   59.86 | X-H torsion
[ 10167 10162 10161 10158 ] final   64.67 input  -65.29 | X-H torsion
[ 10718 10713 10712 10709 ] final  -79.35 input   66.30 | X-H torsion
[ 10763 10752 10751 10750 ] final   95.17 input  -60.55 | X-H torsion
[ 11005 11000 10999 10996 ] final -143.61 input  -57.11 | X-H torsion

> <Gold.Protein.ActiveResidues>
 VAL166  LYS551  ARG553  GLY616  TRP617  ASP618  TYR619  PRO620  LYS621  CYS622 
 ASP623  PHE694  ASN695  SER759  ASP760  ASP761  ALA762  ILE779  LEU786  VAL792 
 PHE793  MET794  SER795  GLU796  ALA797  LYS798  CYS799  TRP800  GLU811  SER814 

> <Gold.Protein.RotatedAtoms>
  150.7505  134.6116  159.6088 H   0  0  0  0  0  0  0  0  0  0  0  0  # atno 6907 bound_to 6896
  152.3449  134.7082  160.0262 H   0  0  0  0  0  0  0  0  0  0  0  0  # atno 6908 bound_to 6896
  151.7522  133.3292  159.3431 H   0  0  0  0  0  0  0  0  0  0  0  0  # atno 6909 bound_to 6896
  144.7246  139.9634  143.6435 H   0  0  0  0  0  0  0  0  0  0  0  0  # atno 7974 bound_to 7965
  154.4722  140.0916  156.7174 H   0  0  0  0  0  0  0  0  0  0  0  0  # atno 8008 bound_to 7997
  155.4692  140.3464  155.4305 H   0  0  0  0  0  0  0  0  0  0  0  0  # atno 8009 bound_to 7997
  156.1058  140.1434  156.9394 H   0  0  0  0  0  0  0  0  0  0  0  0  # atno 8010 bound_to 7997
  140.1197  144.4743  150.6928 H   0  0  0  0  0  0  0  0  0  0  0  0  # atno 10167 bound_to 10162
  156.0095  130.4543  150.3634 H   0  0  0  0  0  0  0  0  0  0  0  0  # atno 10718 bound_to 10713
  153.2501  135.4263  155.0789 H   0  0  0  0  0  0  0  0  0  0  0  0  # atno 10763 bound_to 10752
  154.8378  135.3424  154.6525 H   0  0  0  0  0  0  0  0  0  0  0  0  # atno 10764 bound_to 10752
  153.6946  135.7032  153.5137 H   0  0  0  0  0  0  0  0  0  0  0  0  # atno 10765 bound_to 10752
  140.8108  134.2747  157.4941 H   0  0  0  0  0  0  0  0  0  0  0  0  # atno 11005 bound_to 11000
  146.0619  139.3612  143.0576 LP  0  0  0  0  0  0  0  0  0  0  0  0  # atno 17320 bound_to 7965
  145.8081  140.9739  143.0963 LP  0  0  0  0  0  0  0  0  0  0  0  0  # atno 17321 bound_to 7965
  140.6879  143.2360  151.5210 LP  0  0  0  0  0  0  0  0  0  0  0  0  # atno 17342 bound_to 10162
  139.5575  144.2238  152.1637 LP  0  0  0  0  0  0  0  0  0  0  0  0  # atno 17343 bound_to 10162
  157.1722  131.0371  151.2790 LP  0  0  0  0  0  0  0  0  0  0  0  0  # atno 17370 bound_to 10713
  157.4219  130.7442  149.6920 LP  0  0  0  0  0  0  0  0  0  0  0  0  # atno 17371 bound_to 10713
  139.8714  134.9482  156.3989 LP  0  0  0  0  0  0  0  0  0  0  0  0  # atno 17394 bound_to 11000
  140.9200  133.7652  155.9894 LP  0  0  0  0  0  0  0  0  0  0  0  0  # atno 17395 bound_to 11000

$$$$
