#       Name:                AV-unprocessed.smi:21
#       Creating user name   scv26
#       Creation time:       Thu Mar 26 15:35:56 2020


#       File generated by GOLD software.
#

@<TRIPOS>MOLECULE
AV-unprocessed.smi:21
    71    74     1
SMALL
NO_CHARGES


@<TRIPOS>ATOM
      1 ****        -2.7144  -5.2684   2.8785 C.3            1 S1                 0.0000
      2 ****        -2.7112  -4.0437   2.1624 O.3            1 S1                 0.0000
      3 ****        -2.2871  -4.1715   0.8114 C.3            1 S1                 0.0000
      4 ****        -1.9271  -2.7921   0.2772 C.3            1 S1                 0.0000
      5 ****        -3.2786  -2.1724  -0.1044 C.3            1 S1                 0.0000
      6 ****        -3.1798  -1.0446  -1.1624 C.3            1 S1                 0.0000
      7 ****        -2.4196   0.1120  -0.6832 N.pl3          1 S1                 0.0000
      8 ****        -3.0616   1.0133   0.2655 C.3            1 S1                 0.0000
      9 ****        -1.0642   0.1276  -0.8187 C.ar           1 S1                 0.0000
     10 ****        -0.5286  -0.4225  -1.9408 N.ar           1 S1                 0.0000
     11 ****         0.7934  -0.4489  -2.1262 C.ar           1 S1                 0.0000
     12 ****         1.7550   0.0098  -1.3259 N.ar           1 S1                 0.0000
     13 ****         1.2332   0.5657  -0.1964 C.ar           1 S1                 0.0000
     14 ****        -0.1492   0.6656   0.1378 C.ar           1 S1                 0.0000
     15 ****        -0.2790   1.2717   1.3836 N.2            1 S1                 0.0000
     16 ****         0.9454   1.5238   1.7554 C.2            1 S1                 0.0000
     17 ****         1.9165   1.1479   0.8570 N.pl3          1 S1                 0.0000
     18 ****         3.3520   1.2968   1.0198 C.3            1 S1                 0.0000
     19 ****         4.0305   2.2314  -0.0163 C.3            1 S1                 0.0000
     20 ****         5.5663   2.1210   0.1275 C.3            1 S1                 0.0000
     21 ****         6.0162   2.6571   1.3552 O.3            1 S1                 0.0000
     22 ****         3.5311   3.7057   0.0223 C.3            1 S1                 0.0000
     23 ****         4.2965   4.6589  -0.8824 C.3            1 S1                 0.0000
     24 ****         3.3439   5.8407  -0.9844 C.3            1 S1                 0.0000
     25 ****         2.0531   5.2526  -1.0372 O.3            1 S1                 0.0000
     26 ****         2.0973   3.9419  -0.4806 C.3            1 S1                 0.0000
     27 ****        -4.1601  -3.3236  -0.4585 N.4            1 S1                 1.0000
     28 ****        -4.7372  -3.3563  -1.8233 C.3            1 S1                 0.0000
     29 ****        -3.4528  -4.5749  -0.0969 C.3            1 S1                 0.0000
     30 ****        -1.4387  -4.8538   0.7338 H              1 S1                 0.0000
     31 ****        -3.7171  -1.7525   0.8019 H              1 S1                 0.0000
     32 ****        -3.0536  -5.0916   3.8990 H              1 S1                 0.0000
     33 ****        -1.7121  -5.6955   2.9294 H              1 S1                 0.0000
     34 ****        -3.3831  -6.0014   2.4272 H              1 S1                 0.0000
     35 ****        -1.3710  -2.1913   0.9981 H              1 S1                 0.0000
     36 ****        -1.3045  -2.9039  -0.6115 H              1 S1                 0.0000
     37 ****        -2.7721  -1.4281  -2.0974 H              1 S1                 0.0000
     38 ****        -4.1796  -0.6847  -1.4053 H              1 S1                 0.0000
     39 ****        -2.6516   2.0207   0.1861 H              1 S1                 0.0000
     40 ****        -2.9289   0.6574   1.2874 H              1 S1                 0.0000
     41 ****        -4.1323   1.0790   0.0696 H              1 S1                 0.0000
     42 ****         1.1280  -0.9027  -3.0474 H              1 S1                 0.0000
     43 ****         1.1731   2.0014   2.6975 H              1 S1                 0.0000
     44 ****         3.5474   1.6547   2.0314 H              1 S1                 0.0000
     45 ****         3.7867   0.2983   0.9601 H              1 S1                 0.0000
     46 ****         3.8017   1.8414  -1.0084 H              1 S1                 0.0000
     47 ****         5.8794   1.0783   0.0689 H              1 S1                 0.0000
     48 ****         6.0763   2.6337  -0.6878 H              1 S1                 0.0000
     49 ****         5.6252   2.1643   2.0602 H              1 S1                 0.0000
     50 ****         3.6043   4.0829   1.0437 H              1 S1                 0.0000
     51 ****         5.2693   4.9455  -0.4819 H              1 S1                 0.0000
     52 ****         4.4468   4.2154  -1.8679 H              1 S1                 0.0000
     53 ****         3.4123   6.4650  -0.0925 H              1 S1                 0.0000
     54 ****         3.5372   6.4661  -1.8562 H              1 S1                 0.0000
     55 ****         1.8324   3.2345  -1.2672 H              1 S1                 0.0000
     56 ****         1.3607   3.8524   0.3167 H              1 S1                 0.0000
     57 ****        -3.9576  -3.3866  -2.5855 H              1 S1                 0.0000
     58 ****        -5.3748  -2.4911  -2.0044 H              1 S1                 0.0000
     59 ****        -5.3586  -4.2443  -1.9443 H              1 S1                 0.0000
     60 ****        -3.0456  -5.0344  -0.9992 H              1 S1                 0.0000
     61 ****        -4.1308  -5.2976   0.3563 H              1 S1                 0.0000
     62 ****        -4.9457  -3.2557   0.1729 H              1 S1                 0.0000
     63 ****        -2.0954  -3.4078   2.6276 LP             1 S1                 0.0000
     64 ****        -3.6398  -3.6726   2.1679 LP             1 S1                 0.0000
     65 ****        -1.1325  -0.8123  -2.6361 LP             1 S1                 0.0000
     66 ****         2.7327  -0.0466  -1.5279 LP             1 S1                 0.0000
     67 ****        -1.1228   1.4698   1.8825 LP             1 S1                 0.0000
     68 ****         5.7442   3.6170   1.4237 LP             1 S1                 0.0000
     69 ****         7.0124   2.5884   1.4080 LP             1 S1                 0.0000
     70 ****         1.7512   5.1991  -1.9890 LP             1 S1                 0.0000
     71 ****         1.4109   5.8137  -0.5149 LP             1 S1                 0.0000
@<TRIPOS>BOND
    1    1    2 1     
    2    1   32 1     
    3    1   33 1     
    4    1   34 1     
    5    2    3 1     
    6    3   30 1     
    7    3   29 1     
    8    3    4 1     
    9    4    5 1     
   10    4   35 1     
   11    4   36 1     
   12    5   31 1     
   13    5    6 1     
   14    5   27 1     
   15    6    7 1     
   16    6   37 1     
   17    6   38 1     
   18    7    8 1     
   19    7    9 1     
   20    8   39 1     
   21    8   40 1     
   22    8   41 1     
   23    9   14 ar    
   24    9   10 ar    
   25   10   11 ar    
   26   11   12 ar    
   27   11   42 1     
   28   12   13 ar    
   29   13   17 1     
   30   13   14 ar    
   31   14   15 1     
   32   15   16 2     
   33   16   17 1     
   34   16   43 1     
   35   17   18 1     
   36   18   19 1     
   37   18   44 1     
   38   18   45 1     
   39   19   20 1     
   40   19   22 1     
   41   19   46 1     
   42   20   21 1     
   43   20   47 1     
   44   20   48 1     
   45   21   49 1     
   46   22   26 1     
   47   22   23 1     
   48   22   50 1     
   49   23   24 1     
   50   23   51 1     
   51   23   52 1     
   52   24   25 1     
   53   24   53 1     
   54   24   54 1     
   55   25   26 1     
   56   26   55 1     
   57   26   56 1     
   58   27   28 1     
   59   27   29 1     
   60   27   62 1     
   61   28   57 1     
   62   28   58 1     
   63   28   59 1     
   64   29   60 1     
   65   29   61 1     
   66    2   63 1     
   67    2   64 1     
   68   10   65 1     
   69   12   66 1     
   70   15   67 1     
   71   21   68 1     
   72   21   69 1     
   73   25   70 1     
   74   25   71 1     
@<TRIPOS>SUBSTRUCTURE
      1 S1             1
@<TRIPOS>SET
LONE_PAIRS      STATIC     ATOMS    <user>   **** ""
9 63 64 65 66 67 68 69 70 71
DONOR_HYDROGENS      STATIC     ATOMS    <user>   **** ""
2 49 62
ATOM$BLUE        STATIC     ATOMS    COLORGROUP SYSTEM
9 63 64 65 66 67 68 69 70 71
ATOM$RED        STATIC     ATOMS    COLORGROUP SYSTEM
2 49 62
