AV-unprocessed.smi:1106|AV-procd|sdf|4779|dock6
  -GOLD-   22720 3323D 1   1.00000     0.00000
 Structure written by MMmdl.
 48 49  0  0  0  0  0  0  0  0  2 V2000
  148.4244  135.2278  154.8082 C   0  0  0  0  0  0  0  0  0  0  0  0
  149.1722  135.6414  156.0847 C   0  0  0  0  0  0  0  0  0  0  0  0
  150.0465  136.7680  155.8843 N   0  0  0  0  0  0  0  0  0  0  0  0
  151.3965  136.6988  156.1687 C   0  0  0  0  0  0  0  0  0  0  0  0
  152.2365  137.7417  155.9935 C   0  0  0  0  0  0  0  0  0  0  0  0
  153.6274  137.6434  156.2907 C   0  0  0  0  0  0  0  0  0  0  0  0
  154.7544  137.5412  156.5327 N   0  0  0  0  0  0  0  0  0  0  0  0
  151.7532  139.0244  155.4879 C   0  0  0  0  0  0  0  0  0  0  0  0
  152.4805  140.0001  155.2925 O   0  0  0  0  0  0  0  0  0  0  0  0
  150.3610  139.0671  155.2236 N   0  0  0  0  0  0  0  0  0  0  0  0
  149.8155  140.3212  154.7239 C   0  0  0  0  0  0  0  0  0  0  0  0
  149.5987  141.3949  155.8138 C   0  0  2  0  0  0  0  0  0  0  0  0
  148.7764  142.4008  155.2583 O   0  0  0  0  0  0  0  0  0  0  0  0
  150.9067  142.0493  156.3075 C   0  0  0  0  0  0  0  0  0  0  0  0
  150.6602  143.1906  157.2251 N   0  3  2  0  0  0  0  0  0  0  0  0
  151.9117  143.9062  157.5827 C   0  0  0  0  0  0  0  0  0  0  0  0
  151.6154  145.1655  158.4169 C   0  0  0  0  0  0  0  0  0  0  0  0
  150.7938  144.8490  159.6798 C   0  0  2  0  0  0  0  0  0  0  0  0
  151.6247  144.1544  160.7731 C   0  0  0  0  0  0  0  0  0  0  0  0
  149.5397  144.0479  159.2860 C   0  0  0  0  0  0  0  0  0  0  0  0
  149.8810  142.8122  158.4342 C   0  0  0  0  0  0  0  0  0  0  0  0
  149.4812  137.9707  155.3995 C   0  0  0  0  0  0  0  0  0  0  0  0
  148.2789  138.0512  155.1333 O   0  0  0  0  0  0  0  0  0  0  0  0
  147.7462  134.3990  155.0110 H   0  0  0  0  0  0  0  0  0  0  0  0
  149.1113  134.9070  154.0247 H   0  0  0  0  0  0  0  0  0  0  0  0
  147.8304  136.0536  154.4154 H   0  0  0  0  0  0  0  0  0  0  0  0
  148.4682  135.9427  156.8617 H   0  0  0  0  0  0  0  0  0  0  0  0
  149.7703  134.8296  156.5029 H   0  0  0  0  0  0  0  0  0  0  0  0
  151.7998  135.7702  156.5470 H   0  0  0  0  0  0  0  0  0  0  0  0
  150.4552  140.6885  153.9202 H   0  0  0  0  0  0  0  0  0  0  0  0
  148.8764  140.0692  154.2268 H   0  0  0  0  0  0  0  0  0  0  0  0
  149.0541  140.9512  156.6460 H   0  0  0  0  0  0  0  0  0  0  0  0
  149.1878  143.2400  155.4031 H   0  0  0  0  0  0  0  0  0  0  0  0
  151.5395  141.3243  156.8198 H   0  0  0  0  0  0  0  0  0  0  0  0
  151.4731  142.3840  155.4368 H   0  0  0  0  0  0  0  0  0  0  0  0
  152.5775  143.2333  158.1249 H   0  0  0  0  0  0  0  0  0  0  0  0
  152.4368  144.2014  156.6734 H   0  0  0  0  0  0  0  0  0  0  0  0
  152.5470  145.6639  158.6867 H   0  0  0  0  0  0  0  0  0  0  0  0
  151.0620  145.8746  157.7998 H   0  0  0  0  0  0  0  0  0  0  0  0
  150.4599  145.7976  160.1030 H   0  0  0  0  0  0  0  0  0  0  0  0
  152.0101  143.1888  160.4471 H   0  0  0  0  0  0  0  0  0  0  0  0
  151.0262  143.9844  161.6684 H   0  0  0  0  0  0  0  0  0  0  0  0
  152.4779  144.7677  161.0638 H   0  0  0  0  0  0  0  0  0  0  0  0
  148.9883  143.7474  160.1777 H   0  0  0  0  0  0  0  0  0  0  0  0
  148.8671  144.6928  158.7188 H   0  0  0  0  0  0  0  0  0  0  0  0
  148.9532  142.3188  158.1479 H   0  0  0  0  0  0  0  0  0  0  0  0
  150.4464  142.0889  159.0233 H   0  0  0  0  0  0  0  0  0  0  0  0
  150.0998  143.8507  156.7046 H   0  0  0  0  0  0  0  0  0  0  0  0
  1  2  1  0  0  0  0
  1 24  1  0  0  0  0
  1 25  1  0  0  0  0
  1 26  1  0  0  0  0
  2  3  1  0  0  0  0
  2 27  1  0  0  0  0
  2 28  1  0  0  0  0
  3 22  1  0  0  0  0
  3  4  1  0  0  0  0
  4  5  2  0  0  0  0
  4 29  1  0  0  0  0
  5  6  1  0  0  0  0
  5  8  1  0  0  0  0
  6  7  3  0  0  0  0
  8  9  2  0  0  0  0
  8 10  1  0  0  0  0
 10 11  1  0  0  0  0
 10 22  1  0  0  0  0
 11 12  1  0  0  0  0
 11 30  1  0  0  0  0
 11 31  1  0  0  0  0
 12 13  1  0  0  0  0
 12 14  1  0  0  0  0
 12 32  1  0  0  0  0
 13 33  1  0  0  0  0
 14 15  1  0  0  0  0
 14 34  1  0  0  0  0
 14 35  1  0  0  0  0
 15 21  1  0  0  0  0
 15 16  1  0  0  0  0
 15 48  1  0  0  0  0
 16 17  1  0  0  0  0
 16 36  1  0  0  0  0
 16 37  1  0  0  0  0
 17 18  1  0  0  0  0
 17 38  1  0  0  0  0
 17 39  1  0  0  0  0
 18 19  1  0  0  0  0
 18 20  1  0  0  0  0
 18 40  1  0  0  0  0
 19 41  1  0  0  0  0
 19 42  1  0  0  0  0
 19 43  1  0  0  0  0
 20 21  1  0  0  0  0
 20 44  1  0  0  0  0
 20 45  1  0  0  0  0
 21 46  1  0  0  0  0
 21 47  1  0  0  0  0
 22 23  2  0  0  0  0
M  CHG  1  15   1
M  END
> <s_m_source_file>
AV-unprocessed.smi

> <i_m_source_file_index>
1106

> <i_lp_mmshare_version>
43012

> <i_f3d_flags>
0

> <s_epik_input>
W0NIM11bQ0gyXW4xW2NIXWMoQyNOKWMoPU8pbihjMT1PKVtDSDJdW0NASF0oW09IXSlbQ0gyXU4yW0NIMl1bQ0gyXVtDSF0oW0NIM10pW0NIMl1bQ0gyXTI=

> <s_epik_cmdline>
J2VwaWtfcHl0aG9uJywgJy1waCcsICc3LjAnLCAnLXRuJywgJzgnLCAnLW1hJywgJzIwMCcsICctbWV0YWxfYmluZGluZycsICctaW1hZScsICc8aW5maWxlLm1hZT4nLCAnLW9tYWUnLCAnPG91dGZpbGUubWFlPic=

> <r_epik_Ionization_Penalty>
0.00136816

> <r_epik_Ionization_Penalty_Charging>
0.00136813

> <r_epik_Ionization_Penalty_Neutral>
3.19882e-08

> <r_epik_State_Penalty>
0.000910892

> <r_epik_Charging_Adjusted_Penalty>
0.00227902

> <i_epik_Tot_Q>
1

> <i_epik_Tot_abs_Q>
1

> <r_epik_Metal_State_Penalty>
-0

> <b_epik_Metal_Only>
0

> <s_lp_Force_Field>
OPLS_2005

> <r_lp_Energy>
29.5745

> <b_lp_Chiralities_Consistent>
1

> <s_lp_Variant>
AV-unprocessed.smi:1106-3

> <Gold.Version>
5.8.1

> <Gold.Id.Protein>
6NUR|6NUR_protein|mol2

> <Gold.PLP.Fitness>
49.6153

> <Gold.PLP.PLP>
-36.9043

> <Gold.PLP.part.hbond>
-4.6509

> <Gold.PLP.part.metal>
0.0000

> <Gold.PLP.part.buried>
-2.4966

> <Gold.PLP.part.nonpolar>
-29.9055

> <Gold.PLP.part.repulsive>
0.0844

> <Gold.PLP.ligand.clash>
0.0000

> <Gold.PLP.ligand.torsion>
0.3909

> <Gold.PLP.Chemscore.Hbond>
4.4808

> <Gold.PLP.Chemscore.CHOScore>
0.0000

> <Gold.PLP.Chemscore.Metal>
0.0000

> <Gold.Chemscore.Hbonds>
donor molecule, donor type, donor heavy atom, donor atom, acceptor molecule, acceptor atom, score
      L1  H    13    33       P1  8028  0.84
      L1  H    15    48       P1  8028  2.00
      P1  H  7989  7998       L1     9  0.43
      P1  H  7997  8009       L1     9  0.94

> <Gold.PLP.Chemscore.Internal.Correction>
0.0506

> <Gold.Rescore>
     Score         DG    S(hbond)    S(metal)    S(lipo)     H(rot)  DE(clash)    DE(int)     intcor
     17.00     -20.19       3.08        0.00      92.05       2.48       0.13       3.05       ----

> <Gold.Chemscore.Fitness>
17.0025

> <Gold.Chemscore.DG>
-20.1869

> <Gold.Chemscore.ZeroCoef>
-5.4800

> <Gold.Chemscore.Hbond>
3.0826

> <Gold.Chemscore.Metal>
0.0000

> <Gold.Chemscore.Lipo>
92.0461

> <Gold.Chemscore.Internal_Hbond>
0.0000

> <Gold.Chemscore.DEClash>
0.1327

> <Gold.Chemscore.DEInternal>
3.0517

> <Gold.Chemscore.Rot>
2.4838

> <Gold.Chemscore.Internal.Correction>
   9.000000E+99

> <Gold.Chemscore.Hbonds>
donor molecule, donor type, donor heavy atom, donor atom, acceptor molecule, acceptor atom, score
      L1  H    13    33       P1  8028  0.77
      L1  H    15    48       P1  8028  1.00
      P1  H  7989  7998       L1     9  0.20
      P1  H  7997  8009       L1     9  0.90

> <Gold.Chemscore.Hbond.Weighted>
-10.2960

> <Gold.Chemscore.Metal.Weighted>
-0.0000

> <Gold.Chemscore.Lipo.Weighted>
-10.7694

> <Gold.Chemscore.Internal_Hbond.Weighted>
0.0000

> <Gold.Chemscore.DEClash.Weighted>
0.1327

> <Gold.Chemscore.DEInternal.Weighted>
3.0517

> <Gold.Chemscore.Rot.Weighted>
6.3585

> <Gold.Chemscore.Internal.Correction.Weighted>
   9.000000E+99

> <Gold.Protein.RotatedTorsions>
[ 6907 6896 6895 6894 ] final  -75.35 input  -60.11 | X-H torsion
[ 7974 7965 7964 7962 ] final   82.04 input  175.53 | X-H torsion
[ 8008 7997 7996 7995 ] final -139.99 input   59.86 | X-H torsion
[ 10167 10162 10161 10158 ] final   17.45 input  -65.29 | X-H torsion
[ 10718 10713 10712 10709 ] final -132.76 input   66.30 | X-H torsion
[ 10763 10752 10751 10750 ] final   66.13 input  -60.55 | X-H torsion
[ 11005 11000 10999 10996 ] final -163.51 input  -57.11 | X-H torsion

> <Gold.Protein.ActiveResidues>
 VAL166  LYS551  ARG553  GLY616  TRP617  ASP618  TYR619  PRO620  LYS621  CYS622 
 ASP623  PHE694  ASN695  SER759  ASP760  ASP761  ALA762  ILE779  LEU786  VAL792 
 PHE793  MET794  SER795  GLU796  ALA797  LYS798  CYS799  TRP800  GLU811  SER814 

> <Gold.Protein.RotatedAtoms>
  150.7062  134.4733  159.5435 H   0  0  0  0  0  0  0  0  0  0  0  0  # atno 6907 bound_to 6896
  152.2385  134.8249  160.0473 H   0  0  0  0  0  0  0  0  0  0  0  0  # atno 6908 bound_to 6896
  151.9039  133.3509  159.3877 H   0  0  0  0  0  0  0  0  0  0  0  0  # atno 6909 bound_to 6896
  145.6303  139.2403  143.2088 H   0  0  0  0  0  0  0  0  0  0  0  0  # atno 7974 bound_to 7965
  155.4539  140.0541  157.2998 H   0  0  0  0  0  0  0  0  0  0  0  0  # atno 8008 bound_to 7997
  154.4765  140.2063  155.9820 H   0  0  0  0  0  0  0  0  0  0  0  0  # atno 8009 bound_to 7997
  156.1140  140.3199  155.8118 H   0  0  0  0  0  0  0  0  0  0  0  0  # atno 8010 bound_to 7997
  140.5725  143.9134  150.6724 H   0  0  0  0  0  0  0  0  0  0  0  0  # atno 10167 bound_to 10162
  156.2379  130.7078  151.0926 H   0  0  0  0  0  0  0  0  0  0  0  0  # atno 10718 bound_to 10713
  153.0126  135.5331  154.6776 H   0  0  0  0  0  0  0  0  0  0  0  0  # atno 10763 bound_to 10752
  154.5944  135.2862  155.0603 H   0  0  0  0  0  0  0  0  0  0  0  0  # atno 10764 bound_to 10752
  154.1684  135.6536  153.5055 H   0  0  0  0  0  0  0  0  0  0  0  0  # atno 10765 bound_to 10752
  140.5973  134.4983  157.5201 H   0  0  0  0  0  0  0  0  0  0  0  0  # atno 11005 bound_to 11000
  146.1362  140.7119  142.9389 LP  0  0  0  0  0  0  0  0  0  0  0  0  # atno 17320 bound_to 7965
  144.7196  140.4329  143.7018 LP  0  0  0  0  0  0  0  0  0  0  0  0  # atno 17321 bound_to 7965
  140.2613  143.3522  152.1320 LP  0  0  0  0  0  0  0  0  0  0  0  0  # atno 17342 bound_to 10162
  139.5125  144.6918  151.5740 LP  0  0  0  0  0  0  0  0  0  0  0  0  # atno 17343 bound_to 10162
  157.7162  131.0708  150.6316 LP  0  0  0  0  0  0  0  0  0  0  0  0  # atno 17370 bound_to 10713
  156.6387  130.4452  149.5760 LP  0  0  0  0  0  0  0  0  0  0  0  0  # atno 17371 bound_to 10713
  139.9248  134.8078  156.1103 LP  0  0  0  0  0  0  0  0  0  0  0  0  # atno 17394 bound_to 11000
  141.0895  133.6720  156.2510 LP  0  0  0  0  0  0  0  0  0  0  0  0  # atno 17395 bound_to 11000

$$$$
