#       Name:                AV-unprocessed.smi:2093
#       Creating user name   scv26
#       Creation time:       Fri Mar 27 11:27:30 2020


#       File generated by GOLD software.
#

@<TRIPOS>MOLECULE
AV-unprocessed.smi:2093
    36    37     1
SMALL
NO_CHARGES


@<TRIPOS>ATOM
      1 ****        -1.7643  -0.6730   1.4964 C.3            1 S1                 0.0000
      2 ****        -1.0662  -0.1979   0.2095 C.3            1 S1                 0.0000
      3 ****         0.3832  -0.2683   0.3825 N.am           1 S1                 0.0000
      4 ****         1.1581   0.6541   0.9713 C.2            1 S1                 0.0000
      5 ****         0.6528   1.6799   1.4331 O.2            1 S1                 0.0000
      6 ****         2.4711   0.3294   0.9897 N.pl3          1 S1                -1.0000
      7 ****         3.3624   1.1665   1.5448 C.2            1 S1                 0.0000
      8 ****         3.8266   1.0179   2.7911 N.2            1 S1                 0.0000
      9 ****         4.7492   1.9984   3.1604 C.2            1 S1                 0.0000
     10 ****         5.0014   2.9088   2.1685 C.2            1 S1                 0.0000
     11 ****         4.0799   2.5612   0.7333 S.3            1 S1                 0.0000
     12 ****        -1.4680  -1.0415  -1.0158 C.3            1 S1                 0.0000
     13 ****        -2.9565  -0.9963  -1.3676 C.3            1 S1                 0.0000
     14 ****        -2.9875  -1.2820  -2.8618 C.3            1 S1                 0.0000
     15 ****        -1.5288  -1.1353  -3.3014 C.3            1 S1                 0.0000
     16 ****        -0.8745  -0.5264  -2.1985 O.3            1 S1                 0.0000
     17 ****        -2.8482  -0.5948   1.4134 H              1 S1                 0.0000
     18 ****        -1.4630  -0.0714   2.3544 H              1 S1                 0.0000
     19 ****        -1.5203  -1.7124   1.7180 H              1 S1                 0.0000
     20 ****        -1.3523   0.8380   0.0181 H              1 S1                 0.0000
     21 ****         0.8436  -1.0872   0.0135 H              1 S1                 0.0000
     22 ****         5.1790   1.9696   4.1506 H              1 S1                 0.0000
     23 ****         5.6685   3.7571   2.1927 H              1 S1                 0.0000
     24 ****        -1.1501  -2.0783  -0.8859 H              1 S1                 0.0000
     25 ****        -3.5452  -1.7095  -0.7900 H              1 S1                 0.0000
     26 ****        -3.3584   0.0005  -1.1804 H              1 S1                 0.0000
     27 ****        -3.3557  -2.2865  -3.0733 H              1 S1                 0.0000
     28 ****        -3.6348  -0.5712  -3.3766 H              1 S1                 0.0000
     29 ****        -1.0832  -2.1137  -3.4861 H              1 S1                 0.0000
     30 ****        -1.4200  -0.5353  -4.2050 H              1 S1                 0.0000
     31 ****        -0.3347   1.8237   1.3685 LP             1 S1                 0.0000
     32 ****         1.2306   2.3679   1.8723 LP             1 S1                 0.0000
     33 ****         2.7782  -0.5342   0.5899 LP             1 S1                 0.0000
     34 ****         3.5406   0.2768   3.3986 LP             1 S1                 0.0000
     35 ****         0.1008  -0.7467  -2.2154 LP             1 S1                 0.0000
     36 ****        -0.9927   0.4659  -2.2361 LP             1 S1                 0.0000
@<TRIPOS>BOND
    1    1    2 1     
    2    1   17 1     
    3    1   18 1     
    4    1   19 1     
    5    2    3 1     
    6    2   12 1     
    7    2   20 1     
    8    3    4 am    
    9    3   21 1     
   10    4    5 2     
   11    4    6 1     
   12    6    7 1     
   13    7   11 1     
   14    7    8 2     
   15    8    9 1     
   16    9   10 2     
   17    9   22 1     
   18   10   11 1     
   19   10   23 1     
   20   12   16 1     
   21   12   13 1     
   22   12   24 1     
   23   13   14 1     
   24   13   25 1     
   25   13   26 1     
   26   14   15 1     
   27   14   27 1     
   28   14   28 1     
   29   15   16 1     
   30   15   29 1     
   31   15   30 1     
   32    5   31 1     
   33    5   32 1     
   34    6   33 1     
   35    8   34 1     
   36   16   35 1     
   37   16   36 1     
@<TRIPOS>SUBSTRUCTURE
      1 S1             1
@<TRIPOS>SET
LONE_PAIRS      STATIC     ATOMS    <user>   **** ""
6 31 32 33 34 35 36
DONOR_HYDROGENS      STATIC     ATOMS    <user>   **** ""
1 21
ATOM$BLUE        STATIC     ATOMS    COLORGROUP SYSTEM
6 31 32 33 34 35 36
ATOM$RED        STATIC     ATOMS    COLORGROUP SYSTEM
1 21
