#       Name:                AV-unprocessed.smi:924
#       Creating user name   scv26
#       Creation time:       Fri Mar 27 02:08:29 2020


#       File generated by GOLD software.
#

@<TRIPOS>MOLECULE
AV-unprocessed.smi:924
    52    55     1
SMALL
NO_CHARGES


@<TRIPOS>ATOM
      1 ****         0.4163   1.4598  -1.9838 O.2            1 S1                 0.0000
      2 ****         1.1033   0.4517  -1.8116 C.2            1 S1                 0.0000
      3 ****         2.6366   0.5289  -1.8034 C.3            1 S1                 0.0000
      4 ****         3.1458   1.9083  -1.7942 N.am           1 S1                 0.0000
      5 ****         3.3542   2.5623  -0.5882 C.2            1 S1                 0.0000
      6 ****         3.8020   3.8369  -0.4981 C.2            1 S1                 0.0000
      7 ****         4.0949   4.6035  -1.7043 C.2            1 S1                 0.0000
      8 ****         4.5069   5.7612  -1.7261 O.2            1 S1                 0.0000
      9 ****         3.8687   3.9127  -2.8978 N.am           1 S1                 0.0000
     10 ****         3.4031   2.6005  -2.9978 C.2            1 S1                 0.0000
     11 ****         3.2290   2.0896  -4.1036 O.2            1 S1                 0.0000
     12 ****         0.5800  -0.7670  -1.6073 N.am           1 S1                 0.0000
     13 ****        -0.8451  -1.0804  -1.5269 C.3            1 S1                 0.0000
     14 ****        -1.3628  -1.2178  -0.0723 C.3            1 S1                 0.0000
     15 ****        -0.5948  -2.3304   0.6930 C.3            1 S1                 0.0000
     16 ****        -1.1536  -2.4832   2.1244 C.3            1 S1                 0.0000
     17 ****        -0.9937  -1.1508   2.8864 C.3            1 S1                 0.0000
     18 ****        -1.7774  -0.0453   2.1479 C.3            1 S1                 0.0000
     19 ****        -3.2713  -0.4230   2.0825 C.3            1 S1                 0.0000
     20 ****        -3.4233  -1.7565   1.3224 C.3            1 S1                 0.0000
     21 ****        -2.6465  -2.8665   2.0601 C.3            1 S1                 0.0000
     22 ****        -2.8662  -1.6000  -0.1086 C.3            1 S1                 0.0000
     23 ****        -1.2199   0.1131   0.7174 C.3            1 S1                 0.0000
     24 ****         4.0537   4.4051  -3.7595 H              1 S1                 0.0000
     25 ****         3.0087  -0.0002  -0.9243 H              1 S1                 0.0000
     26 ****         3.0236  -0.0300  -2.6573 H              1 S1                 0.0000
     27 ****         3.1448   2.0327   0.3307 H              1 S1                 0.0000
     28 ****         3.9429   4.2922   0.4714 H              1 S1                 0.0000
     29 ****         1.2192  -1.5378  -1.4781 H              1 S1                 0.0000
     30 ****        -1.4329  -0.3371  -2.0684 H              1 S1                 0.0000
     31 ****        -0.9979  -2.0202  -2.0587 H              1 S1                 0.0000
     32 ****        -0.6752  -3.2790   0.1606 H              1 S1                 0.0000
     33 ****         0.4698  -2.0992   0.7445 H              1 S1                 0.0000
     34 ****        -0.6020  -3.2661   2.6458 H              1 S1                 0.0000
     35 ****        -1.3582  -1.2539   3.9092 H              1 S1                 0.0000
     36 ****         0.0609  -0.8818   2.9603 H              1 S1                 0.0000
     37 ****        -1.6660   0.8970   2.6855 H              1 S1                 0.0000
     38 ****        -3.6836  -0.5114   3.0885 H              1 S1                 0.0000
     39 ****        -3.8389   0.3638   1.5841 H              1 S1                 0.0000
     40 ****        -4.4788  -2.0257   1.2726 H              1 S1                 0.0000
     41 ****        -2.7708  -3.8209   1.5467 H              1 S1                 0.0000
     42 ****        -3.0457  -3.0034   3.0658 H              1 S1                 0.0000
     43 ****        -3.4366  -0.8395  -0.6441 H              1 S1                 0.0000
     44 ****        -3.0067  -2.5300  -0.6613 H              1 S1                 0.0000
     45 ****        -0.1750   0.4179   0.7775 H              1 S1                 0.0000
     46 ****        -1.7435   0.9178   0.1996 H              1 S1                 0.0000
     47 ****         0.8563   2.3473  -2.1213 LP             1 S1                 0.0000
     48 ****        -0.5813   1.3907  -1.9861 LP             1 S1                 0.0000
     49 ****         4.6668   6.2513  -0.8692 LP             1 S1                 0.0000
     50 ****         4.6824   6.2131  -2.6008 LP             1 S1                 0.0000
     51 ****         2.8934   1.1502  -4.1731 LP             1 S1                 0.0000
     52 ****         3.4232   2.6139  -4.9328 LP             1 S1                 0.0000
@<TRIPOS>BOND
    1    1    2 2     
    2    2    3 1     
    3    2   12 am    
    4    3    4 1     
    5    3   25 1     
    6    3   26 1     
    7    4   10 1     
    8    4    5 1     
    9    5    6 2     
   10    5   27 1     
   11    6    7 1     
   12    6   28 1     
   13    7    8 2     
   14    7    9 1     
   15    9   24 1     
   16    9   10 1     
   17   10   11 2     
   18   12   13 1     
   19   12   29 1     
   20   13   14 1     
   21   13   30 1     
   22   13   31 1     
   23   14   22 1     
   24   14   23 1     
   25   14   15 1     
   26   15   16 1     
   27   15   32 1     
   28   15   33 1     
   29   16   21 1     
   30   16   17 1     
   31   16   34 1     
   32   17   18 1     
   33   17   35 1     
   34   17   36 1     
   35   18   19 1     
   36   18   23 1     
   37   18   37 1     
   38   19   20 1     
   39   19   38 1     
   40   19   39 1     
   41   20   21 1     
   42   20   22 1     
   43   20   40 1     
   44   21   41 1     
   45   21   42 1     
   46   22   43 1     
   47   22   44 1     
   48   23   45 1     
   49   23   46 1     
   50    1   47 1     
   51    1   48 1     
   52    8   49 1     
   53    8   50 1     
   54   11   51 1     
   55   11   52 1     
@<TRIPOS>SUBSTRUCTURE
      1 S1             1
@<TRIPOS>SET
LONE_PAIRS      STATIC     ATOMS    <user>   **** ""
6 47 48 49 50 51 52
DONOR_HYDROGENS      STATIC     ATOMS    <user>   **** ""
2 24 29
ATOM$BLUE        STATIC     ATOMS    COLORGROUP SYSTEM
6 47 48 49 50 51 52
ATOM$RED        STATIC     ATOMS    COLORGROUP SYSTEM
2 24 29
