#       Name:                AV-unprocessed.smi:76
#       Creating user name   scv26
#       Creation time:       Thu Mar 26 17:11:38 2020


#       File generated by GOLD software.
#

@<TRIPOS>MOLECULE
AV-unprocessed.smi:76
    62    65     1
SMALL
NO_CHARGES


@<TRIPOS>ATOM
      1 ****        -3.0184   1.2762   2.8813 C.3            1 S1                 0.0000
      2 ****        -3.0322   0.2897   1.6968 C.3            1 S1                 0.0000
      3 ****        -4.3945  -0.4174   1.5338 C.3            1 S1                 0.0000
      4 ****        -5.4818   0.5110   0.9498 C.3            1 S1                 0.0000
      5 ****        -6.8305  -0.2142   0.7675 C.3            1 S1                 0.0000
      6 ****        -7.7466   0.6380   0.3072 F              1 S1                 0.0000
      7 ****        -6.7146  -1.2277  -0.0910 F              1 S1                 0.0000
      8 ****        -7.2544  -0.6877   1.9393 F              1 S1                 0.0000
      9 ****        -4.9686   1.1243  -0.3678 C.3            1 S1                 0.0000
     10 ****        -3.6194   1.8322  -0.1710 C.3            1 S1                 0.0000
     11 ****        -2.6393   0.9277   0.4346 N.pl3          1 S1                 0.0000
     12 ****        -1.3252   1.2522   0.3135 C.ar           1 S1                 0.0000
     13 ****        -0.9673   2.5508   0.1241 N.ar           1 S1                 0.0000
     14 ****         0.3205   2.8892   0.0184 C.ar           1 S1                 0.0000
     15 ****         1.3961   2.1021   0.0667 N.ar           1 S1                 0.0000
     16 ****         1.0458   0.7961   0.2433 C.ar           1 S1                 0.0000
     17 ****        -0.2780   0.2893   0.3799 C.ar           1 S1                 0.0000
     18 ****        -0.2384  -1.0907   0.5406 N.2            1 S1                 0.0000
     19 ****         1.0333  -1.3803   0.5118 C.2            1 S1                 0.0000
     20 ****         1.8763  -0.3094   0.3171 N.pl3          1 S1                 0.0000
     21 ****         3.3302  -0.3465   0.2409 C.3            1 S1                 0.0000
     22 ****         3.9137  -0.5831  -1.1886 C.3            1 S1                 0.0000
     23 ****         3.4576   0.5832  -2.1092 C.3            1 S1                 0.0000
     24 ****         4.0046   0.5206  -3.4116 O.3            1 S1                 0.0000
     25 ****         5.4616  -0.6229  -1.1017 C.3            1 S1                 0.0000
     26 ****         5.9864  -1.9013  -0.4198 C.3            1 S1                 0.0000
     27 ****         5.4846  -3.0540  -1.0857 O.3            1 S1                 0.0000
     28 ****         4.0652  -3.1419  -1.0555 C.3            1 S1                 0.0000
     29 ****         3.4506  -1.9360  -1.7882 C.3            1 S1                 0.0000
     30 ****        -3.2985   0.7739   3.8074 H              1 S1                 0.0000
     31 ****        -3.7086   2.1069   2.7354 H              1 S1                 0.0000
     32 ****        -2.0240   1.6978   3.0311 H              1 S1                 0.0000
     33 ****        -2.3128  -0.4917   1.9365 H              1 S1                 0.0000
     34 ****        -4.2657  -1.2750   0.8722 H              1 S1                 0.0000
     35 ****        -4.7170  -0.8241   2.4926 H              1 S1                 0.0000
     36 ****        -5.6479   1.3261   1.6550 H              1 S1                 0.0000
     37 ****        -4.8572   0.3417  -1.1193 H              1 S1                 0.0000
     38 ****        -5.6959   1.8325  -0.7652 H              1 S1                 0.0000
     39 ****        -3.2580   2.1817  -1.1392 H              1 S1                 0.0000
     40 ****        -3.7444   2.7135   0.4590 H              1 S1                 0.0000
     41 ****         0.5167   3.9414  -0.1261 H              1 S1                 0.0000
     42 ****         1.3926  -2.3930   0.6229 H              1 S1                 0.0000
     43 ****         3.7088   0.5945   0.6421 H              1 S1                 0.0000
     44 ****         3.6669  -1.1106   0.9398 H              1 S1                 0.0000
     45 ****         2.3732   0.5888  -2.2179 H              1 S1                 0.0000
     46 ****         3.7372   1.5427  -1.6727 H              1 S1                 0.0000
     47 ****         3.6844   1.2587  -3.9074 H              1 S1                 0.0000
     48 ****         5.8964  -0.5891  -2.1008 H              1 S1                 0.0000
     49 ****         5.8379   0.2589  -0.5819 H              1 S1                 0.0000
     50 ****         7.0753  -1.9230  -0.4665 H              1 S1                 0.0000
     51 ****         5.7253  -1.9338   0.6379 H              1 S1                 0.0000
     52 ****         3.7651  -4.0658  -1.5500 H              1 S1                 0.0000
     53 ****         3.7125  -3.2114  -0.0263 H              1 S1                 0.0000
     54 ****         2.3639  -2.0117  -1.7993 H              1 S1                 0.0000
     55 ****         3.7548  -2.0006  -2.8331 H              1 S1                 0.0000
     56 ****        -1.6729   3.2568   0.0635 LP             1 S1                 0.0000
     57 ****         2.3380   2.4277  -0.0160 LP             1 S1                 0.0000
     58 ****        -1.0088  -1.7183   0.6527 LP             1 S1                 0.0000
     59 ****         3.7238  -0.3307  -3.8548 LP             1 S1                 0.0000
     60 ****         5.0027   0.5562  -3.3603 LP             1 S1                 0.0000
     61 ****         5.8634  -3.8671  -0.6437 LP             1 S1                 0.0000
     62 ****         5.7815  -3.0247  -2.0402 LP             1 S1                 0.0000
@<TRIPOS>BOND
    1    1    2 1     
    2    1   30 1     
    3    1   31 1     
    4    1   32 1     
    5    2   11 1     
    6    2    3 1     
    7    2   33 1     
    8    3    4 1     
    9    3   34 1     
   10    3   35 1     
   11    4    5 1     
   12    4    9 1     
   13    4   36 1     
   14    5    6 1     
   15    5    7 1     
   16    5    8 1     
   17    9   10 1     
   18    9   37 1     
   19    9   38 1     
   20   10   11 1     
   21   10   39 1     
   22   10   40 1     
   23   11   12 1     
   24   12   17 ar    
   25   12   13 ar    
   26   13   14 ar    
   27   14   15 ar    
   28   14   41 1     
   29   15   16 ar    
   30   16   20 1     
   31   16   17 ar    
   32   17   18 1     
   33   18   19 2     
   34   19   20 1     
   35   19   42 1     
   36   20   21 1     
   37   21   22 1     
   38   21   43 1     
   39   21   44 1     
   40   22   29 1     
   41   22   23 1     
   42   22   25 1     
   43   23   24 1     
   44   23   45 1     
   45   23   46 1     
   46   24   47 1     
   47   25   26 1     
   48   25   48 1     
   49   25   49 1     
   50   26   27 1     
   51   26   50 1     
   52   26   51 1     
   53   27   28 1     
   54   28   29 1     
   55   28   52 1     
   56   28   53 1     
   57   29   54 1     
   58   29   55 1     
   59   13   56 1     
   60   15   57 1     
   61   18   58 1     
   62   24   59 1     
   63   24   60 1     
   64   27   61 1     
   65   27   62 1     
@<TRIPOS>SUBSTRUCTURE
      1 S1             1
@<TRIPOS>SET
LONE_PAIRS      STATIC     ATOMS    <user>   **** ""
7 56 57 58 59 60 61 62
DONOR_HYDROGENS      STATIC     ATOMS    <user>   **** ""
1 47
ATOM$BLUE        STATIC     ATOMS    COLORGROUP SYSTEM
7 56 57 58 59 60 61 62
ATOM$RED        STATIC     ATOMS    COLORGROUP SYSTEM
1 47
