AV-unprocessed.smi:1697|AV-procd|sdf|6806|dock9
  -GOLD-   22720 7583D 1   1.00000     0.00000
 Structure written by MMmdl.
 54 56  0  0  0  0  0  0  0  0  2 V2000
  141.4801  141.3899  155.3962 C   0  0  0  0  0  0  0  0  0  0  0  0
  142.3068  142.5737  155.9026 C   0  0  0  0  0  0  0  0  0  0  0  0
  143.6171  142.1160  156.2028 O   0  0  0  0  0  0  0  0  0  0  0  0
  144.5518  143.1459  156.5032 C   0  0  2  0  0  0  0  0  0  0  0  0
  144.9363  143.9448  155.2437 C   0  0  0  0  0  0  0  0  0  0  0  0
  145.6825  143.0650  154.2266 C   0  0  0  0  0  0  0  0  0  0  0  0
  146.8917  142.4485  154.8351 N   0  3  2  0  0  0  0  0  0  0  0  0
  147.7191  141.6923  153.8599 C   0  0  0  0  0  0  0  0  0  0  0  0
  148.9459  141.0307  154.5181 C   0  0  1  0  0  0  0  0  0  0  0  0
  149.9115  140.7670  153.5178 O   0  0  0  0  0  0  0  0  0  0  0  0
  149.5676  141.9263  155.6069 C   0  0  0  0  0  0  0  0  0  0  0  0
  150.4987  141.2017  156.4535 N   0  0  0  0  0  0  0  0  0  0  0  0
  150.9055  139.9268  156.3008 C   0  0  0  0  0  0  0  0  0  0  0  0
  151.7735  139.4534  157.1895 N   0  0  0  0  0  0  0  0  0  0  0  0
  151.9496  140.5485  158.0178 C   0  0  0  0  0  0  0  0  0  0  0  0
  152.7554  140.7085  159.1662 C   0  0  0  0  0  0  0  0  0  0  0  0
  152.7822  141.9346  159.8677 C   0  0  0  0  0  0  0  0  0  0  0  0
  153.6639  142.0622  161.0974 C   0  0  0  0  0  0  0  0  0  0  0  0
  151.9937  143.0257  159.4221 C   0  0  0  0  0  0  0  0  0  0  0  0
  152.0066  144.3521  160.1609 C   0  0  0  0  0  0  0  0  0  0  0  0
  151.1837  142.8838  158.2758 C   0  0  0  0  0  0  0  0  0  0  0  0
  151.1652  141.6583  157.5862 C   0  0  0  0  0  0  0  0  0  0  0  0
  146.5481  141.6393  156.0329 C   0  0  0  0  0  0  0  0  0  0  0  0
  145.8098  142.4846  157.0863 C   0  0  0  0  0  0  0  0  0  0  0  0
  140.4609  141.6979  155.1621 H   0  0  0  0  0  0  0  0  0  0  0  0
  141.4267  140.6008  156.1466 H   0  0  0  0  0  0  0  0  0  0  0  0
  141.9175  140.9648  154.4925 H   0  0  0  0  0  0  0  0  0  0  0  0
  142.3300  143.3549  155.1432 H   0  0  0  0  0  0  0  0  0  0  0  0
  141.8410  142.9938  156.7952 H   0  0  0  0  0  0  0  0  0  0  0  0
  144.1315  143.8142  157.2567 H   0  0  0  0  0  0  0  0  0  0  0  0
  144.0582  144.3918  154.7788 H   0  0  0  0  0  0  0  0  0  0  0  0
  145.5770  144.7795  155.5313 H   0  0  0  0  0  0  0  0  0  0  0  0
  145.0209  142.2820  153.8521 H   0  0  0  0  0  0  0  0  0  0  0  0
  145.9579  143.6771  153.3690 H   0  0  0  0  0  0  0  0  0  0  0  0
  147.1197  140.9126  153.3868 H   0  0  0  0  0  0  0  0  0  0  0  0
  148.0286  142.3630  153.0568 H   0  0  0  0  0  0  0  0  0  0  0  0
  148.6647  140.0814  154.9731 H   0  0  0  0  0  0  0  0  0  0  0  0
  149.5482  140.1512  152.8991 H   0  0  0  0  0  0  0  0  0  0  0  0
  150.0869  142.7747  155.1591 H   0  0  0  0  0  0  0  0  0  0  0  0
  148.7853  142.3425  156.2430 H   0  0  0  0  0  0  0  0  0  0  0  0
  150.5461  139.3121  155.4885 H   0  0  0  0  0  0  0  0  0  0  0  0
  153.3565  139.8775  159.5050 H   0  0  0  0  0  0  0  0  0  0  0  0
  153.0632  142.3010  161.9753 H   0  0  0  0  0  0  0  0  0  0  0  0
  154.4026  142.8514  160.9570 H   0  0  0  0  0  0  0  0  0  0  0  0
  154.2000  141.1349  161.3014 H   0  0  0  0  0  0  0  0  0  0  0  0
  151.3407  145.0762  159.6906 H   0  0  0  0  0  0  0  0  0  0  0  0
  153.0108  144.7759  160.1678 H   0  0  0  0  0  0  0  0  0  0  0  0
  151.6793  144.2181  161.1921 H   0  0  0  0  0  0  0  0  0  0  0  0
  150.5805  143.7080  157.9258 H   0  0  0  0  0  0  0  0  0  0  0  0
  145.9372  140.7858  155.7342 H   0  0  0  0  0  0  0  0  0  0  0  0
  147.4584  141.2359  156.4780 H   0  0  0  0  0  0  0  0  0  0  0  0
  146.4819  143.2563  157.4643 H   0  0  0  0  0  0  0  0  0  0  0  0
  145.5429  141.8650  157.9432 H   0  0  0  0  0  0  0  0  0  0  0  0
  147.4737  143.2050  155.1668 H   0  0  0  0  0  0  0  0  0  0  0  0
  1  2  1  0  0  0  0
  1 25  1  0  0  0  0
  1 26  1  0  0  0  0
  1 27  1  0  0  0  0
  2  3  1  0  0  0  0
  2 28  1  0  0  0  0
  2 29  1  0  0  0  0
  3  4  1  0  0  0  0
  4 24  1  0  0  0  0
  4  5  1  0  0  0  0
  4 30  1  0  0  0  0
  5  6  1  0  0  0  0
  5 31  1  0  0  0  0
  5 32  1  0  0  0  0
  6  7  1  0  0  0  0
  6 33  1  0  0  0  0
  6 34  1  0  0  0  0
  7  8  1  0  0  0  0
  7 23  1  0  0  0  0
  7 54  1  0  0  0  0
  8  9  1  0  0  0  0
  8 35  1  0  0  0  0
  8 36  1  0  0  0  0
  9 10  1  0  0  0  0
  9 11  1  0  0  0  0
  9 37  1  0  0  0  0
 10 38  1  0  0  0  0
 11 12  1  0  0  0  0
 11 39  1  0  0  0  0
 11 40  1  0  0  0  0
 12 22  1  0  0  0  0
 12 13  1  0  0  0  0
 13 14  2  0  0  0  0
 13 41  1  0  0  0  0
 14 15  1  0  0  0  0
 15 22  2  0  0  0  0
 15 16  1  0  0  0  0
 16 17  2  0  0  0  0
 16 42  1  0  0  0  0
 17 18  1  0  0  0  0
 17 19  1  0  0  0  0
 18 43  1  0  0  0  0
 18 44  1  0  0  0  0
 18 45  1  0  0  0  0
 19 20  1  0  0  0  0
 19 21  2  0  0  0  0
 20 46  1  0  0  0  0
 20 47  1  0  0  0  0
 20 48  1  0  0  0  0
 21 22  1  0  0  0  0
 21 49  1  0  0  0  0
 23 24  1  0  0  0  0
 23 50  1  0  0  0  0
 23 51  1  0  0  0  0
 24 52  1  0  0  0  0
 24 53  1  0  0  0  0
M  CHG  1   7   1
M  END
> <s_m_source_file>
AV-unprocessed.smi

> <i_m_source_file_index>
1697

> <i_lp_mmshare_version>
43012

> <i_f3d_flags>
0

> <s_epik_input>
W0NIM11bQ0gyXU9bQ0hdMVtDSDJdW0NIMl1OKFtDSDJdW0NIMl0xKVtDSDJdW0NASF0oW09IXSlbQ0gyXW4oW2NIXW4yKWMoYzIzKVtjSF1jKFtDSDNdKWMoW2NIXTMpW0NIM10=

> <s_epik_cmdline>
J2VwaWtfcHl0aG9uJywgJy1waCcsICc3LjAnLCAnLXRuJywgJzgnLCAnLW1hJywgJzIwMCcsICctbWV0YWxfYmluZGluZycsICctaW1hZScsICc8aW5maWxlLm1hZT4nLCAnLW9tYWUnLCAnPG91dGZpbGUubWFlPic=

> <r_epik_Ionization_Penalty>
0.112476

> <r_epik_Ionization_Penalty_Charging>
0.0244612

> <r_epik_Ionization_Penalty_Neutral>
0.0880147

> <r_epik_State_Penalty>
0.0961447

> <r_epik_Charging_Adjusted_Penalty>
0.120606

> <i_epik_Tot_Q>
1

> <i_epik_Tot_abs_Q>
1

> <r_epik_Metal_State_Penalty>
0.0206204

> <b_epik_Metal_Only>
0

> <s_lp_Force_Field>
OPLS_2005

> <r_lp_Energy>
22.8638

> <b_lp_Chiralities_Consistent>
1

> <s_lp_Variant>
AV-unprocessed.smi:1697-4

> <Gold.Version>
5.8.1

> <Gold.Id.Protein>
6NUR|6NUR_protein|mol2

> <Gold.PLP.Fitness>
57.8709

> <Gold.PLP.PLP>
-46.6756

> <Gold.PLP.part.hbond>
-3.1301

> <Gold.PLP.part.metal>
0.0000

> <Gold.PLP.part.buried>
-3.6597

> <Gold.PLP.part.nonpolar>
-38.8443

> <Gold.PLP.part.repulsive>
0.1977

> <Gold.PLP.ligand.clash>
0.0000

> <Gold.PLP.ligand.torsion>
0.4503

> <Gold.PLP.Chemscore.Hbond>
3.9600

> <Gold.PLP.Chemscore.CHOScore>
0.0000

> <Gold.PLP.Chemscore.Metal>
0.0000

> <Gold.Chemscore.Hbonds>
donor molecule, donor type, donor heavy atom, donor atom, acceptor molecule, acceptor atom, score
      L1  H     7    54       P1  8028  1.72
      L1  H    10    38       P1  7957  0.66
      P1  H  7989  7998       L1    10  0.38
      P1  H  8011  8017       L1    10  0.85

> <Gold.PLP.Chemscore.Internal.Correction>
0.2160

> <Gold.Rescore>
     Score         DG    S(hbond)    S(metal)    S(lipo)     H(rot)  DE(clash)    DE(int)     intcor
     15.94     -17.85       1.24        0.00     120.05       2.27       1.41       0.50       ----

> <Gold.Chemscore.Fitness>
15.9399

> <Gold.Chemscore.DG>
-17.8498

> <Gold.Chemscore.ZeroCoef>
-5.4800

> <Gold.Chemscore.Hbond>
1.2388

> <Gold.Chemscore.Metal>
0.0000

> <Gold.Chemscore.Lipo>
120.0494

> <Gold.Chemscore.Internal_Hbond>
0.0000

> <Gold.Chemscore.DEClash>
1.4097

> <Gold.Chemscore.DEInternal>
0.5001

> <Gold.Chemscore.Rot>
2.2710

> <Gold.Chemscore.Internal.Correction>
   9.000000E+99

> <Gold.Chemscore.Hbonds>
donor molecule, donor type, donor heavy atom, donor atom, acceptor molecule, acceptor atom, score
      L1  H     7    54       P1  8028  0.21
      L1  H    10    38       P1  7957  0.66
      P1  H  7989  7998       L1    10  0.33
      P1  H  8011  8017       L1    10  0.06

> <Gold.Chemscore.Hbond.Weighted>
-4.1377

> <Gold.Chemscore.Metal.Weighted>
-0.0000

> <Gold.Chemscore.Lipo.Weighted>
-14.0458

> <Gold.Chemscore.Internal_Hbond.Weighted>
0.0000

> <Gold.Chemscore.DEClash.Weighted>
1.4097

> <Gold.Chemscore.DEInternal.Weighted>
0.5001

> <Gold.Chemscore.Rot.Weighted>
5.8137

> <Gold.Chemscore.Internal.Correction.Weighted>
   9.000000E+99

> <Gold.Protein.RotatedTorsions>
[ 6907 6896 6895 6894 ] final   53.97 input  -60.11 | X-H torsion
[ 7974 7965 7964 7962 ] final  152.51 input  175.53 | X-H torsion
[ 8008 7997 7996 7995 ] final   45.70 input   59.86 | X-H torsion
[ 10167 10162 10161 10158 ] final  153.59 input  -65.29 | X-H torsion
[ 10718 10713 10712 10709 ] final  -76.75 input   66.30 | X-H torsion
[ 10763 10752 10751 10750 ] final   60.94 input  -60.55 | X-H torsion
[ 11005 11000 10999 10996 ] final   77.63 input  -57.11 | X-H torsion

> <Gold.Protein.ActiveResidues>
 VAL166  LYS551  ARG553  GLY616  TRP617  ASP618  TYR619  PRO620  LYS621  CYS622 
 ASP623  PHE694  ASN695  SER759  ASP760  ASP761  ALA762  ILE779  LEU786  VAL792 
 PHE793  MET794  SER795  GLU796  ALA797  LYS798  CYS799  TRP800  GLU811  SER814 

> <Gold.Protein.RotatedAtoms>
  152.3392  134.7157  160.0268 H   0  0  0  0  0  0  0  0  0  0  0  0  # atno 6907 bound_to 6896
  151.7548  133.3324  159.3409 H   0  0  0  0  0  0  0  0  0  0  0  0  # atno 6908 bound_to 6896
  150.7469  134.6091  159.6121 H   0  0  0  0  0  0  0  0  0  0  0  0  # atno 6909 bound_to 6896
  144.8217  139.6678  143.6097 H   0  0  0  0  0  0  0  0  0  0  0  0  # atno 7974 bound_to 7965
  155.3403  140.3407  155.4239 H   0  0  0  0  0  0  0  0  0  0  0  0  # atno 8008 bound_to 7997
  156.1817  140.1666  156.8298 H   0  0  0  0  0  0  0  0  0  0  0  0  # atno 8009 bound_to 7997
  154.5341  140.0739  156.8379 H   0  0  0  0  0  0  0  0  0  0  0  0  # atno 8010 bound_to 7997
  139.4826  144.5260  151.7800 H   0  0  0  0  0  0  0  0  0  0  0  0  # atno 10167 bound_to 10162
  156.0165  130.4473  150.3241 H   0  0  0  0  0  0  0  0  0  0  0  0  # atno 10718 bound_to 10713
  152.9935  135.5518  154.5954 H   0  0  0  0  0  0  0  0  0  0  0  0  # atno 10763 bound_to 10752
  154.5307  135.2813  155.1185 H   0  0  0  0  0  0  0  0  0  0  0  0  # atno 10764 bound_to 10752
  154.2501  135.6400  153.5290 H   0  0  0  0  0  0  0  0  0  0  0  0  # atno 10765 bound_to 10752
  139.9246  134.7698  156.1546 H   0  0  0  0  0  0  0  0  0  0  0  0  # atno 11005 bound_to 11000
  146.2522  139.6225  142.9419 LP  0  0  0  0  0  0  0  0  0  0  0  0  # atno 17320 bound_to 7965
  145.5090  141.0436  143.2498 LP  0  0  0  0  0  0  0  0  0  0  0  0  # atno 17321 bound_to 7965
  140.4780  144.1491  150.5928 LP  0  0  0  0  0  0  0  0  0  0  0  0  # atno 17342 bound_to 10162
  140.4309  143.2568  151.9597 LP  0  0  0  0  0  0  0  0  0  0  0  0  # atno 17343 bound_to 10162
  157.1341  131.0279  151.2956 LP  0  0  0  0  0  0  0  0  0  0  0  0  # atno 17370 bound_to 10713
  157.4526  130.7607  149.7165 LP  0  0  0  0  0  0  0  0  0  0  0  0  # atno 17371 bound_to 10713
  141.0794  133.6761  156.2305 LP  0  0  0  0  0  0  0  0  0  0  0  0  # atno 17394 bound_to 11000
  140.6373  134.5202  157.5566 LP  0  0  0  0  0  0  0  0  0  0  0  0  # atno 17395 bound_to 11000

$$$$
