AV-unprocessed.smi:935|AV-procd|sdf|4207|dock2
  -GOLD-   22720 2113D 1   1.00000     0.00000
 Structure written by MMmdl.
 34 35  0  0  0  0  0  0  0  0  1 V2000
  153.4961  138.9907  160.1459 C   0  0  0  0  0  0  0  0  0  0  0  0
  154.2495  140.3071  160.3839 C   0  0  0  0  0  0  0  0  0  0  0  0
  154.9184  140.3775  161.7643 C   0  0  0  0  0  0  0  0  0  0  0  0
  153.3921  141.5034  160.1127 C   0  0  0  0  0  0  0  0  0  0  0  0
  152.7505  141.7104  158.9586 N   0  0  0  0  0  0  0  0  0  0  0  0
  152.0138  142.8987  158.9548 C   0  0  0  0  0  0  0  0  0  0  0  0
  151.2239  143.2848  157.7418 C   0  0  0  0  0  0  0  0  0  0  0  0
  151.0807  142.1196  156.7485 C   0  0  0  0  0  0  0  0  0  0  0  0
  149.8397  142.2092  155.9879 N   0  0  0  0  0  0  0  0  0  0  0  0
  149.4238  141.3125  155.0808 C   0  0  0  0  0  0  0  0  0  0  0  0
  150.0659  140.3010  154.7940 O   0  0  0  0  0  0  0  0  0  0  0  0
  148.1117  141.6503  154.4522 C   0  0  0  0  0  0  0  0  0  0  0  0
  146.9097  140.8139  154.8421 C   0  0  0  0  0  0  0  0  0  0  0  0
  147.5235  140.6538  153.4737 C   0  0  0  0  0  0  0  0  0  0  0  0
  152.1074  143.5968  160.1327 C   0  0  0  0  0  0  0  0  0  0  0  0
  153.1255  142.7851  161.2898 S   0  0  0  0  0  0  0  0  0  0  0  0
  153.1064  138.9403  159.1287 H   0  0  0  0  0  0  0  0  0  0  0  0
  152.6542  138.8859  160.8310 H   0  0  0  0  0  0  0  0  0  0  0  0
  154.1514  138.1316  160.2916 H   0  0  0  0  0  0  0  0  0  0  0  0
  155.0562  140.3360  159.6505 H   0  0  0  0  0  0  0  0  0  0  0  0
  155.5102  141.2876  161.8670 H   0  0  0  0  0  0  0  0  0  0  0  0
  155.5864  139.5301  161.9211 H   0  0  0  0  0  0  0  0  0  0  0  0
  154.1781  140.3691  162.5649 H   0  0  0  0  0  0  0  0  0  0  0  0
  150.2359  143.6347  158.0434 H   0  0  0  0  0  0  0  0  0  0  0  0
  151.7001  144.1304  157.2437 H   0  0  0  0  0  0  0  0  0  0  0  0
  151.9102  142.1300  156.0407 H   0  0  0  0  0  0  0  0  0  0  0  0
  151.1319  141.1629  157.2716 H   0  0  0  0  0  0  0  0  0  0  0  0
  149.2541  143.0128  156.1634 H   0  0  0  0  0  0  0  0  0  0  0  0
  147.9276  142.7037  154.2458 H   0  0  0  0  0  0  0  0  0  0  0  0
  147.0493  140.0000  155.5514 H   0  0  0  0  0  0  0  0  0  0  0  0
  145.9537  141.3281  154.9163 H   0  0  0  0  0  0  0  0  0  0  0  0
  146.9839  141.0599  152.6206 H   0  0  0  0  0  0  0  0  0  0  0  0
  148.0707  139.7338  153.2752 H   0  0  0  0  0  0  0  0  0  0  0  0
  151.6389  144.5352  160.3896 H   0  0  0  0  0  0  0  0  0  0  0  0
  1  2  1  0  0  0  0
  1 17  1  0  0  0  0
  1 18  1  0  0  0  0
  1 19  1  0  0  0  0
  2  3  1  0  0  0  0
  2  4  1  0  0  0  0
  2 20  1  0  0  0  0
  3 21  1  0  0  0  0
  3 22  1  0  0  0  0
  3 23  1  0  0  0  0
  4 16  1  0  0  0  0
  4  5  2  0  0  0  0
  5  6  1  0  0  0  0
  6  7  1  0  0  0  0
  6 15  2  0  0  0  0
  7  8  1  0  0  0  0
  7 24  1  0  0  0  0
  7 25  1  0  0  0  0
  8  9  1  0  0  0  0
  8 26  1  0  0  0  0
  8 27  1  0  0  0  0
  9 10  1  0  0  0  0
  9 28  1  0  0  0  0
 10 11  2  0  0  0  0
 10 12  1  0  0  0  0
 12 14  1  0  0  0  0
 12 13  1  0  0  0  0
 12 29  1  0  0  0  0
 13 14  1  0  0  0  0
 13 30  1  0  0  0  0
 13 31  1  0  0  0  0
 14 32  1  0  0  0  0
 14 33  1  0  0  0  0
 15 16  1  0  0  0  0
 15 34  1  0  0  0  0
M  END
> <s_m_source_file>
AV-unprocessed.smi

> <i_m_source_file_index>
935

> <i_lp_mmshare_version>
43012

> <i_f3d_flags>
0

> <s_epik_input>
W0NIM11bQ0hdKFtDSDNdKWMxbmMoW2NIXXMxKVtDSDJdW0NIMl1bTkhdQyg9TylbQ0hdMltDSDJdW0NIMl0y

> <s_epik_cmdline>
J2VwaWtfcHl0aG9uJywgJy1waCcsICc3LjAnLCAnLXRuJywgJzgnLCAnLW1hJywgJzIwMCcsICctbWV0YWxfYmluZGluZycsICctaW1hZScsICc8aW5maWxlLm1hZT4nLCAnLW9tYWUnLCAnPG91dGZpbGUubWFlPic=

> <r_epik_Ionization_Penalty>
0.000842127

> <r_epik_Ionization_Penalty_Charging>
0

> <r_epik_Ionization_Penalty_Neutral>
0.000842127

> <r_epik_State_Penalty>
0.000542609

> <r_epik_Charging_Adjusted_Penalty>
0.000542609

> <i_epik_Tot_Q>
0

> <i_epik_Tot_abs_Q>
0

> <r_epik_Metal_State_Penalty>
-0

> <b_epik_Metal_Only>
0

> <s_lp_Force_Field>
OPLS_2005

> <r_lp_Energy>
-5.7146

> <b_lp_Chiralities_Consistent>
1

> <s_lp_Variant>
AV-unprocessed.smi:935-1

> <Gold.Version>
5.8.1

> <Gold.Id.Protein>
6NUR|6NUR_protein|mol2

> <Gold.PLP.Fitness>
43.1889

> <Gold.PLP.PLP>
-38.0923

> <Gold.PLP.part.hbond>
-2.0000

> <Gold.PLP.part.metal>
0.0000

> <Gold.PLP.part.buried>
-3.6114

> <Gold.PLP.part.nonpolar>
-32.6309

> <Gold.PLP.part.repulsive>
0.2311

> <Gold.PLP.ligand.clash>
0.0000

> <Gold.PLP.ligand.torsion>
0.5202

> <Gold.PLP.Chemscore.Hbond>
1.9920

> <Gold.PLP.Chemscore.CHOScore>
0.0000

> <Gold.PLP.Chemscore.Metal>
0.0000

> <Gold.Chemscore.Hbonds>
donor molecule, donor type, donor heavy atom, donor atom, acceptor molecule, acceptor atom, score
      L1  H     9    28       P1  8028  0.90
      P1  H  7989  7998       L1    11  0.81

> <Gold.PLP.Chemscore.Internal.Correction>
0.1609

> <Gold.Rescore>
     Score         DG    S(hbond)    S(metal)    S(lipo)     H(rot)  DE(clash)    DE(int)     intcor
     19.17     -19.68       1.70        0.00     106.97       1.55       0.11       0.40       ----

> <Gold.Chemscore.Fitness>
19.1694

> <Gold.Chemscore.DG>
-19.6819

> <Gold.Chemscore.ZeroCoef>
-5.4800

> <Gold.Chemscore.Hbond>
1.6956

> <Gold.Chemscore.Metal>
0.0000

> <Gold.Chemscore.Lipo>
106.9684

> <Gold.Chemscore.Internal_Hbond>
0.0000

> <Gold.Chemscore.DEClash>
0.1107

> <Gold.Chemscore.DEInternal>
0.4018

> <Gold.Chemscore.Rot>
1.5534

> <Gold.Chemscore.Internal.Correction>
   9.000000E+99

> <Gold.Chemscore.Hbonds>
donor molecule, donor type, donor heavy atom, donor atom, acceptor molecule, acceptor atom, score
      L1  H     9    28       P1  8028  0.88
      P1  H  7989  7998       L1    11  0.46

> <Gold.Chemscore.Hbond.Weighted>
-5.6633

> <Gold.Chemscore.Metal.Weighted>
-0.0000

> <Gold.Chemscore.Lipo.Weighted>
-12.5153

> <Gold.Chemscore.Internal_Hbond.Weighted>
0.0000

> <Gold.Chemscore.DEClash.Weighted>
0.1107

> <Gold.Chemscore.DEInternal.Weighted>
0.4018

> <Gold.Chemscore.Rot.Weighted>
3.9767

> <Gold.Chemscore.Internal.Correction.Weighted>
   9.000000E+99

> <Gold.Protein.RotatedTorsions>
[ 6907 6896 6895 6894 ] final  170.45 input  -60.11 | X-H torsion
[ 7974 7965 7964 7962 ] final  -40.76 input  175.53 | X-H torsion
[ 8008 7997 7996 7995 ] final  160.64 input   59.86 | X-H torsion
[ 10167 10162 10161 10158 ] final    3.83 input  -65.29 | X-H torsion
[ 10718 10713 10712 10709 ] final -128.74 input   66.30 | X-H torsion
[ 10763 10752 10751 10750 ] final   -0.61 input  -60.55 | X-H torsion
[ 11005 11000 10999 10996 ] final   -3.32 input  -57.11 | X-H torsion

> <Gold.Protein.ActiveResidues>
 VAL166  LYS551  ARG553  GLY616  TRP617  ASP618  TYR619  PRO620  LYS621  CYS622 
 ASP623  PHE694  ASN695  SER759  ASP760  ASP761  ALA762  ILE779  LEU786  VAL792 
 PHE793  MET794  SER795  GLU796  ALA797  LYS798  CYS799  TRP800  GLU811  SER814 

> <Gold.Protein.RotatedAtoms>
  151.8158  133.3388  159.3568 H   0  0  0  0  0  0  0  0  0  0  0  0  # atno 6907 bound_to 6896
  150.7311  134.5620  159.5856 H   0  0  0  0  0  0  0  0  0  0  0  0  # atno 6908 bound_to 6896
  152.3042  134.7576  160.0402 H   0  0  0  0  0  0  0  0  0  0  0  0  # atno 6909 bound_to 6896
  146.0275  140.6773  142.9149 H   0  0  0  0  0  0  0  0  0  0  0  0  # atno 7974 bound_to 7965
  156.2158  140.1798  156.7592 H   0  0  0  0  0  0  0  0  0  0  0  0  # atno 8008 bound_to 7997
  154.5789  140.0669  156.9105 H   0  0  0  0  0  0  0  0  0  0  0  0  # atno 8009 bound_to 7997
  155.2537  140.3331  155.4282 H   0  0  0  0  0  0  0  0  0  0  0  0  # atno 8010 bound_to 7997
  140.6566  143.7412  150.7664 H   0  0  0  0  0  0  0  0  0  0  0  0  # atno 10167 bound_to 10162
  156.1980  130.6838  151.0504 H   0  0  0  0  0  0  0  0  0  0  0  0  # atno 10718 bound_to 10713
  153.3341  135.6977  153.6922 H   0  0  0  0  0  0  0  0  0  0  0  0  # atno 10763 bound_to 10752
  153.5713  135.3516  155.2839 H   0  0  0  0  0  0  0  0  0  0  0  0  # atno 10764 bound_to 10752
  154.8624  135.4273  154.2538 H   0  0  0  0  0  0  0  0  0  0  0  0  # atno 10765 bound_to 10752
  140.6681  133.9261  155.8477 H   0  0  0  0  0  0  0  0  0  0  0  0  # atno 11005 bound_to 11000
  144.7016  140.3676  143.7152 LP  0  0  0  0  0  0  0  0  0  0  0  0  # atno 17320 bound_to 7965
  145.7095  139.1681  143.2547 LP  0  0  0  0  0  0  0  0  0  0  0  0  # atno 17321 bound_to 7965
  140.1073  143.4732  152.2391 LP  0  0  0  0  0  0  0  0  0  0  0  0  # atno 17342 bound_to 10162
  139.5790  144.7501  151.3690 LP  0  0  0  0  0  0  0  0  0  0  0  0  # atno 17343 bound_to 10162
  157.6969  131.0791  150.6942 LP  0  0  0  0  0  0  0  0  0  0  0  0  # atno 17370 bound_to 10713
  156.6999  130.4620  149.5576 LP  0  0  0  0  0  0  0  0  0  0  0  0  # atno 17371 bound_to 10713
  141.0414  134.0616  157.3898 LP  0  0  0  0  0  0  0  0  0  0  0  0  # atno 17394 bound_to 11000
  139.8991  135.0157  156.7178 LP  0  0  0  0  0  0  0  0  0  0  0  0  # atno 17395 bound_to 11000

$$$$
