AV-unprocessed.smi:2032|AV-procd|sdf|8257|dock10
  -GOLD-   2272010533D 1   1.00000     0.00000
 Structure written by MMmdl.
 42 43  0  0  0  0  0  0  0  0  3 V2000
  148.9326  141.3108  154.3211 C   0  0  0  0  0  0  0  0  0  0  0  0
  149.4882  139.9025  154.0809 C   0  0  2  0  0  0  0  0  0  0  0  0
  148.6187  138.8161  154.7398 C   0  0  0  0  0  0  0  0  0  0  0  0
  149.2065  137.4581  154.5655 N   0  3  2  0  0  0  0  0  0  0  0  0
  148.3760  136.3657  155.1762 C   0  0  1  0  0  0  0  0  0  0  0  0
  148.1209  136.6210  156.6828 C   0  0  0  0  0  0  0  0  0  0  0  0
  147.0291  136.1627  154.4330 C   0  0  0  0  0  0  0  0  0  0  0  0
  147.1156  135.1324  153.4045 N   0  0  0  0  0  0  0  0  0  0  0  0
  146.3239  134.0559  153.3201 C   0  0  0  0  0  0  0  0  0  0  0  0
  145.4358  133.8803  154.1573 O   0  0  0  0  0  0  0  0  0  0  0  0
  146.6109  133.2539  152.2705 N   0  5  0  0  0  0  0  0  0  0  0  0
  145.6521  132.9346  151.3861 C   0  0  0  0  0  0  0  0  0  0  0  0
  144.3516  133.1538  151.6110 N   0  0  0  0  0  0  0  0  0  0  0  0
  143.5290  132.7370  150.5627 C   0  0  0  0  0  0  0  0  0  0  0  0
  144.2188  132.1797  149.5190 C   0  0  0  0  0  0  0  0  0  0  0  0
  145.9323  132.1613  149.8233 S   0  0  0  0  0  0  0  0  0  0  0  0
  150.6257  137.4687  155.0204 C   0  0  0  0  0  0  0  0  0  0  0  0
  151.4293  138.6044  154.3594 C   0  0  2  0  0  0  0  0  0  0  0  0
  152.8658  138.6796  154.8896 C   0  0  0  0  0  0  0  0  0  0  0  0
  150.7965  139.8463  154.6291 O   0  0  0  0  0  0  0  0  0  0  0  0
  147.9287  141.4135  153.9085 H   0  0  0  0  0  0  0  0  0  0  0  0
  149.5631  142.0643  153.8485 H   0  0  0  0  0  0  0  0  0  0  0  0
  148.8821  141.5401  155.3859 H   0  0  0  0  0  0  0  0  0  0  0  0
  149.5384  139.7314  153.0039 H   0  0  0  0  0  0  0  0  0  0  0  0
  148.4978  139.0241  155.8043 H   0  0  0  0  0  0  0  0  0  0  0  0
  147.6320  138.8748  154.2847 H   0  0  0  0  0  0  0  0  0  0  0  0
  148.9420  135.4368  155.0875 H   0  0  0  0  0  0  0  0  0  0  0  0
  147.4537  135.8793  157.1210 H   0  0  0  0  0  0  0  0  0  0  0  0
  147.6695  137.6000  156.8463 H   0  0  0  0  0  0  0  0  0  0  0  0
  149.0331  136.5628  157.2744 H   0  0  0  0  0  0  0  0  0  0  0  0
  146.2431  135.9059  155.1454 H   0  0  0  0  0  0  0  0  0  0  0  0
  146.7188  137.0684  153.9138 H   0  0  0  0  0  0  0  0  0  0  0  0
  147.8305  135.2401  152.7000 H   0  0  0  0  0  0  0  0  0  0  0  0
  142.4611  132.8740  150.6454 H   0  0  0  0  0  0  0  0  0  0  0  0
  143.8272  131.7797  148.5960 H   0  0  0  0  0  0  0  0  0  0  0  0
  150.6575  137.5640  156.1070 H   0  0  0  0  0  0  0  0  0  0  0  0
  151.1245  136.5374  154.7590 H   0  0  0  0  0  0  0  0  0  0  0  0
  151.4687  138.4460  153.2800 H   0  0  0  0  0  0  0  0  0  0  0  0
  153.4055  137.7521  154.6968 H   0  0  0  0  0  0  0  0  0  0  0  0
  152.8814  138.8585  155.9650 H   0  0  0  0  0  0  0  0  0  0  0  0
  153.4164  139.4893  154.4099 H   0  0  0  0  0  0  0  0  0  0  0  0
  149.2284  137.2784  153.5718 H   0  0  0  0  0  0  0  0  0  0  0  0
  1  2  1  0  0  0  0
  1 21  1  0  0  0  0
  1 22  1  0  0  0  0
  1 23  1  0  0  0  0
  2 20  1  0  0  0  0
  2  3  1  0  0  0  0
  2 24  1  0  0  0  0
  3  4  1  0  0  0  0
  3 25  1  0  0  0  0
  3 26  1  0  0  0  0
  4  5  1  0  0  0  0
  4 17  1  0  0  0  0
  4 42  1  0  0  0  0
  5  6  1  0  0  0  0
  5  7  1  0  0  0  0
  5 27  1  0  0  0  0
  6 28  1  0  0  0  0
  6 29  1  0  0  0  0
  6 30  1  0  0  0  0
  7  8  1  0  0  0  0
  7 31  1  0  0  0  0
  7 32  1  0  0  0  0
  8  9  1  0  0  0  0
  8 33  1  0  0  0  0
  9 10  2  0  0  0  0
  9 11  1  0  0  0  0
 11 12  1  0  0  0  0
 12 16  1  0  0  0  0
 12 13  2  0  0  0  0
 13 14  1  0  0  0  0
 14 15  2  0  0  0  0
 14 34  1  0  0  0  0
 15 16  1  0  0  0  0
 15 35  1  0  0  0  0
 17 18  1  0  0  0  0
 17 36  1  0  0  0  0
 17 37  1  0  0  0  0
 18 19  1  0  0  0  0
 18 20  1  0  0  0  0
 18 38  1  0  0  0  0
 19 39  1  0  0  0  0
 19 40  1  0  0  0  0
 19 41  1  0  0  0  0
M  CHG  1   4   1
M  CHG  1  11  -1
M  END
> <s_m_source_file>
AV-unprocessed.smi

> <i_m_source_file_index>
2032

> <i_lp_mmshare_version>
43012

> <i_f3d_flags>
0

> <s_epik_input>
W0NIM11bQ0BASF0xW0NIMl1OKFtDSDJdW0NASF0oTzEpW0NIM10pW0NASF0oW0NIM10pW0NIMl1bTkhdQyg9TylbTkhdYzJuW2NIXVtjSF1zMg==

> <s_epik_cmdline>
J2VwaWtfcHl0aG9uJywgJy1waCcsICc3LjAnLCAnLXRuJywgJzgnLCAnLW1hJywgJzIwMCcsICctbWV0YWxfYmluZGluZycsICctaW1hZScsICc8aW5maWxlLm1hZT4nLCAnLW9tYWUnLCAnPG91dGZpbGUubWFlPic=

> <r_lp_tautomer_probability>
0.999

> <r_epik_Ionization_Penalty>
6.71699

> <r_epik_Ionization_Penalty_Charging>
5.88592

> <r_epik_Ionization_Penalty_Neutral>
0.831074

> <r_epik_State_Penalty>
6.08365

> <r_epik_Charging_Adjusted_Penalty>
11.9696

> <i_epik_Tot_Q>
0

> <i_epik_Tot_abs_Q>
2

> <r_epik_Metal_State_Penalty>
2.0947

> <b_epik_Metal_Only>
1

> <s_lp_Force_Field>
OPLS_2005

> <r_lp_Energy>
10.3148

> <b_lp_Chiralities_Consistent>
1

> <s_lp_Variant>
AV-unprocessed.smi:2032-27

> <Gold.Version>
5.8.1

> <Gold.Id.Protein>
6NUR|6NUR_protein|mol2

> <Gold.PLP.Fitness>
45.2256

> <Gold.PLP.PLP>
-32.6422

> <Gold.PLP.part.hbond>
-3.0000

> <Gold.PLP.part.metal>
0.0000

> <Gold.PLP.part.buried>
-3.2869

> <Gold.PLP.part.nonpolar>
-27.2372

> <Gold.PLP.part.repulsive>
0.4191

> <Gold.PLP.ligand.clash>
0.0000

> <Gold.PLP.ligand.torsion>
1.1303

> <Gold.PLP.Chemscore.Hbond>
4.0000

> <Gold.PLP.Chemscore.CHOScore>
0.9177

> <Gold.PLP.Chemscore.Metal>
0.0000

> <Gold.Chemscore.Hbonds>
donor molecule, donor type, donor heavy atom, donor atom, acceptor molecule, acceptor atom, score
      L1  H     4    42       P1  7948  2.00
      L1  H     8    33       P1  7948  1.00
      P1  H  7989  7998       L1    20  1.00
      L1  C    14    34       P1 10186  1.00

> <Gold.PLP.Chemscore.Internal.Correction>
0.0909

> <Gold.Rescore>
     Score         DG    S(hbond)    S(metal)    S(lipo)     H(rot)  DE(clash)    DE(int)     intcor
     14.52     -17.37       1.96        0.00      80.14       1.58       0.41       2.44       ----

> <Gold.Chemscore.Fitness>
14.5189

> <Gold.Chemscore.DG>
-17.3693

> <Gold.Chemscore.ZeroCoef>
-5.4800

> <Gold.Chemscore.Hbond>
1.9628

> <Gold.Chemscore.Metal>
0.0000

> <Gold.Chemscore.Lipo>
80.1377

> <Gold.Chemscore.Internal_Hbond>
0.0000

> <Gold.Chemscore.DEClash>
0.4089

> <Gold.Chemscore.DEInternal>
2.4415

> <Gold.Chemscore.Rot>
1.5791

> <Gold.Chemscore.Internal.Correction>
   9.000000E+99

> <Gold.Chemscore.Hbonds>
donor molecule, donor type, donor heavy atom, donor atom, acceptor molecule, acceptor atom, score
      L1  H     4    42       P1  7948  0.95
      L1  H     8    33       P1  7948  0.96
      P1  H  7989  7998       L1    20  0.07

> <Gold.Chemscore.Hbond.Weighted>
-6.5557

> <Gold.Chemscore.Metal.Weighted>
-0.0000

> <Gold.Chemscore.Lipo.Weighted>
-9.3761

> <Gold.Chemscore.Internal_Hbond.Weighted>
0.0000

> <Gold.Chemscore.DEClash.Weighted>
0.4089

> <Gold.Chemscore.DEInternal.Weighted>
2.4415

> <Gold.Chemscore.Rot.Weighted>
4.0425

> <Gold.Chemscore.Internal.Correction.Weighted>
   9.000000E+99

> <Gold.Protein.RotatedTorsions>
[ 6907 6896 6895 6894 ] final -112.52 input  -60.11 | X-H torsion
[ 7974 7965 7964 7962 ] final  -51.11 input  175.53 | X-H torsion
[ 8008 7997 7996 7995 ] final   67.05 input   59.86 | X-H torsion
[ 10167 10162 10161 10158 ] final   92.90 input  -65.29 | X-H torsion
[ 10718 10713 10712 10709 ] final   68.85 input   66.30 | X-H torsion
[ 10763 10752 10751 10750 ] final  128.19 input  -60.55 | X-H torsion
[ 11005 11000 10999 10996 ] final   85.93 input  -57.11 | X-H torsion

> <Gold.Protein.ActiveResidues>
 VAL166  LYS551  ARG553  GLY616  TRP617  ASP618  TYR619  PRO620  LYS621  CYS622 
 ASP623  PHE694  ASN695  SER759  ASP760  ASP761  ALA762  ILE779  LEU786  VAL792 
 PHE793  MET794  SER795  GLU796  ALA797  LYS798  CYS799  TRP800  GLU811  SER814 

> <Gold.Protein.RotatedAtoms>
  150.7764  133.9077  159.3359 H   0  0  0  0  0  0  0  0  0  0  0  0  # atno 6907 bound_to 6896
  151.6951  135.0938  160.0250 H   0  0  0  0  0  0  0  0  0  0  0  0  # atno 6908 bound_to 6896
  152.3802  133.6497  159.6190 H   0  0  0  0  0  0  0  0  0  0  0  0  # atno 6909 bound_to 6896
  145.9226  140.7820  142.9640 H   0  0  0  0  0  0  0  0  0  0  0  0  # atno 7974 bound_to 7965
  155.6870  140.3496  155.4878 H   0  0  0  0  0  0  0  0  0  0  0  0  # atno 8008 bound_to 7997
  155.9558  140.1128  157.0961 H   0  0  0  0  0  0  0  0  0  0  0  0  # atno 8009 bound_to 7997
  154.4132  140.1185  156.5099 H   0  0  0  0  0  0  0  0  0  0  0  0  # atno 8010 bound_to 7997
  139.8232  144.6722  150.9493 H   0  0  0  0  0  0  0  0  0  0  0  0  # atno 10167 bound_to 10162
  157.6313  130.9395  150.0434 H   0  0  0  0  0  0  0  0  0  0  0  0  # atno 10718 bound_to 10713
  153.7216  135.3252  155.3267 H   0  0  0  0  0  0  0  0  0  0  0  0  # atno 10763 bound_to 10752
  154.8354  135.4501  154.1212 H   0  0  0  0  0  0  0  0  0  0  0  0  # atno 10764 bound_to 10752
  153.2334  135.6962  153.7944 H   0  0  0  0  0  0  0  0  0  0  0  0  # atno 10765 bound_to 10752
  139.8958  134.8321  156.2650 H   0  0  0  0  0  0  0  0  0  0  0  0  # atno 11005 bound_to 11000
  144.6754  140.1999  143.7388 LP  0  0  0  0  0  0  0  0  0  0  0  0  # atno 17320 bound_to 7965
  145.8531  139.2185  143.1760 LP  0  0  0  0  0  0  0  0  0  0  0  0  # atno 17321 bound_to 7965
  140.7812  143.4072  151.1052 LP  0  0  0  0  0  0  0  0  0  0  0  0  # atno 17342 bound_to 10162
  139.7731  143.8465  152.3124 LP  0  0  0  0  0  0  0  0  0  0  0  0  # atno 17343 bound_to 10162
  156.1518  130.3642  149.9427 LP  0  0  0  0  0  0  0  0  0  0  0  0  # atno 17370 bound_to 10713
  156.7445  130.9092  151.3634 LP  0  0  0  0  0  0  0  0  0  0  0  0  # atno 17371 bound_to 10713
  141.0137  133.7080  156.1154 LP  0  0  0  0  0  0  0  0  0  0  0  0  # atno 17394 bound_to 11000
  140.7331  134.4233  157.5563 LP  0  0  0  0  0  0  0  0  0  0  0  0  # atno 17395 bound_to 11000

$$$$
