#       Name:                AV-unprocessed.smi:1671
#       Creating user name   scv26
#       Creation time:       Fri Mar 27 07:43:15 2020


#       File generated by GOLD software.
#

@<TRIPOS>MOLECULE
AV-unprocessed.smi:1671
    50    51     1
SMALL
NO_CHARGES


@<TRIPOS>ATOM
      1 ****        -3.8489  -1.6306   0.3829 C.3            1 S1                 0.0000
      2 ****        -3.7882  -3.4363   0.5453 S.3            1 S1                 0.0000
      3 ****        -3.3553  -3.9277  -1.1509 C.3            1 S1                 0.0000
      4 ****        -3.6718  -5.4158  -1.3710 C.3            1 S1                 0.0000
      5 ****        -1.8900  -3.6135  -1.4774 C.2            1 S1                 0.0000
      6 ****        -0.9903  -4.3553  -1.0814 O.2            1 S1                 0.0000
      7 ****        -1.6646  -2.4949  -2.1849 N.am           1 S1                 0.0000
      8 ****        -0.3540  -1.9701  -2.5555 C.3            1 S1                 0.0000
      9 ****         0.1279  -0.8539  -1.6416 C.ar           1 S1                 0.0000
     10 ****         0.6439   0.3404  -2.1818 C.ar           1 S1                 0.0000
     11 ****         1.0802   1.3549  -1.3086 C.ar           1 S1                 0.0000
     12 ****         0.9963   1.1474   0.0890 C.ar           1 S1                 0.0000
     13 ****         1.4241   2.1521   0.9844 N.3            1 S1                 0.0000
     14 ****         1.0925   1.9965   2.3994 C.3            1 S1                 0.0000
     15 ****         1.3715   3.3024   3.1613 C.3            1 S1                 0.0000
     16 ****         2.7215   3.7011   2.9497 O.3            1 S1                 0.0000
     17 ****         2.9956   3.9595   1.5754 C.3            1 S1                 0.0000
     18 ****         4.4357   4.4698   1.4600 C.3            1 S1                 0.0000
     19 ****         2.7714   2.6705   0.7608 C.3            1 S1                 0.0000
     20 ****         0.5013  -0.0049   0.6050 N.ar           1 S1                 0.0000
     21 ****         0.0867  -0.9749  -0.2364 C.ar           1 S1                 0.0000
     22 ****        -4.1517  -1.1808   1.3284 H              1 S1                 0.0000
     23 ****        -4.5679  -1.3402  -0.3829 H              1 S1                 0.0000
     24 ****        -2.8715  -1.2315   0.1143 H              1 S1                 0.0000
     25 ****        -3.9932  -3.3556  -1.8264 H              1 S1                 0.0000
     26 ****        -3.4062  -5.7343  -2.3799 H              1 S1                 0.0000
     27 ****        -4.7366  -5.6088  -1.2377 H              1 S1                 0.0000
     28 ****        -3.1323  -6.0509  -0.6671 H              1 S1                 0.0000
     29 ****        -2.4657  -1.9491  -2.4672 H              1 S1                 0.0000
     30 ****         0.3983  -2.7602  -2.5731 H              1 S1                 0.0000
     31 ****        -0.4254  -1.5969  -3.5775 H              1 S1                 0.0000
     32 ****         0.6987   0.4857  -3.2508 H              1 S1                 0.0000
     33 ****         1.4554   2.2803  -1.7191 H              1 S1                 0.0000
     34 ****         0.0416   1.7287   2.5153 H              1 S1                 0.0000
     35 ****         1.6858   1.1843   2.8219 H              1 S1                 0.0000
     36 ****         0.6918   4.0936   2.8406 H              1 S1                 0.0000
     37 ****         1.2074   3.1561   4.2289 H              1 S1                 0.0000
     38 ****         2.3220   4.7404   1.2177 H              1 S1                 0.0000
     39 ****         4.6895   4.6962   0.4242 H              1 S1                 0.0000
     40 ****         5.1474   3.7291   1.8256 H              1 S1                 0.0000
     41 ****         4.5742   5.3808   2.0426 H              1 S1                 0.0000
     42 ****         3.4922   1.9075   1.0580 H              1 S1                 0.0000
     43 ****         2.9516   2.8815  -0.2923 H              1 S1                 0.0000
     44 ****        -0.2904  -1.8711   0.2330 H              1 S1                 0.0000
     45 ****        -1.2130  -5.1683  -0.5434 LP             1 S1                 0.0000
     46 ****        -0.0370  -4.1447  -1.2978 LP             1 S1                 0.0000
     47 ****         0.8044   2.8831   0.6987 LP             1 S1                 0.0000
     48 ****         3.3267   2.9712   3.2674 LP             1 S1                 0.0000
     49 ****         2.8981   4.5331   3.4756 LP             1 S1                 0.0000
     50 ****         0.4443  -0.1339   1.5950 LP             1 S1                 0.0000
@<TRIPOS>BOND
    1    1    2 1     
    2    1   22 1     
    3    1   23 1     
    4    1   24 1     
    5    2    3 1     
    6    3    4 1     
    7    3    5 1     
    8    3   25 1     
    9    4   26 1     
   10    4   27 1     
   11    4   28 1     
   12    5    6 2     
   13    5    7 am    
   14    7    8 1     
   15    7   29 1     
   16    8    9 1     
   17    8   30 1     
   18    8   31 1     
   19    9   21 ar    
   20    9   10 ar    
   21   10   11 ar    
   22   10   32 1     
   23   11   12 ar    
   24   11   33 1     
   25   12   13 1     
   26   12   20 ar    
   27   13   19 1     
   28   13   14 1     
   29   14   15 1     
   30   14   34 1     
   31   14   35 1     
   32   15   16 1     
   33   15   36 1     
   34   15   37 1     
   35   16   17 1     
   36   17   18 1     
   37   17   19 1     
   38   17   38 1     
   39   18   39 1     
   40   18   40 1     
   41   18   41 1     
   42   19   42 1     
   43   19   43 1     
   44   20   21 ar    
   45   21   44 1     
   46    6   45 1     
   47    6   46 1     
   48   13   47 1     
   49   16   48 1     
   50   16   49 1     
   51   20   50 1     
@<TRIPOS>SUBSTRUCTURE
      1 S1             1
@<TRIPOS>SET
LONE_PAIRS      STATIC     ATOMS    <user>   **** ""
6 45 46 47 48 49 50
DONOR_HYDROGENS      STATIC     ATOMS    <user>   **** ""
1 29
ATOM$BLUE        STATIC     ATOMS    COLORGROUP SYSTEM
6 45 46 47 48 49 50
ATOM$RED        STATIC     ATOMS    COLORGROUP SYSTEM
1 29
