AV-unprocessed.smi:1078|AV-procd|sdf|4703|dock1
  -GOLD-   22720 3223D 1   1.00000     0.00000
 Structure written by MMmdl.
 40 41  0  0  0  0  0  0  0  0  2 V2000
  147.9009  141.3006  157.1178 C   0  0  0  0  0  0  0  0  0  0  0  0
  149.3770  141.3897  156.6940 C   0  0  1  0  0  0  0  0  0  0  0  0
  149.5787  141.1234  155.1834 C   0  0  0  0  0  0  0  0  0  0  0  0
  150.4663  140.0065  154.9129 N   0  0  0  0  0  0  0  0  0  0  0  0
  151.7469  139.7940  155.3795 C   0  0  0  0  0  0  0  0  0  0  0  0
  152.1741  138.6039  154.8642 C   0  0  0  0  0  0  0  0  0  0  0  0
  151.0676  138.1527  154.0915 C   0  0  0  0  0  0  0  0  0  0  0  0
  150.0452  138.9923  154.1264 N   0  0  0  0  0  0  0  0  0  0  0  0
  149.9135  142.7135  157.0817 N   0  3  0  0  0  0  0  0  0  0  0  0
  151.3731  142.8847  156.9177 C   0  0  0  0  0  0  0  0  0  0  0  0
  152.0117  143.5018  158.1757 C   0  0  0  0  0  0  0  0  0  0  0  0
  152.0705  142.4743  159.3247 C   0  0  0  0  0  0  0  0  0  0  0  0
  152.7067  143.0711  160.5907 C   0  0  0  0  0  0  0  0  0  0  0  0
  151.9648  144.3379  161.0421 C   0  0  0  0  0  0  0  0  0  0  0  0
  151.8975  145.3717  159.9081 C   0  0  0  0  0  0  0  0  0  0  0  0
  151.2643  144.7710  158.6426 C   0  0  0  0  0  0  0  0  0  0  0  0
  147.4927  140.3034  156.9508 H   0  0  0  0  0  0  0  0  0  0  0  0
  147.2859  142.0094  156.5623 H   0  0  0  0  0  0  0  0  0  0  0  0
  147.7840  141.5194  158.1798 H   0  0  0  0  0  0  0  0  0  0  0  0
  149.9216  140.6332  157.2614 H   0  0  0  0  0  0  0  0  0  0  0  0
  148.6185  140.9183  154.7079 H   0  0  0  0  0  0  0  0  0  0  0  0
  149.9923  142.0003  154.6850 H   0  0  0  0  0  0  0  0  0  0  0  0
  152.2438  140.4989  156.0298 H   0  0  0  0  0  0  0  0  0  0  0  0
  153.1308  138.1266  155.0181 H   0  0  0  0  0  0  0  0  0  0  0  0
  150.9773  137.2458  153.5118 H   0  0  0  0  0  0  0  0  0  0  0  0
  149.4337  143.4305  156.5562 H   0  0  0  0  0  0  0  0  0  0  0  0
  151.8377  141.9232  156.6944 H   0  0  0  0  0  0  0  0  0  0  0  0
  151.5581  143.5340  156.0620 H   0  0  0  0  0  0  0  0  0  0  0  0
  153.0387  143.7792  157.9315 H   0  0  0  0  0  0  0  0  0  0  0  0
  151.0644  142.1215  159.5567 H   0  0  0  0  0  0  0  0  0  0  0  0
  152.6397  141.5973  159.0143 H   0  0  0  0  0  0  0  0  0  0  0  0
  152.7009  142.3324  161.3928 H   0  0  0  0  0  0  0  0  0  0  0  0
  153.7535  143.3096  160.3974 H   0  0  0  0  0  0  0  0  0  0  0  0
  150.9544  144.0766  161.3592 H   0  0  0  0  0  0  0  0  0  0  0  0
  152.4603  144.7701  161.9119 H   0  0  0  0  0  0  0  0  0  0  0  0
  151.3253  146.2411  160.2331 H   0  0  0  0  0  0  0  0  0  0  0  0
  152.9020  145.7307  159.6801 H   0  0  0  0  0  0  0  0  0  0  0  0
  151.2623  145.5234  157.8536 H   0  0  0  0  0  0  0  0  0  0  0  0
  150.2186  144.5313  158.8408 H   0  0  0  0  0  0  0  0  0  0  0  0
  149.7083  142.8466  158.0618 H   0  0  0  0  0  0  0  0  0  0  0  0
  1  2  1  0  0  0  0
  1 17  1  0  0  0  0
  1 18  1  0  0  0  0
  1 19  1  0  0  0  0
  2  3  1  0  0  0  0
  2  9  1  0  0  0  0
  2 20  1  0  0  0  0
  3  4  1  0  0  0  0
  3 21  1  0  0  0  0
  3 22  1  0  0  0  0
  4  8  1  0  0  0  0
  4  5  1  0  0  0  0
  5  6  2  0  0  0  0
  5 23  1  0  0  0  0
  6  7  1  0  0  0  0
  6 24  1  0  0  0  0
  7  8  2  0  0  0  0
  7 25  1  0  0  0  0
  9 10  1  0  0  0  0
  9 26  1  0  0  0  0
  9 40  1  0  0  0  0
 10 11  1  0  0  0  0
 10 27  1  0  0  0  0
 10 28  1  0  0  0  0
 11 16  1  0  0  0  0
 11 12  1  0  0  0  0
 11 29  1  0  0  0  0
 12 13  1  0  0  0  0
 12 30  1  0  0  0  0
 12 31  1  0  0  0  0
 13 14  1  0  0  0  0
 13 32  1  0  0  0  0
 13 33  1  0  0  0  0
 14 15  1  0  0  0  0
 14 34  1  0  0  0  0
 14 35  1  0  0  0  0
 15 16  1  0  0  0  0
 15 36  1  0  0  0  0
 15 37  1  0  0  0  0
 16 38  1  0  0  0  0
 16 39  1  0  0  0  0
M  CHG  1   9   1
M  END
> <s_m_source_file>
AV-unprocessed.smi

> <i_m_source_file_index>
1078

> <i_lp_mmshare_version>
43012

> <i_f3d_flags>
0

> <s_epik_input>
bjFbY0hdW2NIXVtjSF1uMVtDSDJdW0NAQEhdKFtDSDNdKVtOSF1bQ0gyXVtDSF0yW0NIMl1bQ0gyXVtDSDJdW0NIMl1bQ0gyXTI=

> <s_epik_cmdline>
J2VwaWtfcHl0aG9uJywgJy1waCcsICc3LjAnLCAnLXRuJywgJzgnLCAnLW1hJywgJzIwMCcsICctbWV0YWxfYmluZGluZycsICctaW1hZScsICc8aW5maWxlLm1hZT4nLCAnLW9tYWUnLCAnPG91dGZpbGUubWFlPic=

> <r_lp_tautomer_probability>
1

> <r_epik_Ionization_Penalty>
0.00174474

> <r_epik_Ionization_Penalty_Charging>
0.00174052

> <r_epik_Ionization_Penalty_Neutral>
4.21324e-06

> <r_epik_State_Penalty>
0.00117783

> <r_epik_Charging_Adjusted_Penalty>
0.00291835

> <i_epik_Tot_Q>
1

> <i_epik_Tot_abs_Q>
1

> <r_epik_Metal_State_Penalty>
-0

> <b_epik_Metal_Only>
0

> <s_lp_Force_Field>
OPLS_2005

> <r_lp_Energy>
15.419

> <b_lp_Chiralities_Consistent>
1

> <s_lp_Variant>
AV-unprocessed.smi:1078-2

> <Gold.Version>
5.8.1

> <Gold.Id.Protein>
6NUR|6NUR_protein|mol2

> <Gold.PLP.Fitness>
49.5527

> <Gold.PLP.PLP>
-42.5550

> <Gold.PLP.part.hbond>
-1.0000

> <Gold.PLP.part.metal>
0.0000

> <Gold.PLP.part.buried>
-4.2148

> <Gold.PLP.part.nonpolar>
-37.8798

> <Gold.PLP.part.repulsive>
0.2123

> <Gold.PLP.ligand.clash>
0.0000

> <Gold.PLP.ligand.torsion>
1.2037

> <Gold.PLP.Chemscore.Hbond>
2.0000

> <Gold.PLP.Chemscore.CHOScore>
1.1243

> <Gold.PLP.Chemscore.Metal>
0.0000

> <Gold.Chemscore.Hbonds>
donor molecule, donor type, donor heavy atom, donor atom, acceptor molecule, acceptor atom, score
      L1  H     9    26       P1  8028  2.00
      L1  C     7    25       P1  7948  0.10
      L1  C     7    25       P1  7949  1.00

> <Gold.PLP.Chemscore.Internal.Correction>
0.0324

> <Gold.Rescore>
     Score         DG    S(hbond)    S(metal)    S(lipo)     H(rot)  DE(clash)    DE(int)     intcor
     17.41     -18.84       0.99        0.00     119.47       1.54       0.21       1.22       ----

> <Gold.Chemscore.Fitness>
17.4142

> <Gold.Chemscore.DG>
-18.8373

> <Gold.Chemscore.ZeroCoef>
-5.4800

> <Gold.Chemscore.Hbond>
0.9928

> <Gold.Chemscore.Metal>
0.0000

> <Gold.Chemscore.Lipo>
119.4712

> <Gold.Chemscore.Internal_Hbond>
0.0000

> <Gold.Chemscore.DEClash>
0.2051

> <Gold.Chemscore.DEInternal>
1.2180

> <Gold.Chemscore.Rot>
1.5378

> <Gold.Chemscore.Internal.Correction>
   9.000000E+99

> <Gold.Chemscore.Hbonds>
donor molecule, donor type, donor heavy atom, donor atom, acceptor molecule, acceptor atom, score
      L1  H     9    26       P1  8028  1.00

> <Gold.Chemscore.Hbond.Weighted>
-3.3159

> <Gold.Chemscore.Metal.Weighted>
-0.0000

> <Gold.Chemscore.Lipo.Weighted>
-13.9781

> <Gold.Chemscore.Internal_Hbond.Weighted>
0.0000

> <Gold.Chemscore.DEClash.Weighted>
0.2051

> <Gold.Chemscore.DEInternal.Weighted>
1.2180

> <Gold.Chemscore.Rot.Weighted>
3.9368

> <Gold.Chemscore.Internal.Correction.Weighted>
   9.000000E+99

> <Gold.Protein.RotatedTorsions>
[ 6907 6896 6895 6894 ] final  -81.12 input  -60.11 | X-H torsion
[ 7974 7965 7964 7962 ] final   67.65 input  175.53 | X-H torsion
[ 8008 7997 7996 7995 ] final  131.24 input   59.86 | X-H torsion
[ 10167 10162 10161 10158 ] final   37.96 input  -65.29 | X-H torsion
[ 10718 10713 10712 10709 ] final   -6.90 input   66.30 | X-H torsion
[ 10763 10752 10751 10750 ] final -158.73 input  -60.55 | X-H torsion
[ 11005 11000 10999 10996 ] final   39.31 input  -57.11 | X-H torsion

> <Gold.Protein.ActiveResidues>
 VAL166  LYS551  ARG553  GLY616  TRP617  ASP618  TYR619  PRO620  LYS621  CYS622 
 ASP623  PHE694  ASN695  SER759  ASP760  ASP761  ALA762  ILE779  LEU786  VAL792 
 PHE793  MET794  SER795  GLU796  ALA797  LYS798  CYS799  TRP800  GLU811  SER814 

> <Gold.Protein.RotatedAtoms>
  150.6917  134.3865  159.5057 H   0  0  0  0  0  0  0  0  0  0  0  0  # atno 6907 bound_to 6896
  152.1660  134.8871  160.0547 H   0  0  0  0  0  0  0  0  0  0  0  0  # atno 6908 bound_to 6896
  151.9915  133.3758  159.4183 H   0  0  0  0  0  0  0  0  0  0  0  0  # atno 6909 bound_to 6896
  145.8121  139.3038  143.1093 H   0  0  0  0  0  0  0  0  0  0  0  0  # atno 7974 bound_to 7965
  156.2967  140.2576  156.2892 H   0  0  0  0  0  0  0  0  0  0  0  0  # atno 8008 bound_to 7997
  154.9526  140.0394  157.2170 H   0  0  0  0  0  0  0  0  0  0  0  0  # atno 8009 bound_to 7997
  154.8022  140.2830  155.5918 H   0  0  0  0  0  0  0  0  0  0  0  0  # atno 8010 bound_to 7997
  140.3982  144.1759  150.6133 H   0  0  0  0  0  0  0  0  0  0  0  0  # atno 10167 bound_to 10162
  156.7252  130.5163  149.5858 H   0  0  0  0  0  0  0  0  0  0  0  0  # atno 10718 bound_to 10713
  154.7532  135.3098  154.8518 H   0  0  0  0  0  0  0  0  0  0  0  0  # atno 10763 bound_to 10752
  153.9299  135.6786  153.4750 H   0  0  0  0  0  0  0  0  0  0  0  0  # atno 10764 bound_to 10752
  153.1129  135.4858  154.8995 H   0  0  0  0  0  0  0  0  0  0  0  0  # atno 10765 bound_to 10752
  140.2040  134.3836  155.8082 H   0  0  0  0  0  0  0  0  0  0  0  0  # atno 11005 bound_to 11000
  145.9766  140.8717  143.0135 LP  0  0  0  0  0  0  0  0  0  0  0  0  # atno 17320 bound_to 7965
  144.6756  140.2021  143.7386 LP  0  0  0  0  0  0  0  0  0  0  0  0  # atno 17321 bound_to 7965
  140.4767  143.2393  151.9012 LP  0  0  0  0  0  0  0  0  0  0  0  0  # atno 17342 bound_to 10162
  139.4786  144.5312  151.8663 LP  0  0  0  0  0  0  0  0  0  0  0  0  # atno 17343 bound_to 10162
  156.1567  130.6346  151.0666 LP  0  0  0  0  0  0  0  0  0  0  0  0  # atno 17370 bound_to 10713
  157.6882  131.0818  150.7184 LP  0  0  0  0  0  0  0  0  0  0  0  0  # atno 17371 bound_to 10713
  141.2227  133.7108  156.8306 LP  0  0  0  0  0  0  0  0  0  0  0  0  # atno 17394 bound_to 11000
  140.2023  134.8888  157.3183 LP  0  0  0  0  0  0  0  0  0  0  0  0  # atno 17395 bound_to 11000

$$$$
