AV-unprocessed.smi:1839|AV-procd|sdf|7487|dock8
  -GOLD-   22720 9183D 1   1.00000     0.00000
 Structure written by MMmdl.
 47 48  0  0  0  0  0  0  0  0  2 V2000
  147.0601  134.7262  162.8305 C   0  0  0  0  0  0  0  0  0  0  0  0
  147.0582  135.0878  161.4129 N   0  0  0  0  0  0  0  0  0  0  0  0
  145.9280  134.5374  160.6547 C   0  0  0  0  0  0  0  0  0  0  0  0
  147.8622  136.0815  160.9589 C   0  0  0  0  0  0  0  0  0  0  0  0
  148.3623  136.9146  161.7173 O   0  0  0  0  0  0  0  0  0  0  0  0
  148.0536  136.1286  159.6190 N   0  0  0  0  0  0  0  0  0  0  0  0
  148.2551  134.9241  158.8005 C   0  0  0  0  0  0  0  0  0  0  0  0
  147.4833  135.0649  157.4771 C   0  0  0  0  0  0  0  0  0  0  0  0
  147.9003  136.3457  156.7339 C   0  0  0  0  0  0  0  0  0  0  0  0
  147.8124  137.5840  157.6534 C   0  0  2  0  0  0  0  0  0  0  0  0
  148.3368  138.8411  156.9480 C   0  0  0  0  0  0  0  0  0  0  0  0
  147.5822  139.5292  156.2597 O   0  0  0  0  0  0  0  0  0  0  0  0
  149.6369  139.1265  157.1198 N   0  0  0  0  0  0  0  0  0  0  0  0
  150.3289  140.2614  156.5212 C   0  0  0  0  0  0  0  0  0  0  0  0
  149.7816  141.6004  157.0451 C   0  0  0  0  0  0  0  0  0  0  0  0
  150.8562  142.4367  157.7111 C   0  0  0  0  0  0  0  0  0  0  0  0
  151.6433  141.9389  158.7718 C   0  0  0  0  0  0  0  0  0  0  0  0
  152.6346  142.7657  159.3410 C   0  0  0  0  0  0  0  0  0  0  0  0
  152.8177  144.0704  158.8375 C   0  0  0  0  0  0  0  0  0  0  0  0
  152.0043  144.5157  157.7754 C   0  0  0  0  0  0  0  0  0  0  0  0
  151.0659  143.6934  157.2565 N   0  3  0  0  0  0  0  0  0  0  0  0
  148.5857  137.3303  158.9666 C   0  0  0  0  0  0  0  0  0  0  0  0
  148.0695  134.7356  163.2456 H   0  0  0  0  0  0  0  0  0  0  0  0
  146.6612  133.7222  162.9817 H   0  0  0  0  0  0  0  0  0  0  0  0
  146.4483  135.4252  163.4022 H   0  0  0  0  0  0  0  0  0  0  0  0
  145.5607  135.2318  159.8974 H   0  0  0  0  0  0  0  0  0  0  0  0
  145.0838  134.3180  161.3096 H   0  0  0  0  0  0  0  0  0  0  0  0
  146.2125  133.6079  160.1619 H   0  0  0  0  0  0  0  0  0  0  0  0
  149.3209  134.8083  158.5979 H   0  0  0  0  0  0  0  0  0  0  0  0
  147.9536  134.0113  159.3150 H   0  0  0  0  0  0  0  0  0  0  0  0
  147.6597  134.1936  156.8459 H   0  0  0  0  0  0  0  0  0  0  0  0
  146.4115  135.0903  157.6760 H   0  0  0  0  0  0  0  0  0  0  0  0
  148.9217  136.2224  156.3699 H   0  0  0  0  0  0  0  0  0  0  0  0
  147.2729  136.4816  155.8523 H   0  0  0  0  0  0  0  0  0  0  0  0
  146.7619  137.7426  157.9053 H   0  0  0  0  0  0  0  0  0  0  0  0
  150.1848  138.5107  157.7034 H   0  0  0  0  0  0  0  0  0  0  0  0
  151.4007  140.1848  156.7124 H   0  0  0  0  0  0  0  0  0  0  0  0
  150.2014  140.2026  155.4399 H   0  0  0  0  0  0  0  0  0  0  0  0
  149.3436  142.1721  156.2256 H   0  0  0  0  0  0  0  0  0  0  0  0
  148.9773  141.4283  157.7616 H   0  0  0  0  0  0  0  0  0  0  0  0
  151.4925  140.9356  159.1436 H   0  0  0  0  0  0  0  0  0  0  0  0
  153.2474  142.4027  160.1531 H   0  0  0  0  0  0  0  0  0  0  0  0
  153.5715  144.7194  159.2592 H   0  0  0  0  0  0  0  0  0  0  0  0
  152.0757  145.4965  157.3286 H   0  0  0  0  0  0  0  0  0  0  0  0
  148.4918  138.2066  159.6118 H   0  0  0  0  0  0  0  0  0  0  0  0
  149.6523  137.1968  158.7770 H   0  0  0  0  0  0  0  0  0  0  0  0
  150.4887  144.0355  156.4877 H   0  0  0  0  0  0  0  0  0  0  0  0
  1  2  1  0  0  0  0
  1 23  1  0  0  0  0
  1 24  1  0  0  0  0
  1 25  1  0  0  0  0
  2  3  1  0  0  0  0
  2  4  1  0  0  0  0
  3 26  1  0  0  0  0
  3 27  1  0  0  0  0
  3 28  1  0  0  0  0
  4  5  2  0  0  0  0
  4  6  1  0  0  0  0
  6 22  1  0  0  0  0
  6  7  1  0  0  0  0
  7  8  1  0  0  0  0
  7 29  1  0  0  0  0
  7 30  1  0  0  0  0
  8  9  1  0  0  0  0
  8 31  1  0  0  0  0
  8 32  1  0  0  0  0
  9 10  1  0  0  0  0
  9 33  1  0  0  0  0
  9 34  1  0  0  0  0
 10 11  1  0  0  0  0
 10 22  1  0  0  0  0
 10 35  1  0  0  0  0
 11 12  2  0  0  0  0
 11 13  1  0  0  0  0
 13 14  1  0  0  0  0
 13 36  1  0  0  0  0
 14 15  1  0  0  0  0
 14 37  1  0  0  0  0
 14 38  1  0  0  0  0
 15 16  1  0  0  0  0
 15 39  1  0  0  0  0
 15 40  1  0  0  0  0
 16 21  1  0  0  0  0
 16 17  2  0  0  0  0
 17 18  1  0  0  0  0
 17 41  1  0  0  0  0
 18 19  2  0  0  0  0
 18 42  1  0  0  0  0
 19 20  1  0  0  0  0
 19 43  1  0  0  0  0
 20 21  2  0  0  0  0
 20 44  1  0  0  0  0
 21 47  1  0  0  0  0
 22 45  1  0  0  0  0
 22 46  1  0  0  0  0
M  CHG  1  21   1
M  END
> <s_m_source_file>
AV-unprocessed.smi

> <i_m_source_file_index>
1839

> <i_lp_mmshare_version>
43012

> <i_f3d_flags>
0

> <s_epik_input>
W0NIM11OKFtDSDNdKUMoPU8pTjFbQ0gyXVtDSDJdW0NIMl1bQ0BIXShbQ0gyXTEpQyg9TylbTkhdW0NIMl1bQ0gyXWMyW2NIXVtjSF1bY0hdW2NIXW4y

> <s_epik_cmdline>
J2VwaWtfcHl0aG9uJywgJy1waCcsICc3LjAnLCAnLXRuJywgJzgnLCAnLW1hJywgJzIwMCcsICctbWV0YWxfYmluZGluZycsICctaW1hZScsICc8aW5maWxlLm1hZT4nLCAnLW9tYWUnLCAnPG91dGZpbGUubWFlPic=

> <r_epik_Ionization_Penalty>
1.8476

> <r_epik_Ionization_Penalty_Charging>
1.84754

> <r_epik_Ionization_Penalty_Neutral>
5.83857e-05

> <r_epik_State_Penalty>
1.96477

> <r_epik_Charging_Adjusted_Penalty>
3.81231

> <i_epik_Tot_Q>
1

> <i_epik_Tot_abs_Q>
1

> <r_epik_Metal_State_Penalty>
1.99061

> <b_epik_Metal_Only>
0

> <s_lp_Force_Field>
OPLS_2005

> <r_lp_Energy>
52.6854

> <b_lp_Chiralities_Consistent>
1

> <s_lp_Variant>
AV-unprocessed.smi:1839-4

> <Gold.Version>
5.8.1

> <Gold.Id.Protein>
6NUR|6NUR_protein|mol2

> <Gold.PLP.Fitness>
43.9796

> <Gold.PLP.PLP>
-37.2234

> <Gold.PLP.part.hbond>
-2.3199

> <Gold.PLP.part.metal>
0.0000

> <Gold.PLP.part.buried>
-5.3726

> <Gold.PLP.part.nonpolar>
-30.5785

> <Gold.PLP.part.repulsive>
0.0325

> <Gold.PLP.ligand.clash>
0.0000

> <Gold.PLP.ligand.torsion>
1.7927

> <Gold.PLP.Chemscore.Hbond>
3.0000

> <Gold.PLP.Chemscore.CHOScore>
0.0000

> <Gold.PLP.Chemscore.Metal>
0.0000

> <Gold.Chemscore.Hbonds>
donor molecule, donor type, donor heavy atom, donor atom, acceptor molecule, acceptor atom, score
      L1  H    21    47       P1  8028  2.00
      P1  H  6931  6943       L1     5  0.93

> <Gold.PLP.Chemscore.Internal.Correction>
1.3416

> <Gold.Rescore>
     Score         DG    S(hbond)    S(metal)    S(lipo)     H(rot)  DE(clash)    DE(int)     intcor
     16.72     -18.63       1.99        0.00      90.81       1.60       0.01       1.90       ----

> <Gold.Chemscore.Fitness>
16.7229

> <Gold.Chemscore.DG>
-18.6341

> <Gold.Chemscore.ZeroCoef>
-5.4800

> <Gold.Chemscore.Hbond>
1.9876

> <Gold.Chemscore.Metal>
0.0000

> <Gold.Chemscore.Lipo>
90.8057

> <Gold.Chemscore.Internal_Hbond>
0.0000

> <Gold.Chemscore.DEClash>
0.0149

> <Gold.Chemscore.DEInternal>
1.8963

> <Gold.Chemscore.Rot>
1.6049

> <Gold.Chemscore.Internal.Correction>
   9.000000E+99

> <Gold.Chemscore.Hbonds>
donor molecule, donor type, donor heavy atom, donor atom, acceptor molecule, acceptor atom, score
      L1  H    21    47       P1  8028  0.98
      P1  H  6931  6943       L1     5  0.89

> <Gold.Chemscore.Hbond.Weighted>
-6.6385

> <Gold.Chemscore.Metal.Weighted>
-0.0000

> <Gold.Chemscore.Lipo.Weighted>
-10.6243

> <Gold.Chemscore.Internal_Hbond.Weighted>
0.0000

> <Gold.Chemscore.DEClash.Weighted>
0.0149

> <Gold.Chemscore.DEInternal.Weighted>
1.8963

> <Gold.Chemscore.Rot.Weighted>
4.1087

> <Gold.Chemscore.Internal.Correction.Weighted>
   9.000000E+99

> <Gold.Protein.RotatedTorsions>
[ 6907 6896 6895 6894 ] final  172.33 input  -60.11 | X-H torsion
[ 7974 7965 7964 7962 ] final -140.23 input  175.53 | X-H torsion
[ 8008 7997 7996 7995 ] final  -67.30 input   59.86 | X-H torsion
[ 10167 10162 10161 10158 ] final   88.64 input  -65.29 | X-H torsion
[ 10718 10713 10712 10709 ] final  100.79 input   66.30 | X-H torsion
[ 10763 10752 10751 10750 ] final -172.59 input  -60.55 | X-H torsion
[ 11005 11000 10999 10996 ] final  -61.34 input  -57.11 | X-H torsion

> <Gold.Protein.ActiveResidues>
 VAL166  LYS551  ARG553  GLY616  TRP617  ASP618  TYR619  PRO620  LYS621  CYS622 
 ASP623  PHE694  ASN695  SER759  ASP760  ASP761  ALA762  ILE779  LEU786  VAL792 
 PHE793  MET794  SER795  GLU796  ALA797  LYS798  CYS799  TRP800  GLU811  SER814 

> <Gold.Protein.RotatedAtoms>
  151.7860  133.3354  159.3484 H   0  0  0  0  0  0  0  0  0  0  0  0  # atno 6907 bound_to 6896
  150.7409  134.5887  159.5985 H   0  0  0  0  0  0  0  0  0  0  0  0  # atno 6908 bound_to 6896
  152.3243  134.7342  160.0357 H   0  0  0  0  0  0  0  0  0  0  0  0  # atno 6909 bound_to 6896
  144.8614  140.6225  143.5326 H   0  0  0  0  0  0  0  0  0  0  0  0  # atno 7974 bound_to 7965
  154.4791  140.0895  156.7333 H   0  0  0  0  0  0  0  0  0  0  0  0  # atno 8008 bound_to 7997
  155.4518  140.3457  155.4283 H   0  0  0  0  0  0  0  0  0  0  0  0  # atno 8009 bound_to 7997
  156.1163  140.1461  156.9256 H   0  0  0  0  0  0  0  0  0  0  0  0  # atno 8010 bound_to 7997
  139.8652  144.6522  150.9012 H   0  0  0  0  0  0  0  0  0  0  0  0  # atno 10167 bound_to 10162
  157.6845  131.0708  150.5154 H   0  0  0  0  0  0  0  0  0  0  0  0  # atno 10718 bound_to 10713
  154.6175  135.2871  155.0363 H   0  0  0  0  0  0  0  0  0  0  0  0  # atno 10763 bound_to 10752
  154.1570  135.6494  153.4981 H   0  0  0  0  0  0  0  0  0  0  0  0  # atno 10764 bound_to 10752
  153.0221  135.5369  154.6952 H   0  0  0  0  0  0  0  0  0  0  0  0  # atno 10765 bound_to 10752
  141.1321  133.6629  156.5360 H   0  0  0  0  0  0  0  0  0  0  0  0  # atno 11005 bound_to 11000
  145.4305  139.1550  143.4025 LP  0  0  0  0  0  0  0  0  0  0  0  0  # atno 17320 bound_to 7965
  146.2863  140.4421  142.8756 LP  0  0  0  0  0  0  0  0  0  0  0  0  # atno 17321 bound_to 7965
  140.7769  143.3710  151.1649 LP  0  0  0  0  0  0  0  0  0  0  0  0  # atno 17342 bound_to 10162
  139.7336  143.9034  152.3027 LP  0  0  0  0  0  0  0  0  0  0  0  0  # atno 17343 bound_to 10162
  156.5470  130.4222  149.6126 LP  0  0  0  0  0  0  0  0  0  0  0  0  # atno 17370 bound_to 10713
  156.2936  130.7138  151.1992 LP  0  0  0  0  0  0  0  0  0  0  0  0  # atno 17371 bound_to 10713
  140.4177  134.7215  157.4872 LP  0  0  0  0  0  0  0  0  0  0  0  0  # atno 17394 bound_to 11000
  140.0382  134.6307  155.9016 LP  0  0  0  0  0  0  0  0  0  0  0  0  # atno 17395 bound_to 11000

$$$$
