AV-unprocessed.smi:50|AV-procd|sdf|491|dock3
  -GOLD-   2262016353D 1   1.00000     0.00000
 Structure written by MMmdl.
 44 45  0  0  0  0  0  0  0  0  2 V2000
  144.7999  131.2112  151.3103 C   0  0  0  0  0  0  0  0  0  0  0  0
  144.5730  132.2152  150.1644 C   0  0  0  0  0  0  0  0  0  0  0  0
  145.8527  132.3140  149.3109 C   0  0  0  0  0  0  0  0  0  0  0  0
  144.0837  133.5913  150.6943 C   0  0  2  0  0  0  0  0  0  0  0  0
  143.9787  134.5837  149.6066 N   0  3  0  0  0  0  0  0  0  0  0  0
  145.0135  134.2003  151.7582 C   0  0  0  0  0  0  0  0  0  0  0  0
  146.0418  133.6643  152.1762 O   0  0  0  0  0  0  0  0  0  0  0  0
  144.5312  135.3814  152.1776 O   0  0  0  0  0  0  0  0  0  0  0  0
  145.3566  136.2519  152.9346 C   0  0  0  0  0  0  0  0  0  0  0  0
  145.4876  135.7159  154.3628 C   0  0  0  0  0  0  0  0  0  0  0  0
  145.3556  136.7960  155.2731 O   0  0  0  0  0  0  0  0  0  0  0  0
  146.0867  136.6196  156.4418 C   0  0  0  0  0  0  0  0  0  0  0  0
  147.3790  137.2556  156.2575 N   0  0  0  0  0  0  0  0  0  0  0  0
  148.5425  137.0380  156.9532 C   0  0  0  0  0  0  0  0  0  0  0  0
  149.5441  137.7722  156.5560 N   0  0  0  0  0  0  0  0  0  0  0  0
  149.0129  138.5448  155.5274 C   0  0  0  0  0  0  0  0  0  0  0  0
  149.6347  139.5462  154.7080 C   0  0  0  0  0  0  0  0  0  0  0  0
  150.7986  139.9405  154.7378 O   0  0  0  0  0  0  0  0  0  0  0  0
  148.7413  140.1003  153.7823 N   0  0  0  0  0  0  0  0  0  0  0  0
  147.4048  139.7264  153.6650 C   0  0  0  0  0  0  0  0  0  0  0  0
  146.6815  140.3560  152.7299 N   0  0  0  0  0  0  0  0  0  0  0  0
  146.8349  138.8017  154.4174 N   0  0  0  0  0  0  0  0  0  0  0  0
  147.6795  138.2371  155.3360 C   0  0  0  0  0  0  0  0  0  0  0  0
  143.0872  133.4716  151.1213 H   0  0  0  0  0  0  0  0  0  0  0  0
  149.1048  140.8157  153.1697 H   0  0  0  0  0  0  0  0  0  0  0  0
  145.5556  131.5726  152.0085 H   0  0  0  0  0  0  0  0  0  0  0  0
  145.1394  130.2483  150.9270 H   0  0  0  0  0  0  0  0  0  0  0  0
  143.8868  131.0219  151.8746 H   0  0  0  0  0  0  0  0  0  0  0  0
  143.7919  131.8007  149.5250 H   0  0  0  0  0  0  0  0  0  0  0  0
  146.6631  132.7877  149.8662 H   0  0  0  0  0  0  0  0  0  0  0  0
  145.6918  132.8872  148.3979 H   0  0  0  0  0  0  0  0  0  0  0  0
  146.1968  131.3256  149.0044 H   0  0  0  0  0  0  0  0  0  0  0  0
  144.6240  134.3410  148.8686 H   0  0  0  0  0  0  0  0  0  0  0  0
  144.2001  135.5022  149.9632 H   0  0  0  0  0  0  0  0  0  0  0  0
  146.3437  136.2994  152.4725 H   0  0  0  0  0  0  0  0  0  0  0  0
  144.9463  137.2626  152.9387 H   0  0  0  0  0  0  0  0  0  0  0  0
  144.7385  134.9460  154.5548 H   0  0  0  0  0  0  0  0  0  0  0  0
  146.4695  135.2563  154.4852 H   0  0  0  0  0  0  0  0  0  0  0  0
  145.5674  137.0755  157.2865 H   0  0  0  0  0  0  0  0  0  0  0  0
  146.2514  135.5597  156.6419 H   0  0  0  0  0  0  0  0  0  0  0  0
  148.6258  136.3204  157.7565 H   0  0  0  0  0  0  0  0  0  0  0  0
  147.1151  141.0632  152.1540 H   0  0  0  0  0  0  0  0  0  0  0  0
  145.7072  140.1262  152.5982 H   0  0  0  0  0  0  0  0  0  0  0  0
  143.0366  134.5796  149.2420 H   0  0  0  0  0  0  0  0  0  0  0  0
  1  2  1  0  0  0  0
  1 26  1  0  0  0  0
  1 27  1  0  0  0  0
  1 28  1  0  0  0  0
  2  3  1  0  0  0  0
  2  4  1  0  0  0  0
  2 29  1  0  0  0  0
  3 30  1  0  0  0  0
  3 31  1  0  0  0  0
  3 32  1  0  0  0  0
  4 24  1  0  0  0  0
  4  5  1  0  0  0  0
  4  6  1  0  0  0  0
  5 33  1  0  0  0  0
  5 34  1  0  0  0  0
  5 44  1  0  0  0  0
  6  7  2  0  0  0  0
  6  8  1  0  0  0  0
  8  9  1  0  0  0  0
  9 10  1  0  0  0  0
  9 35  1  0  0  0  0
  9 36  1  0  0  0  0
 10 11  1  0  0  0  0
 10 37  1  0  0  0  0
 10 38  1  0  0  0  0
 11 12  1  0  0  0  0
 12 13  1  0  0  0  0
 12 39  1  0  0  0  0
 12 40  1  0  0  0  0
 13 23  1  0  0  0  0
 13 14  1  0  0  0  0
 14 15  2  0  0  0  0
 14 41  1  0  0  0  0
 15 16  1  0  0  0  0
 16 23  2  0  0  0  0
 16 17  1  0  0  0  0
 17 18  2  0  0  0  0
 17 19  1  0  0  0  0
 19 25  1  0  0  0  0
 19 20  1  0  0  0  0
 20 21  1  0  0  0  0
 20 22  2  0  0  0  0
 21 42  1  0  0  0  0
 21 43  1  0  0  0  0
 22 23  1  0  0  0  0
M  CHG  1   5   1
M  END
> <s_m_source_file>
AV-unprocessed.smi

> <i_m_source_file_index>
50

> <i_lp_mmshare_version>
43012

> <i_f3d_flags>
0

> <s_epik_input>
W0NIM11bQ0hdKFtDSDNdKVtDQEhdKFtOSDJdKUMoPU8pT1tDSDJdW0NIMl1PW0NIMl1uKFtjSF1uMSljKGMxMiluYyhbTkgyXSlbbkhdYzI9Tw==

> <s_epik_cmdline>
J2VwaWtfcHl0aG9uJywgJy1waCcsICc3LjAnLCAnLXRuJywgJzgnLCAnLW1hJywgJzIwMCcsICctbWV0YWxfYmluZGluZycsICctaW1hZScsICc8aW5maWxlLm1hZT4nLCAnLW9tYWUnLCAnPG91dGZpbGUubWFlPic=

> <r_lp_tautomer_probability>
0.99994

> <r_epik_Ionization_Penalty>
0.217551

> <r_epik_Ionization_Penalty_Charging>
0.217477

> <r_epik_Ionization_Penalty_Neutral>
7.42487e-05

> <r_epik_State_Penalty>
0.206211

> <r_epik_Charging_Adjusted_Penalty>
0.423688

> <i_epik_Tot_Q>
1

> <i_epik_Tot_abs_Q>
1

> <r_epik_Metal_State_Penalty>
0.526339

> <b_epik_Metal_Only>
0

> <s_epik_Chemistry_Notes>
This compound has an ester and may undergo hydrolysis at high or low pH. This compound contains an acetal/aminal-like group ( X-CH(R)-Y where X, Y are N, S, or O) that may be acid/base labile, releasing an aldehyde.

> <s_lp_Force_Field>
OPLS_2005

> <r_lp_Energy>
8.83135

> <b_lp_Chiralities_Consistent>
1

> <s_lp_Variant>
AV-unprocessed.smi:50-1

> <Gold.Version>
5.8.1

> <Gold.Id.Protein>
6NUR|6NUR_protein|mol2

> <Gold.PLP.Fitness>
41.7031

> <Gold.PLP.PLP>
-28.6480

> <Gold.PLP.part.hbond>
-5.2094

> <Gold.PLP.part.metal>
0.0000

> <Gold.PLP.part.buried>
-6.1548

> <Gold.PLP.part.nonpolar>
-17.6002

> <Gold.PLP.part.repulsive>
0.7705

> <Gold.PLP.ligand.clash>
0.0000

> <Gold.PLP.ligand.torsion>
1.2980

> <Gold.PLP.Chemscore.Hbond>
5.1198

> <Gold.PLP.Chemscore.CHOScore>
0.0000

> <Gold.PLP.Chemscore.Metal>
0.0000

> <Gold.Chemscore.Hbonds>
donor molecule, donor type, donor heavy atom, donor atom, acceptor molecule, acceptor atom, score
      L1  H     5    33       P1  7921  1.00
      L1  H     5    44       P1 10186  1.92
      L1  H    19    25       P1  7957  0.15
      L1  H    21    43       P1 10175  0.94
      P1  H  7989  7998       L1    18  1.00

> <Gold.PLP.Chemscore.Internal.Correction>
0.2920

> <Gold.Rescore>
     Score         DG    S(hbond)    S(metal)    S(lipo)     H(rot)  DE(clash)    DE(int)     intcor
      6.26     -10.38       3.55        0.00      46.77       4.86       0.00       4.12       ----

> <Gold.Chemscore.Fitness>
6.2634

> <Gold.Chemscore.DG>
-10.3815

> <Gold.Chemscore.ZeroCoef>
-5.4800

> <Gold.Chemscore.Hbond>
3.5519

> <Gold.Chemscore.Metal>
0.0000

> <Gold.Chemscore.Lipo>
46.7730

> <Gold.Chemscore.Internal_Hbond>
0.0000

> <Gold.Chemscore.DEClash>
0.0029

> <Gold.Chemscore.DEInternal>
4.1152

> <Gold.Chemscore.Rot>
4.8571

> <Gold.Chemscore.Internal.Correction>
   9.000000E+99

> <Gold.Chemscore.Hbonds>
donor molecule, donor type, donor heavy atom, donor atom, acceptor molecule, acceptor atom, score
      L1  H     5    33       P1  7921  0.92
      L1  H     5    44       P1 10186  0.86
      L1  H    19    25       P1  7957  0.15
      L1  H    21    43       P1 10175  0.80
      P1  H  7989  7998       L1    18  1.00

> <Gold.Chemscore.Hbond.Weighted>
-11.8634

> <Gold.Chemscore.Metal.Weighted>
-0.0000

> <Gold.Chemscore.Lipo.Weighted>
-5.4724

> <Gold.Chemscore.Internal_Hbond.Weighted>
0.0000

> <Gold.Chemscore.DEClash.Weighted>
0.0029

> <Gold.Chemscore.DEInternal.Weighted>
4.1152

> <Gold.Chemscore.Rot.Weighted>
12.4343

> <Gold.Chemscore.Internal.Correction.Weighted>
   9.000000E+99

> <Gold.Protein.RotatedTorsions>
[ 6907 6896 6895 6894 ] final  122.93 input  -60.11 | X-H torsion
[ 7974 7965 7964 7962 ] final  -49.37 input  175.53 | X-H torsion
[ 8008 7997 7996 7995 ] final  151.47 input   59.86 | X-H torsion
[ 10167 10162 10161 10158 ] final  173.47 input  -65.29 | X-H torsion
[ 10718 10713 10712 10709 ] final   38.07 input   66.30 | X-H torsion
[ 10763 10752 10751 10750 ] final  130.60 input  -60.55 | X-H torsion
[ 11005 11000 10999 10996 ] final   39.72 input  -57.11 | X-H torsion

> <Gold.Protein.ActiveResidues>
 VAL166  LYS551  ARG553  GLY616  TRP617  ASP618  TYR619  PRO620  LYS621  CYS622 
 ASP623  PHE694  ASN695  SER759  ASP760  ASP761  ALA762  ILE779  LEU786  VAL792 
 PHE793  MET794  SER795  GLU796  ALA797  LYS798  CYS799  TRP800  GLU811  SER814 

> <Gold.Protein.RotatedAtoms>
  152.4203  133.7105  159.6475 H   0  0  0  0  0  0  0  0  0  0  0  0  # atno 6907 bound_to 6896
  150.8079  133.8465  159.3202 H   0  0  0  0  0  0  0  0  0  0  0  0  # atno 6908 bound_to 6896
  151.6183  135.1036  160.0148 H   0  0  0  0  0  0  0  0  0  0  0  0  # atno 6909 bound_to 6896
  145.9413  140.7659  142.9550 H   0  0  0  0  0  0  0  0  0  0  0  0  # atno 7974 bound_to 7965
  156.2672  140.2047  156.6180 H   0  0  0  0  0  0  0  0  0  0  0  0  # atno 8008 bound_to 7997
  154.6779  140.0543  157.0259 H   0  0  0  0  0  0  0  0  0  0  0  0  # atno 8009 bound_to 7997
  155.1043  140.3209  155.4541 H   0  0  0  0  0  0  0  0  0  0  0  0  # atno 8010 bound_to 7997
  139.5109  144.3257  152.0160 H   0  0  0  0  0  0  0  0  0  0  0  0  # atno 10167 bound_to 10162
  157.3545  130.7616  149.7002 H   0  0  0  0  0  0  0  0  0  0  0  0  # atno 10718 bound_to 10713
  153.7607  135.3196  155.3336 H   0  0  0  0  0  0  0  0  0  0  0  0  # atno 10763 bound_to 10752
  154.8231  135.4589  154.0840 H   0  0  0  0  0  0  0  0  0  0  0  0  # atno 10764 bound_to 10752
  153.2070  135.6930  153.8243 H   0  0  0  0  0  0  0  0  0  0  0  0  # atno 10765 bound_to 10752
  140.2000  134.3882  155.8101 H   0  0  0  0  0  0  0  0  0  0  0  0  # atno 11005 bound_to 11000
  144.6779  140.2285  143.7358 LP  0  0  0  0  0  0  0  0  0  0  0  0  # atno 17320 bound_to 7965
  145.8296  139.2080  143.1890 LP  0  0  0  0  0  0  0  0  0  0  0  0  # atno 17321 bound_to 7965
  140.2698  144.3977  150.6155 LP  0  0  0  0  0  0  0  0  0  0  0  0  # atno 17342 bound_to 10162
  140.6097  143.2169  151.6911 LP  0  0  0  0  0  0  0  0  0  0  0  0  # atno 17343 bound_to 10162
  155.9727  130.4131  150.4066 LP  0  0  0  0  0  0  0  0  0  0  0  0  # atno 17370 bound_to 10713
  157.2133  131.0465  151.2587 LP  0  0  0  0  0  0  0  0  0  0  0  0  # atno 17371 bound_to 10713
  141.2227  133.7089  156.8242 LP  0  0  0  0  0  0  0  0  0  0  0  0  # atno 17394 bound_to 11000
  140.2064  134.8859  157.3226 LP  0  0  0  0  0  0  0  0  0  0  0  0  # atno 17395 bound_to 11000

$$$$
