AV-unprocessed.smi:1207|AV-procd|sdf|5054|dock5
  -GOLD-   22720 4 83D 1   1.00000     0.00000
 Structure written by MMmdl.
 52 54  0  0  0  0  0  0  0  0  2 V2000
  153.6160  142.0821  162.3123 C   0  0  0  0  0  0  0  0  0  0  0  0
  152.9981  141.9507  160.9313 C   0  0  0  0  0  0  0  0  0  0  0  0
  153.2777  140.8001  160.1601 C   0  0  0  0  0  0  0  0  0  0  0  0
  152.7211  140.6381  158.8727 C   0  0  0  0  0  0  0  0  0  0  0  0
  152.8538  139.6067  157.9589 N   0  0  0  0  0  0  0  0  0  0  0  0
  152.0943  140.0370  156.9561 C   0  0  0  0  0  0  0  0  0  0  0  0
  151.4829  141.2268  157.1121 N   0  0  0  0  0  0  0  0  0  0  0  0
  150.6058  141.8890  156.1634 C   0  0  0  0  0  0  0  0  0  0  0  0
  149.3227  141.0823  155.8856 C   0  0  1  0  0  0  0  0  0  0  0  0
  148.2548  141.9696  155.6090 O   0  0  0  0  0  0  0  0  0  0  0  0
  149.4905  140.1321  154.6867 C   0  0  0  0  0  0  0  0  0  0  0  0
  150.0340  138.8129  155.1074 N   0  3  2  0  0  0  0  0  0  0  0  0
  151.0922  138.3156  154.1986 C   0  0  0  0  0  0  0  0  0  0  0  0
  148.9920  137.7878  155.3652 C   0  0  0  0  0  0  0  0  0  0  0  0
  149.4828  136.7360  156.3282 C   0  0  0  0  0  0  0  0  0  0  0  0
  149.7070  136.8634  157.7295 C   0  0  0  0  0  0  0  0  0  0  0  0
  149.4999  138.0671  158.6041 C   0  0  0  0  0  0  0  0  0  0  0  0
  150.1590  135.7403  158.2605 N   0  0  0  0  0  0  0  0  0  0  0  0
  150.2394  134.8231  157.2086 O   0  0  0  0  0  0  0  0  0  0  0  0
  149.8288  135.4376  156.0710 C   0  0  0  0  0  0  0  0  0  0  0  0
  149.8531  134.6177  154.8258 C   0  0  0  0  0  0  0  0  0  0  0  0
  151.8717  141.6681  158.3728 C   0  0  0  0  0  0  0  0  0  0  0  0
  151.5877  142.8186  159.1296 C   0  0  0  0  0  0  0  0  0  0  0  0
  152.1500  142.9632  160.4151 C   0  0  0  0  0  0  0  0  0  0  0  0
  151.8337  144.2071  161.2263 C   0  0  0  0  0  0  0  0  0  0  0  0
  154.2647  141.2357  162.5403 H   0  0  0  0  0  0  0  0  0  0  0  0
  152.8388  142.1230  163.0759 H   0  0  0  0  0  0  0  0  0  0  0  0
  154.2159  142.9900  162.3786 H   0  0  0  0  0  0  0  0  0  0  0  0
  153.9235  140.0285  160.5531 H   0  0  0  0  0  0  0  0  0  0  0  0
  151.9722  139.4521  156.0562 H   0  0  0  0  0  0  0  0  0  0  0  0
  150.3622  142.8802  156.5481 H   0  0  0  0  0  0  0  0  0  0  0  0
  151.1603  142.0438  155.2369 H   0  0  0  0  0  0  0  0  0  0  0  0
  149.0658  140.5129  156.7793 H   0  0  0  0  0  0  0  0  0  0  0  0
  148.6096  142.8287  155.4358 H   0  0  0  0  0  0  0  0  0  0  0  0
  148.5212  140.0214  154.2007 H   0  0  0  0  0  0  0  0  0  0  0  0
  150.1468  140.5725  153.9345 H   0  0  0  0  0  0  0  0  0  0  0  0
  150.6842  138.0833  153.2140 H   0  0  0  0  0  0  0  0  0  0  0  0
  151.5507  137.4109  154.5994 H   0  0  0  0  0  0  0  0  0  0  0  0
  151.8839  139.0543  154.0737 H   0  0  0  0  0  0  0  0  0  0  0  0
  148.0895  138.2802  155.7298 H   0  0  0  0  0  0  0  0  0  0  0  0
  148.7149  137.3168  154.4213 H   0  0  0  0  0  0  0  0  0  0  0  0
  150.0722  138.9197  158.2386 H   0  0  0  0  0  0  0  0  0  0  0  0
  149.8097  137.8793  159.6330 H   0  0  0  0  0  0  0  0  0  0  0  0
  148.4492  138.3566  158.6239 H   0  0  0  0  0  0  0  0  0  0  0  0
  149.2496  135.0764  154.0426 H   0  0  0  0  0  0  0  0  0  0  0  0
  149.4598  133.6179  155.0115 H   0  0  0  0  0  0  0  0  0  0  0  0
  150.8723  134.5167  154.4522 H   0  0  0  0  0  0  0  0  0  0  0  0
  150.9399  143.5822  158.7254 H   0  0  0  0  0  0  0  0  0  0  0  0
  151.1437  144.8637  160.6953 H   0  0  0  0  0  0  0  0  0  0  0  0
  152.7441  144.7711  161.4292 H   0  0  0  0  0  0  0  0  0  0  0  0
  151.3729  143.9373  162.1767 H   0  0  0  0  0  0  0  0  0  0  0  0
  150.4792  138.9728  156.0002 H   0  0  0  0  0  0  0  0  0  0  0  0
  1  2  1  0  0  0  0
  1 26  1  0  0  0  0
  1 27  1  0  0  0  0
  1 28  1  0  0  0  0
  2 24  1  0  0  0  0
  2  3  2  0  0  0  0
  3  4  1  0  0  0  0
  3 29  1  0  0  0  0
  4 22  2  0  0  0  0
  4  5  1  0  0  0  0
  5  6  2  0  0  0  0
  6  7  1  0  0  0  0
  6 30  1  0  0  0  0
  7  8  1  0  0  0  0
  7 22  1  0  0  0  0
  8  9  1  0  0  0  0
  8 31  1  0  0  0  0
  8 32  1  0  0  0  0
  9 10  1  0  0  0  0
  9 11  1  0  0  0  0
  9 33  1  0  0  0  0
 10 34  1  0  0  0  0
 11 12  1  0  0  0  0
 11 35  1  0  0  0  0
 11 36  1  0  0  0  0
 12 13  1  0  0  0  0
 12 14  1  0  0  0  0
 12 52  1  0  0  0  0
 13 37  1  0  0  0  0
 13 38  1  0  0  0  0
 13 39  1  0  0  0  0
 14 15  1  0  0  0  0
 14 40  1  0  0  0  0
 14 41  1  0  0  0  0
 15 20  2  0  0  0  0
 15 16  1  0  0  0  0
 16 17  1  0  0  0  0
 16 18  2  0  0  0  0
 17 42  1  0  0  0  0
 17 43  1  0  0  0  0
 17 44  1  0  0  0  0
 18 19  1  0  0  0  0
 19 20  1  0  0  0  0
 20 21  1  0  0  0  0
 21 45  1  0  0  0  0
 21 46  1  0  0  0  0
 21 47  1  0  0  0  0
 22 23  1  0  0  0  0
 23 24  2  0  0  0  0
 23 48  1  0  0  0  0
 24 25  1  0  0  0  0
 25 49  1  0  0  0  0
 25 50  1  0  0  0  0
 25 51  1  0  0  0  0
M  CHG  1  12   1
M  END
> <s_m_source_file>
AV-unprocessed.smi

> <i_m_source_file_index>
1207

> <i_lp_mmshare_version>
43012

> <i_f3d_flags>
0

> <s_epik_input>
W0NIM11jKFtjSF0xKWMoW0NIM10pW2NIXWMoYzEyKW4oW2NIXW4yKVtDSDJdW0NASF0oW09IXSlbQ0gyXU4oW0NIM10pW0NIMl1jM2MoW0NIM10pbm9jM1tDSDNd

> <s_epik_cmdline>
J2VwaWtfcHl0aG9uJywgJy1waCcsICc3LjAnLCAnLXRuJywgJzgnLCAnLW1hJywgJzIwMCcsICctbWV0YWxfYmluZGluZycsICctaW1hZScsICc8aW5maWxlLm1hZT4nLCAnLW9tYWUnLCAnPG91dGZpbGUubWFlPic=

> <r_epik_Ionization_Penalty>
0.646518

> <r_epik_Ionization_Penalty_Charging>
0.559419

> <r_epik_Ionization_Penalty_Neutral>
0.0870981

> <r_epik_State_Penalty>
0.661677

> <r_epik_Charging_Adjusted_Penalty>
1.2211

> <i_epik_Tot_Q>
1

> <i_epik_Tot_abs_Q>
1

> <r_epik_Metal_State_Penalty>
0.649158

> <b_epik_Metal_Only>
0

> <s_lp_Force_Field>
OPLS_2005

> <r_lp_Energy>
8.09598

> <b_lp_Chiralities_Consistent>
1

> <s_lp_Variant>
AV-unprocessed.smi:1207-6

> <Gold.Version>
5.8.1

> <Gold.Id.Protein>
6NUR|6NUR_protein|mol2

> <Gold.PLP.Fitness>
52.9352

> <Gold.PLP.PLP>
-47.4599

> <Gold.PLP.part.hbond>
-3.8514

> <Gold.PLP.part.metal>
0.0000

> <Gold.PLP.part.buried>
-6.3164

> <Gold.PLP.part.nonpolar>
-37.0484

> <Gold.PLP.part.repulsive>
0.0500

> <Gold.PLP.ligand.clash>
0.0000

> <Gold.PLP.ligand.torsion>
1.6330

> <Gold.PLP.Chemscore.Hbond>
2.7920

> <Gold.PLP.Chemscore.CHOScore>
0.0000

> <Gold.PLP.Chemscore.Metal>
0.0000

> <Gold.Chemscore.Hbonds>
donor molecule, donor type, donor heavy atom, donor atom, acceptor molecule, acceptor atom, score
      L1  H    10    34       P1  8028  1.00
      P1  H  6896  6907       L1    18  0.90
      P1  H  7997  8010       L1     5  0.79

> <Gold.PLP.Chemscore.Internal.Correction>
0.3652

> <Gold.Rescore>
     Score         DG    S(hbond)    S(metal)    S(lipo)     H(rot)  DE(clash)    DE(int)     intcor
     17.99     -19.83       1.76        0.00     126.27       2.46       0.16       1.68       ----

> <Gold.Chemscore.Fitness>
17.9887

> <Gold.Chemscore.DG>
-19.8286

> <Gold.Chemscore.ZeroCoef>
-5.4800

> <Gold.Chemscore.Hbond>
1.7555

> <Gold.Chemscore.Metal>
0.0000

> <Gold.Chemscore.Lipo>
126.2719

> <Gold.Chemscore.Internal_Hbond>
0.0000

> <Gold.Chemscore.DEClash>
0.1599

> <Gold.Chemscore.DEInternal>
1.6801

> <Gold.Chemscore.Rot>
2.4565

> <Gold.Chemscore.Internal.Correction>
   9.000000E+99

> <Gold.Chemscore.Hbonds>
donor molecule, donor type, donor heavy atom, donor atom, acceptor molecule, acceptor atom, score
      L1  H    10    34       P1  8028  0.99
      P1  H  6896  6907       L1    18  0.31
      P1  H  7997  8010       L1     5  0.05

> <Gold.Chemscore.Hbond.Weighted>
-5.8635

> <Gold.Chemscore.Metal.Weighted>
-0.0000

> <Gold.Chemscore.Lipo.Weighted>
-14.7738

> <Gold.Chemscore.Internal_Hbond.Weighted>
0.0000

> <Gold.Chemscore.DEClash.Weighted>
0.1599

> <Gold.Chemscore.DEInternal.Weighted>
1.6801

> <Gold.Chemscore.Rot.Weighted>
6.2887

> <Gold.Chemscore.Internal.Correction.Weighted>
   9.000000E+99

> <Gold.Protein.RotatedTorsions>
[ 6907 6896 6895 6894 ] final  -55.70 input  -60.11 | X-H torsion
[ 7974 7965 7964 7962 ] final   79.96 input  175.53 | X-H torsion
[ 8008 7997 7996 7995 ] final   22.32 input   59.86 | X-H torsion
[ 10167 10162 10161 10158 ] final   69.40 input  -65.29 | X-H torsion
[ 10718 10713 10712 10709 ] final  -67.65 input   66.30 | X-H torsion
[ 10763 10752 10751 10750 ] final   31.79 input  -60.55 | X-H torsion
[ 11005 11000 10999 10996 ] final   93.04 input  -57.11 | X-H torsion

> <Gold.Protein.ActiveResidues>
 VAL166  LYS551  ARG553  GLY616  TRP617  ASP618  TYR619  PRO620  LYS621  CYS622 
 ASP623  PHE694  ASN695  SER759  ASP760  ASP761  ALA762  ILE779  LEU786  VAL792 
 PHE793  MET794  SER795  GLU796  ALA797  LYS798  CYS799  TRP800  GLU811  SER814 

> <Gold.Protein.RotatedAtoms>
  150.8229  134.7446  159.6787 H   0  0  0  0  0  0  0  0  0  0  0  0  # atno 6907 bound_to 6896
  152.4343  134.5714  159.9932 H   0  0  0  0  0  0  0  0  0  0  0  0  # atno 6908 bound_to 6896
  151.5893  133.3331  159.3060 H   0  0  0  0  0  0  0  0  0  0  0  0  # atno 6909 bound_to 6896
  145.6574  139.2463  143.1942 H   0  0  0  0  0  0  0  0  0  0  0  0  # atno 7974 bound_to 7965
  154.9640  140.3081  155.5018 H   0  0  0  0  0  0  0  0  0  0  0  0  # atno 8008 bound_to 7997
  156.2974  140.2296  156.4666 H   0  0  0  0  0  0  0  0  0  0  0  0  # atno 8009 bound_to 7997
  154.7939  140.0438  157.1210 H   0  0  0  0  0  0  0  0  0  0  0  0  # atno 8010 bound_to 7997
  140.0682  144.5175  150.7246 H   0  0  0  0  0  0  0  0  0  0  0  0  # atno 10167 bound_to 10162
  156.0546  130.4281  150.1885 H   0  0  0  0  0  0  0  0  0  0  0  0  # atno 10718 bound_to 10713
  153.0297  135.6430  154.1254 H   0  0  0  0  0  0  0  0  0  0  0  0  # atno 10763 bound_to 10752
  154.0978  135.2861  155.3259 H   0  0  0  0  0  0  0  0  0  0  0  0  # atno 10764 bound_to 10752
  154.6420  135.5456  153.7863 H   0  0  0  0  0  0  0  0  0  0  0  0  # atno 10765 bound_to 10752
  139.8815  134.8768  156.3661 H   0  0  0  0  0  0  0  0  0  0  0  0  # atno 11005 bound_to 11000
  146.1153  140.7377  142.9483 LP  0  0  0  0  0  0  0  0  0  0  0  0  # atno 17320 bound_to 7965
  144.7101  140.4005  143.7087 LP  0  0  0  0  0  0  0  0  0  0  0  0  # atno 17321 bound_to 7965
  140.7138  143.2527  151.4497 LP  0  0  0  0  0  0  0  0  0  0  0  0  # atno 17342 bound_to 10162
  139.5852  144.1621  152.2019 LP  0  0  0  0  0  0  0  0  0  0  0  0  # atno 17343 bound_to 10162
  156.9963  130.9909  151.3402 LP  0  0  0  0  0  0  0  0  0  0  0  0  # atno 17370 bound_to 10713
  157.5505  130.8179  149.8139 LP  0  0  0  0  0  0  0  0  0  0  0  0  # atno 17371 bound_to 10713
  140.9496  133.7460  156.0254 LP  0  0  0  0  0  0  0  0  0  0  0  0  # atno 17394 bound_to 11000
  140.8121  134.3387  157.5408 LP  0  0  0  0  0  0  0  0  0  0  0  0  # atno 17395 bound_to 11000

$$$$
