AV-unprocessed.smi:1419|AV-procd|sdf|5781|dock2
  -GOLD-   22720 5423D 1   1.00000     0.00000
 Structure written by MMmdl.
 41 42  0  0  0  0  0  0  0  0  1 V2000
  146.4703  142.8638  157.5839 C   0  0  0  0  0  0  0  0  0  0  0  0
  147.4616  141.9241  156.8848 C   0  0  1  0  0  0  0  0  0  0  0  0
  147.2834  141.9581  155.3512 C   0  0  0  0  0  0  0  0  0  0  0  0
  147.6121  140.6919  154.7207 N   0  0  0  0  0  0  0  0  0  0  0  0
  146.7608  139.8712  153.9927 C   0  0  0  0  0  0  0  0  0  0  0  0
  147.5020  138.7754  153.6125 C   0  0  0  0  0  0  0  0  0  0  0  0
  148.8060  138.9031  154.0857 N   0  0  0  0  0  0  0  0  0  0  0  0
  148.7965  140.0640  154.7273 C   0  0  0  0  0  0  0  0  0  0  0  0
  148.8238  142.3093  157.2511 N   0  0  0  0  0  0  0  0  0  0  0  0
  149.7277  141.5222  157.8610 C   0  0  0  0  0  0  0  0  0  0  0  0
  149.4457  140.3999  158.2832 O   0  0  0  0  0  0  0  0  0  0  0  0
  150.9792  142.0399  157.9141 N   0  0  0  0  0  0  0  0  0  0  0  0
  152.1924  141.3626  158.3891 C   0  0  0  0  0  0  0  0  0  0  0  0
  152.5434  141.9386  159.7751 C   0  0  1  0  0  0  0  0  0  0  0  0
  153.8286  141.3311  160.3465 C   0  0  0  0  0  0  0  0  0  0  0  0
  152.7288  143.3497  159.6573 O   0  0  0  0  0  0  0  0  0  0  0  0
  151.5930  144.0437  159.1389 C   0  0  1  0  0  0  0  0  0  0  0  0
  151.9270  145.5379  159.0849 C   0  0  0  0  0  0  0  0  0  0  0  0
  151.2417  143.4707  157.7502 C   0  0  0  0  0  0  0  0  0  0  0  0
  145.4409  142.5891  157.3525 H   0  0  0  0  0  0  0  0  0  0  0  0
  146.6161  143.8990  157.2731 H   0  0  0  0  0  0  0  0  0  0  0  0
  146.5857  142.8214  158.6676 H   0  0  0  0  0  0  0  0  0  0  0  0
  147.2523  140.9131  157.2391 H   0  0  0  0  0  0  0  0  0  0  0  0
  146.2504  142.1995  155.0982 H   0  0  0  0  0  0  0  0  0  0  0  0
  147.9036  142.7405  154.9114 H   0  0  0  0  0  0  0  0  0  0  0  0
  145.7248  140.1227  153.8204 H   0  0  0  0  0  0  0  0  0  0  0  0
  147.1992  137.9111  153.0401 H   0  0  0  0  0  0  0  0  0  0  0  0
  149.6690  140.4604  155.2254 H   0  0  0  0  0  0  0  0  0  0  0  0
  149.1339  143.2180  156.9393 H   0  0  0  0  0  0  0  0  0  0  0  0
  152.0987  140.2776  158.4389 H   0  0  0  0  0  0  0  0  0  0  0  0
  153.0065  141.5511  157.6874 H   0  0  0  0  0  0  0  0  0  0  0  0
  151.7259  141.7450  160.4718 H   0  0  0  0  0  0  0  0  0  0  0  0
  153.7314  140.2523  160.4695 H   0  0  0  0  0  0  0  0  0  0  0  0
  154.0606  141.7573  161.3227 H   0  0  0  0  0  0  0  0  0  0  0  0
  154.6791  141.5188  159.6905 H   0  0  0  0  0  0  0  0  0  0  0  0
  150.7508  143.9003  159.8189 H   0  0  0  0  0  0  0  0  0  0  0  0
  151.0840  146.1142  158.7029 H   0  0  0  0  0  0  0  0  0  0  0  0
  152.7843  145.7277  158.4384 H   0  0  0  0  0  0  0  0  0  0  0  0
  152.1669  145.9186  160.0778 H   0  0  0  0  0  0  0  0  0  0  0  0
  152.0697  143.6155  157.0544 H   0  0  0  0  0  0  0  0  0  0  0  0
  150.3936  144.0094  157.3250 H   0  0  0  0  0  0  0  0  0  0  0  0
  1  2  1  0  0  0  0
  1 20  1  0  0  0  0
  1 21  1  0  0  0  0
  1 22  1  0  0  0  0
  2  3  1  0  0  0  0
  2  9  1  0  0  0  0
  2 23  1  0  0  0  0
  3  4  1  0  0  0  0
  3 24  1  0  0  0  0
  3 25  1  0  0  0  0
  4  8  1  0  0  0  0
  4  5  1  0  0  0  0
  5  6  2  0  0  0  0
  5 26  1  0  0  0  0
  6  7  1  0  0  0  0
  6 27  1  0  0  0  0
  7  8  2  0  0  0  0
  8 28  1  0  0  0  0
  9 10  1  0  0  0  0
  9 29  1  0  0  0  0
 10 11  2  0  0  0  0
 10 12  1  0  0  0  0
 12 19  1  0  0  0  0
 12 13  1  0  0  0  0
 13 14  1  0  0  0  0
 13 30  1  0  0  0  0
 13 31  1  0  0  0  0
 14 15  1  0  0  0  0
 14 16  1  0  0  0  0
 14 32  1  0  0  0  0
 15 33  1  0  0  0  0
 15 34  1  0  0  0  0
 15 35  1  0  0  0  0
 16 17  1  0  0  0  0
 17 18  1  0  0  0  0
 17 19  1  0  0  0  0
 17 36  1  0  0  0  0
 18 37  1  0  0  0  0
 18 38  1  0  0  0  0
 18 39  1  0  0  0  0
 19 40  1  0  0  0  0
 19 41  1  0  0  0  0
M  END
> <s_m_source_file>
AV-unprocessed.smi

> <i_m_source_file_index>
1419

> <i_lp_mmshare_version>
43012

> <i_f3d_flags>
0

> <s_epik_input>
W2NIXTFuW2NIXVtjSF1uMVtDSDJdW0NAQEhdKFtDSDNdKVtOSF1DKD1PKU4yW0NIMl1bQ0BASF0oW0NIM10pT1tDQEBIXShbQ0gzXSlbQ0gyXTI=

> <s_epik_cmdline>
J2VwaWtfcHl0aG9uJywgJy1waCcsICc3LjAnLCAnLXRuJywgJzgnLCAnLW1hJywgJzIwMCcsICctbWV0YWxfYmluZGluZycsICctaW1hZScsICc8aW5maWxlLm1hZT4nLCAnLW9tYWUnLCAnPG91dGZpbGUubWFlPic=

> <r_lp_tautomer_probability>
1

> <r_epik_Ionization_Penalty>
0.625124

> <r_epik_Ionization_Penalty_Charging>
0.625093

> <r_epik_Ionization_Penalty_Neutral>
3.17415e-05

> <r_epik_State_Penalty>
0.641455

> <r_epik_Charging_Adjusted_Penalty>
1.26655

> <i_epik_Tot_Q>
0

> <i_epik_Tot_abs_Q>
0

> <r_epik_Metal_State_Penalty>
0.307717

> <b_epik_Metal_Only>
0

> <s_lp_Force_Field>
OPLS_2005

> <r_lp_Energy>
27.9017

> <b_lp_Chiralities_Consistent>
1

> <s_lp_Variant>
AV-unprocessed.smi:1419-8

> <Gold.Version>
5.8.1

> <Gold.Id.Protein>
6NUR|6NUR_protein|mol2

> <Gold.PLP.Fitness>
41.5809

> <Gold.PLP.PLP>
-34.6167

> <Gold.PLP.part.hbond>
-1.0000

> <Gold.PLP.part.metal>
0.0000

> <Gold.PLP.part.buried>
-2.9407

> <Gold.PLP.part.nonpolar>
-31.3430

> <Gold.PLP.part.repulsive>
1.2046

> <Gold.PLP.ligand.clash>
0.7810

> <Gold.PLP.ligand.torsion>
0.4690

> <Gold.PLP.Chemscore.Hbond>
0.8960

> <Gold.PLP.Chemscore.CHOScore>
1.9710

> <Gold.PLP.Chemscore.Metal>
0.0000

> <Gold.Chemscore.Hbonds>
donor molecule, donor type, donor heavy atom, donor atom, acceptor molecule, acceptor atom, score
      L1  H     9    29       P1  8028  0.94
      L1  C     5    26       P1 10175  1.00
      L1  C     6    27       P1  7948  0.52

> <Gold.PLP.Chemscore.Internal.Correction>
0.0822

> <Gold.Rescore>
     Score         DG    S(hbond)    S(metal)    S(lipo)     H(rot)  DE(clash)    DE(int)     intcor
     13.21     -13.97       0.79        0.00      84.47       1.58       0.07       0.69       ----

> <Gold.Chemscore.Fitness>
13.2131

> <Gold.Chemscore.DG>
-13.9748

> <Gold.Chemscore.ZeroCoef>
-5.4800

> <Gold.Chemscore.Hbond>
0.7932

> <Gold.Chemscore.Metal>
0.0000

> <Gold.Chemscore.Lipo>
84.4664

> <Gold.Chemscore.Internal_Hbond>
0.0000

> <Gold.Chemscore.DEClash>
0.0708

> <Gold.Chemscore.DEInternal>
0.6910

> <Gold.Chemscore.Rot>
1.5769

> <Gold.Chemscore.Internal.Correction>
   9.000000E+99

> <Gold.Chemscore.Hbonds>
donor molecule, donor type, donor heavy atom, donor atom, acceptor molecule, acceptor atom, score
      L1  H     9    29       P1  8028  0.80

> <Gold.Chemscore.Hbond.Weighted>
-2.6492

> <Gold.Chemscore.Metal.Weighted>
-0.0000

> <Gold.Chemscore.Lipo.Weighted>
-9.8826

> <Gold.Chemscore.Internal_Hbond.Weighted>
0.0000

> <Gold.Chemscore.DEClash.Weighted>
0.0708

> <Gold.Chemscore.DEInternal.Weighted>
0.6910

> <Gold.Chemscore.Rot.Weighted>
4.0369

> <Gold.Chemscore.Internal.Correction.Weighted>
   9.000000E+99

> <Gold.Protein.RotatedTorsions>
[ 6907 6896 6895 6894 ] final  146.09 input  -60.11 | X-H torsion
[ 7974 7965 7964 7962 ] final -169.74 input  175.53 | X-H torsion
[ 8008 7997 7996 7995 ] final  153.55 input   59.86 | X-H torsion
[ 10167 10162 10161 10158 ] final   22.23 input  -65.29 | X-H torsion
[ 10718 10713 10712 10709 ] final  103.59 input   66.30 | X-H torsion
[ 10763 10752 10751 10750 ] final  150.88 input  -60.55 | X-H torsion
[ 11005 11000 10999 10996 ] final  166.31 input  -57.11 | X-H torsion

> <Gold.Protein.ActiveResidues>
 VAL166  LYS551  ARG553  GLY616  TRP617  ASP618  TYR619  PRO620  LYS621  CYS622 
 ASP623  PHE694  ASN695  SER759  ASP760  ASP761  ALA762  ILE779  LEU786  VAL792 
 PHE793  MET794  SER795  GLU796  ALA797  LYS798  CYS799  TRP800  GLU811  SER814 

> <Gold.Protein.RotatedAtoms>
  152.1725  133.4653  159.4915 H   0  0  0  0  0  0  0  0  0  0  0  0  # atno 6907 bound_to 6896
  150.6922  134.1935  159.4303 H   0  0  0  0  0  0  0  0  0  0  0  0  # atno 6908 bound_to 6896
  151.9843  135.0012  160.0609 H   0  0  0  0  0  0  0  0  0  0  0  0  # atno 6909 bound_to 6896
  144.7180  140.2176  143.6320 H   0  0  0  0  0  0  0  0  0  0  0  0  # atno 7974 bound_to 7965
  156.2576  140.1990  156.6507 H   0  0  0  0  0  0  0  0  0  0  0  0  # atno 8008 bound_to 7997
  154.6539  140.0568  157.0011 H   0  0  0  0  0  0  0  0  0  0  0  0  # atno 8009 bound_to 7997
  155.1377  140.3239  155.4462 H   0  0  0  0  0  0  0  0  0  0  0  0  # atno 8010 bound_to 7997
  140.5365  143.9751  150.6494 H   0  0  0  0  0  0  0  0  0  0  0  0  # atno 10167 bound_to 10162
  157.6767  131.0783  150.5578 H   0  0  0  0  0  0  0  0  0  0  0  0  # atno 10718 bound_to 10713
  154.0946  135.2850  155.3264 H   0  0  0  0  0  0  0  0  0  0  0  0  # atno 10763 bound_to 10752
  154.6596  135.5339  153.8005 H   0  0  0  0  0  0  0  0  0  0  0  0  # atno 10764 bound_to 10752
  153.0401  135.6530  154.1113 H   0  0  0  0  0  0  0  0  0  0  0  0  # atno 10765 bound_to 10752
  140.2651  134.7871  157.3625 H   0  0  0  0  0  0  0  0  0  0  0  0  # atno 11005 bound_to 11000
  145.8531  139.2185  143.1760 LP  0  0  0  0  0  0  0  0  0  0  0  0  # atno 17320 bound_to 7965
  146.0242  140.8319  142.9908 LP  0  0  0  0  0  0  0  0  0  0  0  0  # atno 17321 bound_to 7965
  140.3140  143.3179  152.0850 LP  0  0  0  0  0  0  0  0  0  0  0  0  # atno 17342 bound_to 10162
  139.4973  144.6617  151.6449 LP  0  0  0  0  0  0  0  0  0  0  0  0  # atno 17343 bound_to 10162
  156.5882  130.4322  149.5948 LP  0  0  0  0  0  0  0  0  0  0  0  0  # atno 17370 bound_to 10713
  156.2605  130.6960  151.1727 LP  0  0  0  0  0  0  0  0  0  0  0  0  # atno 17371 bound_to 10713
  140.1427  134.4951  155.8019 LP  0  0  0  0  0  0  0  0  0  0  0  0  # atno 17394 bound_to 11000
  141.2185  133.6831  156.7239 LP  0  0  0  0  0  0  0  0  0  0  0  0  # atno 17395 bound_to 11000

$$$$
