AV-unprocessed.smi:3112|AV-procd|sdf|11837|dock5
  -GOLD-   2272017213D 1   1.00000     0.00000
 Structure written by MMmdl.
 37 37  0  0  0  0  0  0  0  0  2 V2000
  152.2772  143.7205  161.1963 C   0  0  0  0  0  0  0  0  0  0  0  0
  151.9861  144.8087  160.1536 C   0  0  0  0  0  0  0  0  0  0  0  0
  150.8781  144.4221  159.1570 C   0  0  1  0  0  0  0  0  0  0  0  0
  150.4155  145.5916  158.5105 O   0  0  0  0  0  0  0  0  0  0  0  0
  151.3847  143.4425  158.0851 C   0  0  0  0  0  0  0  0  0  0  0  0
  150.2628  142.9034  157.2870 N   0  3  0  0  0  0  0  0  0  0  0  0
  150.6272  141.9232  156.2371 C   0  0  2  0  0  0  0  0  0  0  0  0
  149.5513  141.9647  155.1363 C   0  0  0  0  0  0  0  0  0  0  0  0
  150.8802  140.5075  156.8326 C   0  0  2  0  0  0  0  0  0  0  0  0
  151.9648  140.5027  157.9279 C   0  0  0  0  0  0  0  0  0  0  0  0
  151.1375  139.4990  155.8078 N   0  0  0  0  0  0  0  0  0  0  0  0
  152.3457  139.1831  155.2192 C   0  0  0  0  0  0  0  0  0  0  0  0
  152.1227  138.1605  154.3429 C   0  0  0  0  0  0  0  0  0  0  0  0
  150.7288  137.9074  154.4679 C   0  0  0  0  0  0  0  0  0  0  0  0
  150.1446  138.7039  155.3477 N   0  0  0  0  0  0  0  0  0  0  0  0
  153.0910  144.0249  161.8547 H   0  0  0  0  0  0  0  0  0  0  0  0
  152.5694  142.7846  160.7192 H   0  0  0  0  0  0  0  0  0  0  0  0
  151.4061  143.5217  161.8210 H   0  0  0  0  0  0  0  0  0  0  0  0
  151.7265  145.7401  160.6588 H   0  0  0  0  0  0  0  0  0  0  0  0
  152.9073  145.0086  159.6049 H   0  0  0  0  0  0  0  0  0  0  0  0
  150.0476  143.9689  159.7003 H   0  0  0  0  0  0  0  0  0  0  0  0
  149.5035  145.4729  158.2899 H   0  0  0  0  0  0  0  0  0  0  0  0
  152.1051  143.9353  157.4304 H   0  0  0  0  0  0  0  0  0  0  0  0
  151.9061  142.6184  158.5709 H   0  0  0  0  0  0  0  0  0  0  0  0
  149.5825  142.4843  157.9047 H   0  0  0  0  0  0  0  0  0  0  0  0
  151.5561  142.2685  155.7807 H   0  0  0  0  0  0  0  0  0  0  0  0
  149.7771  141.2776  154.3215 H   0  0  0  0  0  0  0  0  0  0  0  0
  149.4840  142.9624  154.7013 H   0  0  0  0  0  0  0  0  0  0  0  0
  148.5628  141.7156  155.5221 H   0  0  0  0  0  0  0  0  0  0  0  0
  149.9702  140.1930  157.3432 H   0  0  0  0  0  0  0  0  0  0  0  0
  151.7170  141.2037  158.7253 H   0  0  0  0  0  0  0  0  0  0  0  0
  152.9471  140.7760  157.5428 H   0  0  0  0  0  0  0  0  0  0  0  0
  152.0550  139.5145  158.3801 H   0  0  0  0  0  0  0  0  0  0  0  0
  153.2563  139.7074  155.4700 H   0  0  0  0  0  0  0  0  0  0  0  0
  152.8454  137.6676  153.7093 H   0  0  0  0  0  0  0  0  0  0  0  0
  150.1290  137.1721  153.9523 H   0  0  0  0  0  0  0  0  0  0  0  0
  149.8292  143.6920  156.8279 H   0  0  0  0  0  0  0  0  0  0  0  0
  1  2  1  0  0  0  0
  1 16  1  0  0  0  0
  1 17  1  0  0  0  0
  1 18  1  0  0  0  0
  2  3  1  0  0  0  0
  2 19  1  0  0  0  0
  2 20  1  0  0  0  0
  3  4  1  0  0  0  0
  3  5  1  0  0  0  0
  3 21  1  0  0  0  0
  4 22  1  0  0  0  0
  5  6  1  0  0  0  0
  5 23  1  0  0  0  0
  5 24  1  0  0  0  0
  6  7  1  0  0  0  0
  6 25  1  0  0  0  0
  6 37  1  0  0  0  0
  7  8  1  0  0  0  0
  7  9  1  0  0  0  0
  7 26  1  0  0  0  0
  8 27  1  0  0  0  0
  8 28  1  0  0  0  0
  8 29  1  0  0  0  0
  9 10  1  0  0  0  0
  9 11  1  0  0  0  0
  9 30  1  0  0  0  0
 10 31  1  0  0  0  0
 10 32  1  0  0  0  0
 10 33  1  0  0  0  0
 11 15  1  0  0  0  0
 11 12  1  0  0  0  0
 12 13  2  0  0  0  0
 12 34  1  0  0  0  0
 13 14  1  0  0  0  0
 13 35  1  0  0  0  0
 14 15  2  0  0  0  0
 14 36  1  0  0  0  0
M  CHG  1   6   1
M  END
> <s_m_source_file>
AV-unprocessed.smi

> <i_m_source_file_index>
3112

> <i_lp_mmshare_version>
43012

> <i_f3d_flags>
0

> <s_epik_input>
W0NIM11bQ0gyXVtDQEhdKFtPSF0pW0NIMl1bTkhdW0NASF0oW0NIM10pW0NASF0oW0NIM10pbjFbY0hdW2NIXVtjSF1uMQ==

> <s_epik_cmdline>
J2VwaWtfcHl0aG9uJywgJy1waCcsICc3LjAnLCAnLXRuJywgJzgnLCAnLW1hJywgJzIwMCcsICctbWV0YWxfYmluZGluZycsICctaW1hZScsICc8aW5maWxlLm1hZT4nLCAnLW9tYWUnLCAnPG91dGZpbGUubWFlPic=

> <r_lp_tautomer_probability>
1

> <r_epik_Ionization_Penalty>
0.0154842

> <r_epik_Ionization_Penalty_Charging>
0.0154724

> <r_epik_Ionization_Penalty_Neutral>
1.17979e-05

> <r_epik_State_Penalty>
0.0121607

> <r_epik_Charging_Adjusted_Penalty>
0.0276331

> <i_epik_Tot_Q>
1

> <i_epik_Tot_abs_Q>
1

> <r_epik_Metal_State_Penalty>
0.0121863

> <b_epik_Metal_Only>
0

> <s_lp_Force_Field>
OPLS_2005

> <r_lp_Energy>
12.6471

> <b_lp_Chiralities_Consistent>
1

> <s_lp_Variant>
AV-unprocessed.smi:3112-2

> <Gold.Version>
5.8.1

> <Gold.Id.Protein>
6NUR|6NUR_protein|mol2

> <Gold.PLP.Fitness>
45.1210

> <Gold.PLP.PLP>
-34.7107

> <Gold.PLP.part.hbond>
-3.0159

> <Gold.PLP.part.metal>
0.0000

> <Gold.PLP.part.buried>
-1.0672

> <Gold.PLP.part.nonpolar>
-30.9163

> <Gold.PLP.part.repulsive>
0.0805

> <Gold.PLP.ligand.clash>
0.0000

> <Gold.PLP.ligand.torsion>
1.0070

> <Gold.PLP.Chemscore.Hbond>
3.0000

> <Gold.PLP.Chemscore.CHOScore>
1.0824

> <Gold.PLP.Chemscore.Metal>
0.0000

> <Gold.Chemscore.Hbonds>
donor molecule, donor type, donor heavy atom, donor atom, acceptor molecule, acceptor atom, score
      L1  H     4    22       P1  8029  1.00
      L1  H     6    37       P1  8028  2.00
      L1  C    14    36       P1  7948  0.98
      L1  C    14    36       P1  7949  0.01

> <Gold.PLP.Chemscore.Internal.Correction>
0.1772

> <Gold.Rescore>
     Score         DG    S(hbond)    S(metal)    S(lipo)     H(rot)  DE(clash)    DE(int)     intcor
     14.61     -15.92       1.59        0.00      96.52       2.41       0.12       1.18       ----

> <Gold.Chemscore.Fitness>
14.6143

> <Gold.Chemscore.DG>
-15.9153

> <Gold.Chemscore.ZeroCoef>
-5.4800

> <Gold.Chemscore.Hbond>
1.5896

> <Gold.Chemscore.Metal>
0.0000

> <Gold.Chemscore.Lipo>
96.5183

> <Gold.Chemscore.Internal_Hbond>
0.0000

> <Gold.Chemscore.DEClash>
0.1227

> <Gold.Chemscore.DEInternal>
1.1784

> <Gold.Chemscore.Rot>
2.4089

> <Gold.Chemscore.Internal.Correction>
   9.000000E+99

> <Gold.Chemscore.Hbonds>
donor molecule, donor type, donor heavy atom, donor atom, acceptor molecule, acceptor atom, score
      L1  H     4    22       P1  8029  0.66
      L1  H     6    37       P1  8028  0.99

> <Gold.Chemscore.Hbond.Weighted>
-5.3094

> <Gold.Chemscore.Metal.Weighted>
-0.0000

> <Gold.Chemscore.Lipo.Weighted>
-11.2926

> <Gold.Chemscore.Internal_Hbond.Weighted>
0.0000

> <Gold.Chemscore.DEClash.Weighted>
0.1227

> <Gold.Chemscore.DEInternal.Weighted>
1.1784

> <Gold.Chemscore.Rot.Weighted>
6.1667

> <Gold.Chemscore.Internal.Correction.Weighted>
   9.000000E+99

> <Gold.Protein.RotatedTorsions>
[ 6907 6896 6895 6894 ] final   58.66 input  -60.11 | X-H torsion
[ 7974 7965 7964 7962 ] final   52.34 input  175.53 | X-H torsion
[ 8008 7997 7996 7995 ] final -119.77 input   59.86 | X-H torsion
[ 10167 10162 10161 10158 ] final   34.89 input  -65.29 | X-H torsion
[ 10718 10713 10712 10709 ] final   -3.34 input   66.30 | X-H torsion
[ 10763 10752 10751 10750 ] final  -37.06 input  -60.55 | X-H torsion
[ 11005 11000 10999 10996 ] final  -39.46 input  -57.11 | X-H torsion

> <Gold.Protein.ActiveResidues>
 VAL166  LYS551  ARG553  GLY616  TRP617  ASP618  TYR619  PRO620  LYS621  CYS622 
 ASP623  PHE694  ASN695  SER759  ASP760  ASP761  ALA762  ILE779  LEU786  VAL792 
 PHE793  MET794  SER795  GLU796  ALA797  LYS798  CYS799  TRP800  GLU811  SER814 

> <Gold.Protein.RotatedAtoms>
  152.3844  134.6540  160.0130 H   0  0  0  0  0  0  0  0  0  0  0  0  # atno 6907 bound_to 6896
  151.6793  133.3307  159.3223 H   0  0  0  0  0  0  0  0  0  0  0  0  # atno 6908 bound_to 6896
  150.7774  134.6731  159.6447 H   0  0  0  0  0  0  0  0  0  0  0  0  # atno 6909 bound_to 6896
  145.9823  139.4255  143.0124 H   0  0  0  0  0  0  0  0  0  0  0  0  # atno 7974 bound_to 7965
  155.1211  140.0398  157.2750 H   0  0  0  0  0  0  0  0  0  0  0  0  # atno 8008 bound_to 7997
  154.6613  140.2591  155.7080 H   0  0  0  0  0  0  0  0  0  0  0  0  # atno 8009 bound_to 7997
  156.2620  140.2816  156.1086 H   0  0  0  0  0  0  0  0  0  0  0  0  # atno 8010 bound_to 7997
  140.4273  144.1374  150.6155 H   0  0  0  0  0  0  0  0  0  0  0  0  # atno 10167 bound_to 10162
  156.7775  130.5320  149.5756 H   0  0  0  0  0  0  0  0  0  0  0  0  # atno 10718 bound_to 10713
  153.8900  135.6813  153.4761 H   0  0  0  0  0  0  0  0  0  0  0  0  # atno 10763 bound_to 10752
  153.1186  135.4750  154.9155 H   0  0  0  0  0  0  0  0  0  0  0  0  # atno 10764 bound_to 10752
  154.7627  135.3215  154.8300 H   0  0  0  0  0  0  0  0  0  0  0  0  # atno 10765 bound_to 10752
  141.0103  133.6911  156.2189 H   0  0  0  0  0  0  0  0  0  0  0  0  # atno 11005 bound_to 11000
  145.7751  140.9880  143.1129 LP  0  0  0  0  0  0  0  0  0  0  0  0  # atno 17320 bound_to 7965
  144.6865  139.9495  143.7477 LP  0  0  0  0  0  0  0  0  0  0  0  0  # atno 17321 bound_to 7965
  140.4466  143.2504  151.9403 LP  0  0  0  0  0  0  0  0  0  0  0  0  # atno 17342 bound_to 10162
  139.4784  144.5603  151.8250 LP  0  0  0  0  0  0  0  0  0  0  0  0  # atno 17343 bound_to 10162
  156.1239  130.6130  151.0234 LP  0  0  0  0  0  0  0  0  0  0  0  0  # atno 17370 bound_to 10713
  157.6662  131.0871  150.7722 LP  0  0  0  0  0  0  0  0  0  0  0  0  # atno 17371 bound_to 10713
  140.6744  134.4833  157.5588 LP  0  0  0  0  0  0  0  0  0  0  0  0  # atno 17394 bound_to 11000
  139.9086  134.8394  156.1611 LP  0  0  0  0  0  0  0  0  0  0  0  0  # atno 17395 bound_to 11000

$$$$
