AV-unprocessed.smi:72|AV-procd|sdf|684|dock4
  -GOLD-   2262016593D 1   1.00000     0.00000
 Structure written by MMmdl.
 29 30  0  0  0  0  0  0  0  0  1 V2000
  152.1825  142.3077  161.2286 N   0  0  0  0  0  0  0  0  0  0  0  0
  151.7926  142.1962  160.0094 C   0  0  0  0  0  0  0  0  0  0  0  0
  150.9365  143.0870  159.3457 N   0  0  0  0  0  0  0  0  0  0  0  0
  150.6152  142.8375  158.1137 C   0  0  0  0  0  0  0  0  0  0  0  0
  151.0956  141.6632  157.4027 N   0  0  0  0  0  0  0  0  0  0  0  0
  150.6850  141.4697  155.9511 C   0  0  1  0  0  0  0  0  0  0  0  0
  151.2612  140.3007  155.4438 O   0  0  0  0  0  0  0  0  0  0  0  0
  150.2553  139.4137  154.9528 C   0  0  2  0  0  0  0  0  0  0  0  0
  150.7878  138.5689  153.7812 C   0  0  0  0  0  0  0  0  0  0  0  0
  151.0894  137.2613  154.2191 O   0  0  0  0  0  0  0  0  0  0  0  0
  149.0640  140.3272  154.6260 C   0  0  2  0  0  0  0  0  0  0  0  0
  149.1852  140.8836  153.3286 O   0  0  0  0  0  0  0  0  0  0  0  0
  149.1650  141.4266  155.6738 C   0  0  1  0  0  0  0  0  0  0  0  0
  148.3602  141.1336  156.7999 O   0  0  0  0  0  0  0  0  0  0  0  0
  151.9946  140.7739  158.0511 C   0  0  0  0  0  0  0  0  0  0  0  0
  152.4750  139.7858  157.5008 O   0  0  0  0  0  0  0  0  0  0  0  0
  152.2935  141.0780  159.3326 N   0  0  0  0  0  0  0  0  0  0  0  0
  151.1529  142.2898  155.4045 H   0  0  0  0  0  0  0  0  0  0  0  0
  149.9432  138.7513  155.7603 H   0  0  0  0  0  0  0  0  0  0  0  0
  148.1155  139.7901  154.6724 H   0  0  0  0  0  0  0  0  0  0  0  0
  148.8420  142.3944  155.2875 H   0  0  0  0  0  0  0  0  0  0  0  0
  151.7809  143.1346  161.6472 H   0  0  0  0  0  0  0  0  0  0  0  0
  149.9597  143.4906  157.5357 H   0  0  0  0  0  0  0  0  0  0  0  0
  150.0269  138.4808  153.0051 H   0  0  0  0  0  0  0  0  0  0  0  0
  151.6673  139.0266  153.3272 H   0  0  0  0  0  0  0  0  0  0  0  0
  151.2714  136.7249  153.4627 H   0  0  0  0  0  0  0  0  0  0  0  0
  149.5091  140.2152  152.7445 H   0  0  0  0  0  0  0  0  0  0  0  0
  148.9231  141.0201  157.5500 H   0  0  0  0  0  0  0  0  0  0  0  0
  152.9228  140.4608  159.8247 H   0  0  0  0  0  0  0  0  0  0  0  0
  1  2  2  0  0  0  0
  1 22  1  0  0  0  0
  2 17  1  0  0  0  0
  2  3  1  0  0  0  0
  3  4  2  0  0  0  0
  4  5  1  0  0  0  0
  4 23  1  0  0  0  0
  5  6  1  0  0  0  0
  5 15  1  0  0  0  0
  6 18  1  0  0  0  0
  6 13  1  0  0  0  0
  6  7  1  0  0  0  0
  7  8  1  0  0  0  0
  8 19  1  0  0  0  0
  8  9  1  0  0  0  0
  8 11  1  0  0  0  0
  9 10  1  0  0  0  0
  9 24  1  0  0  0  0
  9 25  1  0  0  0  0
 10 26  1  0  0  0  0
 11 20  1  0  0  0  0
 11 12  1  0  0  0  0
 11 13  1  0  0  0  0
 12 27  1  0  0  0  0
 13 21  1  0  0  0  0
 13 14  1  0  0  0  0
 14 28  1  0  0  0  0
 15 16  2  0  0  0  0
 15 17  1  0  0  0  0
 17 29  1  0  0  0  0
M  END
> <s_m_source_file>
AV-unprocessed.smi

> <i_m_source_file_index>
72

> <i_lp_mmshare_version>
43012

> <i_f3d_flags>
0

> <s_epik_input>
W05IMl1jMW5bY0hdbihjKD1PKW4xKVtDQEBIXTJPW0NASF0oW0NIMl1bT0hdKVtDQEBIXShbT0hdKVtDQEhdMltPSF0=

> <s_epik_cmdline>
J2VwaWtfcHl0aG9uJywgJy1waCcsICc3LjAnLCAnLXRuJywgJzgnLCAnLW1hJywgJzIwMCcsICctbWV0YWxfYmluZGluZycsICctaW1hZScsICc8aW5maWxlLm1hZT4nLCAnLW9tYWUnLCAnPG91dGZpbGUubWFlPic=

> <r_lp_tautomer_probability>
7.17554e-07

> <r_epik_Ionization_Penalty>
0.0066451

> <r_epik_Ionization_Penalty_Charging>
0.00663793

> <r_epik_Ionization_Penalty_Neutral>
7.17052e-06

> <r_epik_State_Penalty>
0.419231

> <r_epik_Charging_Adjusted_Penalty>
0.425868

> <i_epik_Tot_Q>
0

> <i_epik_Tot_abs_Q>
0

> <r_epik_Metal_State_Penalty>
1.44144

> <b_epik_Metal_Only>
0

> <s_epik_Chemistry_Notes>
This compound contains an acetal/aminal-like group ( X-CH(R)-Y where X, Y are N, S, or O) that may be acid/base labile, releasing an aldehyde.

> <s_lp_Force_Field>
OPLS_2005

> <r_lp_Energy>
43.3095

> <b_lp_Chiralities_Consistent>
1

> <s_lp_Variant>
AV-unprocessed.smi:72-22

> <Gold.Version>
5.8.1

> <Gold.Id.Protein>
6NUR|6NUR_protein|mol2

> <Gold.PLP.Fitness>
40.7728

> <Gold.PLP.PLP>
-28.4218

> <Gold.PLP.part.hbond>
-6.0020

> <Gold.PLP.part.metal>
0.0000

> <Gold.PLP.part.buried>
-5.7180

> <Gold.PLP.part.nonpolar>
-16.9652

> <Gold.PLP.part.repulsive>
0.1648

> <Gold.PLP.ligand.clash>
2.2418

> <Gold.PLP.ligand.torsion>
0.6271

> <Gold.PLP.Chemscore.Hbond>
4.2725

> <Gold.PLP.Chemscore.CHOScore>
1.0000

> <Gold.PLP.Chemscore.Metal>
0.0000

> <Gold.Chemscore.Hbonds>
donor molecule, donor type, donor heavy atom, donor atom, acceptor molecule, acceptor atom, score
      L1  H    10    26       P1  7949  0.81
      L1  H    12    27       P1  7957  0.70
      P1  H  7989  7998       L1     7  0.41
      P1  H  7997  8010       L1    16  0.83
      P1  H  8011  8017       L1    12  0.85
      L1  C     4    23       P1  8028  1.00

> <Gold.PLP.Chemscore.Internal.Correction>
0.0295

> <Gold.Rescore>
     Score         DG    S(hbond)    S(metal)    S(lipo)     H(rot)  DE(clash)    DE(int)     intcor
      4.20      -7.21       2.57        0.00      30.14       4.06       0.62       2.39       ----

> <Gold.Chemscore.Fitness>
4.2021

> <Gold.Chemscore.DG>
-7.2105

> <Gold.Chemscore.ZeroCoef>
-5.4800

> <Gold.Chemscore.Hbond>
2.5740

> <Gold.Chemscore.Metal>
0.0000

> <Gold.Chemscore.Lipo>
30.1448

> <Gold.Chemscore.Internal_Hbond>
0.0000

> <Gold.Chemscore.DEClash>
0.6197

> <Gold.Chemscore.DEInternal>
2.3887

> <Gold.Chemscore.Rot>
4.0600

> <Gold.Chemscore.Internal.Correction>
   9.000000E+99

> <Gold.Chemscore.Hbonds>
donor molecule, donor type, donor heavy atom, donor atom, acceptor molecule, acceptor atom, score
      L1  H    10    26       P1  7949  0.52
      L1  H    12    27       P1  7957  0.69
      P1  H  7997  8010       L1    16  0.71
      P1  H  8011  8017       L1    12  0.15

> <Gold.Chemscore.Hbond.Weighted>
-8.5971

> <Gold.Chemscore.Metal.Weighted>
-0.0000

> <Gold.Chemscore.Lipo.Weighted>
-3.5269

> <Gold.Chemscore.Internal_Hbond.Weighted>
0.0000

> <Gold.Chemscore.DEClash.Weighted>
0.6197

> <Gold.Chemscore.DEInternal.Weighted>
2.3887

> <Gold.Chemscore.Rot.Weighted>
10.3936

> <Gold.Chemscore.Internal.Correction.Weighted>
   9.000000E+99

> <Gold.Protein.RotatedTorsions>
[ 6907 6896 6895 6894 ] final  127.44 input  -60.11 | X-H torsion
[ 7974 7965 7964 7962 ] final    0.43 input  175.53 | X-H torsion
[ 8008 7997 7996 7995 ] final   49.93 input   59.86 | X-H torsion
[ 10167 10162 10161 10158 ] final -135.64 input  -65.29 | X-H torsion
[ 10718 10713 10712 10709 ] final -152.20 input   66.30 | X-H torsion
[ 10763 10752 10751 10750 ] final  -46.40 input  -60.55 | X-H torsion
[ 11005 11000 10999 10996 ] final -113.71 input  -57.11 | X-H torsion

> <Gold.Protein.ActiveResidues>
 VAL166  LYS551  ARG553  GLY616  TRP617  ASP618  TYR619  PRO620  LYS621  CYS622 
 ASP623  PHE694  ASN695  SER759  ASP760  ASP761  ALA762  ILE779  LEU786  VAL792 
 PHE793  MET794  SER795  GLU796  ALA797  LYS798  CYS799  TRP800  GLU811  SER814 

> <Gold.Protein.RotatedAtoms>
  152.3812  133.6549  159.6162 H   0  0  0  0  0  0  0  0  0  0  0  0  # atno 6907 bound_to 6896
  150.7742  133.9110  159.3378 H   0  0  0  0  0  0  0  0  0  0  0  0  # atno 6908 bound_to 6896
  151.6916  135.0947  160.0286 H   0  0  0  0  0  0  0  0  0  0  0  0  # atno 6909 bound_to 6896
  146.2434  140.1139  142.8343 H   0  0  0  0  0  0  0  0  0  0  0  0  # atno 7974 bound_to 7965
  155.4103  140.3442  155.4263 H   0  0  0  0  0  0  0  0  0  0  0  0  # atno 8008 bound_to 7997
  156.1452  140.1554  156.8889 H   0  0  0  0  0  0  0  0  0  0  0  0  # atno 8009 bound_to 7997
  154.5005  140.0816  156.7768 H   0  0  0  0  0  0  0  0  0  0  0  0  # atno 8010 bound_to 7997
  139.8758  143.6900  152.2634 H   0  0  0  0  0  0  0  0  0  0  0  0  # atno 10167 bound_to 10162
  156.4693  130.8251  151.2480 H   0  0  0  0  0  0  0  0  0  0  0  0  # atno 10718 bound_to 10713
  154.0444  135.6639  153.4793 H   0  0  0  0  0  0  0  0  0  0  0  0  # atno 10763 bound_to 10752
  153.0488  135.5097  154.7811 H   0  0  0  0  0  0  0  0  0  0  0  0  # atno 10764 bound_to 10752
  154.6797  135.3043  154.9595 H   0  0  0  0  0  0  0  0  0  0  0  0  # atno 10765 bound_to 10752
  141.0597  133.9554  157.2689 H   0  0  0  0  0  0  0  0  0  0  0  0  # atno 11005 bound_to 11000
  145.0464  140.8984  143.5022 LP  0  0  0  0  0  0  0  0  0  0  0  0  # atno 17320 bound_to 7965
  145.1228  139.2682  143.5579 LP  0  0  0  0  0  0  0  0  0  0  0  0  # atno 17321 bound_to 7965
  139.7241  144.7596  151.0907 LP  0  0  0  0  0  0  0  0  0  0  0  0  # atno 17342 bound_to 10162
  140.7753  143.5170  150.9582 LP  0  0  0  0  0  0  0  0  0  0  0  0  # atno 17343 bound_to 10162
  157.7492  131.0081  150.3217 LP  0  0  0  0  0  0  0  0  0  0  0  0  # atno 17370 bound_to 10713
  156.3635  130.3851  149.7232 LP  0  0  0  0  0  0  0  0  0  0  0  0  # atno 17371 bound_to 10713
  139.9422  135.0189  156.8743 LP  0  0  0  0  0  0  0  0  0  0  0  0  # atno 17394 bound_to 11000
  140.5892  134.0278  155.7493 LP  0  0  0  0  0  0  0  0  0  0  0  0  # atno 17395 bound_to 11000

$$$$
