AV-unprocessed.smi:3332|AV-procd|sdf|12829|dock6
  -GOLD-   2272019213D 1   1.00000     0.00000
 Structure written by MMmdl.
 41 42  0  0  0  0  0  0  0  0  1 V2000
  143.9096  145.0290  157.4530 C   0  0  0  0  0  0  0  0  0  0  0  0
  143.9892  143.5836  156.9497 C   0  0  0  0  0  0  0  0  0  0  0  0
  144.6792  143.4827  155.6211 C   0  0  0  0  0  0  0  0  0  0  0  0
  145.8308  142.6984  155.5046 N   0  0  0  0  0  0  0  0  0  0  0  0
  146.3347  142.7033  154.2690 C   0  0  0  0  0  0  0  0  0  0  0  0
  147.5402  141.9227  153.8663 C   0  0  0  0  0  0  0  0  0  0  0  0
  148.2787  141.3235  155.0731 C   0  0  0  0  0  0  0  0  0  0  0  0
  149.0752  142.3289  155.7664 N   0  0  0  0  0  0  0  0  0  0  0  0
  150.0177  142.0650  156.6842 C   0  0  0  0  0  0  0  0  0  0  0  0
  150.3137  140.9239  157.0389 O   0  0  0  0  0  0  0  0  0  0  0  0
  150.7413  143.2738  157.2887 C   0  0  0  0  0  0  0  0  0  0  0  0
  150.6652  143.3374  158.8303 C   0  0  2  0  0  0  0  0  0  0  0  0
  151.2369  144.6075  159.4130 C   0  0  0  0  0  0  0  0  0  0  0  0
  152.1582  144.3762  160.3455 C   0  0  0  0  0  0  0  0  0  0  0  0
  152.3898  142.9088  160.5749 C   0  0  0  0  0  0  0  0  0  0  0  0
  151.4848  142.2215  159.5281 C   0  0  0  0  0  0  0  0  0  0  0  0
  145.3906  143.6657  153.1413 S   0  0  0  0  0  0  0  0  0  0  0  0
  144.2987  144.0752  154.4393 C   0  0  0  0  0  0  0  0  0  0  0  0
  143.1221  144.9612  154.1967 C   0  0  0  0  0  0  0  0  0  0  0  0
  143.4069  145.0773  158.4191 H   0  0  0  0  0  0  0  0  0  0  0  0
  143.3550  145.6588  156.7568 H   0  0  0  0  0  0  0  0  0  0  0  0
  144.9050  145.4574  157.5730 H   0  0  0  0  0  0  0  0  0  0  0  0
  144.5039  142.9728  157.6918 H   0  0  0  0  0  0  0  0  0  0  0  0
  142.9810  143.1738  156.8781 H   0  0  0  0  0  0  0  0  0  0  0  0
  147.2241  141.1329  153.1839 H   0  0  0  0  0  0  0  0  0  0  0  0
  148.2082  142.5745  153.3016 H   0  0  0  0  0  0  0  0  0  0  0  0
  147.5595  140.9126  155.7823 H   0  0  0  0  0  0  0  0  0  0  0  0
  148.9136  140.4930  154.7589 H   0  0  0  0  0  0  0  0  0  0  0  0
  148.8966  143.2949  155.5321 H   0  0  0  0  0  0  0  0  0  0  0  0
  151.7852  143.2289  156.9762 H   0  0  0  0  0  0  0  0  0  0  0  0
  150.3332  144.1925  156.8638 H   0  0  0  0  0  0  0  0  0  0  0  0
  149.6245  143.2703  159.1514 H   0  0  0  0  0  0  0  0  0  0  0  0
  150.9057  145.5871  159.1012 H   0  0  0  0  0  0  0  0  0  0  0  0
  152.6874  145.1368  160.9004 H   0  0  0  0  0  0  0  0  0  0  0  0
  153.4409  142.6582  160.4294 H   0  0  0  0  0  0  0  0  0  0  0  0
  152.1044  142.6426  161.5929 H   0  0  0  0  0  0  0  0  0  0  0  0
  150.8296  141.4857  159.9956 H   0  0  0  0  0  0  0  0  0  0  0  0
  152.1024  141.6826  158.8084 H   0  0  0  0  0  0  0  0  0  0  0  0
  142.2064  144.4978  154.5641 H   0  0  0  0  0  0  0  0  0  0  0  0
  142.9913  145.1633  153.1334 H   0  0  0  0  0  0  0  0  0  0  0  0
  143.2470  145.9157  154.7077 H   0  0  0  0  0  0  0  0  0  0  0  0
  1  2  1  0  0  0  0
  1 20  1  0  0  0  0
  1 21  1  0  0  0  0
  1 22  1  0  0  0  0
  2  3  1  0  0  0  0
  2 23  1  0  0  0  0
  2 24  1  0  0  0  0
  3 18  2  0  0  0  0
  3  4  1  0  0  0  0
  4  5  2  0  0  0  0
  5  6  1  0  0  0  0
  5 17  1  0  0  0  0
  6  7  1  0  0  0  0
  6 25  1  0  0  0  0
  6 26  1  0  0  0  0
  7  8  1  0  0  0  0
  7 27  1  0  0  0  0
  7 28  1  0  0  0  0
  8  9  1  0  0  0  0
  8 29  1  0  0  0  0
  9 10  2  0  0  0  0
  9 11  1  0  0  0  0
 11 12  1  0  0  0  0
 11 30  1  0  0  0  0
 11 31  1  0  0  0  0
 12 16  1  0  0  0  0
 12 13  1  0  0  0  0
 12 32  1  0  0  0  0
 13 14  2  0  0  0  0
 13 33  1  0  0  0  0
 14 15  1  0  0  0  0
 14 34  1  0  0  0  0
 15 16  1  0  0  0  0
 15 35  1  0  0  0  0
 15 36  1  0  0  0  0
 16 37  1  0  0  0  0
 16 38  1  0  0  0  0
 17 18  1  0  0  0  0
 18 19  1  0  0  0  0
 19 39  1  0  0  0  0
 19 40  1  0  0  0  0
 19 41  1  0  0  0  0
M  END
> <s_m_source_file>
AV-unprocessed.smi

> <i_m_source_file_index>
3332

> <i_lp_mmshare_version>
43012

> <i_f3d_flags>
0

> <s_epik_input>
W0NIM11bQ0gyXWMxbmMoc2MxW0NIM10pW0NIMl1bQ0gyXVtOSF1DKD1PKVtDSDJdW0NAQEhdMltDSF09W0NIXVtDSDJdW0NIMl0y

> <s_epik_cmdline>
J2VwaWtfcHl0aG9uJywgJy1waCcsICc3LjAnLCAnLXRuJywgJzgnLCAnLW1hJywgJzIwMCcsICctbWV0YWxfYmluZGluZycsICctaW1hZScsICc8aW5maWxlLm1hZT4nLCAnLW9tYWUnLCAnPG91dGZpbGUubWFlPic=

> <r_epik_Ionization_Penalty>
0.00221844

> <r_epik_Ionization_Penalty_Charging>
0

> <r_epik_Ionization_Penalty_Neutral>
0.00221844

> <r_epik_State_Penalty>
0.00152607

> <r_epik_Charging_Adjusted_Penalty>
0.00152607

> <i_epik_Tot_Q>
0

> <i_epik_Tot_abs_Q>
0

> <r_epik_Metal_State_Penalty>
-0

> <b_epik_Metal_Only>
0

> <s_lp_Force_Field>
OPLS_2005

> <r_lp_Energy>
6.78745

> <b_lp_Chiralities_Consistent>
1

> <s_lp_Variant>
AV-unprocessed.smi:3332-1

> <Gold.Version>
5.8.1

> <Gold.Id.Protein>
6NUR|6NUR_protein|mol2

> <Gold.PLP.Fitness>
44.5184

> <Gold.PLP.PLP>
-42.0083

> <Gold.PLP.part.hbond>
-1.0000

> <Gold.PLP.part.metal>
0.0000

> <Gold.PLP.part.buried>
-6.5967

> <Gold.PLP.part.nonpolar>
-34.8956

> <Gold.PLP.part.repulsive>
0.3326

> <Gold.PLP.ligand.clash>
0.0000

> <Gold.PLP.ligand.torsion>
0.2752

> <Gold.PLP.Chemscore.Hbond>
1.0000

> <Gold.PLP.Chemscore.CHOScore>
0.0000

> <Gold.PLP.Chemscore.Metal>
0.0000

> <Gold.Chemscore.Hbonds>
donor molecule, donor type, donor heavy atom, donor atom, acceptor molecule, acceptor atom, score
      L1  H     8    29       P1  8028  0.73

> <Gold.PLP.Chemscore.Internal.Correction>
0.0607

> <Gold.Rescore>
     Score         DG    S(hbond)    S(metal)    S(lipo)     H(rot)  DE(clash)    DE(int)     intcor
     17.25     -18.00       0.98        0.00     112.17       1.51       0.18       0.56       ----

> <Gold.Chemscore.Fitness>
17.2540

> <Gold.Chemscore.DG>
-17.9958

> <Gold.Chemscore.ZeroCoef>
-5.4800

> <Gold.Chemscore.Hbond>
0.9755

> <Gold.Chemscore.Metal>
0.0000

> <Gold.Chemscore.Lipo>
112.1715

> <Gold.Chemscore.Internal_Hbond>
0.0000

> <Gold.Chemscore.DEClash>
0.1843

> <Gold.Chemscore.DEInternal>
0.5574

> <Gold.Chemscore.Rot>
1.5103

> <Gold.Chemscore.Internal.Correction>
   9.000000E+99

> <Gold.Chemscore.Hbonds>
donor molecule, donor type, donor heavy atom, donor atom, acceptor molecule, acceptor atom, score
      L1  H     8    29       P1  8028  0.72

> <Gold.Chemscore.Hbond.Weighted>
-3.2581

> <Gold.Chemscore.Metal.Weighted>
-0.0000

> <Gold.Chemscore.Lipo.Weighted>
-13.1241

> <Gold.Chemscore.Internal_Hbond.Weighted>
0.0000

> <Gold.Chemscore.DEClash.Weighted>
0.1843

> <Gold.Chemscore.DEInternal.Weighted>
0.5574

> <Gold.Chemscore.Rot.Weighted>
3.8664

> <Gold.Chemscore.Internal.Correction.Weighted>
   9.000000E+99

> <Gold.Protein.RotatedTorsions>
[ 6907 6896 6895 6894 ] final -167.65 input  -60.11 | X-H torsion
[ 7974 7965 7964 7962 ] final   11.75 input  175.53 | X-H torsion
[ 8008 7997 7996 7995 ] final   76.94 input   59.86 | X-H torsion
[ 10167 10162 10161 10158 ] final  -73.51 input  -65.29 | X-H torsion
[ 10718 10713 10712 10709 ] final  -26.99 input   66.30 | X-H torsion
[ 10763 10752 10751 10750 ] final    6.76 input  -60.55 | X-H torsion
[ 11005 11000 10999 10996 ] final  -19.86 input  -57.11 | X-H torsion

> <Gold.Protein.ActiveResidues>
 VAL166  LYS551  ARG553  GLY616  TRP617  ASP618  TYR619  PRO620  LYS621  CYS622 
 ASP623  PHE694  ASN695  SER759  ASP760  ASP761  ALA762  ILE779  LEU786  VAL792 
 PHE793  MET794  SER795  GLU796  ALA797  LYS798  CYS799  TRP800  GLU811  SER814 

> <Gold.Protein.RotatedAtoms>
  151.4629  133.3588  159.2811 H   0  0  0  0  0  0  0  0  0  0  0  0  # atno 6907 bound_to 6896
  150.9013  134.8427  159.7373 H   0  0  0  0  0  0  0  0  0  0  0  0  # atno 6908 bound_to 6896
  152.4881  134.4550  159.9638 H   0  0  0  0  0  0  0  0  0  0  0  0  # atno 6909 bound_to 6896
  146.2365  139.9438  142.8479 H   0  0  0  0  0  0  0  0  0  0  0  0  # atno 7974 bound_to 7965
  155.8345  140.3465  155.5593 H   0  0  0  0  0  0  0  0  0  0  0  0  # atno 8008 bound_to 7997
  155.8207  140.0912  157.1870 H   0  0  0  0  0  0  0  0  0  0  0  0  # atno 8009 bound_to 7997
  154.4004  140.1430  156.3484 H   0  0  0  0  0  0  0  0  0  0  0  0  # atno 8010 bound_to 7997
  140.5104  143.2346  151.7603 H   0  0  0  0  0  0  0  0  0  0  0  0  # atno 10167 bound_to 10162
  156.4440  130.4470  149.7034 H   0  0  0  0  0  0  0  0  0  0  0  0  # atno 10718 bound_to 10713
  153.2440  135.6906  153.7752 H   0  0  0  0  0  0  0  0  0  0  0  0  # atno 10763 bound_to 10752
  153.6871  135.3319  155.3193 H   0  0  0  0  0  0  0  0  0  0  0  0  # atno 10764 bound_to 10752
  154.8367  135.4536  154.1372 H   0  0  0  0  0  0  0  0  0  0  0  0  # atno 10765 bound_to 10752
  140.8408  133.7928  155.9859 H   0  0  0  0  0  0  0  0  0  0  0  0  # atno 11005 bound_to 11000
  145.1927  140.9819  143.4202 LP  0  0  0  0  0  0  0  0  0  0  0  0  # atno 17320 bound_to 7965
  144.9843  139.3752  143.6246 LP  0  0  0  0  0  0  0  0  0  0  0  0  # atno 17321 bound_to 7965
  139.4894  144.4398  151.9777 LP  0  0  0  0  0  0  0  0  0  0  0  0  # atno 17342 bound_to 10162
  140.3490  144.3111  150.5952 LP  0  0  0  0  0  0  0  0  0  0  0  0  # atno 17343 bound_to 10162
  156.3887  130.7616  151.2615 LP  0  0  0  0  0  0  0  0  0  0  0  0  # atno 17370 bound_to 10713
  157.7505  131.0274  150.4004 LP  0  0  0  0  0  0  0  0  0  0  0  0  # atno 17371 bound_to 10713
  140.8897  134.2510  157.5101 LP  0  0  0  0  0  0  0  0  0  0  0  0  # atno 17394 bound_to 11000
  139.8703  134.9655  156.4532 LP  0  0  0  0  0  0  0  0  0  0  0  0  # atno 17395 bound_to 11000

$$$$
