#       Name:                AV-unprocessed.smi:2831
#       Creating user name   scv26
#       Creation time:       Fri Mar 27 15:35:49 2020


#       File generated by GOLD software.
#

@<TRIPOS>MOLECULE
AV-unprocessed.smi:2831
    36    37     1
SMALL
NO_CHARGES


@<TRIPOS>ATOM
      1 ****        -5.6219   2.3133   0.3929 C.3            1 S1                 0.0000
      2 ****        -4.2413   2.1048  -0.1281 C.2            1 S1                 0.0000
      3 ****        -3.9754   1.9419  -1.4264 N.2            1 S1                 0.0000
      4 ****        -2.6201   1.7626  -1.6638 N.2            1 S1                 0.0000
      5 ****        -1.8834   1.7807  -0.5438 C.2            1 S1                 0.0000
      6 ****        -0.5489   1.6262  -0.5556 N.pl3          1 S1                -1.0000
      7 ****        -0.0059   0.4176  -0.2839 C.2            1 S1                 0.0000
      8 ****        -0.6269  -0.6147  -0.0231 O.2            1 S1                 0.0000
      9 ****         1.3378   0.4167  -0.3155 N.am           1 S1                 0.0000
     10 ****         2.2771  -0.6891  -0.0787 C.3            1 S1                 0.0000
     11 ****         3.7006  -0.1045  -0.1420 C.3            1 S1                 0.0000
     12 ****         2.0503  -1.4015   1.2667 C.3            1 S1                 0.0000
     13 ****         1.6816  -2.8323   0.8784 C.3            1 S1                 0.0000
     14 ****         2.3301  -3.0131  -0.3684 O.3            1 S1                 0.0000
     15 ****         2.1171  -1.8239  -1.1129 C.3            1 S1                 0.0000
     16 ****        -2.8326   2.0504   0.9175 S.3            1 S1                 0.0000
     17 ****        -6.1415   1.3576   0.4632 H              1 S1                 0.0000
     18 ****        -6.1821   2.9711  -0.2721 H              1 S1                 0.0000
     19 ****        -5.5875   2.7679   1.3831 H              1 S1                 0.0000
     20 ****         1.7655   1.3038  -0.5369 H              1 S1                 0.0000
     21 ****         4.4558  -0.8789  -0.0027 H              1 S1                 0.0000
     22 ****         3.8533   0.6494   0.6314 H              1 S1                 0.0000
     23 ****         3.8919   0.3693  -1.1056 H              1 S1                 0.0000
     24 ****         2.9683  -1.4169   1.8557 H              1 S1                 0.0000
     25 ****         1.2858  -0.9407   1.8932 H              1 S1                 0.0000
     26 ****         2.0114  -3.5661   1.6138 H              1 S1                 0.0000
     27 ****         0.6037  -2.9396   0.7481 H              1 S1                 0.0000
     28 ****         1.1156  -1.8635  -1.5430 H              1 S1                 0.0000
     29 ****         2.8213  -1.7495  -1.9421 H              1 S1                 0.0000
     30 ****        -4.6718   1.9484  -2.1440 LP             1 S1                 0.0000
     31 ****        -2.2326   1.6332  -2.5765 LP             1 S1                 0.0000
     32 ****         0.0428   2.4046  -0.7652 LP             1 S1                 0.0000
     33 ****        -1.6265  -0.6043   0.0009 LP             1 S1                 0.0000
     34 ****        -0.1310  -1.4626   0.1645 LP             1 S1                 0.0000
     35 ****         1.9384  -3.7967  -0.8505 LP             1 S1                 0.0000
     36 ****         3.3091  -3.1625  -0.2296 LP             1 S1                 0.0000
@<TRIPOS>BOND
    1    1    2 1     
    2    1   17 1     
    3    1   18 1     
    4    1   19 1     
    5    2   16 1     
    6    2    3 2     
    7    3    4 1     
    8    4    5 2     
    9    5    6 1     
   10    5   16 1     
   11    6    7 1     
   12    7    8 2     
   13    7    9 am    
   14    9   10 1     
   15    9   20 1     
   16   10   15 1     
   17   10   11 1     
   18   10   12 1     
   19   11   21 1     
   20   11   22 1     
   21   11   23 1     
   22   12   13 1     
   23   12   24 1     
   24   12   25 1     
   25   13   14 1     
   26   13   26 1     
   27   13   27 1     
   28   14   15 1     
   29   15   28 1     
   30   15   29 1     
   31    3   30 1     
   32    4   31 1     
   33    6   32 1     
   34    8   33 1     
   35    8   34 1     
   36   14   35 1     
   37   14   36 1     
@<TRIPOS>SUBSTRUCTURE
      1 S1             1
@<TRIPOS>SET
LONE_PAIRS      STATIC     ATOMS    <user>   **** ""
7 30 31 32 33 34 35 36
DONOR_HYDROGENS      STATIC     ATOMS    <user>   **** ""
1 20
ATOM$BLUE        STATIC     ATOMS    COLORGROUP SYSTEM
7 30 31 32 33 34 35 36
ATOM$RED        STATIC     ATOMS    COLORGROUP SYSTEM
1 20
