AV-unprocessed.smi:1|AV-procd|sdf|8|dock8
  -GOLD-   2262015 93D 1   1.00000     0.00000
 Structure written by MMmdl.
 57 62  0  0  0  0  0  0  0  0  1 V2000
  146.3679  134.3893  154.1948 O   0  0  0  0  0  0  0  0  0  0  0  0
  146.5663  133.2311  153.8265 C   0  0  0  0  0  0  0  0  0  0  0  0
  147.4709  132.3395  154.5310 N   0  0  0  0  0  0  0  0  0  0  0  0
  148.2600  132.6175  155.5951 C   0  0  0  0  0  0  0  0  0  0  0  0
  148.3755  131.7769  156.6556 N   0  0  0  0  0  0  0  0  0  0  0  0
  149.1661  132.0976  157.6820 C   0  0  0  0  0  0  0  0  0  0  0  0
  149.9152  133.1892  157.8464 N   0  0  0  0  0  0  0  0  0  0  0  0
  149.8132  134.0419  156.7843 C   0  0  0  0  0  0  0  0  0  0  0  0
  149.0063  133.8241  155.6310 C   0  0  0  0  0  0  0  0  0  0  0  0
  149.1310  134.8941  154.7568 N   0  0  0  0  0  0  0  0  0  0  0  0
  149.9625  135.6975  155.3609 C   0  0  0  0  0  0  0  0  0  0  0  0
  150.4367  135.2622  156.5793 N   0  0  0  0  0  0  0  0  0  0  0  0
  151.4008  135.9984  157.4694 C   0  0  1  0  0  0  0  0  0  0  0  0
  151.8777  137.1389  156.8240 O   0  0  0  0  0  0  0  0  0  0  0  0
  151.2022  138.2906  157.3145 C   0  0  2  0  0  0  0  0  0  0  0  0
  152.0271  139.5495  157.0357 C   0  0  0  0  0  0  0  0  0  0  0  0
  151.6397  140.5552  157.9564 O   0  0  0  0  0  0  0  0  0  0  0  0
  151.1675  141.7354  157.5137 C   0  0  0  0  0  0  0  0  0  0  0  0
  150.5766  141.8753  156.4409 O   0  0  0  0  0  0  0  0  0  0  0  0
  151.4412  142.8577  158.4571 C   0  0  0  0  0  0  0  0  0  0  0  0
  151.3025  144.1923  158.0098 C   0  0  0  0  0  0  0  0  0  0  0  0
  151.5577  145.2703  158.8802 C   0  0  0  0  0  0  0  0  0  0  0  0
  151.9533  145.0267  160.2085 C   0  0  0  0  0  0  0  0  0  0  0  0
  152.0921  143.7033  160.6663 C   0  0  0  0  0  0  0  0  0  0  0  0
  151.8370  142.6248  159.7971 C   0  0  0  0  0  0  0  0  0  0  0  0
  151.0344  137.9721  158.7983 C   0  0  1  0  0  0  0  0  0  0  0  0
  149.9337  138.6593  159.3671 O   0  0  0  0  0  0  0  0  0  0  0  0
  148.5788  137.6871  159.2622 S   0  0  0  0  0  0  0  0  0  0  0  0
  148.0654  137.4661  160.6226 O   0  0  0  0  0  0  0  0  0  0  0  0
  147.7336  138.1870  158.1673 O   0  0  0  0  0  0  0  0  0  0  0  0
  149.3196  136.2832  158.7469 O   0  0  0  0  0  0  0  0  0  0  0  0
  150.7278  136.4677  158.7761 C   0  0  1  0  0  0  0  0  0  0  0  0
  145.8215  132.6339  152.6680 C   0  0  0  0  0  0  0  0  0  0  0  0
  145.8051  131.2328  152.4861 C   0  0  0  0  0  0  0  0  0  0  0  0
  145.0956  130.6612  151.4123 C   0  0  0  0  0  0  0  0  0  0  0  0
  144.3906  131.4852  150.5149 C   0  0  0  0  0  0  0  0  0  0  0  0
  144.3919  132.8812  150.6950 C   0  0  0  0  0  0  0  0  0  0  0  0
  145.1009  133.4542  151.7688 C   0  0  0  0  0  0  0  0  0  0  0  0
  147.5345  131.3990  154.1694 H   0  0  0  0  0  0  0  0  0  0  0  0
  149.2034  131.3751  158.4835 H   0  0  0  0  0  0  0  0  0  0  0  0
  150.2659  136.6386  154.9253 H   0  0  0  0  0  0  0  0  0  0  0  0
  152.2136  135.2888  157.6276 H   0  0  0  0  0  0  0  0  0  0  0  0
  150.2211  138.3676  156.8442 H   0  0  0  0  0  0  0  0  0  0  0  0
  153.0876  139.3305  157.1675 H   0  0  0  0  0  0  0  0  0  0  0  0
  151.8819  139.8899  156.0097 H   0  0  0  0  0  0  0  0  0  0  0  0
  151.0011  144.4033  156.9938 H   0  0  0  0  0  0  0  0  0  0  0  0
  151.4495  146.2852  158.5271 H   0  0  0  0  0  0  0  0  0  0  0  0
  152.1486  145.8534  160.8757 H   0  0  0  0  0  0  0  0  0  0  0  0
  152.3932  143.5137  161.6861 H   0  0  0  0  0  0  0  0  0  0  0  0
  151.9474  141.6214  160.1798 H   0  0  0  0  0  0  0  0  0  0  0  0
  151.9545  138.1698  159.3497 H   0  0  0  0  0  0  0  0  0  0  0  0
  151.1524  135.9461  159.6342 H   0  0  0  0  0  0  0  0  0  0  0  0
  146.3405  130.5865  153.1669 H   0  0  0  0  0  0  0  0  0  0  0  0
  145.0920  129.5894  151.2781 H   0  0  0  0  0  0  0  0  0  0  0  0
  143.8464  131.0466  149.6916 H   0  0  0  0  0  0  0  0  0  0  0  0
  143.8461  133.5136  150.0104 H   0  0  0  0  0  0  0  0  0  0  0  0
  145.0806  134.5272  151.8931 H   0  0  0  0  0  0  0  0  0  0  0  0
  1  2  2  0  0  0  0
  2  3  1  0  0  0  0
  2 33  1  0  0  0  0
  3  4  1  0  0  0  0
  3 39  1  0  0  0  0
  4  9  1  0  0  0  0
  4  5  2  0  0  0  0
  5  6  1  0  0  0  0
  6  7  2  0  0  0  0
  6 40  1  0  0  0  0
  7  8  1  0  0  0  0
  8 12  1  0  0  0  0
  8  9  2  0  0  0  0
  9 10  1  0  0  0  0
 10 11  2  0  0  0  0
 11 12  1  0  0  0  0
 11 41  1  0  0  0  0
 12 13  1  0  0  0  0
 13 32  1  0  0  0  0
 13 14  1  0  0  0  0
 13 42  1  0  0  0  0
 14 15  1  0  0  0  0
 15 16  1  0  0  0  0
 15 26  1  0  0  0  0
 15 43  1  0  0  0  0
 16 17  1  0  0  0  0
 16 44  1  0  0  0  0
 16 45  1  0  0  0  0
 17 18  1  0  0  0  0
 18 19  2  0  0  0  0
 18 20  1  0  0  0  0
 20 25  1  0  0  0  0
 20 21  2  0  0  0  0
 21 22  1  0  0  0  0
 21 46  1  0  0  0  0
 22 23  2  0  0  0  0
 22 47  1  0  0  0  0
 23 24  1  0  0  0  0
 23 48  1  0  0  0  0
 24 25  2  0  0  0  0
 24 49  1  0  0  0  0
 25 50  1  0  0  0  0
 26 32  1  0  0  0  0
 26 27  1  0  0  0  0
 26 51  1  0  0  0  0
 27 28  1  0  0  0  0
 28 29  2  0  0  0  0
 28 30  2  0  0  0  0
 28 31  1  0  0  0  0
 31 32  1  0  0  0  0
 32 52  1  0  0  0  0
 33 38  1  0  0  0  0
 33 34  2  0  0  0  0
 34 35  1  0  0  0  0
 34 53  1  0  0  0  0
 35 36  2  0  0  0  0
 35 54  1  0  0  0  0
 36 37  1  0  0  0  0
 36 55  1  0  0  0  0
 37 38  2  0  0  0  0
 37 56  1  0  0  0  0
 38 57  1  0  0  0  0
M  END
> <s_m_source_file>
AV-unprocessed.smi

> <i_m_source_file_index>
1

> <i_lp_mmshare_version>
43012

> <i_f3d_flags>
0

> <s_epik_input>
W2NIXTFbY0hdW2NIXVtjSF1bY0hdYzFDKD1PKVtOSF1jKG5bY0hdbjIpYyhjMjMpbltjSF1uM1tDQEBIXShbQ0BIXShbQ0BIXTQ1KU9TKE81KSg9Tyk9TylPW0NASF00W0NIMl1PQyg9TyljNltjSF1bY0hdW2NIXVtjSF1bY0hdNg==

> <s_epik_cmdline>
J2VwaWtfcHl0aG9uJywgJy1waCcsICc3LjAnLCAnLXRuJywgJzgnLCAnLW1hJywgJzIwMCcsICctbWV0YWxfYmluZGluZycsICctaW1hZScsICc8aW5maWxlLm1hZT4nLCAnLW9tYWUnLCAnPG91dGZpbGUubWFlPic=

> <r_lp_tautomer_probability>
1

> <r_epik_Ionization_Penalty>
0.00195722

> <r_epik_Ionization_Penalty_Charging>
0

> <r_epik_Ionization_Penalty_Neutral>
0.00195722

> <r_epik_State_Penalty>
0.00633741

> <r_epik_Charging_Adjusted_Penalty>
0.00633741

> <i_epik_Tot_Q>
0

> <i_epik_Tot_abs_Q>
0

> <r_epik_Metal_State_Penalty>
0.341185

> <b_epik_Metal_Only>
0

> <s_epik_Chemistry_Notes>
This compound has an ester and may undergo hydrolysis at high or low pH. This compound contains an acetal/aminal-like group ( X-CH(R)-Y where X, Y are N, S, or O) that may be acid/base labile, releasing an aldehyde.

> <s_lp_Force_Field>
OPLS_2005

> <r_lp_Energy>
42.577

> <b_lp_Chiralities_Consistent>
1

> <s_lp_Variant>
AV-unprocessed.smi:1-8

> <Gold.Version>
5.8.1

> <Gold.Id.Protein>
6NUR|6NUR_protein|mol2

> <Gold.PLP.Fitness>
55.2438

> <Gold.PLP.PLP>
-53.3633

> <Gold.PLP.part.hbond>
-4.3088

> <Gold.PLP.part.metal>
0.0000

> <Gold.PLP.part.buried>
-6.2053

> <Gold.PLP.part.nonpolar>
-46.2429

> <Gold.PLP.part.repulsive>
2.3177

> <Gold.PLP.ligand.clash>
0.0000

> <Gold.PLP.ligand.torsion>
1.5707

> <Gold.PLP.Chemscore.Hbond>
1.6320

> <Gold.PLP.Chemscore.CHOScore>
0.0000

> <Gold.PLP.Chemscore.Metal>
0.0000

> <Gold.Chemscore.Hbonds>
donor molecule, donor type, donor heavy atom, donor atom, acceptor molecule, acceptor atom, score
      P1  H  6896  6907       L1     7  1.00
      P1  H  6931  6943       L1    29  0.67
      P1  H  6934  6947       L1    29  0.66

> <Gold.PLP.Chemscore.Internal.Correction>
0.1258

> <Gold.Rescore>
     Score         DG    S(hbond)    S(metal)    S(lipo)     H(rot)  DE(clash)    DE(int)     intcor
     16.26     -23.06       1.90        0.00     142.77       2.13       2.97       3.83       ----

> <Gold.Chemscore.Fitness>
16.2553

> <Gold.Chemscore.DG>
-23.0601

> <Gold.Chemscore.ZeroCoef>
-5.4800

> <Gold.Chemscore.Hbond>
1.8975

> <Gold.Chemscore.Metal>
0.0000

> <Gold.Chemscore.Lipo>
142.7689

> <Gold.Chemscore.Internal_Hbond>
0.0000

> <Gold.Chemscore.DEClash>
2.9728

> <Gold.Chemscore.DEInternal>
3.8320

> <Gold.Chemscore.Rot>
2.1333

> <Gold.Chemscore.Internal.Correction>
   9.000000E+99

> <Gold.Chemscore.Hbonds>
donor molecule, donor type, donor heavy atom, donor atom, acceptor molecule, acceptor atom, score
      P1  H  6896  6907       L1     7  0.95
      P1  H  6931  6943       L1    29  0.56
      P1  H  6934  6947       L1    29  0.20

> <Gold.Chemscore.Hbond.Weighted>
-6.3375

> <Gold.Chemscore.Metal.Weighted>
-0.0000

> <Gold.Chemscore.Lipo.Weighted>
-16.7040

> <Gold.Chemscore.Internal_Hbond.Weighted>
0.0000

> <Gold.Chemscore.DEClash.Weighted>
2.9728

> <Gold.Chemscore.DEInternal.Weighted>
3.8320

> <Gold.Chemscore.Rot.Weighted>
5.4614

> <Gold.Chemscore.Internal.Correction.Weighted>
   9.000000E+99

> <Gold.Protein.RotatedTorsions>
[ 6907 6896 6895 6894 ] final -145.76 input  -60.11 | X-H torsion
[ 7974 7965 7964 7962 ] final -105.07 input  175.53 | X-H torsion
[ 8008 7997 7996 7995 ] final   88.50 input   59.86 | X-H torsion
[ 10167 10162 10161 10158 ] final -174.40 input  -65.29 | X-H torsion
[ 10718 10713 10712 10709 ] final   14.79 input   66.30 | X-H torsion
[ 10763 10752 10751 10750 ] final   48.86 input  -60.55 | X-H torsion
[ 11005 11000 10999 10996 ] final   74.92 input  -57.11 | X-H torsion

> <Gold.Protein.ActiveResidues>
 VAL166  LYS551  ARG553  GLY616  TRP617  ASP618  TYR619  PRO620  LYS621  CYS622 
 ASP623  PHE694  ASN695  SER759  ASP760  ASP761  ALA762  ILE779  LEU786  VAL792 
 PHE793  MET794  SER795  GLU796  ALA797  LYS798  CYS799  TRP800  GLU811  SER814 

> <Gold.Protein.RotatedAtoms>
  151.1323  133.5028  159.2598 H   0  0  0  0  0  0  0  0  0  0  0  0  # atno 6907 bound_to 6896
  151.1745  135.0332  159.8776 H   0  0  0  0  0  0  0  0  0  0  0  0  # atno 6908 bound_to 6896
  152.5460  134.1182  159.8441 H   0  0  0  0  0  0  0  0  0  0  0  0  # atno 6909 bound_to 6896
  145.2352  140.9185  143.3182 H   0  0  0  0  0  0  0  0  0  0  0  0  # atno 7974 bound_to 7965
  155.9885  140.3371  155.6730 H   0  0  0  0  0  0  0  0  0  0  0  0  # atno 8008 bound_to 7997
  155.6452  140.0699  157.2623 H   0  0  0  0  0  0  0  0  0  0  0  0  # atno 8009 bound_to 7997
  154.4212  140.1735  156.1603 H   0  0  0  0  0  0  0  0  0  0  0  0  # atno 8010 bound_to 7997
  139.5636  144.1810  152.1277 H   0  0  0  0  0  0  0  0  0  0  0  0  # atno 10167 bound_to 10162
  157.0441  130.6243  149.5756 H   0  0  0  0  0  0  0  0  0  0  0  0  # atno 10718 bound_to 10713
  152.9789  135.5930  154.3994 H   0  0  0  0  0  0  0  0  0  0  0  0  # atno 10763 bound_to 10752
  154.3641  135.2767  155.2305 H   0  0  0  0  0  0  0  0  0  0  0  0  # atno 10764 bound_to 10752
  154.4289  135.6041  153.6111 H   0  0  0  0  0  0  0  0  0  0  0  0  # atno 10765 bound_to 10752
  139.9368  134.7474  156.1207 H   0  0  0  0  0  0  0  0  0  0  0  0  # atno 11005 bound_to 11000
  144.9640  139.3950  143.6342 LP  0  0  0  0  0  0  0  0  0  0  0  0  # atno 17320 bound_to 7965
  146.3343  139.8706  142.8840 LP  0  0  0  0  0  0  0  0  0  0  0  0  # atno 17321 bound_to 7965
  140.1328  144.5272  150.6792 LP  0  0  0  0  0  0  0  0  0  0  0  0  # atno 17342 bound_to 10162
  140.6918  143.2380  151.5111 LP  0  0  0  0  0  0  0  0  0  0  0  0  # atno 17343 bound_to 10162
  156.0028  130.5110  150.7726 LP  0  0  0  0  0  0  0  0  0  0  0  0  # atno 17370 bound_to 10713
  157.5081  131.0923  151.0232 LP  0  0  0  0  0  0  0  0  0  0  0  0  # atno 17371 bound_to 10713
  141.0985  133.6686  156.2700 LP  0  0  0  0  0  0  0  0  0  0  0  0  # atno 17394 bound_to 11000
  140.6055  134.5511  157.5525 LP  0  0  0  0  0  0  0  0  0  0  0  0  # atno 17395 bound_to 11000

$$$$
