AV-unprocessed.smi:1225|AV-procd|sdf|5142|dock9
  -GOLD-   22720 4213D 1   1.00000     0.00000
 Structure written by MMmdl.
 49 51  0  0  0  0  0  0  0  0  2 V2000
  145.5561  132.4416  151.4323 C   0  0  0  0  0  0  0  0  0  0  0  0
  145.5616  133.8954  151.7610 C   0  0  0  0  0  0  0  0  0  0  0  0
  145.0584  134.8365  150.9593 N   0  0  0  0  0  0  0  0  0  0  0  0
  145.1895  136.1195  151.4940 C   0  0  0  0  0  0  0  0  0  0  0  0
  145.7930  136.1480  152.7272 C   0  0  0  0  0  0  0  0  0  0  0  0
  146.0811  137.3495  153.5677 C   0  0  0  0  0  0  0  0  0  0  0  0
  147.1173  138.2232  152.9596 N   0  3  1  0  0  0  0  0  0  0  0  0
  146.7423  138.6907  151.6044 C   0  0  0  0  0  0  0  0  0  0  0  0
  147.5271  139.3450  153.8420 C   0  0  0  0  0  0  0  0  0  0  0  0
  148.9367  139.1338  154.4397 C   0  0  1  0  0  0  0  0  0  0  0  0
  149.7866  138.6171  153.4357 O   0  0  0  0  0  0  0  0  0  0  0  0
  149.5799  140.4256  154.9804 C   0  0  0  0  0  0  0  0  0  0  0  0
  150.4494  140.1814  156.1165 N   0  0  0  0  0  0  0  0  0  0  0  0
  150.9169  138.9900  156.5363 C   0  0  0  0  0  0  0  0  0  0  0  0
  151.6991  138.9880  157.6115 N   0  0  0  0  0  0  0  0  0  0  0  0
  151.7527  140.3362  157.9211 C   0  0  0  0  0  0  0  0  0  0  0  0
  152.4241  141.0116  158.9635 C   0  0  0  0  0  0  0  0  0  0  0  0
  152.3365  142.4161  159.0916 C   0  0  0  0  0  0  0  0  0  0  0  0
  153.0765  143.1015  160.2269 C   0  0  0  0  0  0  0  0  0  0  0  0
  151.5669  143.1674  158.1673 C   0  0  0  0  0  0  0  0  0  0  0  0
  151.4614  144.6777  158.2835 C   0  0  0  0  0  0  0  0  0  0  0  0
  150.8877  142.5083  157.1215 C   0  0  0  0  0  0  0  0  0  0  0  0
  150.9835  141.1102  157.0038 C   0  0  0  0  0  0  0  0  0  0  0  0
  146.2380  134.5434  153.2503 S   0  0  0  0  0  0  0  0  0  0  0  0
  144.9543  132.2498  150.5432 H   0  0  0  0  0  0  0  0  0  0  0  0
  145.1402  131.8724  152.2637 H   0  0  0  0  0  0  0  0  0  0  0  0
  146.5739  132.0985  151.2468 H   0  0  0  0  0  0  0  0  0  0  0  0
  144.8190  136.9617  150.9284 H   0  0  0  0  0  0  0  0  0  0  0  0
  145.1703  137.9252  153.7391 H   0  0  0  0  0  0  0  0  0  0  0  0
  146.4032  137.0060  154.5500 H   0  0  0  0  0  0  0  0  0  0  0  0
  145.8583  139.3284  151.6427 H   0  0  0  0  0  0  0  0  0  0  0  0
  146.5307  137.8524  150.9409 H   0  0  0  0  0  0  0  0  0  0  0  0
  147.5553  139.2601  151.1530 H   0  0  0  0  0  0  0  0  0  0  0  0
  147.5287  140.2818  153.2822 H   0  0  0  0  0  0  0  0  0  0  0  0
  146.7762  139.4626  154.6245 H   0  0  0  0  0  0  0  0  0  0  0  0
  148.9006  138.4049  155.2488 H   0  0  0  0  0  0  0  0  0  0  0  0
  149.8078  139.2254  152.7122 H   0  0  0  0  0  0  0  0  0  0  0  0
  150.1683  140.9108  154.2002 H   0  0  0  0  0  0  0  0  0  0  0  0
  148.8109  141.1394  155.2783 H   0  0  0  0  0  0  0  0  0  0  0  0
  150.6645  138.0715  156.0263 H   0  0  0  0  0  0  0  0  0  0  0  0
  153.0112  140.4394  159.6668 H   0  0  0  0  0  0  0  0  0  0  0  0
  153.8117  143.8043  159.8345 H   0  0  0  0  0  0  0  0  0  0  0  0
  153.6038  142.3802  160.8518 H   0  0  0  0  0  0  0  0  0  0  0  0
  152.3797  143.6476  160.8634 H   0  0  0  0  0  0  0  0  0  0  0  0
  150.8500  145.0973  157.4844 H   0  0  0  0  0  0  0  0  0  0  0  0
  152.4488  145.1358  158.2236 H   0  0  0  0  0  0  0  0  0  0  0  0
  151.0075  144.9567  159.2345 H   0  0  0  0  0  0  0  0  0  0  0  0
  150.2984  143.0701  156.4122 H   0  0  0  0  0  0  0  0  0  0  0  0
  147.9442  137.6546  152.8423 H   0  0  0  0  0  0  0  0  0  0  0  0
  1  2  1  0  0  0  0
  1 25  1  0  0  0  0
  1 26  1  0  0  0  0
  1 27  1  0  0  0  0
  2 24  1  0  0  0  0
  2  3  2  0  0  0  0
  3  4  1  0  0  0  0
  4  5  2  0  0  0  0
  4 28  1  0  0  0  0
  5  6  1  0  0  0  0
  5 24  1  0  0  0  0
  6  7  1  0  0  0  0
  6 29  1  0  0  0  0
  6 30  1  0  0  0  0
  7  8  1  0  0  0  0
  7  9  1  0  0  0  0
  7 49  1  0  0  0  0
  8 31  1  0  0  0  0
  8 32  1  0  0  0  0
  8 33  1  0  0  0  0
  9 10  1  0  0  0  0
  9 34  1  0  0  0  0
  9 35  1  0  0  0  0
 10 11  1  0  0  0  0
 10 12  1  0  0  0  0
 10 36  1  0  0  0  0
 11 37  1  0  0  0  0
 12 13  1  0  0  0  0
 12 38  1  0  0  0  0
 12 39  1  0  0  0  0
 13 23  1  0  0  0  0
 13 14  1  0  0  0  0
 14 15  2  0  0  0  0
 14 40  1  0  0  0  0
 15 16  1  0  0  0  0
 16 23  2  0  0  0  0
 16 17  1  0  0  0  0
 17 18  2  0  0  0  0
 17 41  1  0  0  0  0
 18 19  1  0  0  0  0
 18 20  1  0  0  0  0
 19 42  1  0  0  0  0
 19 43  1  0  0  0  0
 19 44  1  0  0  0  0
 20 21  1  0  0  0  0
 20 22  2  0  0  0  0
 21 45  1  0  0  0  0
 21 46  1  0  0  0  0
 21 47  1  0  0  0  0
 22 23  1  0  0  0  0
 22 48  1  0  0  0  0
M  CHG  1   7   1
M  END
> <s_m_source_file>
AV-unprocessed.smi

> <i_m_source_file_index>
1225

> <i_lp_mmshare_version>
43012

> <i_f3d_flags>
0

> <s_epik_input>
W0NIM11jMW5bY0hdYyhzMSlbQ0gyXU4oW0NIM10pW0NIMl1bQ0BIXShbT0hdKVtDSDJdbihbY0hdbjIpYyhjMjMpW2NIXWMoW0NIM10pYyhbY0hdMylbQ0gzXQ==

> <s_epik_cmdline>
J2VwaWtfcHl0aG9uJywgJy1waCcsICc3LjAnLCAnLXRuJywgJzgnLCAnLW1hJywgJzIwMCcsICctbWV0YWxfYmluZGluZycsICctaW1hZScsICc8aW5maWxlLm1hZT4nLCAnLW9tYWUnLCAnPG91dGZpbGUubWFlPic=

> <r_epik_Ionization_Penalty>
1.62543

> <r_epik_Ionization_Penalty_Charging>
1.53932

> <r_epik_Ionization_Penalty_Neutral>
0.0861152

> <r_epik_State_Penalty>
1.73127

> <r_epik_Charging_Adjusted_Penalty>
3.27059

> <i_epik_Tot_Q>
1

> <i_epik_Tot_abs_Q>
1

> <r_epik_Metal_State_Penalty>
1.71387

> <b_epik_Metal_Only>
0

> <s_lp_Force_Field>
OPLS_2005

> <r_lp_Energy>
12.5973

> <b_lp_Chiralities_Consistent>
1

> <s_lp_Variant>
AV-unprocessed.smi:1225-7

> <Gold.Version>
5.8.1

> <Gold.Id.Protein>
6NUR|6NUR_protein|mol2

> <Gold.PLP.Fitness>
56.2101

> <Gold.PLP.PLP>
-46.9377

> <Gold.PLP.part.hbond>
-2.9818

> <Gold.PLP.part.metal>
0.0000

> <Gold.PLP.part.buried>
-4.9791

> <Gold.PLP.part.nonpolar>
-40.5810

> <Gold.PLP.part.repulsive>
0.2401

> <Gold.PLP.ligand.clash>
0.0000

> <Gold.PLP.ligand.torsion>
1.4993

> <Gold.PLP.Chemscore.Hbond>
3.0000

> <Gold.PLP.Chemscore.CHOScore>
1.0000

> <Gold.PLP.Chemscore.Metal>
0.0000

> <Gold.Chemscore.Hbonds>
donor molecule, donor type, donor heavy atom, donor atom, acceptor molecule, acceptor atom, score
      L1  H     7    49       P1  7948  2.00
      L1  H    11    37       P1  7957  1.00
      L1  C     4    28       P1 10171  1.00

> <Gold.PLP.Chemscore.Internal.Correction>
0.2711

> <Gold.Rescore>
     Score         DG    S(hbond)    S(metal)    S(lipo)     H(rot)  DE(clash)    DE(int)     intcor
     19.43     -20.97       1.90        0.00     129.97       2.37       0.06       1.48       ----

> <Gold.Chemscore.Fitness>
19.4311

> <Gold.Chemscore.DG>
-20.9678

> <Gold.Chemscore.ZeroCoef>
-5.4800

> <Gold.Chemscore.Hbond>
1.9045

> <Gold.Chemscore.Metal>
0.0000

> <Gold.Chemscore.Lipo>
129.9720

> <Gold.Chemscore.Internal_Hbond>
0.0000

> <Gold.Chemscore.DEClash>
0.0574

> <Gold.Chemscore.DEInternal>
1.4793

> <Gold.Chemscore.Rot>
2.3750

> <Gold.Chemscore.Internal.Correction>
   9.000000E+99

> <Gold.Chemscore.Hbonds>
donor molecule, donor type, donor heavy atom, donor atom, acceptor molecule, acceptor atom, score
      L1  H     7    49       P1  7948  0.91
      L1  H    11    37       P1  7957  0.96

> <Gold.Chemscore.Hbond.Weighted>
-6.3611

> <Gold.Chemscore.Metal.Weighted>
-0.0000

> <Gold.Chemscore.Lipo.Weighted>
-15.2067

> <Gold.Chemscore.Internal_Hbond.Weighted>
0.0000

> <Gold.Chemscore.DEClash.Weighted>
0.0574

> <Gold.Chemscore.DEInternal.Weighted>
1.4793

> <Gold.Chemscore.Rot.Weighted>
6.0800

> <Gold.Chemscore.Internal.Correction.Weighted>
   9.000000E+99

> <Gold.Protein.RotatedTorsions>
[ 6907 6896 6895 6894 ] final  -45.30 input  -60.11 | X-H torsion
[ 7974 7965 7964 7962 ] final -100.66 input  175.53 | X-H torsion
[ 8008 7997 7996 7995 ] final  161.73 input   59.86 | X-H torsion
[ 10167 10162 10161 10158 ] final  -56.00 input  -65.29 | X-H torsion
[ 10718 10713 10712 10709 ] final  174.29 input   66.30 | X-H torsion
[ 10763 10752 10751 10750 ] final  147.86 input  -60.55 | X-H torsion
[ 11005 11000 10999 10996 ] final  170.35 input  -57.11 | X-H torsion

> <Gold.Protein.ActiveResidues>
 VAL166  LYS551  ARG553  GLY616  TRP617  ASP618  TYR619  PRO620  LYS621  CYS622 
 ASP623  PHE694  ASN695  SER759  ASP760  ASP761  ALA762  ILE779  LEU786  VAL792 
 PHE793  MET794  SER795  GLU796  ALA797  LYS798  CYS799  TRP800  GLU811  SER814 

> <Gold.Protein.RotatedAtoms>
  150.9234  134.8651  159.7503 H   0  0  0  0  0  0  0  0  0  0  0  0  # atno 6907 bound_to 6896
  152.5003  134.4185  159.9482 H   0  0  0  0  0  0  0  0  0  0  0  0  # atno 6908 bound_to 6896
  151.4217  133.3656  159.2792 H   0  0  0  0  0  0  0  0  0  0  0  0  # atno 6909 bound_to 6896
  145.2917  140.9354  143.2874 H   0  0  0  0  0  0  0  0  0  0  0  0  # atno 7974 bound_to 7965
  156.2082  140.1769  156.7752 H   0  0  0  0  0  0  0  0  0  0  0  0  # atno 8008 bound_to 7997
  154.5685  140.0686  156.8959 H   0  0  0  0  0  0  0  0  0  0  0  0  # atno 8009 bound_to 7997
  155.2716  140.3343  155.4267 H   0  0  0  0  0  0  0  0  0  0  0  0  # atno 8010 bound_to 7997
  140.6342  143.2474  151.5160 H   0  0  0  0  0  0  0  0  0  0  0  0  # atno 10167 bound_to 10162
  156.9518  131.0033  151.2947 H   0  0  0  0  0  0  0  0  0  0  0  0  # atno 10718 bound_to 10713
  154.0453  135.2886  155.3349 H   0  0  0  0  0  0  0  0  0  0  0  0  # atno 10763 bound_to 10752
  154.6903  135.5229  153.8387 H   0  0  0  0  0  0  0  0  0  0  0  0  # atno 10764 bound_to 10752
  153.0583  135.6604  154.0654 H   0  0  0  0  0  0  0  0  0  0  0  0  # atno 10765 bound_to 10752
  140.3074  134.7545  157.3964 H   0  0  0  0  0  0  0  0  0  0  0  0  # atno 11005 bound_to 11000
  144.9167  139.4461  143.6561 LP  0  0  0  0  0  0  0  0  0  0  0  0  # atno 17320 bound_to 7965
  146.3182  139.8005  142.8966 LP  0  0  0  0  0  0  0  0  0  0  0  0  # atno 17321 bound_to 7965
  139.5554  144.2289  152.1603 LP  0  0  0  0  0  0  0  0  0  0  0  0  # atno 17342 bound_to 10162
  140.1541  144.5087  150.6670 LP  0  0  0  0  0  0  0  0  0  0  0  0  # atno 17343 bound_to 10162
  157.5717  130.8315  149.8400 LP  0  0  0  0  0  0  0  0  0  0  0  0  # atno 17370 bound_to 10713
  156.0360  130.3751  150.1560 LP  0  0  0  0  0  0  0  0  0  0  0  0  # atno 17371 bound_to 10713
  140.1055  134.5415  155.8313 LP  0  0  0  0  0  0  0  0  0  0  0  0  # atno 17394 bound_to 11000
  141.2115  133.6708  156.6591 LP  0  0  0  0  0  0  0  0  0  0  0  0  # atno 17395 bound_to 11000

$$$$
