#       Name:                AV-unprocessed.smi:3064
#       Creating user name   scv26
#       Creation time:       Fri Mar 27 17:09:37 2020


#       File generated by GOLD software.
#

@<TRIPOS>MOLECULE
AV-unprocessed.smi:3064
    25    26     1
SMALL
NO_CHARGES


@<TRIPOS>ATOM
      1 ****        -3.5038  -0.3421  -0.3468 C.2            1 S1                 0.0000
      2 ****        -3.7680   0.9971  -0.4798 C.2            1 S1                 0.0000
      3 ****        -2.3042   1.9402  -0.5397 S.3            1 S1                 0.0000
      4 ****        -1.3725   0.4522  -0.3983 C.2            1 S1                 0.0000
      5 ****         0.1220   0.4349  -0.3373 C.3            1 S1                 0.0000
      6 ****         0.6490   0.4684   1.1104 C.3            1 S1                 0.0000
      7 ****         2.1078   0.3722   1.1201 N.3            1 S1                 0.0000
      8 ****         2.5635  -0.8137   0.3964 C.3            1 S1                 0.0000
      9 ****         1.9869  -0.8246  -1.0310 C.3            1 S1                 0.0000
     10 ****         0.5657  -0.7615  -0.9740 O.3            1 S1                 0.0000
     11 ****        -2.1398  -0.6380  -0.2908 N.2            1 S1                 0.0000
     12 ****        -4.2197  -1.1480  -0.2810 H              1 S1                 0.0000
     13 ****        -4.7298   1.4838  -0.5422 H              1 S1                 0.0000
     14 ****         0.4915   1.2993  -0.8922 H              1 S1                 0.0000
     15 ****         0.3319   1.3862   1.6059 H              1 S1                 0.0000
     16 ****         0.2206  -0.3587   1.6781 H              1 S1                 0.0000
     17 ****         2.4399   0.3344   2.0785 H              1 S1                 0.0000
     18 ****         3.6529  -0.8351   0.3610 H              1 S1                 0.0000
     19 ****         2.2493  -1.7148   0.9246 H              1 S1                 0.0000
     20 ****         2.3785   0.0083  -1.6171 H              1 S1                 0.0000
     21 ****         2.2790  -1.7400  -1.5457 H              1 S1                 0.0000
     22 ****         2.4786   1.1805   0.6629 LP             1 S1                 0.0000
     23 ****         0.2014  -0.7888  -1.9048 LP             1 S1                 0.0000
     24 ****         0.2256  -1.5489  -0.4597 LP             1 S1                 0.0000
     25 ****        -1.7769  -1.5635  -0.1822 LP             1 S1                 0.0000
@<TRIPOS>BOND
    1    1   11 1     
    2    1    2 2     
    3    1   12 1     
    4    2    3 1     
    5    2   13 1     
    6    3    4 1     
    7    4    5 1     
    8    4   11 2     
    9    5   10 1     
   10    5    6 1     
   11    5   14 1     
   12    6    7 1     
   13    6   15 1     
   14    6   16 1     
   15    7    8 1     
   16    7   17 1     
   17    8    9 1     
   18    8   18 1     
   19    8   19 1     
   20    9   10 1     
   21    9   20 1     
   22    9   21 1     
   23    7   22 1     
   24   10   23 1     
   25   10   24 1     
   26   11   25 1     
@<TRIPOS>SUBSTRUCTURE
      1 S1             1
@<TRIPOS>SET
LONE_PAIRS      STATIC     ATOMS    <user>   **** ""
4 22 23 24 25
DONOR_HYDROGENS      STATIC     ATOMS    <user>   **** ""
1 17
ATOM$BLUE        STATIC     ATOMS    COLORGROUP SYSTEM
4 22 23 24 25
ATOM$RED        STATIC     ATOMS    COLORGROUP SYSTEM
1 17
