AV-unprocessed.smi:3230|AV-procd|sdf|12329|dock2
  -GOLD-   2272018183D 1   1.00000     0.00000
 Structure written by MMmdl.
 40 40  0  0  0  0  0  0  0  0  1 V2000
  152.5130  138.3847  156.3307 C   0  0  0  0  0  0  0  0  0  0  0  0
  152.4023  139.2388  155.0586 C   0  0  0  0  0  0  0  0  0  0  0  0
  150.9480  139.5393  154.6112 C   0  0  0  0  0  0  0  0  0  0  0  0
  150.1327  140.2193  155.7406 C   0  0  0  0  0  0  0  0  0  0  0  0
  150.6349  141.6145  156.1419 C   0  0  0  0  0  0  0  0  0  0  0  0
  150.2305  138.2828  154.0415 C   0  0  2  0  0  0  0  0  0  0  0  0
  148.9910  138.6643  153.4757 O   0  0  0  0  0  0  0  0  0  0  0  0
  149.9735  137.1879  155.1023 C   0  0  0  0  0  0  0  0  0  0  0  0
  149.7662  135.8748  154.5001 N   0  0  0  0  0  0  0  0  0  0  0  0
  149.9266  134.7005  155.1303 C   0  0  0  0  0  0  0  0  0  0  0  0
  150.2894  134.6054  156.3030 O   0  0  0  0  0  0  0  0  0  0  0  0
  149.6338  133.4398  154.3156 C   0  0  0  0  0  0  0  0  0  0  0  0
  148.2348  133.4938  153.7647 C   0  0  0  0  0  0  0  0  0  0  0  0
  147.6083  132.5947  152.8574 C   0  0  0  0  0  0  0  0  0  0  0  0
  146.3544  133.1128  152.7026 C   0  0  0  0  0  0  0  0  0  0  0  0
  145.1692  132.6850  151.9067 C   0  0  0  0  0  0  0  0  0  0  0  0
  146.2174  134.2401  153.4470 O   0  0  0  0  0  0  0  0  0  0  0  0
  147.4220  134.4774  154.1183 N   0  0  0  0  0  0  0  0  0  0  0  0
  153.5537  138.2999  156.6440 H   0  0  0  0  0  0  0  0  0  0  0  0
  152.1403  137.3722  156.1799 H   0  0  0  0  0  0  0  0  0  0  0  0
  151.9568  138.8311  157.1554 H   0  0  0  0  0  0  0  0  0  0  0  0
  152.9278  140.1716  155.2588 H   0  0  0  0  0  0  0  0  0  0  0  0
  152.9515  138.7567  154.2490 H   0  0  0  0  0  0  0  0  0  0  0  0
  151.0114  140.2587  153.7934 H   0  0  0  0  0  0  0  0  0  0  0  0
  149.0791  140.2750  155.4653 H   0  0  0  0  0  0  0  0  0  0  0  0
  150.1687  139.6034  156.6378 H   0  0  0  0  0  0  0  0  0  0  0  0
  150.1005  141.9739  157.0214 H   0  0  0  0  0  0  0  0  0  0  0  0
  150.4812  142.3488  155.3519 H   0  0  0  0  0  0  0  0  0  0  0  0
  151.6973  141.5965  156.3863 H   0  0  0  0  0  0  0  0  0  0  0  0
  150.8438  137.8588  153.2480 H   0  0  0  0  0  0  0  0  0  0  0  0
  149.1612  139.1331  152.6730 H   0  0  0  0  0  0  0  0  0  0  0  0
  150.8216  137.1195  155.7857 H   0  0  0  0  0  0  0  0  0  0  0  0
  149.1077  137.4305  155.7190 H   0  0  0  0  0  0  0  0  0  0  0  0
  149.4690  135.8598  153.5350 H   0  0  0  0  0  0  0  0  0  0  0  0
  150.3650  133.3310  153.5129 H   0  0  0  0  0  0  0  0  0  0  0  0
  149.7528  132.5686  154.9605 H   0  0  0  0  0  0  0  0  0  0  0  0
  148.0152  131.7064  152.3974 H   0  0  0  0  0  0  0  0  0  0  0  0
  145.4365  131.8950  151.2049 H   0  0  0  0  0  0  0  0  0  0  0  0
  144.7632  133.5203  151.3359 H   0  0  0  0  0  0  0  0  0  0  0  0
  144.3830  132.3061  152.5598 H   0  0  0  0  0  0  0  0  0  0  0  0
  1  2  1  0  0  0  0
  1 19  1  0  0  0  0
  1 20  1  0  0  0  0
  1 21  1  0  0  0  0
  2  3  1  0  0  0  0
  2 22  1  0  0  0  0
  2 23  1  0  0  0  0
  3  4  1  0  0  0  0
  3  6  1  0  0  0  0
  3 24  1  0  0  0  0
  4  5  1  0  0  0  0
  4 25  1  0  0  0  0
  4 26  1  0  0  0  0
  5 27  1  0  0  0  0
  5 28  1  0  0  0  0
  5 29  1  0  0  0  0
  6  7  1  0  0  0  0
  6  8  1  0  0  0  0
  6 30  1  0  0  0  0
  7 31  1  0  0  0  0
  8  9  1  0  0  0  0
  8 32  1  0  0  0  0
  8 33  1  0  0  0  0
  9 10  1  0  0  0  0
  9 34  1  0  0  0  0
 10 11  2  0  0  0  0
 10 12  1  0  0  0  0
 12 13  1  0  0  0  0
 12 35  1  0  0  0  0
 12 36  1  0  0  0  0
 13 18  2  0  0  0  0
 13 14  1  0  0  0  0
 14 15  2  0  0  0  0
 14 37  1  0  0  0  0
 15 16  1  0  0  0  0
 15 17  1  0  0  0  0
 16 38  1  0  0  0  0
 16 39  1  0  0  0  0
 16 40  1  0  0  0  0
 17 18  1  0  0  0  0
M  END
> <s_m_source_file>
AV-unprocessed.smi

> <i_m_source_file_index>
3230

> <i_lp_mmshare_version>
43012

> <i_f3d_flags>
0

> <s_epik_input>
W0NIM11bQ0gyXVtDSF0oW0NIMl1bQ0gzXSlbQ0BIXShbT0hdKVtDSDJdW05IXUMoPU8pW0NIMl1jMVtjSF1jKFtDSDNdKW9uMQ==

> <s_epik_cmdline>
J2VwaWtfcHl0aG9uJywgJy1waCcsICc3LjAnLCAnLXRuJywgJzgnLCAnLW1hJywgJzIwMCcsICctbWV0YWxfYmluZGluZycsICctaW1hZScsICc8aW5maWxlLm1hZT4nLCAnLW9tYWUnLCAnPG91dGZpbGUubWFlPic=

> <r_lp_tautomer_probability>
1

> <r_epik_Ionization_Penalty>
2.40054e-07

> <r_epik_Ionization_Penalty_Charging>
0

> <r_epik_Ionization_Penalty_Neutral>
2.40054e-07

> <r_epik_State_Penalty>
-0

> <r_epik_Charging_Adjusted_Penalty>
0

> <i_epik_Tot_Q>
0

> <i_epik_Tot_abs_Q>
0

> <r_epik_Metal_State_Penalty>
-0

> <b_epik_Metal_Only>
0

> <s_lp_Force_Field>
OPLS_2005

> <r_lp_Energy>
9.05643

> <b_lp_Chiralities_Consistent>
1

> <s_lp_Variant>
AV-unprocessed.smi:3230-1

> <Gold.Version>
5.8.1

> <Gold.Id.Protein>
6NUR|6NUR_protein|mol2

> <Gold.PLP.Fitness>
37.3136

> <Gold.PLP.PLP>
-32.0799

> <Gold.PLP.part.hbond>
-3.1250

> <Gold.PLP.part.metal>
0.0000

> <Gold.PLP.part.buried>
-1.9987

> <Gold.PLP.part.nonpolar>
-27.9826

> <Gold.PLP.part.repulsive>
1.1285

> <Gold.PLP.ligand.clash>
0.0000

> <Gold.PLP.ligand.torsion>
0.5045

> <Gold.PLP.Chemscore.Hbond>
2.0000

> <Gold.PLP.Chemscore.CHOScore>
0.0000

> <Gold.PLP.Chemscore.Metal>
0.0000

> <Gold.Chemscore.Hbonds>
donor molecule, donor type, donor heavy atom, donor atom, acceptor molecule, acceptor atom, score
      L1  H     7    31       P1  7957  1.00
      L1  H     9    34       P1  7948  1.00

> <Gold.PLP.Chemscore.Internal.Correction>
0.2426

> <Gold.Rescore>
     Score         DG    S(hbond)    S(metal)    S(lipo)     H(rot)  DE(clash)    DE(int)     intcor
     11.35     -13.31       1.88        0.00      69.52       2.57       0.07       1.88       ----

> <Gold.Chemscore.Fitness>
11.3525

> <Gold.Chemscore.DG>
-13.3056

> <Gold.Chemscore.ZeroCoef>
-5.4800

> <Gold.Chemscore.Hbond>
1.8786

> <Gold.Chemscore.Metal>
0.0000

> <Gold.Chemscore.Lipo>
69.5220

> <Gold.Chemscore.Internal_Hbond>
0.0000

> <Gold.Chemscore.DEClash>
0.0719

> <Gold.Chemscore.DEInternal>
1.8811

> <Gold.Chemscore.Rot>
2.5715

> <Gold.Chemscore.Internal.Correction>
   9.000000E+99

> <Gold.Chemscore.Hbonds>
donor molecule, donor type, donor heavy atom, donor atom, acceptor molecule, acceptor atom, score
      L1  H     7    31       P1  7957  1.00
      L1  H     9    34       P1  7948  0.40

> <Gold.Chemscore.Hbond.Weighted>
-6.2746

> <Gold.Chemscore.Metal.Weighted>
-0.0000

> <Gold.Chemscore.Lipo.Weighted>
-8.1341

> <Gold.Chemscore.Internal_Hbond.Weighted>
0.0000

> <Gold.Chemscore.DEClash.Weighted>
0.0719

> <Gold.Chemscore.DEInternal.Weighted>
1.8811

> <Gold.Chemscore.Rot.Weighted>
6.5831

> <Gold.Chemscore.Internal.Correction.Weighted>
   9.000000E+99

> <Gold.Protein.RotatedTorsions>
[ 6907 6896 6895 6894 ] final -146.97 input  -60.11 | X-H torsion
[ 7974 7965 7964 7962 ] final  -20.46 input  175.53 | X-H torsion
[ 8008 7997 7996 7995 ] final   69.73 input   59.86 | X-H torsion
[ 10167 10162 10161 10158 ] final  148.63 input  -65.29 | X-H torsion
[ 10718 10713 10712 10709 ] final  -46.97 input   66.30 | X-H torsion
[ 10763 10752 10751 10750 ] final  125.87 input  -60.55 | X-H torsion
[ 11005 11000 10999 10996 ] final   85.47 input  -57.11 | X-H torsion

> <Gold.Protein.ActiveResidues>
 VAL166  LYS551  ARG553  GLY616  TRP617  ASP618  TYR619  PRO620  LYS621  CYS622 
 ASP623  PHE694  ASN695  SER759  ASP760  ASP761  ALA762  ILE779  LEU786  VAL792 
 PHE793  MET794  SER795  GLU796  ALA797  LYS798  CYS799  TRP800  GLU811  SER814 

> <Gold.Protein.RotatedAtoms>
  151.1491  133.4919  159.2595 H   0  0  0  0  0  0  0  0  0  0  0  0  # atno 6907 bound_to 6896
  151.1573  135.0256  159.8705 H   0  0  0  0  0  0  0  0  0  0  0  0  # atno 6908 bound_to 6896
  152.5463  134.1369  159.8516 H   0  0  0  0  0  0  0  0  0  0  0  0  # atno 6909 bound_to 6896
  146.1787  140.4205  142.8503 H   0  0  0  0  0  0  0  0  0  0  0  0  # atno 7974 bound_to 7965
  155.7280  140.3492  155.5046 H   0  0  0  0  0  0  0  0  0  0  0  0  # atno 8008 bound_to 7997
  155.9208  140.1067  157.1229 H   0  0  0  0  0  0  0  0  0  0  0  0  # atno 8009 bound_to 7997
  154.4069  140.1250  156.4664 H   0  0  0  0  0  0  0  0  0  0  0  0  # atno 8010 bound_to 7997
  139.4872  144.5664  151.7136 H   0  0  0  0  0  0  0  0  0  0  0  0  # atno 10167 bound_to 10162
  156.2130  130.4162  149.9090 H   0  0  0  0  0  0  0  0  0  0  0  0  # atno 10718 bound_to 10713
  153.6842  135.3309  155.3186 H   0  0  0  0  0  0  0  0  0  0  0  0  # atno 10763 bound_to 10752
  154.8457  135.4416  154.1575 H   0  0  0  0  0  0  0  0  0  0  0  0  # atno 10764 bound_to 10752
  153.2599  135.6990  153.7666 H   0  0  0  0  0  0  0  0  0  0  0  0  # atno 10765 bound_to 10752
  139.8970  134.8289  156.2587 H   0  0  0  0  0  0  0  0  0  0  0  0  # atno 11005 bound_to 11000
  144.8278  140.6658  143.6310 LP  0  0  0  0  0  0  0  0  0  0  0  0  # atno 17320 bound_to 7965
  145.4139  139.1575  143.4111 LP  0  0  0  0  0  0  0  0  0  0  0  0  # atno 17321 bound_to 7965
  140.5243  144.0830  150.6032 LP  0  0  0  0  0  0  0  0  0  0  0  0  # atno 17342 bound_to 10162
  140.3799  143.2808  152.0183 LP  0  0  0  0  0  0  0  0  0  0  0  0  # atno 17343 bound_to 10162
  156.6762  130.8840  151.3569 LP  0  0  0  0  0  0  0  0  0  0  0  0  # atno 17370 bound_to 10713
  157.7048  130.9373  150.0897 LP  0  0  0  0  0  0  0  0  0  0  0  0  # atno 17371 bound_to 10713
  141.0176  133.7059  156.1215 LP  0  0  0  0  0  0  0  0  0  0  0  0  # atno 17394 bound_to 11000
  140.7279  134.4287  157.5569 LP  0  0  0  0  0  0  0  0  0  0  0  0  # atno 17395 bound_to 11000

$$$$
