AV-unprocessed.smi:1180|AV-procd|sdf|4960|dock1
  -GOLD-   22720 3553D 1   1.00000     0.00000
 Structure written by MMmdl.
 38 39  0  0  0  0  0  0  0  0  1 V2000
  154.4923  140.5338  160.0660 C   0  0  0  0  0  0  0  0  0  0  0  0
  153.3571  141.5073  159.8292 C   0  0  0  0  0  0  0  0  0  0  0  0
  153.2613  142.6576  160.4104 N   0  0  0  0  0  0  0  0  0  0  0  0
  152.1633  143.4756  160.1093 C   0  0  0  0  0  0  0  0  0  0  0  0
  152.1252  144.8128  160.8283 C   0  0  0  0  0  0  0  0  0  0  0  0
  151.1998  143.0832  159.2251 C   0  0  0  0  0  0  0  0  0  0  0  0
  149.9926  143.9511  158.8698 C   0  0  0  0  0  0  0  0  0  0  0  0
  149.1130  144.4029  160.0391 C   0  0  0  0  0  0  0  0  0  0  0  0
  149.3930  144.0887  161.1964 O   0  0  0  0  0  0  0  0  0  0  0  0
  148.0456  145.1484  159.7168 N   0  0  0  0  0  0  0  0  0  0  0  0
  147.0835  145.6908  160.6696 C   0  0  0  0  0  0  0  0  0  0  0  0
  145.7512  144.9165  160.6539 C   0  0  2  0  0  0  0  0  0  0  0  0
  145.6514  143.8345  161.7228 C   0  0  0  0  0  0  0  0  0  0  0  0
  144.9179  142.6804  161.0307 C   0  0  0  0  0  0  0  0  0  0  0  0
  144.5087  143.1916  159.7698 O   0  0  0  0  0  0  0  0  0  0  0  0
  145.4772  144.1432  159.3649 C   0  0  0  0  0  0  0  0  0  0  0  0
  151.3200  141.7685  158.5659 C   0  0  0  0  0  0  0  0  0  0  0  0
  150.5158  141.3221  157.7490 O   0  0  0  0  0  0  0  0  0  0  0  0
  152.4094  141.0484  158.9157 N   0  0  0  0  0  0  0  0  0  0  0  0
  152.5378  140.1417  158.4906 H   0  0  0  0  0  0  0  0  0  0  0  0
  155.4412  140.9891  159.7814 H   0  0  0  0  0  0  0  0  0  0  0  0
  154.3656  139.6180  159.4871 H   0  0  0  0  0  0  0  0  0  0  0  0
  154.5432  140.2662  161.1217 H   0  0  0  0  0  0  0  0  0  0  0  0
  151.2650  144.8630  161.4958 H   0  0  0  0  0  0  0  0  0  0  0  0
  152.0593  145.6330  160.1132 H   0  0  0  0  0  0  0  0  0  0  0  0
  153.0232  144.9660  161.4283 H   0  0  0  0  0  0  0  0  0  0  0  0
  150.3172  144.8338  158.3169 H   0  0  0  0  0  0  0  0  0  0  0  0
  149.3589  143.4047  158.1714 H   0  0  0  0  0  0  0  0  0  0  0  0
  147.8913  145.3597  158.7414 H   0  0  0  0  0  0  0  0  0  0  0  0
  147.5317  145.6444  161.6626 H   0  0  0  0  0  0  0  0  0  0  0  0
  146.9088  146.7474  160.4600 H   0  0  0  0  0  0  0  0  0  0  0  0
  144.9252  145.6127  160.8082 H   0  0  0  0  0  0  0  0  0  0  0  0
  146.6340  143.5043  162.0621 H   0  0  0  0  0  0  0  0  0  0  0  0
  145.1044  144.1976  162.5936 H   0  0  0  0  0  0  0  0  0  0  0  0
  145.5928  141.8379  160.8739 H   0  0  0  0  0  0  0  0  0  0  0  0
  144.0605  142.3267  161.6038 H   0  0  0  0  0  0  0  0  0  0  0  0
  145.1018  144.7792  158.5625 H   0  0  0  0  0  0  0  0  0  0  0  0
  146.3716  143.6284  159.0098 H   0  0  0  0  0  0  0  0  0  0  0  0
  1  2  1  0  0  0  0
  1 21  1  0  0  0  0
  1 22  1  0  0  0  0
  1 23  1  0  0  0  0
  2 19  1  0  0  0  0
  2  3  2  0  0  0  0
  3  4  1  0  0  0  0
  4  5  1  0  0  0  0
  4  6  2  0  0  0  0
  5 24  1  0  0  0  0
  5 25  1  0  0  0  0
  5 26  1  0  0  0  0
  6  7  1  0  0  0  0
  6 17  1  0  0  0  0
  7  8  1  0  0  0  0
  7 27  1  0  0  0  0
  7 28  1  0  0  0  0
  8  9  2  0  0  0  0
  8 10  1  0  0  0  0
 10 11  1  0  0  0  0
 10 29  1  0  0  0  0
 11 12  1  0  0  0  0
 11 30  1  0  0  0  0
 11 31  1  0  0  0  0
 12 16  1  0  0  0  0
 12 13  1  0  0  0  0
 12 32  1  0  0  0  0
 13 14  1  0  0  0  0
 13 33  1  0  0  0  0
 13 34  1  0  0  0  0
 14 15  1  0  0  0  0
 14 35  1  0  0  0  0
 14 36  1  0  0  0  0
 15 16  1  0  0  0  0
 16 37  1  0  0  0  0
 16 38  1  0  0  0  0
 17 18  2  0  0  0  0
 17 19  1  0  0  0  0
 19 20  1  0  0  0  0
M  END
> <s_m_source_file>
AV-unprocessed.smi

> <i_m_source_file_index>
1180

> <i_lp_mmshare_version>
43012

> <i_f3d_flags>
0

> <s_epik_input>
W0NIM11jMW5jKFtDSDNdKWMoYyg9TylbbkhdMSlbQ0gyXUMoPU8pW05IXVtDSDJdW0NAQEhdMltDSDJdW0NIMl1PW0NIMl0y

> <s_epik_cmdline>
J2VwaWtfcHl0aG9uJywgJy1waCcsICc3LjAnLCAnLXRuJywgJzgnLCAnLW1hJywgJzIwMCcsICctbWV0YWxfYmluZGluZycsICctaW1hZScsICc8aW5maWxlLm1hZT4nLCAnLW9tYWUnLCAnPG91dGZpbGUubWFlPic=

> <r_lp_tautomer_probability>
0.839158

> <r_epik_Ionization_Penalty>
0.000395459

> <r_epik_Ionization_Penalty_Charging>
0.000363703

> <r_epik_Ionization_Penalty_Neutral>
3.17556e-05

> <r_epik_State_Penalty>
0.0471244

> <r_epik_Charging_Adjusted_Penalty>
0.0474881

> <i_epik_Tot_Q>
0

> <i_epik_Tot_abs_Q>
0

> <r_epik_Metal_State_Penalty>
0.225307

> <b_epik_Metal_Only>
0

> <s_lp_Force_Field>
OPLS_2005

> <r_lp_Energy>
20.5307

> <b_lp_Chiralities_Consistent>
1

> <s_lp_Variant>
AV-unprocessed.smi:1180-1

> <Gold.Version>
5.8.1

> <Gold.Id.Protein>
6NUR|6NUR_protein|mol2

> <Gold.PLP.Fitness>
38.5197

> <Gold.PLP.PLP>
-35.6993

> <Gold.PLP.part.hbond>
-2.0000

> <Gold.PLP.part.metal>
0.0000

> <Gold.PLP.part.buried>
-7.9802

> <Gold.PLP.part.nonpolar>
-27.6244

> <Gold.PLP.part.repulsive>
0.5156

> <Gold.PLP.ligand.clash>
0.0000

> <Gold.PLP.ligand.torsion>
0.6133

> <Gold.PLP.Chemscore.Hbond>
1.3468

> <Gold.PLP.Chemscore.CHOScore>
0.0000

> <Gold.PLP.Chemscore.Metal>
0.0000

> <Gold.Chemscore.Hbonds>
donor molecule, donor type, donor heavy atom, donor atom, acceptor molecule, acceptor atom, score
      L1  H    10    29       P1  8029  1.00
      P1  H  6933  6944       L1     9  0.38

> <Gold.PLP.Chemscore.Internal.Correction>
0.0066

> <Gold.Rescore>
     Score         DG    S(hbond)    S(metal)    S(lipo)     H(rot)  DE(clash)    DE(int)     intcor
     13.13     -13.81       1.41        0.00      70.53       1.81       0.06       0.62       ----

> <Gold.Chemscore.Fitness>
13.1251

> <Gold.Chemscore.DG>
-13.8087

> <Gold.Chemscore.ZeroCoef>
-5.4800

> <Gold.Chemscore.Hbond>
1.4076

> <Gold.Chemscore.Metal>
0.0000

> <Gold.Chemscore.Lipo>
70.5301

> <Gold.Chemscore.Internal_Hbond>
0.0000

> <Gold.Chemscore.DEClash>
0.0622

> <Gold.Chemscore.DEInternal>
0.6214

> <Gold.Chemscore.Rot>
1.8065

> <Gold.Chemscore.Internal.Correction>
   9.000000E+99

> <Gold.Chemscore.Hbonds>
donor molecule, donor type, donor heavy atom, donor atom, acceptor molecule, acceptor atom, score
      L1  H    10    29       P1  8029  0.97
      P1  H  6933  6944       L1     9  0.19

> <Gold.Chemscore.Hbond.Weighted>
-4.7012

> <Gold.Chemscore.Metal.Weighted>
-0.0000

> <Gold.Chemscore.Lipo.Weighted>
-8.2520

> <Gold.Chemscore.Internal_Hbond.Weighted>
0.0000

> <Gold.Chemscore.DEClash.Weighted>
0.0622

> <Gold.Chemscore.DEInternal.Weighted>
0.6214

> <Gold.Chemscore.Rot.Weighted>
4.6246

> <Gold.Chemscore.Internal.Correction.Weighted>
   9.000000E+99

> <Gold.Protein.RotatedTorsions>
[ 6907 6896 6895 6894 ] final  106.18 input  -60.11 | X-H torsion
[ 7974 7965 7964 7962 ] final  -71.80 input  175.53 | X-H torsion
[ 8008 7997 7996 7995 ] final   67.96 input   59.86 | X-H torsion
[ 10167 10162 10161 10158 ] final  -19.07 input  -65.29 | X-H torsion
[ 10718 10713 10712 10709 ] final  -65.99 input   66.30 | X-H torsion
[ 10763 10752 10751 10750 ] final  160.59 input  -60.55 | X-H torsion
[ 11005 11000 10999 10996 ] final -119.64 input  -57.11 | X-H torsion

> <Gold.Protein.ActiveResidues>
 VAL166  LYS551  ARG553  GLY616  TRP617  ASP618  TYR619  PRO620  LYS621  CYS622 
 ASP623  PHE694  ASN695  SER759  ASP760  ASP761  ALA762  ILE779  LEU786  VAL792 
 PHE793  MET794  SER795  GLU796  ALA797  LYS798  CYS799  TRP800  GLU811  SER814 

> <Gold.Protein.RotatedAtoms>
  152.5203  133.9419  159.7630 H   0  0  0  0  0  0  0  0  0  0  0  0  # atno 6907 bound_to 6896
  150.9747  133.6299  159.2739 H   0  0  0  0  0  0  0  0  0  0  0  0  # atno 6908 bound_to 6896
  151.3498  135.0887  159.9452 H   0  0  0  0  0  0  0  0  0  0  0  0  # atno 6909 bound_to 6896
  145.6733  140.9213  143.0871 H   0  0  0  0  0  0  0  0  0  0  0  0  # atno 7974 bound_to 7965
  155.7009  140.3495  155.4932 H   0  0  0  0  0  0  0  0  0  0  0  0  # atno 8008 bound_to 7997
  155.9441  140.1107  157.1053 H   0  0  0  0  0  0  0  0  0  0  0  0  # atno 8009 bound_to 7997
  154.4108  140.1207  156.4953 H   0  0  0  0  0  0  0  0  0  0  0  0  # atno 8010 bound_to 7997
  140.7265  143.4855  151.0061 H   0  0  0  0  0  0  0  0  0  0  0  0  # atno 10167 bound_to 10162
  156.0638  130.4255  150.1644 H   0  0  0  0  0  0  0  0  0  0  0  0  # atno 10718 bound_to 10713
  154.2497  135.2772  155.2821 H   0  0  0  0  0  0  0  0  0  0  0  0  # atno 10763 bound_to 10752
  154.5475  135.5684  153.6896 H   0  0  0  0  0  0  0  0  0  0  0  0  # atno 10764 bound_to 10752
  152.9983  135.6266  154.2644 H   0  0  0  0  0  0  0  0  0  0  0  0  # atno 10765 bound_to 10752
  141.0201  134.0137  157.3295 H   0  0  0  0  0  0  0  0  0  0  0  0  # atno 11005 bound_to 11000
  144.7049  139.8601  143.7433 LP  0  0  0  0  0  0  0  0  0  0  0  0  # atno 17320 bound_to 7965
  146.1026  139.4023  143.0337 LP  0  0  0  0  0  0  0  0  0  0  0  0  # atno 17321 bound_to 7965
  139.8556  143.7381  152.3176 LP  0  0  0  0  0  0  0  0  0  0  0  0  # atno 17342 bound_to 10162
  139.7579  144.7515  151.0408 LP  0  0  0  0  0  0  0  0  0  0  0  0  # atno 17343 bound_to 10162
  156.9707  130.9834  151.3459 LP  0  0  0  0  0  0  0  0  0  0  0  0  # atno 17370 bound_to 10713
  157.5665  130.8281  149.8335 LP  0  0  0  0  0  0  0  0  0  0  0  0  # atno 17371 bound_to 10713
  139.9140  135.0194  156.7809 LP  0  0  0  0  0  0  0  0  0  0  0  0  # atno 17394 bound_to 11000
  140.6588  133.9664  155.7794 LP  0  0  0  0  0  0  0  0  0  0  0  0  # atno 17395 bound_to 11000

$$$$
