AV-unprocessed.smi:532|AV-procd|sdf|2849|dock1
  -GOLD-   2262023343D 1   1.00000     0.00000
 Structure written by MMmdl.
 49 51  0  0  0  0  0  0  0  0  1 V2000
  156.9580  139.8729  158.9620 C   0  0  0  0  0  0  0  0  0  0  0  0
  155.5503  139.8419  158.8072 O   0  0  0  0  0  0  0  0  0  0  0  0
  154.9301  138.9123  159.6783 C   0  0  0  0  0  0  0  0  0  0  0  0
  153.4697  139.3287  159.8853 C   0  0  0  0  0  0  0  0  0  0  0  0
  152.8107  139.6076  158.6154 N   0  0  0  0  0  0  0  0  0  0  0  0
  152.2926  140.7817  158.1587 C   0  0  0  0  0  0  0  0  0  0  0  0
  152.3572  141.9748  158.8853 N   0  0  0  0  0  0  0  0  0  0  0  0
  151.4939  143.1130  158.5668 C   0  0  0  0  0  0  0  0  0  0  0  0
  151.0111  143.8615  159.8223 C   0  0  2  0  0  0  0  0  0  0  0  0
  150.0675  145.0150  159.4563 C   0  0  0  0  0  0  0  0  0  0  0  0
  152.2231  144.3614  160.6239 C   0  0  0  0  0  0  0  0  0  0  0  0
  153.2017  143.2127  160.9177 C   0  0  1  0  0  0  0  0  0  0  0  0
  152.7124  142.3042  162.0577 C   0  0  0  0  0  0  0  0  0  0  0  0
  153.5383  142.4468  159.6166 C   0  0  0  0  0  0  0  0  0  0  0  0
  151.6856  140.6901  156.9709 N   0  0  0  0  0  0  0  0  0  0  0  0
  151.8433  139.3557  156.6332 C   0  0  0  0  0  0  0  0  0  0  0  0
  152.5055  138.6873  157.6105 C   0  0  0  0  0  0  0  0  0  0  0  0
  152.7730  137.2442  157.5336 C   0  0  0  0  0  0  0  0  0  0  0  0
  153.3529  136.6126  158.4139 O   0  0  0  0  0  0  0  0  0  0  0  0
  152.3055  136.6765  156.3953 N   0  0  0  0  0  0  0  0  0  0  0  0
  151.6383  137.2923  155.3720 C   0  0  0  0  0  0  0  0  0  0  0  0
  151.2677  136.6380  154.3976 O   0  0  0  0  0  0  0  0  0  0  0  0
  151.4057  138.6393  155.4829 N   0  0  0  0  0  0  0  0  0  0  0  0
  150.6939  139.3501  154.4191 C   0  0  0  0  0  0  0  0  0  0  0  0
  152.4630  135.6847  156.2927 H   0  0  0  0  0  0  0  0  0  0  0  0
  157.3868  140.5963  158.2688 H   0  0  0  0  0  0  0  0  0  0  0  0
  157.4002  138.8987  158.7488 H   0  0  0  0  0  0  0  0  0  0  0  0
  157.2365  140.1708  159.9737 H   0  0  0  0  0  0  0  0  0  0  0  0
  154.9810  137.9081  159.2545 H   0  0  0  0  0  0  0  0  0  0  0  0
  155.4528  138.8916  160.6362 H   0  0  0  0  0  0  0  0  0  0  0  0
  152.9327  138.5524  160.4171 H   0  0  0  0  0  0  0  0  0  0  0  0
  153.4058  140.2040  160.5297 H   0  0  0  0  0  0  0  0  0  0  0  0
  152.0302  143.7918  157.9020 H   0  0  0  0  0  0  0  0  0  0  0  0
  150.6270  142.7566  158.0089 H   0  0  0  0  0  0  0  0  0  0  0  0
  150.4459  143.1623  160.4396 H   0  0  0  0  0  0  0  0  0  0  0  0
  150.5676  145.7525  158.8279 H   0  0  0  0  0  0  0  0  0  0  0  0
  149.7083  145.5265  160.3495 H   0  0  0  0  0  0  0  0  0  0  0  0
  149.1955  144.6507  158.9124 H   0  0  0  0  0  0  0  0  0  0  0  0
  152.7410  145.1302  160.0485 H   0  0  0  0  0  0  0  0  0  0  0  0
  151.9023  144.8380  161.5509 H   0  0  0  0  0  0  0  0  0  0  0  0
  154.1288  143.6645  161.2723 H   0  0  0  0  0  0  0  0  0  0  0  0
  151.7957  141.7791  161.7940 H   0  0  0  0  0  0  0  0  0  0  0  0
  152.5107  142.8832  162.9591 H   0  0  0  0  0  0  0  0  0  0  0  0
  153.4640  141.5584  162.3160 H   0  0  0  0  0  0  0  0  0  0  0  0
  154.2228  141.6248  159.8205 H   0  0  0  0  0  0  0  0  0  0  0  0
  154.0892  143.1124  158.9505 H   0  0  0  0  0  0  0  0  0  0  0  0
  151.1672  139.1754  153.4519 H   0  0  0  0  0  0  0  0  0  0  0  0
  150.6746  140.4283  154.5767 H   0  0  0  0  0  0  0  0  0  0  0  0
  149.6602  139.0074  154.3601 H   0  0  0  0  0  0  0  0  0  0  0  0
  1  2  1  0  0  0  0
  1 26  1  0  0  0  0
  1 27  1  0  0  0  0
  1 28  1  0  0  0  0
  2  3  1  0  0  0  0
  3  4  1  0  0  0  0
  3 29  1  0  0  0  0
  3 30  1  0  0  0  0
  4  5  1  0  0  0  0
  4 31  1  0  0  0  0
  4 32  1  0  0  0  0
  5 17  1  0  0  0  0
  5  6  1  0  0  0  0
  6  7  1  0  0  0  0
  6 15  2  0  0  0  0
  7 14  1  0  0  0  0
  7  8  1  0  0  0  0
  8  9  1  0  0  0  0
  8 33  1  0  0  0  0
  8 34  1  0  0  0  0
  9 10  1  0  0  0  0
  9 11  1  0  0  0  0
  9 35  1  0  0  0  0
 10 36  1  0  0  0  0
 10 37  1  0  0  0  0
 10 38  1  0  0  0  0
 11 12  1  0  0  0  0
 11 39  1  0  0  0  0
 11 40  1  0  0  0  0
 12 13  1  0  0  0  0
 12 14  1  0  0  0  0
 12 41  1  0  0  0  0
 13 42  1  0  0  0  0
 13 43  1  0  0  0  0
 13 44  1  0  0  0  0
 14 45  1  0  0  0  0
 14 46  1  0  0  0  0
 15 16  1  0  0  0  0
 16 23  1  0  0  0  0
 16 17  2  0  0  0  0
 17 18  1  0  0  0  0
 18 19  2  0  0  0  0
 18 20  1  0  0  0  0
 20 25  1  0  0  0  0
 20 21  1  0  0  0  0
 21 22  2  0  0  0  0
 21 23  1  0  0  0  0
 23 24  1  0  0  0  0
 24 47  1  0  0  0  0
 24 48  1  0  0  0  0
 24 49  1  0  0  0  0
M  END
> <s_m_source_file>
AV-unprocessed.smi

> <i_m_source_file_index>
532

> <i_lp_mmshare_version>
43012

> <i_f3d_flags>
0

> <s_epik_input>
W0NIM11uMWMoPU8pW25IXWMoPU8pYyhjMTIpbihbQ0gyXVtDSDJdT1tDSDNdKWMobjIpTjNbQ0gyXVtDQEBIXShbQ0gzXSlbQ0gyXVtDQEBIXShbQ0gzXSlbQ0gyXTM=

> <s_epik_cmdline>
J2VwaWtfcHl0aG9uJywgJy1waCcsICc3LjAnLCAnLXRuJywgJzgnLCAnLW1hJywgJzIwMCcsICctbWV0YWxfYmluZGluZycsICctaW1hZScsICc8aW5maWxlLm1hZT4nLCAnLW9tYWUnLCAnPG91dGZpbGUubWFlPic=

> <r_lp_tautomer_probability>
1

> <r_epik_Ionization_Penalty>
0.000642525

> <r_epik_Ionization_Penalty_Charging>
0.000121571

> <r_epik_Ionization_Penalty_Neutral>
0.000520954

> <r_epik_State_Penalty>
-0

> <r_epik_Charging_Adjusted_Penalty>
0.000121571

> <i_epik_Tot_Q>
0

> <i_epik_Tot_abs_Q>
0

> <r_epik_Metal_State_Penalty>
0.0931709

> <b_epik_Metal_Only>
0

> <s_lp_Force_Field>
OPLS_2005

> <r_lp_Energy>
41.4845

> <b_lp_Chiralities_Consistent>
1

> <s_lp_Variant>
AV-unprocessed.smi:532-2

> <Gold.Version>
5.8.1

> <Gold.Id.Protein>
6NUR|6NUR_protein|mol2

> <Gold.PLP.Fitness>
46.5045

> <Gold.PLP.PLP>
-39.3295

> <Gold.PLP.part.hbond>
-3.0000

> <Gold.PLP.part.metal>
0.0000

> <Gold.PLP.part.buried>
-5.6663

> <Gold.PLP.part.nonpolar>
-32.4138

> <Gold.PLP.part.repulsive>
0.3047

> <Gold.PLP.ligand.clash>
0.0000

> <Gold.PLP.ligand.torsion>
0.5805

> <Gold.PLP.Chemscore.Hbond>
2.6435

> <Gold.PLP.Chemscore.CHOScore>
0.0000

> <Gold.PLP.Chemscore.Metal>
0.0000

> <Gold.Chemscore.Hbonds>
donor molecule, donor type, donor heavy atom, donor atom, acceptor molecule, acceptor atom, score
      P1  H  7997  8009       L1     2  0.86
      P1  H 10752 10765       L1    22  0.60

> <Gold.PLP.Chemscore.Internal.Correction>
0.4055

> <Gold.Rescore>
     Score         DG    S(hbond)    S(metal)    S(lipo)     H(rot)  DE(clash)    DE(int)     intcor
     19.28     -21.62       2.07        0.00     110.31       1.43       1.63       0.71       ----

> <Gold.Chemscore.Fitness>
19.2813

> <Gold.Chemscore.DG>
-21.6204

> <Gold.Chemscore.ZeroCoef>
-5.4800

> <Gold.Chemscore.Hbond>
2.0663

> <Gold.Chemscore.Metal>
0.0000

> <Gold.Chemscore.Lipo>
110.3072

> <Gold.Chemscore.Internal_Hbond>
0.0000

> <Gold.Chemscore.DEClash>
1.6324

> <Gold.Chemscore.DEInternal>
0.7067

> <Gold.Chemscore.Rot>
1.4324

> <Gold.Chemscore.Internal.Correction>
   9.000000E+99

> <Gold.Chemscore.Hbonds>
donor molecule, donor type, donor heavy atom, donor atom, acceptor molecule, acceptor atom, score
      P1  H  7997  8009       L1     2  0.49
      P1  H 10752 10765       L1    22  0.04

> <Gold.Chemscore.Hbond.Weighted>
-6.9013

> <Gold.Chemscore.Metal.Weighted>
-0.0000

> <Gold.Chemscore.Lipo.Weighted>
-12.9059

> <Gold.Chemscore.Internal_Hbond.Weighted>
0.0000

> <Gold.Chemscore.DEClash.Weighted>
1.6324

> <Gold.Chemscore.DEInternal.Weighted>
0.7067

> <Gold.Chemscore.Rot.Weighted>
3.6669

> <Gold.Chemscore.Internal.Correction.Weighted>
   9.000000E+99

> <Gold.Protein.RotatedTorsions>
[ 6907 6896 6895 6894 ] final  -90.37 input  -60.11 | X-H torsion
[ 7974 7965 7964 7962 ] final  149.72 input  175.53 | X-H torsion
[ 8008 7997 7996 7995 ] final  111.81 input   59.86 | X-H torsion
[ 10167 10162 10161 10158 ] final  -11.82 input  -65.29 | X-H torsion
[ 10718 10713 10712 10709 ] final -105.33 input   66.30 | X-H torsion
[ 10763 10752 10751 10750 ] final  166.86 input  -60.55 | X-H torsion
[ 11005 11000 10999 10996 ] final  -55.03 input  -57.11 | X-H torsion

> <Gold.Protein.ActiveResidues>
 VAL166  LYS551  ARG553  GLY616  TRP617  ASP618  TYR619  PRO620  LYS621  CYS622 
 ASP623  PHE694  ASN695  SER759  ASP760  ASP761  ALA762  ILE779  LEU786  VAL792 
 PHE793  MET794  SER795  GLU796  ALA797  LYS798  CYS799  TRP800  GLU811  SER814 

> <Gold.Protein.RotatedAtoms>
  150.6881  134.2442  159.4484 H   0  0  0  0  0  0  0  0  0  0  0  0  # atno 6907 bound_to 6896
  152.0384  134.9724  160.0583 H   0  0  0  0  0  0  0  0  0  0  0  0  # atno 6908 bound_to 6896
  152.1235  133.4332  159.4724 H   0  0  0  0  0  0  0  0  0  0  0  0  # atno 6909 bound_to 6896
  144.8417  139.6316  143.6013 H   0  0  0  0  0  0  0  0  0  0  0  0  # atno 7974 bound_to 7965
  156.2149  140.3012  155.9817 H   0  0  0  0  0  0  0  0  0  0  0  0  # atno 8008 bound_to 7997
  155.2630  140.0430  157.3016 H   0  0  0  0  0  0  0  0  0  0  0  0  # atno 8009 bound_to 7997
  154.5754  140.2360  155.8139 H   0  0  0  0  0  0  0  0  0  0  0  0  # atno 8010 bound_to 7997
  140.7147  143.5598  150.9208 H   0  0  0  0  0  0  0  0  0  0  0  0  # atno 10167 bound_to 10162
  156.0342  130.5558  150.7524 H   0  0  0  0  0  0  0  0  0  0  0  0  # atno 10718 bound_to 10713
  154.3453  135.2753  155.2401 H   0  0  0  0  0  0  0  0  0  0  0  0  # atno 10763 bound_to 10752
  154.4654  135.5896  153.6288 H   0  0  0  0  0  0  0  0  0  0  0  0  # atno 10764 bound_to 10752
  152.9854  135.6075  154.3658 H   0  0  0  0  0  0  0  0  0  0  0  0  # atno 10765 bound_to 10752
  141.1054  133.6614  156.4409 H   0  0  0  0  0  0  0  0  0  0  0  0  # atno 11005 bound_to 11000
  146.2709  139.6632  142.9297 LP  0  0  0  0  0  0  0  0  0  0  0  0  # atno 17320 bound_to 7965
  145.4680  141.0435  143.2714 LP  0  0  0  0  0  0  0  0  0  0  0  0  # atno 17321 bound_to 7965
  139.9323  143.6478  152.3073 LP  0  0  0  0  0  0  0  0  0  0  0  0  # atno 17342 bound_to 10162
  139.6933  144.7644  151.1399 LP  0  0  0  0  0  0  0  0  0  0  0  0  # atno 17343 bound_to 10162
  157.5065  131.0922  151.0251 LP  0  0  0  0  0  0  0  0  0  0  0  0  # atno 17370 bound_to 10713
  157.0618  130.5828  149.5387 LP  0  0  0  0  0  0  0  0  0  0  0  0  # atno 17371 bound_to 10713
  140.4914  134.6572  157.5212 LP  0  0  0  0  0  0  0  0  0  0  0  0  # atno 17394 bound_to 11000
  139.9923  134.6966  155.9669 LP  0  0  0  0  0  0  0  0  0  0  0  0  # atno 17395 bound_to 11000

$$$$
