AV-unprocessed.smi:943|AV-procd|sdf|4230|dock6
  -GOLD-   22720 2133D 1   1.00000     0.00000
 Structure written by MMmdl.
 43 44  0  0  0  0  0  0  0  0  1 V2000
  152.2856  140.4997  157.0006 C   0  0  0  0  0  0  0  0  0  0  0  0
  150.7893  140.8473  156.9192 C   0  0  1  0  0  0  0  0  0  0  0  0
  150.5590  142.3507  157.2075 C   0  0  0  0  0  0  0  0  0  0  0  0
  150.8399  142.8270  158.6534 C   0  0  0  0  0  0  0  0  0  0  0  0
  150.3224  144.2668  158.8539 C   0  0  0  0  0  0  0  0  0  0  0  0
  150.5733  144.7738  160.2831 C   0  0  0  0  0  0  0  0  0  0  0  0
  152.0615  144.6840  160.6507 C   0  0  0  0  0  0  0  0  0  0  0  0
  152.5890  143.2542  160.4622 C   0  0  0  0  0  0  0  0  0  0  0  0
  152.3355  142.7472  159.0329 C   0  0  0  0  0  0  0  0  0  0  0  0
  150.2256  140.4263  155.5541 C   0  0  0  0  0  0  0  0  0  0  0  0
  150.9819  140.2332  154.6016 O   0  0  0  0  0  0  0  0  0  0  0  0
  148.8938  140.2976  155.4719 N   0  0  0  0  0  0  0  0  0  0  0  0
  148.1758  139.9279  154.2607 C   0  0  0  0  0  0  0  0  0  0  0  0
  147.6818  141.1792  153.5222 C   0  0  0  0  0  0  0  0  0  0  0  0
  146.5985  141.8914  154.2748 C   0  0  0  0  0  0  0  0  0  0  0  0
  145.9126  143.0106  153.8675 C   0  0  0  0  0  0  0  0  0  0  0  0
  144.7261  143.5154  155.0414 S   0  0  0  0  0  0  0  0  0  0  0  0
  145.2190  142.1651  156.0491 C   0  0  0  0  0  0  0  0  0  0  0  0
  146.1915  141.4170  155.5268 N   0  0  0  0  0  0  0  0  0  0  0  0
  152.4600  139.4425  156.7966 H   0  0  0  0  0  0  0  0  0  0  0  0
  152.6801  140.7082  157.9954 H   0  0  0  0  0  0  0  0  0  0  0  0
  152.8726  141.0782  156.2861 H   0  0  0  0  0  0  0  0  0  0  0  0
  150.2877  140.2651  157.6929 H   0  0  0  0  0  0  0  0  0  0  0  0
  151.1757  142.9347  156.5229 H   0  0  0  0  0  0  0  0  0  0  0  0
  149.5277  142.5999  156.9524 H   0  0  0  0  0  0  0  0  0  0  0  0
  150.2842  142.1903  159.3427 H   0  0  0  0  0  0  0  0  0  0  0  0
  150.8082  144.9358  158.1422 H   0  0  0  0  0  0  0  0  0  0  0  0
  149.2546  144.3124  158.6377 H   0  0  0  0  0  0  0  0  0  0  0  0
  150.2290  145.8041  160.3771 H   0  0  0  0  0  0  0  0  0  0  0  0
  149.9853  144.1855  160.9886 H   0  0  0  0  0  0  0  0  0  0  0  0
  152.6351  145.3712  160.0274 H   0  0  0  0  0  0  0  0  0  0  0  0
  152.2100  145.0033  161.6826 H   0  0  0  0  0  0  0  0  0  0  0  0
  153.6557  143.2194  160.6856 H   0  0  0  0  0  0  0  0  0  0  0  0
  152.1026  142.5887  161.1766 H   0  0  0  0  0  0  0  0  0  0  0  0
  152.6931  141.7204  158.9604 H   0  0  0  0  0  0  0  0  0  0  0  0
  152.9275  143.3321  158.3275 H   0  0  0  0  0  0  0  0  0  0  0  0
  148.3434  140.4732  156.2999 H   0  0  0  0  0  0  0  0  0  0  0  0
  148.8352  139.3481  153.6127 H   0  0  0  0  0  0  0  0  0  0  0  0
  147.3321  139.2870  154.5222 H   0  0  0  0  0  0  0  0  0  0  0  0
  148.5201  141.8561  153.3523 H   0  0  0  0  0  0  0  0  0  0  0  0
  147.3206  140.8968  152.5323 H   0  0  0  0  0  0  0  0  0  0  0  0
  146.0321  143.5660  152.9490 H   0  0  0  0  0  0  0  0  0  0  0  0
  144.7974  141.9257  157.0141 H   0  0  0  0  0  0  0  0  0  0  0  0
  1  2  1  0  0  0  0
  1 20  1  0  0  0  0
  1 21  1  0  0  0  0
  1 22  1  0  0  0  0
  2  3  1  0  0  0  0
  2 10  1  0  0  0  0
  2 23  1  0  0  0  0
  3  4  1  0  0  0  0
  3 24  1  0  0  0  0
  3 25  1  0  0  0  0
  4  9  1  0  0  0  0
  4  5  1  0  0  0  0
  4 26  1  0  0  0  0
  5  6  1  0  0  0  0
  5 27  1  0  0  0  0
  5 28  1  0  0  0  0
  6  7  1  0  0  0  0
  6 29  1  0  0  0  0
  6 30  1  0  0  0  0
  7  8  1  0  0  0  0
  7 31  1  0  0  0  0
  7 32  1  0  0  0  0
  8  9  1  0  0  0  0
  8 33  1  0  0  0  0
  8 34  1  0  0  0  0
  9 35  1  0  0  0  0
  9 36  1  0  0  0  0
 10 11  2  0  0  0  0
 10 12  1  0  0  0  0
 12 13  1  0  0  0  0
 12 37  1  0  0  0  0
 13 14  1  0  0  0  0
 13 38  1  0  0  0  0
 13 39  1  0  0  0  0
 14 15  1  0  0  0  0
 14 40  1  0  0  0  0
 14 41  1  0  0  0  0
 15 19  1  0  0  0  0
 15 16  2  0  0  0  0
 16 17  1  0  0  0  0
 16 42  1  0  0  0  0
 17 18  1  0  0  0  0
 18 19  2  0  0  0  0
 18 43  1  0  0  0  0
M  END
> <s_m_source_file>
AV-unprocessed.smi

> <i_m_source_file_index>
943

> <i_lp_mmshare_version>
43012

> <i_f3d_flags>
0

> <s_epik_input>
W0NIMl0xW0NIMl1bQ0gyXVtDSDJdW0NIMl1bQ0hdMVtDSDJdW0NAQEhdKFtDSDNdKUMoPU8pW05IXVtDSDJdW0NIMl1jMltjSF1zW2NIXW4y

> <s_epik_cmdline>
J2VwaWtfcHl0aG9uJywgJy1waCcsICc3LjAnLCAnLXRuJywgJzgnLCAnLW1hJywgJzIwMCcsICctbWV0YWxfYmluZGluZycsICctaW1hZScsICc8aW5maWxlLm1hZT4nLCAnLW9tYWUnLCAnPG91dGZpbGUubWFlPic=

> <r_lp_tautomer_probability>
1

> <r_epik_Ionization_Penalty>
0.000194757

> <r_epik_Ionization_Penalty_Charging>
0

> <r_epik_Ionization_Penalty_Neutral>
0.000194757

> <r_epik_State_Penalty>
-0

> <r_epik_Charging_Adjusted_Penalty>
0

> <i_epik_Tot_Q>
0

> <i_epik_Tot_abs_Q>
0

> <r_epik_Metal_State_Penalty>
-0

> <b_epik_Metal_Only>
0

> <s_lp_Force_Field>
OPLS_2005

> <r_lp_Energy>
6.44142

> <b_lp_Chiralities_Consistent>
1

> <s_lp_Variant>
AV-unprocessed.smi:943-2

> <Gold.Version>
5.8.1

> <Gold.Id.Protein>
6NUR|6NUR_protein|mol2

> <Gold.PLP.Fitness>
43.0314

> <Gold.PLP.PLP>
-41.4209

> <Gold.PLP.part.hbond>
-1.0000

> <Gold.PLP.part.metal>
0.0000

> <Gold.PLP.part.buried>
-6.6941

> <Gold.PLP.part.nonpolar>
-33.6400

> <Gold.PLP.part.repulsive>
0.2209

> <Gold.PLP.ligand.clash>
0.0000

> <Gold.PLP.ligand.torsion>
0.7535

> <Gold.PLP.Chemscore.Hbond>
1.0000

> <Gold.PLP.Chemscore.CHOScore>
0.0000

> <Gold.PLP.Chemscore.Metal>
0.0000

> <Gold.Chemscore.Hbonds>
donor molecule, donor type, donor heavy atom, donor atom, acceptor molecule, acceptor atom, score
      P1  H  7989  7998       L1    11  0.75

> <Gold.PLP.Chemscore.Internal.Correction>
0.1175

> <Gold.Rescore>
     Score         DG    S(hbond)    S(metal)    S(lipo)     H(rot)  DE(clash)    DE(int)     intcor
     17.42     -18.47       1.00        0.00     117.03       1.58       0.18       0.87       ----

> <Gold.Chemscore.Fitness>
17.4235

> <Gold.Chemscore.DG>
-18.4704

> <Gold.Chemscore.ZeroCoef>
-5.4800

> <Gold.Chemscore.Hbond>
1.0000

> <Gold.Chemscore.Metal>
0.0000

> <Gold.Chemscore.Lipo>
117.0286

> <Gold.Chemscore.Internal_Hbond>
0.0000

> <Gold.Chemscore.DEClash>
0.1791

> <Gold.Chemscore.DEInternal>
0.8678

> <Gold.Chemscore.Rot>
1.5789

> <Gold.Chemscore.Internal.Correction>
   9.000000E+99

> <Gold.Chemscore.Hbonds>
donor molecule, donor type, donor heavy atom, donor atom, acceptor molecule, acceptor atom, score
      P1  H  7989  7998       L1    11  0.75

> <Gold.Chemscore.Hbond.Weighted>
-3.3399

> <Gold.Chemscore.Metal.Weighted>
-0.0000

> <Gold.Chemscore.Lipo.Weighted>
-13.6924

> <Gold.Chemscore.Internal_Hbond.Weighted>
0.0000

> <Gold.Chemscore.DEClash.Weighted>
0.1791

> <Gold.Chemscore.DEInternal.Weighted>
0.8678

> <Gold.Chemscore.Rot.Weighted>
4.0419

> <Gold.Chemscore.Internal.Correction.Weighted>
   9.000000E+99

> <Gold.Protein.RotatedTorsions>
[ 6907 6896 6895 6894 ] final   66.83 input  -60.11 | X-H torsion
[ 7974 7965 7964 7962 ] final  112.06 input  175.53 | X-H torsion
[ 8008 7997 7996 7995 ] final   84.26 input   59.86 | X-H torsion
[ 10167 10162 10161 10158 ] final  147.83 input  -65.29 | X-H torsion
[ 10718 10713 10712 10709 ] final   46.49 input   66.30 | X-H torsion
[ 10763 10752 10751 10750 ] final  -68.72 input  -60.55 | X-H torsion
[ 11005 11000 10999 10996 ] final   85.01 input  -57.11 | X-H torsion

> <Gold.Protein.ActiveResidues>
 VAL166  LYS551  ARG553  GLY616  TRP617  ASP618  TYR619  PRO620  LYS621  CYS622 
 ASP623  PHE694  ASN695  SER759  ASP760  ASP761  ALA762  ILE779  LEU786  VAL792 
 PHE793  MET794  SER795  GLU796  ALA797  LYS798  CYS799  TRP800  GLU811  SER814 

> <Gold.Protein.RotatedAtoms>
  152.4509  134.5396  159.9834 H   0  0  0  0  0  0  0  0  0  0  0  0  # atno 6907 bound_to 6896
  151.5469  133.3418  159.2954 H   0  0  0  0  0  0  0  0  0  0  0  0  # atno 6908 bound_to 6896
  150.8437  134.7770  159.7016 H   0  0  0  0  0  0  0  0  0  0  0  0  # atno 6909 bound_to 6896
  145.2344  139.2806  143.4151 H   0  0  0  0  0  0  0  0  0  0  0  0  # atno 7974 bound_to 7965
  155.9347  140.3412  155.6278 H   0  0  0  0  0  0  0  0  0  0  0  0  # atno 8008 bound_to 7997
  155.7114  140.0772  157.2388 H   0  0  0  0  0  0  0  0  0  0  0  0  # atno 8009 bound_to 7997
  154.4091  140.1622  156.2287 H   0  0  0  0  0  0  0  0  0  0  0  0  # atno 8010 bound_to 7997
  139.4884  144.5726  151.7027 H   0  0  0  0  0  0  0  0  0  0  0  0  # atno 10167 bound_to 10162
  157.4487  130.8125  149.7766 H   0  0  0  0  0  0  0  0  0  0  0  0  # atno 10718 bound_to 10713
  154.3931  135.6048  153.5854 H   0  0  0  0  0  0  0  0  0  0  0  0  # atno 10763 bound_to 10752
  152.9787  135.5888  154.4273 H   0  0  0  0  0  0  0  0  0  0  0  0  # atno 10764 bound_to 10752
  154.4061  135.2843  155.2044 H   0  0  0  0  0  0  0  0  0  0  0  0  # atno 10765 bound_to 10752
  139.8983  134.8257  156.2524 H   0  0  0  0  0  0  0  0  0  0  0  0  # atno 11005 bound_to 11000
  146.3345  140.2688  142.8605 LP  0  0  0  0  0  0  0  0  0  0  0  0  # atno 17320 bound_to 7965
  144.9647  140.8310  143.5492 LP  0  0  0  0  0  0  0  0  0  0  0  0  # atno 17321 bound_to 7965
  140.5316  144.0722  150.6055 LP  0  0  0  0  0  0  0  0  0  0  0  0  # atno 17342 bound_to 10162
  140.3714  143.2852  152.0274 LP  0  0  0  0  0  0  0  0  0  0  0  0  # atno 17343 bound_to 10162
  155.9978  130.3898  150.2727 LP  0  0  0  0  0  0  0  0  0  0  0  0  # atno 17370 bound_to 10713
  157.0897  131.0166  151.3126 LP  0  0  0  0  0  0  0  0  0  0  0  0  # atno 17371 bound_to 10713
  141.0215  133.7038  156.1277 LP  0  0  0  0  0  0  0  0  0  0  0  0  # atno 17394 bound_to 11000
  140.7226  134.4341  157.5573 LP  0  0  0  0  0  0  0  0  0  0  0  0  # atno 17395 bound_to 11000

$$$$
