#       Name:                AV-unprocessed.smi:3327
#       Creating user name   scv26
#       Creation time:       Fri Mar 27 19:13:59 2020


#       File generated by GOLD software.
#

@<TRIPOS>MOLECULE
AV-unprocessed.smi:3327
    44    45     1
SMALL
NO_CHARGES


@<TRIPOS>ATOM
      1 ****        -3.5576   3.8883  -1.3955 C.3            1 S1                 0.0000
      2 ****        -2.9271   2.4920  -1.2982 C.3            1 S1                 0.0000
      3 ****        -3.9789   1.3803  -1.5012 C.3            1 S1                 0.0000
      4 ****        -3.3823  -0.0230  -1.2848 C.3            1 S1                 0.0000
      5 ****        -2.6244  -0.1004   0.0522 C.3            1 S1                 0.0000
      6 ****        -1.5950   0.9482   0.0708 N.am           1 S1                 0.0000
      7 ****        -0.2572   0.7445  -0.0165 C.2            1 S1                 0.0000
      8 ****         0.5394   1.6798  -0.1178 O.2            1 S1                 0.0000
      9 ****         0.2823  -0.7008  -0.0185 C.3            1 S1                 0.0000
     10 ****         1.7482  -0.8273   0.0443 N.3            1 S1                 0.0000
     11 ****         2.3025  -0.4937   1.3532 C.3            1 S1                 0.0000
     12 ****         3.8235  -0.7226   1.3637 C.3            1 S1                 0.0000
     13 ****         4.1778  -2.1266   1.2532 N.pl3          1 S1                 0.0000
     14 ****         4.6714  -2.8026   0.1572 C.2            1 S1                 0.0000
     15 ****         4.8553  -4.1030   0.5308 C.2            1 S1                 0.0000
     16 ****         4.4409  -4.1253   1.8919 C.2            1 S1                 0.0000
     17 ****         4.0385  -2.9404   2.3224 N.2            1 S1                 0.0000
     18 ****        -2.1937   2.2900   0.0448 C.3            1 S1                 0.0000
     19 ****        -4.2998   4.0444  -0.6119 H              1 S1                 0.0000
     20 ****        -4.0530   4.0293  -2.3566 H              1 S1                 0.0000
     21 ****        -2.8013   4.6674  -1.2976 H              1 S1                 0.0000
     22 ****        -2.1900   2.4080  -2.0983 H              1 S1                 0.0000
     23 ****        -4.7993   1.5270  -0.7974 H              1 S1                 0.0000
     24 ****        -4.4138   1.4489  -2.4989 H              1 S1                 0.0000
     25 ****        -4.1739  -0.7724  -1.3124 H              1 S1                 0.0000
     26 ****        -2.7012  -0.2614  -2.1029 H              1 S1                 0.0000
     27 ****        -3.3143   0.0599   0.8821 H              1 S1                 0.0000
     28 ****        -2.2360  -1.1077   0.1884 H              1 S1                 0.0000
     29 ****        -0.1462  -1.2587   0.8148 H              1 S1                 0.0000
     30 ****        -0.0596  -1.1838  -0.9342 H              1 S1                 0.0000
     31 ****         2.1999  -0.2838  -0.6774 H              1 S1                 0.0000
     32 ****         2.1027   0.5494   1.5963 H              1 S1                 0.0000
     33 ****         1.8258  -1.0968   2.1273 H              1 S1                 0.0000
     34 ****         4.3017  -0.1715   0.5526 H              1 S1                 0.0000
     35 ****         4.2480  -0.3377   2.2919 H              1 S1                 0.0000
     36 ****         4.8473  -2.3077  -0.7864 H              1 S1                 0.0000
     37 ****         5.2284  -4.9148  -0.0755 H              1 S1                 0.0000
     38 ****         4.4227  -4.9611   2.5755 H              1 S1                 0.0000
     39 ****        -1.4564   3.0807   0.1914 H              1 S1                 0.0000
     40 ****        -2.8942   2.3863   0.8760 H              1 S1                 0.0000
     41 ****         0.2045   2.6218  -0.1375 LP             1 S1                 0.0000
     42 ****         1.5204   1.4964  -0.1802 LP             1 S1                 0.0000
     43 ****         1.9397  -1.7960  -0.1140 LP             1 S1                 0.0000
     44 ****         3.7059  -2.7012   3.2346 LP             1 S1                 0.0000
@<TRIPOS>BOND
    1    1    2 1     
    2    1   19 1     
    3    1   20 1     
    4    1   21 1     
    5    2   18 1     
    6    2    3 1     
    7    2   22 1     
    8    3    4 1     
    9    3   23 1     
   10    3   24 1     
   11    4    5 1     
   12    4   25 1     
   13    4   26 1     
   14    5    6 1     
   15    5   27 1     
   16    5   28 1     
   17    6    7 am    
   18    6   18 1     
   19    7    8 2     
   20    7    9 1     
   21    9   10 1     
   22    9   29 1     
   23    9   30 1     
   24   10   11 1     
   25   10   31 1     
   26   11   12 1     
   27   11   32 1     
   28   11   33 1     
   29   12   13 1     
   30   12   34 1     
   31   12   35 1     
   32   13   17 1     
   33   13   14 1     
   34   14   15 2     
   35   14   36 1     
   36   15   16 1     
   37   15   37 1     
   38   16   17 2     
   39   16   38 1     
   40   18   39 1     
   41   18   40 1     
   42    8   41 1     
   43    8   42 1     
   44   10   43 1     
   45   17   44 1     
@<TRIPOS>SUBSTRUCTURE
      1 S1             1
@<TRIPOS>SET
LONE_PAIRS      STATIC     ATOMS    <user>   **** ""
4 41 42 43 44
DONOR_HYDROGENS      STATIC     ATOMS    <user>   **** ""
1 31
ATOM$BLUE        STATIC     ATOMS    COLORGROUP SYSTEM
4 41 42 43 44
ATOM$RED        STATIC     ATOMS    COLORGROUP SYSTEM
1 31
