AV-unprocessed.smi:745|AV-procd|sdf|3573|dock1
  -GOLD-   22720 0563D 1   1.00000     0.00000
 Structure written by MMmdl.
 42 43  0  0  0  0  0  0  0  0  2 V2000
  149.9021  137.4914  155.1076 C   0  0  0  0  0  0  0  0  0  0  0  0
  149.6945  136.2645  156.0126 C   0  0  1  0  0  0  0  0  0  0  0  0
  148.9600  136.7066  157.1991 N   0  0  0  0  0  0  0  0  0  0  0  0
  148.8473  136.0308  158.3533 C   0  0  0  0  0  0  0  0  0  0  0  0
  149.3283  134.9121  158.5362 O   0  0  0  0  0  0  0  0  0  0  0  0
  148.1426  136.7319  159.2588 N   0  0  0  0  0  0  0  0  0  0  0  0
  147.8020  136.3585  160.5862 C   0  0  0  0  0  0  0  0  0  0  0  0
  147.8346  134.9694  160.8442 C   0  0  0  0  0  0  0  0  0  0  0  0
  147.5131  134.4959  162.1310 C   0  0  0  0  0  0  0  0  0  0  0  0
  147.1673  135.4249  163.1285 C   0  0  0  0  0  0  0  0  0  0  0  0
  147.1601  136.7902  162.7886 C   0  0  0  0  0  0  0  0  0  0  0  0
  147.4684  137.2464  161.5562 N   0  0  0  0  0  0  0  0  0  0  0  0
  148.9595  135.0918  155.3052 C   0  0  2  0  0  0  0  0  0  0  0  0
  149.7820  134.4923  154.1399 C   0  0  0  0  0  0  0  0  0  0  0  0
  149.0265  133.3684  153.4125 C   0  0  0  0  0  0  0  0  0  0  0  0
  147.7144  133.8456  152.9169 N   0  3  1  0  0  0  0  0  0  0  0  0
  147.0150  132.8302  152.1008 C   0  0  0  0  0  0  0  0  0  0  0  0
  146.8716  134.3644  154.0196 C   0  0  0  0  0  0  0  0  0  0  0  0
  147.5771  135.5134  154.7586 C   0  0  0  0  0  0  0  0  0  0  0  0
  150.5736  137.2756  154.2775 H   0  0  0  0  0  0  0  0  0  0  0  0
  150.3500  138.3152  155.6649 H   0  0  0  0  0  0  0  0  0  0  0  0
  148.9578  137.8468  154.6941 H   0  0  0  0  0  0  0  0  0  0  0  0
  150.6855  135.9155  156.3089 H   0  0  0  0  0  0  0  0  0  0  0  0
  148.5242  137.6156  157.1439 H   0  0  0  0  0  0  0  0  0  0  0  0
  147.8136  137.6400  158.9665 H   0  0  0  0  0  0  0  0  0  0  0  0
  148.1024  134.2693  160.0661 H   0  0  0  0  0  0  0  0  0  0  0  0
  147.5318  133.4380  162.3478 H   0  0  0  0  0  0  0  0  0  0  0  0
  146.9147  135.1001  164.1270 H   0  0  0  0  0  0  0  0  0  0  0  0
  146.9009  137.5364  163.5252 H   0  0  0  0  0  0  0  0  0  0  0  0
  148.8014  134.3011  156.0408 H   0  0  0  0  0  0  0  0  0  0  0  0
  150.0377  135.2785  153.4279 H   0  0  0  0  0  0  0  0  0  0  0  0
  150.7267  134.0883  154.5034 H   0  0  0  0  0  0  0  0  0  0  0  0
  149.6263  133.0129  152.5735 H   0  0  0  0  0  0  0  0  0  0  0  0
  148.8799  132.5187  154.0813 H   0  0  0  0  0  0  0  0  0  0  0  0
  146.7756  131.9475  152.6952 H   0  0  0  0  0  0  0  0  0  0  0  0
  147.6351  132.5194  151.2594 H   0  0  0  0  0  0  0  0  0  0  0  0
  146.0858  133.2342  151.6975 H   0  0  0  0  0  0  0  0  0  0  0  0
  145.9225  134.7207  153.6173 H   0  0  0  0  0  0  0  0  0  0  0  0
  146.6381  133.5562  154.7150 H   0  0  0  0  0  0  0  0  0  0  0  0
  146.9288  135.8462  155.5686 H   0  0  0  0  0  0  0  0  0  0  0  0
  147.6910  136.3636  154.0844 H   0  0  0  0  0  0  0  0  0  0  0  0
  147.9031  134.6263  152.3043 H   0  0  0  0  0  0  0  0  0  0  0  0
  1  2  1  0  0  0  0
  1 20  1  0  0  0  0
  1 21  1  0  0  0  0
  1 22  1  0  0  0  0
  2  3  1  0  0  0  0
  2 13  1  0  0  0  0
  2 23  1  0  0  0  0
  3  4  1  0  0  0  0
  3 24  1  0  0  0  0
  4  5  2  0  0  0  0
  4  6  1  0  0  0  0
  6  7  1  0  0  0  0
  6 25  1  0  0  0  0
  7 12  1  0  0  0  0
  7  8  2  0  0  0  0
  8  9  1  0  0  0  0
  8 26  1  0  0  0  0
  9 10  2  0  0  0  0
  9 27  1  0  0  0  0
 10 11  1  0  0  0  0
 10 28  1  0  0  0  0
 11 12  2  0  0  0  0
 11 29  1  0  0  0  0
 13 19  1  0  0  0  0
 13 14  1  0  0  0  0
 13 30  1  0  0  0  0
 14 15  1  0  0  0  0
 14 31  1  0  0  0  0
 14 32  1  0  0  0  0
 15 16  1  0  0  0  0
 15 33  1  0  0  0  0
 15 34  1  0  0  0  0
 16 17  1  0  0  0  0
 16 18  1  0  0  0  0
 16 42  1  0  0  0  0
 17 35  1  0  0  0  0
 17 36  1  0  0  0  0
 17 37  1  0  0  0  0
 18 19  1  0  0  0  0
 18 38  1  0  0  0  0
 18 39  1  0  0  0  0
 19 40  1  0  0  0  0
 19 41  1  0  0  0  0
M  CHG  1  16   1
M  END
> <s_m_source_file>
AV-unprocessed.smi

> <i_m_source_file_index>
745

> <i_lp_mmshare_version>
43012

> <i_f3d_flags>
0

> <s_epik_input>
W0NIMl0xW0NIMl1OKFtDSDNdKVtDSDJdW0NIMl1bQ0hdMVtDQEhdKFtDSDNdKVtOSF1DKD1PKVtOSF1jMltjSF1bY0hdW2NIXVtjSF1uMg==

> <s_epik_cmdline>
J2VwaWtfcHl0aG9uJywgJy1waCcsICc3LjAnLCAnLXRuJywgJzgnLCAnLW1hJywgJzIwMCcsICctbWV0YWxfYmluZGluZycsICctaW1hZScsICc8aW5maWxlLm1hZT4nLCAnLW9tYWUnLCAnPG91dGZpbGUubWFlPic=

> <r_epik_Ionization_Penalty>
0.0011087

> <r_epik_Ionization_Penalty_Charging>
0.00106265

> <r_epik_Ionization_Penalty_Neutral>
4.60506e-05

> <r_epik_State_Penalty>
0.000695551

> <r_epik_Charging_Adjusted_Penalty>
0.0017582

> <i_epik_Tot_Q>
1

> <i_epik_Tot_abs_Q>
1

> <r_epik_Metal_State_Penalty>
-0

> <b_epik_Metal_Only>
0

> <s_lp_Force_Field>
OPLS_2005

> <r_lp_Energy>
20.1287

> <b_lp_Chiralities_Consistent>
1

> <s_lp_Variant>
AV-unprocessed.smi:745-2

> <Gold.Version>
5.8.1

> <Gold.Id.Protein>
6NUR|6NUR_protein|mol2

> <Gold.PLP.Fitness>
47.2825

> <Gold.PLP.PLP>
-33.5377

> <Gold.PLP.part.hbond>
-4.0000

> <Gold.PLP.part.metal>
0.0000

> <Gold.PLP.part.buried>
-2.5690

> <Gold.PLP.part.nonpolar>
-26.7555

> <Gold.PLP.part.repulsive>
0.1969

> <Gold.PLP.ligand.clash>
0.0081

> <Gold.PLP.ligand.torsion>
0.2876

> <Gold.PLP.Chemscore.Hbond>
4.7680

> <Gold.PLP.Chemscore.CHOScore>
0.0000

> <Gold.PLP.Chemscore.Metal>
0.0000

> <Gold.Chemscore.Hbonds>
donor molecule, donor type, donor heavy atom, donor atom, acceptor molecule, acceptor atom, score
      L1  H    16    42       P1  7948  2.00
      P1  H  6896  6908       L1     5  0.90
      P1  H  6931  6943       L1    12  0.91
      P1  H  6934  6947       L1    12  0.85

> <Gold.PLP.Chemscore.Internal.Correction>
0.0240

> <Gold.Rescore>
     Score         DG    S(hbond)    S(metal)    S(lipo)     H(rot)  DE(clash)    DE(int)     intcor
     18.49     -20.38       2.98        0.00      69.96       1.26       0.14       1.75       ----

> <Gold.Chemscore.Fitness>
18.4900

> <Gold.Chemscore.DG>
-20.3816

> <Gold.Chemscore.ZeroCoef>
-5.4800

> <Gold.Chemscore.Hbond>
2.9767

> <Gold.Chemscore.Metal>
0.0000

> <Gold.Chemscore.Lipo>
69.9615

> <Gold.Chemscore.Internal_Hbond>
0.0000

> <Gold.Chemscore.DEClash>
0.1413

> <Gold.Chemscore.DEInternal>
1.7503

> <Gold.Chemscore.Rot>
1.2601

> <Gold.Chemscore.Internal.Correction>
   9.000000E+99

> <Gold.Chemscore.Hbonds>
donor molecule, donor type, donor heavy atom, donor atom, acceptor molecule, acceptor atom, score
      L1  H    16    42       P1  7948  0.47
      P1  H  6896  6908       L1     5  0.88
      P1  H  6931  6943       L1    12  0.16
      P1  H  6934  6947       L1    12  0.75

> <Gold.Chemscore.Hbond.Weighted>
-9.9421

> <Gold.Chemscore.Metal.Weighted>
-0.0000

> <Gold.Chemscore.Lipo.Weighted>
-8.1855

> <Gold.Chemscore.Internal_Hbond.Weighted>
0.0000

> <Gold.Chemscore.DEClash.Weighted>
0.1413

> <Gold.Chemscore.DEInternal.Weighted>
1.7503

> <Gold.Chemscore.Rot.Weighted>
3.2260

> <Gold.Chemscore.Internal.Correction.Weighted>
   9.000000E+99

> <Gold.Protein.RotatedTorsions>
[ 6907 6896 6895 6894 ] final  133.40 input  -60.11 | X-H torsion
[ 7974 7965 7964 7962 ] final  -33.74 input  175.53 | X-H torsion
[ 8008 7997 7996 7995 ] final  -72.50 input   59.86 | X-H torsion
[ 10167 10162 10161 10158 ] final  -88.30 input  -65.29 | X-H torsion
[ 10718 10713 10712 10709 ] final  -18.43 input   66.30 | X-H torsion
[ 10763 10752 10751 10750 ] final  -60.26 input  -60.55 | X-H torsion
[ 11005 11000 10999 10996 ] final  145.80 input  -57.11 | X-H torsion

> <Gold.Protein.ActiveResidues>
 VAL166  LYS551  ARG553  GLY616  TRP617  ASP618  TYR619  PRO620  LYS621  CYS622 
 ASP623  PHE694  ASN695  SER759  ASP760  ASP761  ALA762  ILE779  LEU786  VAL792 
 PHE793  MET794  SER795  GLU796  ALA797  LYS798  CYS799  TRP800  GLU811  SER814 

> <Gold.Protein.RotatedAtoms>
  152.3223  133.5867  159.5752 H   0  0  0  0  0  0  0  0  0  0  0  0  # atno 6907 bound_to 6896
  150.7378  133.9992  159.3641 H   0  0  0  0  0  0  0  0  0  0  0  0  # atno 6908 bound_to 6896
  151.7875  135.0745  160.0433 H   0  0  0  0  0  0  0  0  0  0  0  0  # atno 6909 bound_to 6896
  146.0886  140.5953  142.8875 H   0  0  0  0  0  0  0  0  0  0  0  0  # atno 7974 bound_to 7965
  154.5171  140.0796  156.8102 H   0  0  0  0  0  0  0  0  0  0  0  0  # atno 8008 bound_to 7997
  155.3656  140.3420  155.4223 H   0  0  0  0  0  0  0  0  0  0  0  0  # atno 8009 bound_to 7997
  156.1640  140.1598  156.8550 H   0  0  0  0  0  0  0  0  0  0  0  0  # atno 8010 bound_to 7997
  140.3760  143.2771  151.9442 H   0  0  0  0  0  0  0  0  0  0  0  0  # atno 10167 bound_to 10162
  156.5596  130.4722  149.6413 H   0  0  0  0  0  0  0  0  0  0  0  0  # atno 10718 bound_to 10713
  154.2665  135.6298  153.5294 H   0  0  0  0  0  0  0  0  0  0  0  0  # atno 10763 bound_to 10752
  152.9887  135.5600  154.5647 H   0  0  0  0  0  0  0  0  0  0  0  0  # atno 10764 bound_to 10752
  154.5207  135.2882  155.1240 H   0  0  0  0  0  0  0  0  0  0  0  0  # atno 10765 bound_to 10752
  140.0741  134.9134  157.1394 H   0  0  0  0  0  0  0  0  0  0  0  0  # atno 11005 bound_to 11000
  144.7344  140.4765  143.6914 LP  0  0  0  0  0  0  0  0  0  0  0  0  # atno 17320 bound_to 7965
  145.6081  139.1510  143.3091 LP  0  0  0  0  0  0  0  0  0  0  0  0  # atno 17321 bound_to 7965
  139.4799  144.5863  151.7848 LP  0  0  0  0  0  0  0  0  0  0  0  0  # atno 17342 bound_to 10162
  140.4985  144.1204  150.5965 LP  0  0  0  0  0  0  0  0  0  0  0  0  # atno 17343 bound_to 10162
  156.2811  130.7071  151.1895 LP  0  0  0  0  0  0  0  0  0  0  0  0  # atno 17370 bound_to 10713
  157.7371  131.0555  150.5375 LP  0  0  0  0  0  0  0  0  0  0  0  0  # atno 17371 bound_to 10713
  140.3583  134.2522  155.7190 LP  0  0  0  0  0  0  0  0  0  0  0  0  # atno 17394 bound_to 11000
  141.2023  133.7941  157.0397 LP  0  0  0  0  0  0  0  0  0  0  0  0  # atno 17395 bound_to 11000

$$$$
