AV-unprocessed.smi:1204|AV-procd|sdf|5037|dock4
  -GOLD-   22720 4 63D 1   1.00000     0.00000
 Structure written by MMmdl.
 27 28  0  0  0  0  0  0  0  0  1 V2000
  150.5484  141.3868  158.3038 O   0  0  0  0  0  0  0  0  0  0  0  0
  151.6739  141.1297  157.8745 C   0  0  0  0  0  0  0  0  0  0  0  0
  152.8091  141.2870  158.5824 N   0  0  0  0  0  0  0  0  0  0  0  0
  152.9616  141.7362  159.9209 C   0  0  0  0  0  0  0  0  0  0  0  0
  152.1095  142.7996  160.2953 C   0  0  0  0  0  0  0  0  0  0  0  0
  152.1813  143.3178  161.6029 C   0  0  0  0  0  0  0  0  0  0  0  0
  153.1045  142.7582  162.5039 C   0  0  0  0  0  0  0  0  0  0  0  0
  153.9160  141.7017  162.0508 C   0  0  0  0  0  0  0  0  0  0  0  0
  153.8489  141.2036  160.7980 N   0  0  0  0  0  0  0  0  0  0  0  0
  151.8470  140.6212  156.4349 C   0  0  2  0  0  0  0  0  0  0  0  0
  150.4989  140.3748  155.7180 C   0  0  0  0  0  0  0  0  0  0  0  0
  150.7455  139.8742  154.4102 O   0  0  0  0  0  0  0  0  0  0  0  0
  151.4712  138.6536  154.4503 C   0  0  0  0  0  0  0  0  0  0  0  0
  152.8176  138.8974  155.1506 C   0  0  0  0  0  0  0  0  0  0  0  0
  152.5749  139.3948  156.4596 O   0  0  0  0  0  0  0  0  0  0  0  0
  153.6647  141.0449  158.1041 H   0  0  0  0  0  0  0  0  0  0  0  0
  151.4057  143.2179  159.5902 H   0  0  0  0  0  0  0  0  0  0  0  0
  151.5385  144.1302  161.9083 H   0  0  0  0  0  0  0  0  0  0  0  0
  153.1889  143.1283  163.5150 H   0  0  0  0  0  0  0  0  0  0  0  0
  154.6375  141.2439  162.7110 H   0  0  0  0  0  0  0  0  0  0  0  0
  152.4231  141.3703  155.8889 H   0  0  0  0  0  0  0  0  0  0  0  0
  149.8763  139.6723  156.2752 H   0  0  0  0  0  0  0  0  0  0  0  0
  149.9338  141.3030  155.6265 H   0  0  0  0  0  0  0  0  0  0  0  0
  150.8940  137.8874  154.9704 H   0  0  0  0  0  0  0  0  0  0  0  0
  151.6315  138.3005  153.4317 H   0  0  0  0  0  0  0  0  0  0  0  0
  153.3821  137.9678  155.2223 H   0  0  0  0  0  0  0  0  0  0  0  0
  153.4290  139.6030  154.5856 H   0  0  0  0  0  0  0  0  0  0  0  0
  1  2  2  0  0  0  0
  2  3  1  0  0  0  0
  2 10  1  0  0  0  0
  3  4  1  0  0  0  0
  3 16  1  0  0  0  0
  4  9  1  0  0  0  0
  4  5  2  0  0  0  0
  5  6  1  0  0  0  0
  5 17  1  0  0  0  0
  6  7  2  0  0  0  0
  6 18  1  0  0  0  0
  7  8  1  0  0  0  0
  7 19  1  0  0  0  0
  8  9  2  0  0  0  0
  8 20  1  0  0  0  0
 10 15  1  0  0  0  0
 10 11  1  0  0  0  0
 10 21  1  0  0  0  0
 11 12  1  0  0  0  0
 11 22  1  0  0  0  0
 11 23  1  0  0  0  0
 12 13  1  0  0  0  0
 13 14  1  0  0  0  0
 13 24  1  0  0  0  0
 13 25  1  0  0  0  0
 14 15  1  0  0  0  0
 14 26  1  0  0  0  0
 14 27  1  0  0  0  0
M  END
> <s_m_source_file>
AV-unprocessed.smi

> <i_m_source_file_index>
1204

> <i_lp_mmshare_version>
43012

> <i_f3d_flags>
0

> <s_epik_input>
TzFbQ0gyXVtDSDJdT1tDSDJdW0NASF0xQyg9TylbTkhdYzJbY0hdW2NIXVtjSF1bY0hdbjI=

> <s_epik_cmdline>
J2VwaWtfcHl0aG9uJywgJy1waCcsICc3LjAnLCAnLXRuJywgJzgnLCAnLW1hJywgJzIwMCcsICctbWV0YWxfYmluZGluZycsICctaW1hZScsICc8aW5maWxlLm1hZT4nLCAnLW9tYWUnLCAnPG91dGZpbGUubWFlPic=

> <r_epik_Ionization_Penalty>
0.0014012

> <r_epik_Ionization_Penalty_Charging>
0

> <r_epik_Ionization_Penalty_Neutral>
0.0014012

> <r_epik_State_Penalty>
0.00242437

> <r_epik_Charging_Adjusted_Penalty>
0.00242437

> <i_epik_Tot_Q>
0

> <i_epik_Tot_abs_Q>
0

> <r_epik_Metal_State_Penalty>
-0

> <b_epik_Metal_Only>
0

> <s_lp_Force_Field>
OPLS_2005

> <r_lp_Energy>
11.5524

> <b_lp_Chiralities_Consistent>
1

> <s_lp_Variant>
AV-unprocessed.smi:1204-1

> <Gold.Version>
5.8.1

> <Gold.Id.Protein>
6NUR|6NUR_protein|mol2

> <Gold.PLP.Fitness>
39.8771

> <Gold.PLP.PLP>
-35.2051

> <Gold.PLP.part.hbond>
-2.0000

> <Gold.PLP.part.metal>
0.0000

> <Gold.PLP.part.buried>
-3.6498

> <Gold.PLP.part.nonpolar>
-28.3836

> <Gold.PLP.part.repulsive>
0.2270

> <Gold.PLP.ligand.clash>
0.0000

> <Gold.PLP.ligand.torsion>
0.3553

> <Gold.PLP.Chemscore.Hbond>
1.7936

> <Gold.PLP.Chemscore.CHOScore>
0.0000

> <Gold.PLP.Chemscore.Metal>
0.0000

> <Gold.Chemscore.Hbonds>
donor molecule, donor type, donor heavy atom, donor atom, acceptor molecule, acceptor atom, score
      P1  H  7989  7998       L1    12  1.00
      P1  H  7997  8010       L1    15  0.78

> <Gold.PLP.Chemscore.Internal.Correction>
0.0018

> <Gold.Rescore>
     Score         DG    S(hbond)    S(metal)    S(lipo)     H(rot)  DE(clash)    DE(int)     intcor
     13.04     -14.66       0.95        0.00      73.25       1.00       0.04       1.58       ----

> <Gold.Chemscore.Fitness>
13.0422

> <Gold.Chemscore.DG>
-14.6614

> <Gold.Chemscore.ZeroCoef>
-5.4800

> <Gold.Chemscore.Hbond>
0.9496

> <Gold.Chemscore.Metal>
0.0000

> <Gold.Chemscore.Lipo>
73.2452

> <Gold.Chemscore.Internal_Hbond>
0.0000

> <Gold.Chemscore.DEClash>
0.0405

> <Gold.Chemscore.DEInternal>
1.5787

> <Gold.Chemscore.Rot>
1.0000

> <Gold.Chemscore.Internal.Correction>
   9.000000E+99

> <Gold.Chemscore.Hbonds>
donor molecule, donor type, donor heavy atom, donor atom, acceptor molecule, acceptor atom, score
      P1  H  7989  7998       L1    12  0.44
      P1  H  7997  8010       L1    15  0.03

> <Gold.Chemscore.Hbond.Weighted>
-3.1717

> <Gold.Chemscore.Metal.Weighted>
-0.0000

> <Gold.Chemscore.Lipo.Weighted>
-8.5697

> <Gold.Chemscore.Internal_Hbond.Weighted>
0.0000

> <Gold.Chemscore.DEClash.Weighted>
0.0405

> <Gold.Chemscore.DEInternal.Weighted>
1.5787

> <Gold.Chemscore.Rot.Weighted>
2.5600

> <Gold.Chemscore.Internal.Correction.Weighted>
   9.000000E+99

> <Gold.Protein.RotatedTorsions>
[ 6907 6896 6895 6894 ] final  115.62 input  -60.11 | X-H torsion
[ 7974 7965 7964 7962 ] final  171.31 input  175.53 | X-H torsion
[ 8008 7997 7996 7995 ] final   49.44 input   59.86 | X-H torsion
[ 10167 10162 10161 10158 ] final   66.13 input  -65.29 | X-H torsion
[ 10718 10713 10712 10709 ] final -142.82 input   66.30 | X-H torsion
[ 10763 10752 10751 10750 ] final -177.55 input  -60.55 | X-H torsion
[ 11005 11000 10999 10996 ] final  140.58 input  -57.11 | X-H torsion

> <Gold.Protein.ActiveResidues>
 VAL166  LYS551  ARG553  GLY616  TRP617  ASP618  TYR619  PRO620  LYS621  CYS622 
 ASP623  PHE694  ASN695  SER759  ASP760  ASP761  ALA762  ILE779  LEU786  VAL792 
 PHE793  MET794  SER795  GLU796  ALA797  LYS798  CYS799  TRP800  GLU811  SER814 

> <Gold.Protein.RotatedAtoms>
  152.4730  133.8072  159.6984 H   0  0  0  0  0  0  0  0  0  0  0  0  # atno 6907 bound_to 6896
  150.8729  133.7470  159.2962 H   0  0  0  0  0  0  0  0  0  0  0  0  # atno 6908 bound_to 6896
  151.4999  135.1064  159.9878 H   0  0  0  0  0  0  0  0  0  0  0  0  # atno 6909 bound_to 6896
  144.7298  139.9331  143.6425 H   0  0  0  0  0  0  0  0  0  0  0  0  # atno 7974 bound_to 7965
  155.4023  140.3438  155.4258 H   0  0  0  0  0  0  0  0  0  0  0  0  # atno 8008 bound_to 7997
  156.1496  140.1567  156.8823 H   0  0  0  0  0  0  0  0  0  0  0  0  # atno 8009 bound_to 7997
  154.5041  140.0807  156.7839 H   0  0  0  0  0  0  0  0  0  0  0  0  # atno 8010 bound_to 7997
  140.1038  144.4880  150.7021 H   0  0  0  0  0  0  0  0  0  0  0  0  # atno 10167 bound_to 10162
  156.3505  130.7685  151.1837 H   0  0  0  0  0  0  0  0  0  0  0  0  # atno 10718 bound_to 10713
  154.5587  135.2818  155.0940 H   0  0  0  0  0  0  0  0  0  0  0  0  # atno 10763 bound_to 10752
  154.2357  135.6366  153.5194 H   0  0  0  0  0  0  0  0  0  0  0  0  # atno 10764 bound_to 10752
  153.0023  135.5548  154.6174 H   0  0  0  0  0  0  0  0  0  0  0  0  # atno 10765 bound_to 10752
  140.0338  134.9339  157.0713 H   0  0  0  0  0  0  0  0  0  0  0  0  # atno 11005 bound_to 11000
  146.0842  139.3830  143.0445 LP  0  0  0  0  0  0  0  0  0  0  0  0  # atno 17320 bound_to 7965
  145.7799  140.9861  143.1105 LP  0  0  0  0  0  0  0  0  0  0  0  0  # atno 17321 bound_to 7965
  140.6963  143.2406  151.4990 LP  0  0  0  0  0  0  0  0  0  0  0  0  # atno 17342 bound_to 10162
  139.5657  144.2049  152.1760 LP  0  0  0  0  0  0  0  0  0  0  0  0  # atno 17343 bound_to 10162
  157.7460  131.0429  150.4716 LP  0  0  0  0  0  0  0  0  0  0  0  0  # atno 17370 bound_to 10713
  156.4911  130.4095  149.6406 LP  0  0  0  0  0  0  0  0  0  0  0  0  # atno 17371 bound_to 10713
  140.4181  134.1909  155.7164 LP  0  0  0  0  0  0  0  0  0  0  0  0  # atno 17394 bound_to 11000
  141.1846  133.8341  157.1135 LP  0  0  0  0  0  0  0  0  0  0  0  0  # atno 17395 bound_to 11000

$$$$
