AV-unprocessed.smi:1718|AV-procd|sdf|6925|dock5
  -GOLD-   22720 8133D 1   1.00000     0.00000
 Structure written by MMmdl.
 40 41  0  0  0  0  0  0  0  0  1 V2000
  148.0099  138.6842  157.5510 C   0  0  0  0  0  0  0  0  0  0  0  0
  149.3695  138.1853  158.0610 C   0  0  1  0  0  0  0  0  0  0  0  0
  149.9258  139.2145  158.8750 O   0  0  0  0  0  0  0  0  0  0  0  0
  150.7708  140.1395  158.1995 C   0  0  0  0  0  0  0  0  0  0  0  0
  151.3423  141.1263  159.2241 C   0  0  1  0  0  0  0  0  0  0  0  0
  152.7964  141.5219  158.9634 C   0  0  0  0  0  0  0  0  0  0  0  0
  152.8596  142.8945  159.5926 C   0  0  0  0  0  0  0  0  0  0  0  0
  151.4938  143.4616  159.2213 C   0  0  0  0  0  0  0  0  0  0  0  0
  150.6056  142.3473  159.2007 O   0  0  0  0  0  0  0  0  0  0  0  0
  149.2165  136.8898  158.8739 C   0  0  0  0  0  0  0  0  0  0  0  0
  149.8715  135.8963  158.5582 O   0  0  0  0  0  0  0  0  0  0  0  0
  148.3454  136.9489  159.9003 N   0  0  0  0  0  0  0  0  0  0  0  0
  147.9304  135.9270  160.7698 C   0  0  0  0  0  0  0  0  0  0  0  0
  148.0841  134.5990  160.5288 C   0  0  0  0  0  0  0  0  0  0  0  0
  147.6149  133.5872  161.4588 C   0  0  0  0  0  0  0  0  0  0  0  0
  147.8233  132.1091  161.1716 C   0  0  0  0  0  0  0  0  0  0  0  0
  148.3462  131.9070  159.9614 F   0  0  0  0  0  0  0  0  0  0  0  0
  148.6451  131.5796  162.0771 F   0  0  0  0  0  0  0  0  0  0  0  0
  146.6621  131.4591  161.2412 F   0  0  0  0  0  0  0  0  0  0  0  0
  147.0083  134.0313  162.5756 C   0  0  0  0  0  0  0  0  0  0  0  0
  146.8340  135.3949  162.8242 N   0  0  0  0  0  0  0  0  0  0  0  0
  147.2500  136.3786  161.9948 C   0  0  0  0  0  0  0  0  0  0  0  0
  147.0540  137.5588  162.2828 O   0  0  0  0  0  0  0  0  0  0  0  0
  146.3636  135.6485  163.6812 H   0  0  0  0  0  0  0  0  0  0  0  0
  147.5209  137.9344  156.9281 H   0  0  0  0  0  0  0  0  0  0  0  0
  148.1312  139.5841  156.9478 H   0  0  0  0  0  0  0  0  0  0  0  0
  147.3369  138.9283  158.3741 H   0  0  0  0  0  0  0  0  0  0  0  0
  150.0199  138.0146  157.2006 H   0  0  0  0  0  0  0  0  0  0  0  0
  151.5866  139.6368  157.6787 H   0  0  0  0  0  0  0  0  0  0  0  0
  150.1916  140.6809  157.4502 H   0  0  0  0  0  0  0  0  0  0  0  0
  151.2533  140.7135  160.2301 H   0  0  0  0  0  0  0  0  0  0  0  0
  153.5111  140.8197  159.3933 H   0  0  0  0  0  0  0  0  0  0  0  0
  152.9918  141.5949  157.8923 H   0  0  0  0  0  0  0  0  0  0  0  0
  152.9507  142.8073  160.6761 H   0  0  0  0  0  0  0  0  0  0  0  0
  153.6888  143.4994  159.2248 H   0  0  0  0  0  0  0  0  0  0  0  0
  151.1568  144.2299  159.9174 H   0  0  0  0  0  0  0  0  0  0  0  0
  151.5239  143.8990  158.2225 H   0  0  0  0  0  0  0  0  0  0  0  0
  147.9480  137.8564  160.0973 H   0  0  0  0  0  0  0  0  0  0  0  0
  148.5439  134.2474  159.6193 H   0  0  0  0  0  0  0  0  0  0  0  0
  146.6156  133.3933  163.3535 H   0  0  0  0  0  0  0  0  0  0  0  0
  1  2  1  0  0  0  0
  1 25  1  0  0  0  0
  1 26  1  0  0  0  0
  1 27  1  0  0  0  0
  2  3  1  0  0  0  0
  2 10  1  0  0  0  0
  2 28  1  0  0  0  0
  3  4  1  0  0  0  0
  4  5  1  0  0  0  0
  4 29  1  0  0  0  0
  4 30  1  0  0  0  0
  5  9  1  0  0  0  0
  5  6  1  0  0  0  0
  5 31  1  0  0  0  0
  6  7  1  0  0  0  0
  6 32  1  0  0  0  0
  6 33  1  0  0  0  0
  7  8  1  0  0  0  0
  7 34  1  0  0  0  0
  7 35  1  0  0  0  0
  8  9  1  0  0  0  0
  8 36  1  0  0  0  0
  8 37  1  0  0  0  0
 10 11  2  0  0  0  0
 10 12  1  0  0  0  0
 12 13  1  0  0  0  0
 12 38  1  0  0  0  0
 13 22  1  0  0  0  0
 13 14  2  0  0  0  0
 14 15  1  0  0  0  0
 14 39  1  0  0  0  0
 15 16  1  0  0  0  0
 15 20  2  0  0  0  0
 16 17  1  0  0  0  0
 16 18  1  0  0  0  0
 16 19  1  0  0  0  0
 20 21  1  0  0  0  0
 20 40  1  0  0  0  0
 21 24  1  0  0  0  0
 21 22  1  0  0  0  0
 22 23  2  0  0  0  0
M  END
> <s_m_source_file>
AV-unprocessed.smi

> <i_m_source_file_index>
1718

> <i_lp_mmshare_version>
43012

> <i_f3d_flags>
0

> <s_epik_input>
TzFbQ0gyXVtDSDJdW0NIMl1bQ0BIXTFbQ0gyXU9bQ0BASF0oW0NIM10pQyg9TylbTkhdYzJbY0hdYyhDKEYpKEYpRilbY0hdW25IXWMyPU8=

> <s_epik_cmdline>
J2VwaWtfcHl0aG9uJywgJy1waCcsICc3LjAnLCAnLXRuJywgJzgnLCAnLW1hJywgJzIwMCcsICctbWV0YWxfYmluZGluZycsICctaW1hZScsICc8aW5maWxlLm1hZT4nLCAnLW9tYWUnLCAnPG91dGZpbGUubWFlPic=

> <r_lp_tautomer_probability>
0.999

> <r_epik_Ionization_Penalty>
0.00894336

> <r_epik_Ionization_Penalty_Charging>
0.00894326

> <r_epik_Ionization_Penalty_Neutral>
1.00145e-07

> <r_epik_State_Penalty>
0.00676626

> <r_epik_Charging_Adjusted_Penalty>
0.0157095

> <i_epik_Tot_Q>
0

> <i_epik_Tot_abs_Q>
0

> <r_epik_Metal_State_Penalty>
0.321145

> <b_epik_Metal_Only>
0

> <s_lp_Force_Field>
OPLS_2005

> <r_lp_Energy>
34.4612

> <b_lp_Chiralities_Consistent>
1

> <s_lp_Variant>
AV-unprocessed.smi:1718-4

> <Gold.Version>
5.8.1

> <Gold.Id.Protein>
6NUR|6NUR_protein|mol2

> <Gold.PLP.Fitness>
44.6933

> <Gold.PLP.PLP>
-40.2323

> <Gold.PLP.part.hbond>
-4.4271

> <Gold.PLP.part.metal>
0.0000

> <Gold.PLP.part.buried>
-5.2446

> <Gold.PLP.part.nonpolar>
-30.8062

> <Gold.PLP.part.repulsive>
0.3517

> <Gold.PLP.ligand.clash>
0.0000

> <Gold.PLP.ligand.torsion>
1.1707

> <Gold.PLP.Chemscore.Hbond>
2.2320

> <Gold.PLP.Chemscore.CHOScore>
0.0000

> <Gold.PLP.Chemscore.Metal>
0.0000

> <Gold.Chemscore.Hbonds>
donor molecule, donor type, donor heavy atom, donor atom, acceptor molecule, acceptor atom, score
      P1  H  6896  6909       L1    11  0.98
      P1  H  6931  6943       L1    23  0.44
      P1  H  6934  6947       L1    23  0.59

> <Gold.PLP.Chemscore.Internal.Correction>
0.1063

> <Gold.Rescore>
     Score         DG    S(hbond)    S(metal)    S(lipo)     H(rot)  DE(clash)    DE(int)     intcor
     14.82     -16.65       2.27        0.00      71.69       1.88       0.00       1.82       ----

> <Gold.Chemscore.Fitness>
14.8209

> <Gold.Chemscore.DG>
-16.6459

> <Gold.Chemscore.ZeroCoef>
-5.4800

> <Gold.Chemscore.Hbond>
2.2719

> <Gold.Chemscore.Metal>
0.0000

> <Gold.Chemscore.Lipo>
71.6920

> <Gold.Chemscore.Internal_Hbond>
0.0000

> <Gold.Chemscore.DEClash>
0.0015

> <Gold.Chemscore.DEInternal>
1.8236

> <Gold.Chemscore.Rot>
1.8790

> <Gold.Chemscore.Internal.Correction>
   9.000000E+99

> <Gold.Chemscore.Hbonds>
donor molecule, donor type, donor heavy atom, donor atom, acceptor molecule, acceptor atom, score
      P1  H  6896  6909       L1    11  0.93
      P1  H  6931  6943       L1    23  0.08
      P1  H  6934  6947       L1    23  0.56

> <Gold.Chemscore.Hbond.Weighted>
-7.5881

> <Gold.Chemscore.Metal.Weighted>
-0.0000

> <Gold.Chemscore.Lipo.Weighted>
-8.3880

> <Gold.Chemscore.Internal_Hbond.Weighted>
0.0000

> <Gold.Chemscore.DEClash.Weighted>
0.0015

> <Gold.Chemscore.DEInternal.Weighted>
1.8236

> <Gold.Chemscore.Rot.Weighted>
4.8102

> <Gold.Chemscore.Internal.Correction.Weighted>
   9.000000E+99

> <Gold.Protein.RotatedTorsions>
[ 6907 6896 6895 6894 ] final   45.27 input  -60.11 | X-H torsion
[ 7974 7965 7964 7962 ] final   86.97 input  175.53 | X-H torsion
[ 8008 7997 7996 7995 ] final  -69.61 input   59.86 | X-H torsion
[ 10167 10162 10161 10158 ] final  -52.48 input  -65.29 | X-H torsion
[ 10718 10713 10712 10709 ] final  104.55 input   66.30 | X-H torsion
[ 10763 10752 10751 10750 ] final  118.63 input  -60.55 | X-H torsion
[ 11005 11000 10999 10996 ] final   79.27 input  -57.11 | X-H torsion

> <Gold.Protein.ActiveResidues>
 VAL166  LYS551  ARG553  GLY616  TRP617  ASP618  TYR619  PRO620  LYS621  CYS622 
 ASP623  PHE694  ASN695  SER759  ASP760  ASP761  ALA762  ILE779  LEU786  VAL792 
 PHE793  MET794  SER795  GLU796  ALA797  LYS798  CYS799  TRP800  GLU811  SER814 

> <Gold.Protein.RotatedAtoms>
  152.2425  134.8214  160.0457 H   0  0  0  0  0  0  0  0  0  0  0  0  # atno 6907 bound_to 6896
  151.8924  133.3514  159.3811 H   0  0  0  0  0  0  0  0  0  0  0  0  # atno 6908 bound_to 6896
  150.7058  134.4837  159.5526 H   0  0  0  0  0  0  0  0  0  0  0  0  # atno 6909 bound_to 6896
  145.5651  139.2308  143.2437 H   0  0  0  0  0  0  0  0  0  0  0  0  # atno 7974 bound_to 7965
  154.4951  140.0850  156.7680 H   0  0  0  0  0  0  0  0  0  0  0  0  # atno 8008 bound_to 7997
  155.4135  140.3442  155.4247 H   0  0  0  0  0  0  0  0  0  0  0  0  # atno 8009 bound_to 7997
  156.1383  140.1522  156.8948 H   0  0  0  0  0  0  0  0  0  0  0  0  # atno 8010 bound_to 7997
  140.6535  143.2582  151.4654 H   0  0  0  0  0  0  0  0  0  0  0  0  # atno 10167 bound_to 10162
  157.6736  131.0806  150.5722 H   0  0  0  0  0  0  0  0  0  0  0  0  # atno 10718 bound_to 10713
  153.5707  135.3503  155.2836 H   0  0  0  0  0  0  0  0  0  0  0  0  # atno 10763 bound_to 10752
  154.8682  135.4158  154.2729 H   0  0  0  0  0  0  0  0  0  0  0  0  # atno 10764 bound_to 10752
  153.3494  135.7054  153.6871 H   0  0  0  0  0  0  0  0  0  0  0  0  # atno 10765 bound_to 10752
  139.9179  134.7829  156.1756 H   0  0  0  0  0  0  0  0  0  0  0  0  # atno 11005 bound_to 11000
  146.1823  140.6477  142.9183 LP  0  0  0  0  0  0  0  0  0  0  0  0  # atno 17320 bound_to 7965
  144.7464  140.5079  143.6833 LP  0  0  0  0  0  0  0  0  0  0  0  0  # atno 17321 bound_to 7965
  139.5754  144.1832  152.1895 LP  0  0  0  0  0  0  0  0  0  0  0  0  # atno 17342 bound_to 10162
  140.1141  144.5431  150.6906 LP  0  0  0  0  0  0  0  0  0  0  0  0  # atno 17343 bound_to 10162
  156.6024  130.4358  149.5892 LP  0  0  0  0  0  0  0  0  0  0  0  0  # atno 17370 bound_to 10713
  156.2496  130.6899  151.1632 LP  0  0  0  0  0  0  0  0  0  0  0  0  # atno 17371 bound_to 10713
  141.0673  133.6813  156.2071 LP  0  0  0  0  0  0  0  0  0  0  0  0  # atno 17394 bound_to 11000
  140.6564  134.5014  157.5581 LP  0  0  0  0  0  0  0  0  0  0  0  0  # atno 17395 bound_to 11000

$$$$
