#       Name:                AV-unprocessed.smi:2527
#       Creating user name   scv26
#       Creation time:       Fri Mar 27 13:58:31 2020


#       File generated by GOLD software.
#

@<TRIPOS>MOLECULE
AV-unprocessed.smi:2527
    42    44     1
SMALL
NO_CHARGES


@<TRIPOS>ATOM
      1 ****        -1.8418   3.7486   1.5942 C.3            1 S1                 0.0000
      2 ****        -1.5420   2.3949   1.8834 O.3            1 S1                 0.0000
      3 ****        -2.2768   1.4885   1.0769 C.3            1 S1                 0.0000
      4 ****        -1.8936   0.0470   1.4409 C.3            1 S1                 0.0000
      5 ****        -0.4700  -0.2011   1.2642 N.pl3          1 S1                 0.0000
      6 ****         0.1757  -0.5860   0.1351 C.2            1 S1                 0.0000
      7 ****        -0.7019  -0.8540  -1.3792 S.3            1 S1                 0.0000
      8 ****         0.6293  -1.5289  -2.4155 C.3            1 S1                 0.0000
      9 ****         0.1784  -1.9396  -3.8000 C.2            1 S1                 0.0000
     10 ****         0.5918  -1.1707  -4.8583 N.am           1 S1                 0.0000
     11 ****         0.0756  -1.7307  -5.9453 C.2            1 S1                 0.0000
     12 ****         0.1966  -1.3625  -7.1114 O.2            1 S1                 0.0000
     13 ****        -0.6055  -2.7869  -5.4846 N.am           1 S1                 0.0000
     14 ****        -0.5561  -2.9408  -4.1379 N.2            1 S1                 0.0000
     15 ****         1.4968  -0.7345   0.2560 N.2            1 S1                 0.0000
     16 ****         1.7261  -0.4149   1.5794 C.ar           1 S1                 0.0000
     17 ****         2.9286  -0.3785   2.3208 C.ar           1 S1                 0.0000
     18 ****         2.9164  -0.0123   3.6828 C.ar           1 S1                 0.0000
     19 ****         4.3935   0.0287   4.5731 Cl             1 S1                 0.0000
     20 ****         1.7037   0.3222   4.3201 C.ar           1 S1                 0.0000
     21 ****         0.4947   0.2920   3.5991 C.ar           1 S1                 0.0000
     22 ****         0.5133  -0.0754   2.2403 C.ar           1 S1                 0.0000
     23 ****        -1.1298  -3.4498  -6.0375 H              1 S1                 0.0000
     24 ****         1.1724  -0.3464  -4.8070 H              1 S1                 0.0000
     25 ****        -1.2522   4.3994   2.2399 H              1 S1                 0.0000
     26 ****        -2.8963   3.9652   1.7701 H              1 S1                 0.0000
     27 ****        -1.6011   3.9933   0.5589 H              1 S1                 0.0000
     28 ****        -3.3468   1.6356   1.2305 H              1 S1                 0.0000
     29 ****        -2.0706   1.6755   0.0218 H              1 S1                 0.0000
     30 ****        -2.1559  -0.1559   2.4796 H              1 S1                 0.0000
     31 ****        -2.4623  -0.6639   0.8415 H              1 S1                 0.0000
     32 ****         1.4207  -0.7829  -2.4973 H              1 S1                 0.0000
     33 ****         1.0609  -2.3995  -1.9208 H              1 S1                 0.0000
     34 ****         3.8617  -0.6315   1.8397 H              1 S1                 0.0000
     35 ****         1.7008   0.6039   5.3629 H              1 S1                 0.0000
     36 ****        -0.4345   0.5525   4.0836 H              1 S1                 0.0000
     37 ****        -1.7583   2.2171   2.8434 LP             1 S1                 0.0000
     38 ****        -0.5659   2.2429   1.7280 LP             1 S1                 0.0000
     39 ****         0.7380  -0.5494  -7.3254 LP             1 S1                 0.0000
     40 ****        -0.2463  -1.8760  -7.8464 LP             1 S1                 0.0000
     41 ****        -0.9767  -3.6426  -3.5630 LP             1 S1                 0.0000
     42 ****         2.1585  -1.0099  -0.4414 LP             1 S1                 0.0000
@<TRIPOS>BOND
    1    1    2 1     
    2    1   25 1     
    3    1   26 1     
    4    1   27 1     
    5    2    3 1     
    6    3    4 1     
    7    3   28 1     
    8    3   29 1     
    9    4    5 1     
   10    4   30 1     
   11    4   31 1     
   12    5   22 1     
   13    5    6 1     
   14    6    7 1     
   15    6   15 2     
   16    7    8 1     
   17    8   32 1     
   18    8   33 1     
   19    8    9 1     
   20    9   14 2     
   21    9   10 1     
   22   10   11 am    
   23   10   24 1     
   24   11   13 am    
   25   11   12 2     
   26   13   14 1     
   27   13   23 1     
   28   15   16 1     
   29   16   22 ar    
   30   16   17 ar    
   31   17   18 ar    
   32   17   34 1     
   33   18   19 1     
   34   18   20 ar    
   35   20   21 ar    
   36   20   35 1     
   37   21   22 ar    
   38   21   36 1     
   39    2   37 1     
   40    2   38 1     
   41   12   39 1     
   42   12   40 1     
   43   14   41 1     
   44   15   42 1     
@<TRIPOS>SUBSTRUCTURE
      1 S1             1
@<TRIPOS>SET
LONE_PAIRS      STATIC     ATOMS    <user>   **** ""
6 37 38 39 40 41 42
DONOR_HYDROGENS      STATIC     ATOMS    <user>   **** ""
2 24 23
ATOM$BLUE        STATIC     ATOMS    COLORGROUP SYSTEM
6 37 38 39 40 41 42
ATOM$RED        STATIC     ATOMS    COLORGROUP SYSTEM
2 24 23
