AV-unprocessed.smi:3112|AV-procd|sdf|11843|dock4
  -GOLD-   2272017223D 1   1.00000     0.00000
 Structure written by MMmdl.
 37 37  0  0  0  0  0  0  0  0  2 V2000
  148.1285  139.1212  154.2442 C   0  0  0  0  0  0  0  0  0  0  0  0
  147.7651  140.5881  153.9760 C   0  0  0  0  0  0  0  0  0  0  0  0
  148.8281  141.5843  154.4737 C   0  0  1  0  0  0  0  0  0  0  0  0
  148.4265  142.8945  154.1233 O   0  0  0  0  0  0  0  0  0  0  0  0
  149.0009  141.5252  156.0003 C   0  0  0  0  0  0  0  0  0  0  0  0
  150.1126  142.3911  156.4463 N   0  3  0  0  0  0  0  0  0  0  0  0
  150.4827  142.2536  157.8727 C   0  0  1  0  0  0  0  0  0  0  0  0
  150.3821  140.7683  158.2656 C   0  0  0  0  0  0  0  0  0  0  0  0
  151.8893  142.8584  158.1293 C   0  0  1  0  0  0  0  0  0  0  0  0
  152.0045  144.3305  157.6932 C   0  0  0  0  0  0  0  0  0  0  0  0
  152.2904  142.7265  159.5245 N   0  0  0  0  0  0  0  0  0  0  0  0
  153.2956  141.9492  160.0657 C   0  0  0  0  0  0  0  0  0  0  0  0
  153.2964  142.1627  161.4141 C   0  0  0  0  0  0  0  0  0  0  0  0
  152.2441  143.1002  161.6081 C   0  0  0  0  0  0  0  0  0  0  0  0
  151.6465  143.4368  160.4765 N   0  0  0  0  0  0  0  0  0  0  0  0
  147.3347  138.4579  153.9000 H   0  0  0  0  0  0  0  0  0  0  0  0
  148.2743  138.9391  155.3094 H   0  0  0  0  0  0  0  0  0  0  0  0
  149.0437  138.8348  153.7257 H   0  0  0  0  0  0  0  0  0  0  0  0
  147.5882  140.7322  152.9093 H   0  0  0  0  0  0  0  0  0  0  0  0
  146.8163  140.7998  154.4707 H   0  0  0  0  0  0  0  0  0  0  0  0
  149.7810  141.3663  153.9895 H   0  0  0  0  0  0  0  0  0  0  0  0
  148.9724  143.5114  154.5878 H   0  0  0  0  0  0  0  0  0  0  0  0
  148.0737  141.8131  156.4978 H   0  0  0  0  0  0  0  0  0  0  0  0
  149.2220  140.5025  156.3090 H   0  0  0  0  0  0  0  0  0  0  0  0
  150.9226  142.1690  155.8855 H   0  0  0  0  0  0  0  0  0  0  0  0
  149.7562  142.7923  158.4839 H   0  0  0  0  0  0  0  0  0  0  0  0
  150.5457  140.6170  159.3328 H   0  0  0  0  0  0  0  0  0  0  0  0
  151.1153  140.1659  157.7282 H   0  0  0  0  0  0  0  0  0  0  0  0
  149.3932  140.3699  158.0359 H   0  0  0  0  0  0  0  0  0  0  0  0
  152.6071  142.2904  157.5337 H   0  0  0  0  0  0  0  0  0  0  0  0
  151.8572  144.4426  156.6191 H   0  0  0  0  0  0  0  0  0  0  0  0
  152.9932  144.7292  157.9231 H   0  0  0  0  0  0  0  0  0  0  0  0
  151.2684  144.9567  158.1982 H   0  0  0  0  0  0  0  0  0  0  0  0
  153.9196  141.3152  159.4532 H   0  0  0  0  0  0  0  0  0  0  0  0
  153.9489  141.7171  162.1505 H   0  0  0  0  0  0  0  0  0  0  0  0
  151.8997  143.5438  162.5305 H   0  0  0  0  0  0  0  0  0  0  0  0
  149.8593  143.3537  156.2728 H   0  0  0  0  0  0  0  0  0  0  0  0
  1  2  1  0  0  0  0
  1 16  1  0  0  0  0
  1 17  1  0  0  0  0
  1 18  1  0  0  0  0
  2  3  1  0  0  0  0
  2 19  1  0  0  0  0
  2 20  1  0  0  0  0
  3  4  1  0  0  0  0
  3  5  1  0  0  0  0
  3 21  1  0  0  0  0
  4 22  1  0  0  0  0
  5  6  1  0  0  0  0
  5 23  1  0  0  0  0
  5 24  1  0  0  0  0
  6  7  1  0  0  0  0
  6 25  1  0  0  0  0
  6 37  1  0  0  0  0
  7  8  1  0  0  0  0
  7  9  1  0  0  0  0
  7 26  1  0  0  0  0
  8 27  1  0  0  0  0
  8 28  1  0  0  0  0
  8 29  1  0  0  0  0
  9 10  1  0  0  0  0
  9 11  1  0  0  0  0
  9 30  1  0  0  0  0
 10 31  1  0  0  0  0
 10 32  1  0  0  0  0
 10 33  1  0  0  0  0
 11 15  1  0  0  0  0
 11 12  1  0  0  0  0
 12 13  2  0  0  0  0
 12 34  1  0  0  0  0
 13 14  1  0  0  0  0
 13 35  1  0  0  0  0
 14 15  2  0  0  0  0
 14 36  1  0  0  0  0
M  CHG  1   6   1
M  END
> <s_m_source_file>
AV-unprocessed.smi

> <i_m_source_file_index>
3112

> <i_lp_mmshare_version>
43012

> <i_f3d_flags>
0

> <s_epik_input>
W0NIM11bQ0gyXVtDQEhdKFtPSF0pW0NIMl1bTkhdW0NASF0oW0NIM10pW0NASF0oW0NIM10pbjFbY0hdW2NIXVtjSF1uMQ==

> <s_epik_cmdline>
J2VwaWtfcHl0aG9uJywgJy1waCcsICc3LjAnLCAnLXRuJywgJzgnLCAnLW1hJywgJzIwMCcsICctbWV0YWxfYmluZGluZycsICctaW1hZScsICc8aW5maWxlLm1hZT4nLCAnLW9tYWUnLCAnPG91dGZpbGUubWFlPic=

> <r_lp_tautomer_probability>
1

> <r_epik_Ionization_Penalty>
0.0154842

> <r_epik_Ionization_Penalty_Charging>
0.0154724

> <r_epik_Ionization_Penalty_Neutral>
1.17979e-05

> <r_epik_State_Penalty>
0.0121607

> <r_epik_Charging_Adjusted_Penalty>
0.0276331

> <i_epik_Tot_Q>
1

> <i_epik_Tot_abs_Q>
1

> <r_epik_Metal_State_Penalty>
0.0121863

> <b_epik_Metal_Only>
0

> <s_lp_Force_Field>
OPLS_2005

> <r_lp_Energy>
13.9739

> <b_lp_Chiralities_Consistent>
1

> <s_lp_Variant>
AV-unprocessed.smi:3112-8

> <Gold.Version>
5.8.1

> <Gold.Id.Protein>
6NUR|6NUR_protein|mol2

> <Gold.PLP.Fitness>
47.6451

> <Gold.PLP.PLP>
-39.1021

> <Gold.PLP.part.hbond>
-3.9757

> <Gold.PLP.part.metal>
0.0000

> <Gold.PLP.part.buried>
-2.8108

> <Gold.PLP.part.nonpolar>
-31.2957

> <Gold.PLP.part.repulsive>
0.1545

> <Gold.PLP.ligand.clash>
0.0000

> <Gold.PLP.ligand.torsion>
0.2902

> <Gold.PLP.Chemscore.Hbond>
3.0000

> <Gold.PLP.Chemscore.CHOScore>
0.0000

> <Gold.PLP.Chemscore.Metal>
0.0000

> <Gold.Chemscore.Hbonds>
donor molecule, donor type, donor heavy atom, donor atom, acceptor molecule, acceptor atom, score
      L1  H     4    22       P1  8028  0.82
      L1  H     6    37       P1  8028  2.00

> <Gold.PLP.Chemscore.Internal.Correction>
0.1234

> <Gold.Rescore>
     Score         DG    S(hbond)    S(metal)    S(lipo)     H(rot)  DE(clash)    DE(int)     intcor
     16.83     -17.03       1.99        0.00      94.50       2.41       0.02       0.19       ----

> <Gold.Chemscore.Fitness>
16.8250

> <Gold.Chemscore.DG>
-17.0327

> <Gold.Chemscore.ZeroCoef>
-5.4800

> <Gold.Chemscore.Hbond>
1.9949

> <Gold.Chemscore.Metal>
0.0000

> <Gold.Chemscore.Lipo>
94.5004

> <Gold.Chemscore.Internal_Hbond>
0.0000

> <Gold.Chemscore.DEClash>
0.0158

> <Gold.Chemscore.DEInternal>
0.1919

> <Gold.Chemscore.Rot>
2.4089

> <Gold.Chemscore.Internal.Correction>
   9.000000E+99

> <Gold.Chemscore.Hbonds>
donor molecule, donor type, donor heavy atom, donor atom, acceptor molecule, acceptor atom, score
      L1  H     4    22       P1  8028  0.80
      L1  H     6    37       P1  8028  0.99

> <Gold.Chemscore.Hbond.Weighted>
-6.6628

> <Gold.Chemscore.Metal.Weighted>
-0.0000

> <Gold.Chemscore.Lipo.Weighted>
-11.0565

> <Gold.Chemscore.Internal_Hbond.Weighted>
0.0000

> <Gold.Chemscore.DEClash.Weighted>
0.0158

> <Gold.Chemscore.DEInternal.Weighted>
0.1919

> <Gold.Chemscore.Rot.Weighted>
6.1667

> <Gold.Chemscore.Internal.Correction.Weighted>
   9.000000E+99

> <Gold.Protein.RotatedTorsions>
[ 6907 6896 6895 6894 ] final  110.55 input  -60.11 | X-H torsion
[ 7974 7965 7964 7962 ] final -122.45 input  175.53 | X-H torsion
[ 8008 7997 7996 7995 ] final  128.76 input   59.86 | X-H torsion
[ 10167 10162 10161 10158 ] final  154.42 input  -65.29 | X-H torsion
[ 10718 10713 10712 10709 ] final   -3.23 input   66.30 | X-H torsion
[ 10763 10752 10751 10750 ] final   48.10 input  -60.55 | X-H torsion
[ 11005 11000 10999 10996 ] final  -13.33 input  -57.11 | X-H torsion

> <Gold.Protein.ActiveResidues>
 VAL166  LYS551  ARG553  GLY616  TRP617  ASP618  TYR619  PRO620  LYS621  CYS622 
 ASP623  PHE694  ASN695  SER759  ASP760  ASP761  ALA762  ILE779  LEU786  VAL792 
 PHE793  MET794  SER795  GLU796  ALA797  LYS798  CYS799  TRP800  GLU811  SER814 

> <Gold.Protein.RotatedAtoms>
  152.5014  133.8784  159.7333 H   0  0  0  0  0  0  0  0  0  0  0  0  # atno 6907 bound_to 6896
  150.9253  133.6822  159.2829 H   0  0  0  0  0  0  0  0  0  0  0  0  # atno 6908 bound_to 6896
  151.4185  135.0999  159.9659 H   0  0  0  0  0  0  0  0  0  0  0  0  # atno 6909 bound_to 6896
  145.0293  140.8054  143.4333 H   0  0  0  0  0  0  0  0  0  0  0  0  # atno 7974 bound_to 7965
  156.2922  140.2637  156.2488 H   0  0  0  0  0  0  0  0  0  0  0  0  # atno 8008 bound_to 7997
  154.9903  140.0389  157.2335 H   0  0  0  0  0  0  0  0  0  0  0  0  # atno 8009 bound_to 7997
  154.7692  140.2775  155.6156 H   0  0  0  0  0  0  0  0  0  0  0  0  # atno 8010 bound_to 7997
  139.4823  144.5188  151.7909 H   0  0  0  0  0  0  0  0  0  0  0  0  # atno 10167 bound_to 10162
  156.7791  130.5325  149.5754 H   0  0  0  0  0  0  0  0  0  0  0  0  # atno 10718 bound_to 10713
  152.9794  135.5955  154.3870 H   0  0  0  0  0  0  0  0  0  0  0  0  # atno 10763 bound_to 10752
  154.3529  135.2767  155.2364 H   0  0  0  0  0  0  0  0  0  0  0  0  # atno 10764 bound_to 10752
  154.4395  135.6016  153.6175 H   0  0  0  0  0  0  0  0  0  0  0  0  # atno 10765 bound_to 10752
  140.7750  133.8408  155.9240 H   0  0  0  0  0  0  0  0  0  0  0  0  # atno 11005 bound_to 11000
  145.1792  139.2361  143.5301 LP  0  0  0  0  0  0  0  0  0  0  0  0  # atno 17320 bound_to 7965
  146.3496  140.1562  142.8591 LP  0  0  0  0  0  0  0  0  0  0  0  0  # atno 17321 bound_to 7965
  140.4699  144.1601  150.5916 LP  0  0  0  0  0  0  0  0  0  0  0  0  # atno 17342 bound_to 10162
  140.4393  143.2533  151.9494 LP  0  0  0  0  0  0  0  0  0  0  0  0  # atno 17343 bound_to 10162
  156.1229  130.6123  151.0221 LP  0  0  0  0  0  0  0  0  0  0  0  0  # atno 17370 bound_to 10713
  157.6655  131.0872  150.7739 LP  0  0  0  0  0  0  0  0  0  0  0  0  # atno 17371 bound_to 10713
  140.9538  134.1745  157.4707 LP  0  0  0  0  0  0  0  0  0  0  0  0  # atno 17394 bound_to 11000
  139.8750  134.9919  156.5571 LP  0  0  0  0  0  0  0  0  0  0  0  0  # atno 17395 bound_to 11000

$$$$
