AV-unprocessed.smi:496|AV-procd|sdf|2722|dock9
  -GOLD-   2262023163D 1   1.00000     0.00000
 Structure written by MMmdl.
 42 44  0  0  0  0  0  0  0  0  3 V2000
  153.7888  137.7207  159.7005 C   0  0  0  0  0  0  0  0  0  0  0  0
  152.5269  138.0614  159.1478 O   0  0  0  0  0  0  0  0  0  0  0  0
  152.5081  139.3172  158.4848 C   0  0  0  0  0  0  0  0  0  0  0  0
  151.0802  139.7291  158.0873 C   0  0  0  0  0  0  0  0  0  0  0  0
  151.0361  141.1122  157.5745 N   0  0  0  0  0  0  0  0  0  0  0  0
  150.5042  141.6413  156.4252 C   0  0  0  0  0  0  0  0  0  0  0  0
  149.7792  140.9291  155.3108 C   0  0  2  0  0  0  0  0  0  0  0  0
  148.6160  140.1023  155.8751 C   0  0  0  0  0  0  0  0  0  0  0  0
  150.6717  140.0496  154.5542 N   0  5  0  0  0  0  0  0  0  0  0  0
  151.5032  139.1323  155.1258 C   0  0  0  0  0  0  0  0  0  0  0  0
  152.6466  139.2776  155.5721 O   0  0  0  0  0  0  0  0  0  0  0  0
  150.8880  137.7864  155.2060 C   0  0  0  0  0  0  0  0  0  0  0  0
  149.5906  137.3981  154.9999 C   0  0  0  0  0  0  0  0  0  0  0  0
  149.5437  135.9912  155.2043 C   0  0  0  0  0  0  0  0  0  0  0  0
  150.8171  135.6159  155.5215 C   0  0  0  0  0  0  0  0  0  0  0  0
  151.6474  136.6935  155.5269 O   0  0  0  0  0  0  0  0  0  0  0  0
  150.7495  142.9832  156.4575 N   0  3  0  0  0  0  0  0  0  0  0  0
  151.4158  143.3229  157.6331 C   0  0  0  0  0  0  0  0  0  0  0  0
  151.8565  144.5548  158.1060 C   0  0  0  0  0  0  0  0  0  0  0  0
  152.4981  144.5573  159.3617 C   0  0  0  0  0  0  0  0  0  0  0  0
  152.6785  143.3669  160.0955 C   0  0  0  0  0  0  0  0  0  0  0  0
  152.2284  142.1240  159.6036 C   0  0  0  0  0  0  0  0  0  0  0  0
  151.5978  142.1288  158.3590 C   0  0  0  0  0  0  0  0  0  0  0  0
  153.7340  136.7247  160.1394 H   0  0  0  0  0  0  0  0  0  0  0  0
  154.0885  138.4114  160.4882 H   0  0  0  0  0  0  0  0  0  0  0  0
  154.5649  137.7058  158.9344 H   0  0  0  0  0  0  0  0  0  0  0  0
  152.9866  140.0858  159.0939 H   0  0  0  0  0  0  0  0  0  0  0  0
  153.1151  139.2167  157.5847 H   0  0  0  0  0  0  0  0  0  0  0  0
  150.6767  139.0553  157.3318 H   0  0  0  0  0  0  0  0  0  0  0  0
  150.3997  139.6619  158.9352 H   0  0  0  0  0  0  0  0  0  0  0  0
  149.3471  141.6912  154.6608 H   0  0  0  0  0  0  0  0  0  0  0  0
  147.9118  140.7385  156.4120 H   0  0  0  0  0  0  0  0  0  0  0  0
  148.9668  139.3356  156.5670 H   0  0  0  0  0  0  0  0  0  0  0  0
  148.0637  139.6038  155.0777 H   0  0  0  0  0  0  0  0  0  0  0  0
  148.7725  138.0509  154.7334 H   0  0  0  0  0  0  0  0  0  0  0  0
  148.6873  135.3378  155.1282 H   0  0  0  0  0  0  0  0  0  0  0  0
  151.2847  134.6721  155.7607 H   0  0  0  0  0  0  0  0  0  0  0  0
  151.7136  145.4676  157.5465 H   0  0  0  0  0  0  0  0  0  0  0  0
  152.8548  145.4910  159.7716 H   0  0  0  0  0  0  0  0  0  0  0  0
  153.1708  143.4077  161.0562 H   0  0  0  0  0  0  0  0  0  0  0  0
  152.3680  141.2201  160.1779 H   0  0  0  0  0  0  0  0  0  0  0  0
  150.4520  143.6149  155.7250 H   0  0  0  0  0  0  0  0  0  0  0  0
  1  2  1  0  0  0  0
  1 24  1  0  0  0  0
  1 25  1  0  0  0  0
  1 26  1  0  0  0  0
  2  3  1  0  0  0  0
  3  4  1  0  0  0  0
  3 27  1  0  0  0  0
  3 28  1  0  0  0  0
  4  5  1  0  0  0  0
  4 29  1  0  0  0  0
  4 30  1  0  0  0  0
  5 23  1  0  0  0  0
  5  6  1  0  0  0  0
  6  7  1  0  0  0  0
  6 17  2  0  0  0  0
  7  8  1  0  0  0  0
  7  9  1  0  0  0  0
  7 31  1  0  0  0  0
  8 32  1  0  0  0  0
  8 33  1  0  0  0  0
  8 34  1  0  0  0  0
  9 10  1  0  0  0  0
 10 11  2  0  0  0  0
 10 12  1  0  0  0  0
 12 16  1  0  0  0  0
 12 13  2  0  0  0  0
 13 14  1  0  0  0  0
 13 35  1  0  0  0  0
 14 15  2  0  0  0  0
 14 36  1  0  0  0  0
 15 16  1  0  0  0  0
 15 37  1  0  0  0  0
 17 18  1  0  0  0  0
 17 42  1  0  0  0  0
 18 23  2  0  0  0  0
 18 19  1  0  0  0  0
 19 20  2  0  0  0  0
 19 38  1  0  0  0  0
 20 21  1  0  0  0  0
 20 39  1  0  0  0  0
 21 22  2  0  0  0  0
 21 40  1  0  0  0  0
 22 23  1  0  0  0  0
 22 41  1  0  0  0  0
M  CHG  1   9  -1
M  CHG  1  17   1
M  END
> <s_m_source_file>
AV-unprocessed.smi

> <i_m_source_file_index>
496

> <i_lp_mmshare_version>
43012

> <i_f3d_flags>
0

> <s_epik_input>
W2NIXTFbY0hdW2NIXVtjSF1jKGMxMiluKFtDSDJdW0NIMl1PW0NIM10pYyhuMilbQ0BIXShbQ0gzXSlbTkhdQyg9TyljM1tjSF1bY0hdW2NIXW8z

> <s_epik_cmdline>
J2VwaWtfcHl0aG9uJywgJy1waCcsICc3LjAnLCAnLXRuJywgJzgnLCAnLW1hJywgJzIwMCcsICctbWV0YWxfYmluZGluZycsICctaW1hZScsICc8aW5maWxlLm1hZT4nLCAnLW9tYWUnLCAnPG91dGZpbGUubWFlPic=

> <r_epik_Ionization_Penalty>
6.2189

> <r_epik_Ionization_Penalty_Charging>
6.2189

> <r_epik_Ionization_Penalty_Neutral>
2.56052e-12

> <r_epik_State_Penalty>
7.14475

> <r_epik_Charging_Adjusted_Penalty>
13.3636

> <i_epik_Tot_Q>
0

> <i_epik_Tot_abs_Q>
2

> <r_epik_Metal_State_Penalty>
3.17915

> <b_epik_Metal_Only>
1

> <s_lp_Force_Field>
OPLS_2005

> <r_lp_Energy>
11.1611

> <b_lp_Chiralities_Consistent>
1

> <s_lp_Variant>
AV-unprocessed.smi:496-7

> <Gold.Version>
5.8.1

> <Gold.Id.Protein>
6NUR|6NUR_protein|mol2

> <Gold.PLP.Fitness>
54.7150

> <Gold.PLP.PLP>
-46.1638

> <Gold.PLP.part.hbond>
-4.0000

> <Gold.PLP.part.metal>
0.0000

> <Gold.PLP.part.buried>
-8.3736

> <Gold.PLP.part.nonpolar>
-36.4716

> <Gold.PLP.part.repulsive>
0.2358

> <Gold.PLP.ligand.clash>
0.0000

> <Gold.PLP.ligand.torsion>
1.1351

> <Gold.PLP.Chemscore.Hbond>
3.5840

> <Gold.PLP.Chemscore.CHOScore>
0.0000

> <Gold.PLP.Chemscore.Metal>
0.0000

> <Gold.Chemscore.Hbonds>
donor molecule, donor type, donor heavy atom, donor atom, acceptor molecule, acceptor atom, score
      L1  H    17    42       P1  8028  1.18
      P1  H  7989  7998       L1     9  1.00
      P1  H  7997  8008       L1    11  1.00
      P1  H 10752 10764       L1    16  0.40

> <Gold.PLP.Chemscore.Internal.Correction>
0.0695

> <Gold.Rescore>
     Score         DG    S(hbond)    S(metal)    S(lipo)     H(rot)  DE(clash)    DE(int)     intcor
     17.84     -21.99       2.45        0.00     111.37       1.83       0.44       3.71       ----

> <Gold.Chemscore.Fitness>
17.8412

> <Gold.Chemscore.DG>
-21.9940

> <Gold.Chemscore.ZeroCoef>
-5.4800

> <Gold.Chemscore.Hbond>
2.4489

> <Gold.Chemscore.Metal>
0.0000

> <Gold.Chemscore.Lipo>
111.3697

> <Gold.Chemscore.Internal_Hbond>
0.0000

> <Gold.Chemscore.DEClash>
0.4439

> <Gold.Chemscore.DEInternal>
3.7089

> <Gold.Chemscore.Rot>
1.8343

> <Gold.Chemscore.Internal.Correction>
   9.000000E+99

> <Gold.Chemscore.Hbonds>
donor molecule, donor type, donor heavy atom, donor atom, acceptor molecule, acceptor atom, score
      L1  H    17    42       P1  8028  0.60
      P1  H  7989  7998       L1     9  0.43
      P1  H  7997  8008       L1    11  0.95
      P1  H 10752 10764       L1    16  0.01

> <Gold.Chemscore.Hbond.Weighted>
-8.1795

> <Gold.Chemscore.Metal.Weighted>
-0.0000

> <Gold.Chemscore.Lipo.Weighted>
-13.0303

> <Gold.Chemscore.Internal_Hbond.Weighted>
0.0000

> <Gold.Chemscore.DEClash.Weighted>
0.4439

> <Gold.Chemscore.DEInternal.Weighted>
3.7089

> <Gold.Chemscore.Rot.Weighted>
4.6958

> <Gold.Chemscore.Internal.Correction.Weighted>
   9.000000E+99

> <Gold.Protein.RotatedTorsions>
[ 6907 6896 6895 6894 ] final  109.52 input  -60.11 | X-H torsion
[ 7974 7965 7964 7962 ] final  169.98 input  175.53 | X-H torsion
[ 8008 7997 7996 7995 ] final  -36.60 input   59.86 | X-H torsion
[ 10167 10162 10161 10158 ] final -106.48 input  -65.29 | X-H torsion
[ 10718 10713 10712 10709 ] final -133.87 input   66.30 | X-H torsion
[ 10763 10752 10751 10750 ] final  -57.56 input  -60.55 | X-H torsion
[ 11005 11000 10999 10996 ] final   57.48 input  -57.11 | X-H torsion

> <Gold.Protein.ActiveResidues>
 VAL166  LYS551  ARG553  GLY616  TRP617  ASP618  TYR619  PRO620  LYS621  CYS622 
 ASP623  PHE694  ASN695  SER759  ASP760  ASP761  ALA762  ILE779  LEU786  VAL792 
 PHE793  MET794  SER795  GLU796  ALA797  LYS798  CYS799  TRP800  GLU811  SER814 

> <Gold.Protein.RotatedAtoms>
  152.5063  133.8932  159.7403 H   0  0  0  0  0  0  0  0  0  0  0  0  # atno 6907 bound_to 6896
  150.9365  133.6697  159.2806 H   0  0  0  0  0  0  0  0  0  0  0  0  # atno 6908 bound_to 6896
  151.4023  135.0977  159.9612 H   0  0  0  0  0  0  0  0  0  0  0  0  # atno 6909 bound_to 6896
  144.7338  139.9134  143.6416 H   0  0  0  0  0  0  0  0  0  0  0  0  # atno 7974 bound_to 7965
  154.4070  140.1626  156.2400 H   0  0  0  0  0  0  0  0  0  0  0  0  # atno 8008 bound_to 7997
  155.9209  140.3421  155.6149 H   0  0  0  0  0  0  0  0  0  0  0  0  # atno 8009 bound_to 7997
  155.7223  140.0770  157.2316 H   0  0  0  0  0  0  0  0  0  0  0  0  # atno 8010 bound_to 7997
  140.1873  143.3919  152.1234 H   0  0  0  0  0  0  0  0  0  0  0  0  # atno 10167 bound_to 10162
  156.2494  130.7144  151.1037 H   0  0  0  0  0  0  0  0  0  0  0  0  # atno 10718 bound_to 10713
  154.2244  135.6372  153.5155 H   0  0  0  0  0  0  0  0  0  0  0  0  # atno 10763 bound_to 10752
  152.9962  135.5504  154.6079 H   0  0  0  0  0  0  0  0  0  0  0  0  # atno 10764 bound_to 10752
  154.5547  135.2904  155.0949 H   0  0  0  0  0  0  0  0  0  0  0  0  # atno 10765 bound_to 10752
  140.0450  134.5819  155.9334 H   0  0  0  0  0  0  0  0  0  0  0  0  # atno 11005 bound_to 11000
  146.0984  139.3977  143.0362 LP  0  0  0  0  0  0  0  0  0  0  0  0  # atno 17320 bound_to 7965
  145.7613  140.9934  143.1198 LP  0  0  0  0  0  0  0  0  0  0  0  0  # atno 17321 bound_to 7965
  139.5270  144.7115  151.5191 LP  0  0  0  0  0  0  0  0  0  0  0  0  # atno 17342 bound_to 10162
  140.6479  143.8756  150.6756 LP  0  0  0  0  0  0  0  0  0  0  0  0  # atno 17343 bound_to 10162
  157.7208  131.0682  150.6142 LP  0  0  0  0  0  0  0  0  0  0  0  0  # atno 17370 bound_to 10713
  156.6221  130.4408  149.5818 LP  0  0  0  0  0  0  0  0  0  0  0  0  # atno 17371 bound_to 10713
  141.1902  133.6568  156.5402 LP  0  0  0  0  0  0  0  0  0  0  0  0  # atno 17394 bound_to 11000
  140.4009  134.7358  157.4779 LP  0  0  0  0  0  0  0  0  0  0  0  0  # atno 17395 bound_to 11000

$$$$
