#       Name:                AV-unprocessed.smi:2021
#       Creating user name   scv26
#       Creation time:       Fri Mar 27 10:43:24 2020


#       File generated by GOLD software.
#

@<TRIPOS>MOLECULE
AV-unprocessed.smi:2021
    48    49     1
SMALL
NO_CHARGES


@<TRIPOS>ATOM
      1 ****        -5.1647   2.0104  -1.1785 C.3            1 S1                 0.0000
      2 ****        -3.6344   2.0311  -1.0480 C.3            1 S1                 0.0000
      3 ****        -2.9942   2.6016  -2.3245 C.3            1 S1                 0.0000
      4 ****        -3.0994   0.6209  -0.7173 C.3            1 S1                 0.0000
      5 ****        -1.6437   0.5998  -0.4220 N.4            1 S1                 1.0000
      6 ****        -1.3020   1.1334   0.9199 C.3            1 S1                 0.0000
      7 ****         0.2186   1.1002   1.1395 C.3            1 S1                 0.0000
      8 ****         0.6885  -0.2283   0.9647 O.3            1 S1                 0.0000
      9 ****         0.4693  -0.7129  -0.3562 C.3            1 S1                 0.0000
     10 ****         1.1033  -2.1088  -0.4891 C.3            1 S1                 0.0000
     11 ****         2.5601  -2.0423  -0.4415 N.am           1 S1                 0.0000
     12 ****         3.3152  -2.0814   0.6653 C.2            1 S1                 0.0000
     13 ****         2.7841  -2.2133   1.7703 O.2            1 S1                 0.0000
     14 ****         4.6392  -1.9603   0.4219 N.pl3          1 S1                -1.0000
     15 ****         5.5125  -1.9680   1.4427 C.2            1 S1                 0.0000
     16 ****         5.9894  -0.8376   1.9886 N.2            1 S1                 0.0000
     17 ****         6.8810  -1.0673   3.0277 N.2            1 S1                 0.0000
     18 ****         7.0610  -2.3717   3.2339 C.2            1 S1                 0.0000
     19 ****         6.1593  -3.4377   2.1773 S.3            1 S1                 0.0000
     20 ****        -1.0504  -0.7461  -0.6099 C.3            1 S1                 0.0000
     21 ****        -5.4862   1.3553  -1.9889 H              1 S1                 0.0000
     22 ****        -5.5559   3.0076  -1.3825 H              1 S1                 0.0000
     23 ****        -5.6333   1.6574  -0.2593 H              1 S1                 0.0000
     24 ****        -3.4021   2.7062  -0.2250 H              1 S1                 0.0000
     25 ****        -3.1928   1.9644  -3.1870 H              1 S1                 0.0000
     26 ****        -1.9130   2.6964  -2.2218 H              1 S1                 0.0000
     27 ****        -3.3859   3.5941  -2.5490 H              1 S1                 0.0000
     28 ****        -3.6403   0.1926   0.1280 H              1 S1                 0.0000
     29 ****        -3.3053  -0.0300  -1.5688 H              1 S1                 0.0000
     30 ****        -1.6555   2.1577   1.0283 H              1 S1                 0.0000
     31 ****        -1.7993   0.5391   1.6880 H              1 S1                 0.0000
     32 ****         0.7298   1.7762   0.4522 H              1 S1                 0.0000
     33 ****         0.4606   1.4298   2.1500 H              1 S1                 0.0000
     34 ****         0.9419  -0.0406  -1.0751 H              1 S1                 0.0000
     35 ****         0.7163  -2.7868   0.2737 H              1 S1                 0.0000
     36 ****         0.8328  -2.5439  -1.4515 H              1 S1                 0.0000
     37 ****         3.0420  -1.9426  -1.3230 H              1 S1                 0.0000
     38 ****         7.7307  -2.7082   4.0110 H              1 S1                 0.0000
     39 ****        -1.5314  -1.4545   0.0670 H              1 S1                 0.0000
     40 ****        -1.2433  -1.0913  -1.6266 H              1 S1                 0.0000
     41 ****        -1.2005   1.2003  -1.1027 H              1 S1                 0.0000
     42 ****         0.2105  -0.8253   1.6091 LP             1 S1                 0.0000
     43 ****         1.6698  -0.2495   1.1556 LP             1 S1                 0.0000
     44 ****         1.7896  -2.2912   1.8410 LP             1 S1                 0.0000
     45 ****         3.3478  -2.2424   2.5957 LP             1 S1                 0.0000
     46 ****         4.9685  -1.8650  -0.5175 LP             1 S1                 0.0000
     47 ****         5.7288   0.0766   1.6782 LP             1 S1                 0.0000
     48 ****         7.3308  -0.3460   3.5543 LP             1 S1                 0.0000
@<TRIPOS>BOND
    1    1    2 1     
    2    1   21 1     
    3    1   22 1     
    4    1   23 1     
    5    2    3 1     
    6    2    4 1     
    7    2   24 1     
    8    3   25 1     
    9    3   26 1     
   10    3   27 1     
   11    4    5 1     
   12    4   28 1     
   13    4   29 1     
   14    5   20 1     
   15    5    6 1     
   16    5   41 1     
   17    6    7 1     
   18    6   30 1     
   19    6   31 1     
   20    7    8 1     
   21    7   32 1     
   22    7   33 1     
   23    8    9 1     
   24    9   10 1     
   25    9   20 1     
   26    9   34 1     
   27   10   11 1     
   28   10   35 1     
   29   10   36 1     
   30   11   12 am    
   31   11   37 1     
   32   12   13 2     
   33   12   14 1     
   34   14   15 1     
   35   15   19 1     
   36   15   16 2     
   37   16   17 1     
   38   17   18 2     
   39   18   19 1     
   40   18   38 1     
   41   20   39 1     
   42   20   40 1     
   43    8   42 1     
   44    8   43 1     
   45   13   44 1     
   46   13   45 1     
   47   14   46 1     
   48   16   47 1     
   49   17   48 1     
@<TRIPOS>SUBSTRUCTURE
      1 S1             1
@<TRIPOS>SET
LONE_PAIRS      STATIC     ATOMS    <user>   **** ""
7 42 43 44 45 46 47 48
DONOR_HYDROGENS      STATIC     ATOMS    <user>   **** ""
2 41 37
ATOM$BLUE        STATIC     ATOMS    COLORGROUP SYSTEM
7 42 43 44 45 46 47 48
ATOM$RED        STATIC     ATOMS    COLORGROUP SYSTEM
2 41 37
