AV-unprocessed.smi:2962|AV-procd|sdf|11318|dock4
  -GOLD-   2272016223D 1   1.00000     0.00000
 Structure written by MMmdl.
 37 38  0  0  0  0  0  0  0  0  2 V2000
  149.5591  137.1556  159.2857 C   0  0  0  0  0  0  0  0  0  0  0  0
  150.5852  138.1320  159.2939 O   0  0  0  0  0  0  0  0  0  0  0  0
  150.8962  138.6053  157.9933 C   0  0  0  0  0  0  0  0  0  0  0  0
  152.0146  139.6528  158.0818 C   0  0  0  0  0  0  0  0  0  0  0  0
  151.5686  140.9812  157.6399 N   0  0  0  0  0  0  0  0  0  0  0  0
  150.9940  141.3782  156.4710 C   0  0  0  0  0  0  0  0  0  0  0  0
  150.5948  140.3523  155.0955 S   0  0  0  0  0  0  0  0  0  0  0  0
  148.7805  140.3499  155.0321 C   0  0  1  0  0  0  0  0  0  0  0  0
  148.2730  141.5164  154.1704 C   0  0  0  0  0  0  0  0  0  0  0  0
  148.2393  139.0065  154.5267 C   0  0  0  0  0  0  0  0  0  0  0  0
  148.5656  138.6460  153.2825 N   0  0  0  0  0  0  0  0  0  0  0  0
  147.5209  138.3095  155.2403 O   0  0  0  0  0  0  0  0  0  0  0  0
  150.7610  142.7163  156.5556 N   0  3  0  0  0  0  0  0  0  0  0  0
  151.2008  143.1863  157.7944 C   0  0  0  0  0  0  0  0  0  0  0  0
  151.1833  144.4650  158.3427 C   0  0  0  0  0  0  0  0  0  0  0  0
  151.7165  144.6042  159.6411 C   0  0  0  0  0  0  0  0  0  0  0  0
  152.2394  143.4988  160.3432 C   0  0  0  0  0  0  0  0  0  0  0  0
  152.2510  142.2064  159.7784 C   0  0  0  0  0  0  0  0  0  0  0  0
  151.7218  142.0773  158.4949 C   0  0  0  0  0  0  0  0  0  0  0  0
  149.3672  136.8168  160.3036 H   0  0  0  0  0  0  0  0  0  0  0  0
  149.8443  136.2872  158.6904 H   0  0  0  0  0  0  0  0  0  0  0  0
  148.6300  137.5647  158.8863 H   0  0  0  0  0  0  0  0  0  0  0  0
  151.2158  137.7770  157.3592 H   0  0  0  0  0  0  0  0  0  0  0  0
  150.0083  139.0429  157.5346 H   0  0  0  0  0  0  0  0  0  0  0  0
  152.3615  139.7427  159.1116 H   0  0  0  0  0  0  0  0  0  0  0  0
  152.8808  139.3552  157.4901 H   0  0  0  0  0  0  0  0  0  0  0  0
  148.4255  140.5061  156.0520 H   0  0  0  0  0  0  0  0  0  0  0  0
  147.1835  141.5266  154.1183 H   0  0  0  0  0  0  0  0  0  0  0  0
  148.6560  141.4595  153.1506 H   0  0  0  0  0  0  0  0  0  0  0  0
  148.5889  142.4731  154.5875 H   0  0  0  0  0  0  0  0  0  0  0  0
  148.2219  137.7779  152.8987 H   0  0  0  0  0  0  0  0  0  0  0  0
  149.1461  139.2546  152.7234 H   0  0  0  0  0  0  0  0  0  0  0  0
  150.7847  145.3140  157.8068 H   0  0  0  0  0  0  0  0  0  0  0  0
  151.7255  145.5787  160.1076 H   0  0  0  0  0  0  0  0  0  0  0  0
  152.6402  143.6451  161.3358 H   0  0  0  0  0  0  0  0  0  0  0  0
  152.6550  141.3660  160.3234 H   0  0  0  0  0  0  0  0  0  0  0  0
  150.3397  143.2646  155.8169 H   0  0  0  0  0  0  0  0  0  0  0  0
  1  2  1  0  0  0  0
  1 20  1  0  0  0  0
  1 21  1  0  0  0  0
  1 22  1  0  0  0  0
  2  3  1  0  0  0  0
  3  4  1  0  0  0  0
  3 23  1  0  0  0  0
  3 24  1  0  0  0  0
  4  5  1  0  0  0  0
  4 25  1  0  0  0  0
  4 26  1  0  0  0  0
  5 19  1  0  0  0  0
  5  6  1  0  0  0  0
  6  7  1  0  0  0  0
  6 13  2  0  0  0  0
  7  8  1  0  0  0  0
  8  9  1  0  0  0  0
  8 10  1  0  0  0  0
  8 27  1  0  0  0  0
  9 28  1  0  0  0  0
  9 29  1  0  0  0  0
  9 30  1  0  0  0  0
 10 11  1  0  0  0  0
 10 12  2  0  0  0  0
 11 31  1  0  0  0  0
 11 32  1  0  0  0  0
 13 14  1  0  0  0  0
 13 37  1  0  0  0  0
 14 19  2  0  0  0  0
 14 15  1  0  0  0  0
 15 16  2  0  0  0  0
 15 33  1  0  0  0  0
 16 17  1  0  0  0  0
 16 34  1  0  0  0  0
 17 18  2  0  0  0  0
 17 35  1  0  0  0  0
 18 19  1  0  0  0  0
 18 36  1  0  0  0  0
M  CHG  1  13   1
M  END
> <s_m_source_file>
AV-unprocessed.smi

> <i_m_source_file_index>
2962

> <i_lp_mmshare_version>
43012

> <i_f3d_flags>
0

> <s_epik_input>
W2NIXTFbY0hdW2NIXVtjSF1jKGMxMiluKFtDSDJdW0NIMl1PW0NIM10pYyhuMilTW0NASF0oW0NIM10pQyg9TylbTkgyXQ==

> <s_epik_cmdline>
J2VwaWtfcHl0aG9uJywgJy1waCcsICc3LjAnLCAnLXRuJywgJzgnLCAnLW1hJywgJzIwMCcsICctbWV0YWxfYmluZGluZycsICctaW1hZScsICc8aW5maWxlLm1hZT4nLCAnLW9tYWUnLCAnPG91dGZpbGUubWFlPic=

> <r_epik_Ionization_Penalty>
2.01771

> <r_epik_Ionization_Penalty_Charging>
2.01771

> <r_epik_Ionization_Penalty_Neutral>
3.318e-07

> <r_epik_State_Penalty>
2.14773

> <r_epik_Charging_Adjusted_Penalty>
4.16544

> <i_epik_Tot_Q>
1

> <i_epik_Tot_abs_Q>
1

> <r_epik_Metal_State_Penalty>
2.1675

> <b_epik_Metal_Only>
0

> <s_lp_Force_Field>
OPLS_2005

> <r_lp_Energy>
8.26224

> <b_lp_Chiralities_Consistent>
1

> <s_lp_Variant>
AV-unprocessed.smi:2962-4

> <Gold.Version>
5.8.1

> <Gold.Id.Protein>
6NUR|6NUR_protein|mol2

> <Gold.PLP.Fitness>
48.8299

> <Gold.PLP.PLP>
-40.6279

> <Gold.PLP.part.hbond>
-3.5929

> <Gold.PLP.part.metal>
0.0000

> <Gold.PLP.part.buried>
-3.5825

> <Gold.PLP.part.nonpolar>
-33.9474

> <Gold.PLP.part.repulsive>
0.1909

> <Gold.PLP.ligand.clash>
0.0000

> <Gold.PLP.ligand.torsion>
0.8457

> <Gold.PLP.Chemscore.Hbond>
3.2720

> <Gold.PLP.Chemscore.CHOScore>
0.0000

> <Gold.PLP.Chemscore.Metal>
0.0000

> <Gold.Chemscore.Hbonds>
donor molecule, donor type, donor heavy atom, donor atom, acceptor molecule, acceptor atom, score
      L1  H    11    31       P1  7948  0.74
      L1  H    11    32       P1  7957  1.00
      L1  H    13    37       P1  8028  1.42

> <Gold.PLP.Chemscore.Internal.Correction>
0.0774

> <Gold.Rescore>
     Score         DG    S(hbond)    S(metal)    S(lipo)     H(rot)  DE(clash)    DE(int)     intcor
     17.64     -19.21       2.81        0.00      93.53       2.57       0.67       0.91       ----

> <Gold.Chemscore.Fitness>
17.6378

> <Gold.Chemscore.DG>
-19.2131

> <Gold.Chemscore.ZeroCoef>
-5.4800

> <Gold.Chemscore.Hbond>
2.8068

> <Gold.Chemscore.Metal>
0.0000

> <Gold.Chemscore.Lipo>
93.5338

> <Gold.Chemscore.Internal_Hbond>
0.0000

> <Gold.Chemscore.DEClash>
0.6669

> <Gold.Chemscore.DEInternal>
0.9084

> <Gold.Chemscore.Rot>
2.5723

> <Gold.Chemscore.Internal.Correction>
   9.000000E+99

> <Gold.Chemscore.Hbonds>
donor molecule, donor type, donor heavy atom, donor atom, acceptor molecule, acceptor atom, score
      L1  H    11    31       P1  7948  0.72
      L1  H    11    32       P1  7957  0.96
      L1  H    13    37       P1  8028  0.66

> <Gold.Chemscore.Hbond.Weighted>
-9.3746

> <Gold.Chemscore.Metal.Weighted>
-0.0000

> <Gold.Chemscore.Lipo.Weighted>
-10.9435

> <Gold.Chemscore.Internal_Hbond.Weighted>
0.0000

> <Gold.Chemscore.DEClash.Weighted>
0.6669

> <Gold.Chemscore.DEInternal.Weighted>
0.9084

> <Gold.Chemscore.Rot.Weighted>
6.5850

> <Gold.Chemscore.Internal.Correction.Weighted>
   9.000000E+99

> <Gold.Protein.RotatedTorsions>
[ 6907 6896 6895 6894 ] final   43.96 input  -60.11 | X-H torsion
[ 7974 7965 7964 7962 ] final   28.89 input  175.53 | X-H torsion
[ 8008 7997 7996 7995 ] final  137.48 input   59.86 | X-H torsion
[ 10167 10162 10161 10158 ] final -138.24 input  -65.29 | X-H torsion
[ 10718 10713 10712 10709 ] final  -21.10 input   66.30 | X-H torsion
[ 10763 10752 10751 10750 ] final  -58.77 input  -60.55 | X-H torsion
[ 11005 11000 10999 10996 ] final  -95.78 input  -57.11 | X-H torsion

> <Gold.Protein.ActiveResidues>
 VAL166  LYS551  ARG553  GLY616  TRP617  ASP618  TYR619  PRO620  LYS621  CYS622 
 ASP623  PHE694  ASN695  SER759  ASP760  ASP761  ALA762  ILE779  LEU786  VAL792 
 PHE793  MET794  SER795  GLU796  ALA797  LYS798  CYS799  TRP800  GLU811  SER814 

> <Gold.Protein.RotatedAtoms>
  152.2267  134.8361  160.0478 H   0  0  0  0  0  0  0  0  0  0  0  0  # atno 6907 bound_to 6896
  151.9125  133.3560  159.3877 H   0  0  0  0  0  0  0  0  0  0  0  0  # atno 6908 bound_to 6896
  150.7014  134.4642  159.5439 H   0  0  0  0  0  0  0  0  0  0  0  0  # atno 6909 bound_to 6896
  146.1703  139.6995  142.8972 H   0  0  0  0  0  0  0  0  0  0  0  0  # atno 7974 bound_to 7965
  156.3002  140.2418  156.3916 H   0  0  0  0  0  0  0  0  0  0  0  0  # atno 8008 bound_to 7997
  154.8609  140.0420  157.1684 H   0  0  0  0  0  0  0  0  0  0  0  0  # atno 8009 bound_to 7997
  154.8898  140.2961  155.5381 H   0  0  0  0  0  0  0  0  0  0  0  0  # atno 8010 bound_to 7997
  139.8498  143.7213  152.2658 H   0  0  0  0  0  0  0  0  0  0  0  0  # atno 10167 bound_to 10162
  156.5227  130.4636  149.6588 H   0  0  0  0  0  0  0  0  0  0  0  0  # atno 10718 bound_to 10713
  154.2434  135.6339  153.5215 H   0  0  0  0  0  0  0  0  0  0  0  0  # atno 10763 bound_to 10752
  152.9926  135.5547  154.5886 H   0  0  0  0  0  0  0  0  0  0  0  0  # atno 10764 bound_to 10752
  154.5397  135.2894  155.1081 H   0  0  0  0  0  0  0  0  0  0  0  0  # atno 10765 bound_to 10752
  141.1431  133.8051  157.0482 H   0  0  0  0  0  0  0  0  0  0  0  0  # atno 11005 bound_to 11000
  145.4358  141.0419  143.2885 LP  0  0  0  0  0  0  0  0  0  0  0  0  # atno 17320 bound_to 7965
  144.8153  139.5888  143.7011 LP  0  0  0  0  0  0  0  0  0  0  0  0  # atno 17321 bound_to 7965
  139.7476  144.7543  151.0555 LP  0  0  0  0  0  0  0  0  0  0  0  0  # atno 17342 bound_to 10162
  140.7789  143.4897  150.9909 LP  0  0  0  0  0  0  0  0  0  0  0  0  # atno 17343 bound_to 10162
  156.3134  130.7241  151.2138 LP  0  0  0  0  0  0  0  0  0  0  0  0  # atno 17370 bound_to 10713
  157.7434  131.0475  150.4948 LP  0  0  0  0  0  0  0  0  0  0  0  0  # atno 17371 bound_to 10713
  140.0649  134.9734  157.1368 LP  0  0  0  0  0  0  0  0  0  0  0  0  # atno 17394 bound_to 11000
  140.3795  134.2303  155.7172 LP  0  0  0  0  0  0  0  0  0  0  0  0  # atno 17395 bound_to 11000

$$$$
