AV-unprocessed.smi:578|AV-procd|sdf|2982|dock9
  -GOLD-   2262023493D 1   1.00000     0.00000
 Structure written by MMmdl.
 33 34  0  0  0  0  0  0  0  0  3 V2000
  150.6441  145.3037  159.7154 C   0  0  0  0  0  0  0  0  0  0  0  0
  151.6005  144.1650  159.3462 C   0  0  2  0  0  0  0  0  0  0  0  0
  150.9346  143.1252  158.4246 C   0  0  0  0  0  0  0  0  0  0  0  0
  151.8478  142.0166  158.1797 N   0  0  0  0  0  0  0  0  0  0  0  0
  151.3553  141.0857  157.2549 C   0  0  0  0  0  0  0  0  0  0  0  0
  149.9610  140.9688  157.0715 C   0  0  0  0  0  0  0  0  0  0  0  0
  149.4639  140.0329  156.1432 C   0  0  0  0  0  0  0  0  0  0  0  0
  150.3226  139.2619  155.4430 N   0  3  0  0  0  0  0  0  0  0  0  0
  151.6666  139.3321  155.5793 C   0  0  0  0  0  0  0  0  0  0  0  0
  152.5267  138.4257  154.7492 C   0  0  0  0  0  0  0  0  0  0  0  0
  151.9883  137.4709  154.1469 O   0  0  0  0  0  0  0  0  0  0  0  0
  153.7547  138.6588  154.6898 O   0  5  0  0  0  0  0  0  0  0  0  0
  152.2159  140.2558  156.4982 C   0  0  0  0  0  0  0  0  0  0  0  0
  152.3296  141.4100  159.4140 C   0  0  0  0  0  0  0  0  0  0  0  0
  152.9689  142.4833  160.3155 C   0  0  2  0  0  0  0  0  0  0  0  0
  153.4038  141.9137  161.6699 C   0  0  0  0  0  0  0  0  0  0  0  0
  152.0186  143.5211  160.5483 O   0  0  0  0  0  0  0  0  0  0  0  0
  150.3041  145.8347  158.8259 H   0  0  0  0  0  0  0  0  0  0  0  0
  151.1339  146.0275  160.3672 H   0  0  0  0  0  0  0  0  0  0  0  0
  149.7640  144.9273  160.2377 H   0  0  0  0  0  0  0  0  0  0  0  0
  152.4728  144.5923  158.8484 H   0  0  0  0  0  0  0  0  0  0  0  0
  150.0178  142.7539  158.8848 H   0  0  0  0  0  0  0  0  0  0  0  0
  150.6562  143.5879  157.4766 H   0  0  0  0  0  0  0  0  0  0  0  0
  149.2788  141.5886  157.6353 H   0  0  0  0  0  0  0  0  0  0  0  0
  148.4145  139.8779  155.9406 H   0  0  0  0  0  0  0  0  0  0  0  0
  153.2870  140.3270  156.6227 H   0  0  0  0  0  0  0  0  0  0  0  0
  151.5019  140.9302  159.9384 H   0  0  0  0  0  0  0  0  0  0  0  0
  153.0587  140.6329  159.1809 H   0  0  0  0  0  0  0  0  0  0  0  0
  153.8446  142.9060  159.8198 H   0  0  0  0  0  0  0  0  0  0  0  0
  154.1415  141.1207  161.5434 H   0  0  0  0  0  0  0  0  0  0  0  0
  152.5557  141.4982  162.2150 H   0  0  0  0  0  0  0  0  0  0  0  0
  153.8524  142.6884  162.2922 H   0  0  0  0  0  0  0  0  0  0  0  0
  149.9481  138.5881  154.7740 H   0  0  0  0  0  0  0  0  0  0  0  0
  1  2  1  0  0  0  0
  1 18  1  0  0  0  0
  1 19  1  0  0  0  0
  1 20  1  0  0  0  0
  2 17  1  0  0  0  0
  2  3  1  0  0  0  0
  2 21  1  0  0  0  0
  3  4  1  0  0  0  0
  3 22  1  0  0  0  0
  3 23  1  0  0  0  0
  4  5  1  0  0  0  0
  4 14  1  0  0  0  0
  5 13  1  0  0  0  0
  5  6  2  0  0  0  0
  6  7  1  0  0  0  0
  6 24  1  0  0  0  0
  7  8  2  0  0  0  0
  7 25  1  0  0  0  0
  8  9  1  0  0  0  0
  8 33  1  0  0  0  0
  9 10  1  0  0  0  0
  9 13  2  0  0  0  0
 10 11  2  0  0  0  0
 10 12  1  0  0  0  0
 13 26  1  0  0  0  0
 14 15  1  0  0  0  0
 14 27  1  0  0  0  0
 14 28  1  0  0  0  0
 15 16  1  0  0  0  0
 15 17  1  0  0  0  0
 15 29  1  0  0  0  0
 16 30  1  0  0  0  0
 16 31  1  0  0  0  0
 16 32  1  0  0  0  0
M  CHG  1   8   1
M  CHG  1  12  -1
M  END
> <s_m_source_file>
AV-unprocessed.smi

> <i_m_source_file_index>
578

> <i_lp_mmshare_version>
43012

> <i_f3d_flags>
0

> <s_epik_input>
W0NIM11bQ0BASF0xW0NIMl1OKFtDSDJdW0NASF0oTzEpW0NIM10pYzJbY0hdW2NIXW5jKFtjSF0yKUMoPU8pW09IXQ==

> <s_epik_cmdline>
J2VwaWtfcHl0aG9uJywgJy1waCcsICc3LjAnLCAnLXRuJywgJzgnLCAnLW1hJywgJzIwMCcsICctbWV0YWxfYmluZGluZycsICctaW1hZScsICc8aW5maWxlLm1hZT4nLCAnLW9tYWUnLCAnPG91dGZpbGUubWFlPic=

> <r_epik_Ionization_Penalty>
0.0203651

> <r_epik_Ionization_Penalty_Charging>
0.0203651

> <r_epik_Ionization_Penalty_Neutral>
3.18831e-12

> <r_epik_State_Penalty>
0.0163096

> <r_epik_Charging_Adjusted_Penalty>
0.0366747

> <i_epik_Tot_Q>
0

> <i_epik_Tot_abs_Q>
2

> <r_epik_Metal_State_Penalty>
1.99323

> <b_epik_Metal_Only>
0

> <s_lp_Force_Field>
OPLS_2005

> <r_lp_Energy>
16.452

> <b_lp_Chiralities_Consistent>
1

> <s_lp_Variant>
AV-unprocessed.smi:578-2

> <Gold.Version>
5.8.1

> <Gold.Id.Protein>
6NUR|6NUR_protein|mol2

> <Gold.PLP.Fitness>
43.6392

> <Gold.PLP.PLP>
-34.5622

> <Gold.PLP.part.hbond>
-2.0000

> <Gold.PLP.part.metal>
0.0000

> <Gold.PLP.part.buried>
-5.7194

> <Gold.PLP.part.nonpolar>
-27.0215

> <Gold.PLP.part.repulsive>
0.3179

> <Gold.PLP.ligand.clash>
0.8845

> <Gold.PLP.ligand.torsion>
0.6126

> <Gold.PLP.Chemscore.Hbond>
3.6960

> <Gold.PLP.Chemscore.CHOScore>
0.0000

> <Gold.PLP.Chemscore.Metal>
0.0000

> <Gold.Chemscore.Hbonds>
donor molecule, donor type, donor heavy atom, donor atom, acceptor molecule, acceptor atom, score
      P1  H  7997  8009       L1    12  1.81
      P1  H 10752 10765       L1    11  1.87

> <Gold.PLP.Chemscore.Internal.Correction>
0.0986

> <Gold.Rescore>
     Score         DG    S(hbond)    S(metal)    S(lipo)     H(rot)  DE(clash)    DE(int)     intcor
     17.92     -18.52       1.65        0.00      86.10       1.00       0.21       0.39       ----

> <Gold.Chemscore.Fitness>
17.9176

> <Gold.Chemscore.DG>
-18.5194

> <Gold.Chemscore.ZeroCoef>
-5.4800

> <Gold.Chemscore.Hbond>
1.6546

> <Gold.Chemscore.Metal>
0.0000

> <Gold.Chemscore.Lipo>
86.0955

> <Gold.Chemscore.Internal_Hbond>
0.0000

> <Gold.Chemscore.DEClash>
0.2135

> <Gold.Chemscore.DEInternal>
0.3883

> <Gold.Chemscore.Rot>
1.0000

> <Gold.Chemscore.Internal.Correction>
   9.000000E+99

> <Gold.Chemscore.Hbonds>
donor molecule, donor type, donor heavy atom, donor atom, acceptor molecule, acceptor atom, score
      P1  H  7997  8009       L1    12  0.81
      P1  H 10752 10765       L1    11  0.80

> <Gold.Chemscore.Hbond.Weighted>
-5.5263

> <Gold.Chemscore.Metal.Weighted>
-0.0000

> <Gold.Chemscore.Lipo.Weighted>
-10.0732

> <Gold.Chemscore.Internal_Hbond.Weighted>
0.0000

> <Gold.Chemscore.DEClash.Weighted>
0.2135

> <Gold.Chemscore.DEInternal.Weighted>
0.3883

> <Gold.Chemscore.Rot.Weighted>
2.5600

> <Gold.Chemscore.Internal.Correction.Weighted>
   9.000000E+99

> <Gold.Protein.RotatedTorsions>
[ 6907 6896 6895 6894 ] final -144.48 input  -60.11 | X-H torsion
[ 7974 7965 7964 7962 ] final  -63.89 input  175.53 | X-H torsion
[ 8008 7997 7996 7995 ] final -127.11 input   59.86 | X-H torsion
[ 10167 10162 10161 10158 ] final -147.27 input  -65.29 | X-H torsion
[ 10718 10713 10712 10709 ] final   51.10 input   66.30 | X-H torsion
[ 10763 10752 10751 10750 ] final  150.83 input  -60.55 | X-H torsion
[ 11005 11000 10999 10996 ] final  174.43 input  -57.11 | X-H torsion

> <Gold.Protein.ActiveResidues>
 VAL166  LYS551  ARG553  GLY616  TRP617  ASP618  TYR619  PRO620  LYS621  CYS622 
 ASP623  PHE694  ASN695  SER759  ASP760  ASP761  ALA762  ILE779  LEU786  VAL792 
 PHE793  MET794  SER795  GLU796  ALA797  LYS798  CYS799  TRP800  GLU811  SER814 

> <Gold.Protein.RotatedAtoms>
  151.1146  133.5148  159.2604 H   0  0  0  0  0  0  0  0  0  0  0  0  # atno 6907 bound_to 6896
  151.1929  135.0409  159.8850 H   0  0  0  0  0  0  0  0  0  0  0  0  # atno 6908 bound_to 6896
  152.5452  134.0984  159.8361 H   0  0  0  0  0  0  0  0  0  0  0  0  # atno 6909 bound_to 6896
  145.7735  140.8800  143.0367 H   0  0  0  0  0  0  0  0  0  0  0  0  # atno 7974 bound_to 7965
  155.2407  140.0428  157.2974 H   0  0  0  0  0  0  0  0  0  0  0  0  # atno 8008 bound_to 7997
  154.5830  140.2406  155.7997 H   0  0  0  0  0  0  0  0  0  0  0  0  # atno 8009 bound_to 7997
  156.2206  140.2971  155.9952 H   0  0  0  0  0  0  0  0  0  0  0  0  # atno 8010 bound_to 7997
  139.7637  143.8339  152.2612 H   0  0  0  0  0  0  0  0  0  0  0  0  # atno 10167 bound_to 10162
  157.4948  130.8399  149.8246 H   0  0  0  0  0  0  0  0  0  0  0  0  # atno 10718 bound_to 10713
  154.0940  135.2850  155.3265 H   0  0  0  0  0  0  0  0  0  0  0  0  # atno 10763 bound_to 10752
  154.6601  135.5338  153.8010 H   0  0  0  0  0  0  0  0  0  0  0  0  # atno 10764 bound_to 10752
  153.0403  135.6531  154.1107 H   0  0  0  0  0  0  0  0  0  0  0  0  # atno 10765 bound_to 10752
  140.3512  134.7193  157.4269 H   0  0  0  0  0  0  0  0  0  0  0  0  # atno 11005 bound_to 11000
  144.6808  139.9889  143.7484 LP  0  0  0  0  0  0  0  0  0  0  0  0  # atno 17320 bound_to 7965
  146.0146  139.3199  143.0850 LP  0  0  0  0  0  0  0  0  0  0  0  0  # atno 17321 bound_to 7965
  139.8353  144.7235  150.9399 LP  0  0  0  0  0  0  0  0  0  0  0  0  # atno 17342 bound_to 10162
  140.7809  143.4033  151.1113 LP  0  0  0  0  0  0  0  0  0  0  0  0  # atno 17343 bound_to 10162
  156.0194  130.3801  150.2008 LP  0  0  0  0  0  0  0  0  0  0  0  0  # atno 17370 bound_to 10713
  157.0197  130.9975  151.3343 LP  0  0  0  0  0  0  0  0  0  0  0  0  # atno 17371 bound_to 10713
  140.0702  134.5874  155.8651 LP  0  0  0  0  0  0  0  0  0  0  0  0  # atno 17394 bound_to 11000
  141.2011  133.6617  156.5935 LP  0  0  0  0  0  0  0  0  0  0  0  0  # atno 17395 bound_to 11000

$$$$
