AV-unprocessed.smi:87|AV-procd|sdf|822|dock1
  -GOLD-   2262017223D 1   1.00000     0.00000
 Structure written by MMmdl.
 58 60  0  0  0  0  0  0  0  0  1 V2000
  151.8709  144.4709  158.7103 C   0  0  0  0  0  0  0  0  0  0  0  0
  151.7643  143.7313  157.3681 C   0  0  0  0  0  0  0  0  0  0  0  0
  151.1817  142.3039  157.4782 C   0  0  0  0  0  0  0  0  0  0  0  0
  152.1569  141.3505  158.2083 C   0  0  0  0  0  0  0  0  0  0  0  0
  152.3602  141.6725  159.6960 C   0  0  0  0  0  0  0  0  0  0  0  0
  150.8213  141.7471  156.0760 C   0  0  0  0  0  0  0  0  0  0  0  0
  150.0553  140.4995  156.1002 N   0  0  0  0  0  0  0  0  0  0  0  0
  150.7830  139.2685  156.3951 C   0  0  0  0  0  0  0  0  0  0  0  0
  151.3000  138.5682  155.1296 C   0  0  0  0  0  0  0  0  0  0  0  0
  152.7685  138.5454  155.0618 C   0  0  0  0  0  0  0  0  0  0  0  0
  153.9241  138.5276  155.0083 N   0  0  0  0  0  0  0  0  0  0  0  0
  149.0399  140.3346  155.2167 C   0  0  0  0  0  0  0  0  0  0  0  0
  148.8431  141.3276  154.3129 N   0  0  0  0  0  0  0  0  0  0  0  0
  147.8700  141.2273  153.4029 C   0  0  0  0  0  0  0  0  0  0  0  0
  146.9912  140.2389  153.2267 N   0  0  0  0  0  0  0  0  0  0  0  0
  147.1741  139.2449  154.1419 C   0  0  0  0  0  0  0  0  0  0  0  0
  148.1629  139.2112  155.1662 C   0  0  0  0  0  0  0  0  0  0  0  0
  148.0274  138.0430  155.9084 N   0  0  0  0  0  0  0  0  0  0  0  0
  147.0308  137.4166  155.3464 C   0  0  0  0  0  0  0  0  0  0  0  0
  146.4607  138.0671  154.2769 N   0  0  0  0  0  0  0  0  0  0  0  0
  145.3447  137.5994  153.4736 C   0  0  0  0  0  0  0  0  0  0  0  0
  145.7493  136.4721  152.5034 C   0  0  2  0  0  0  0  0  0  0  0  0
  146.4711  137.0229  151.4171 O   0  0  0  0  0  0  0  0  0  0  0  0
  144.5247  135.6872  151.9894 C   0  0  1  0  0  0  0  0  0  0  0  0
  144.8018  134.4973  151.0522 C   0  0  0  0  0  0  0  0  0  0  0  0
  144.0563  133.3427  151.7012 C   0  0  0  0  0  0  0  0  0  0  0  0
  143.0524  134.0430  152.6090 C   0  0  0  0  0  0  0  0  0  0  0  0
  143.7776  135.1656  153.0823 O   0  0  0  0  0  0  0  0  0  0  0  0
  152.3773  145.4276  158.5817 H   0  0  0  0  0  0  0  0  0  0  0  0
  152.4420  143.8905  159.4356 H   0  0  0  0  0  0  0  0  0  0  0  0
  150.8925  144.6797  159.1416 H   0  0  0  0  0  0  0  0  0  0  0  0
  151.1716  144.3228  156.6694 H   0  0  0  0  0  0  0  0  0  0  0  0
  152.7673  143.6889  156.9461 H   0  0  0  0  0  0  0  0  0  0  0  0
  150.2754  142.3731  158.0797 H   0  0  0  0  0  0  0  0  0  0  0  0
  151.7810  140.3287  158.1517 H   0  0  0  0  0  0  0  0  0  0  0  0
  153.1203  141.3405  157.6973 H   0  0  0  0  0  0  0  0  0  0  0  0
  152.9841  140.9141  160.1694 H   0  0  0  0  0  0  0  0  0  0  0  0
  151.4083  141.6939  160.2274 H   0  0  0  0  0  0  0  0  0  0  0  0
  152.8517  142.6330  159.8448 H   0  0  0  0  0  0  0  0  0  0  0  0
  150.2642  142.4790  155.4952 H   0  0  0  0  0  0  0  0  0  0  0  0
  151.7429  141.5750  155.5188 H   0  0  0  0  0  0  0  0  0  0  0  0
  151.6230  139.5108  157.0468 H   0  0  0  0  0  0  0  0  0  0  0  0
  150.1501  138.5861  156.9640 H   0  0  0  0  0  0  0  0  0  0  0  0
  150.9516  137.5359  155.0881 H   0  0  0  0  0  0  0  0  0  0  0  0
  150.9367  139.0702  154.2329 H   0  0  0  0  0  0  0  0  0  0  0  0
  147.7848  142.0567  152.7164 H   0  0  0  0  0  0  0  0  0  0  0  0
  146.6822  136.4565  155.6985 H   0  0  0  0  0  0  0  0  0  0  0  0
  144.5641  137.2513  154.1512 H   0  0  0  0  0  0  0  0  0  0  0  0
  144.9255  138.4455  152.9276 H   0  0  0  0  0  0  0  0  0  0  0  0
  146.4095  135.7817  153.0302 H   0  0  0  0  0  0  0  0  0  0  0  0
  147.3945  136.9044  151.5791 H   0  0  0  0  0  0  0  0  0  0  0  0
  143.8554  136.3799  151.4758 H   0  0  0  0  0  0  0  0  0  0  0  0
  144.4024  134.7056  150.0588 H   0  0  0  0  0  0  0  0  0  0  0  0
  145.8608  134.2670  150.9346 H   0  0  0  0  0  0  0  0  0  0  0  0
  143.5835  132.6778  150.9778 H   0  0  0  0  0  0  0  0  0  0  0  0
  144.7463  132.7516  152.3049 H   0  0  0  0  0  0  0  0  0  0  0  0
  142.1821  134.3801  152.0432 H   0  0  0  0  0  0  0  0  0  0  0  0
  142.7099  133.4092  153.4273 H   0  0  0  0  0  0  0  0  0  0  0  0
  1  2  1  0  0  0  0
  1 29  1  0  0  0  0
  1 30  1  0  0  0  0
  1 31  1  0  0  0  0
  2  3  1  0  0  0  0
  2 32  1  0  0  0  0
  2 33  1  0  0  0  0
  3  4  1  0  0  0  0
  3  6  1  0  0  0  0
  3 34  1  0  0  0  0
  4  5  1  0  0  0  0
  4 35  1  0  0  0  0
  4 36  1  0  0  0  0
  5 37  1  0  0  0  0
  5 38  1  0  0  0  0
  5 39  1  0  0  0  0
  6  7  1  0  0  0  0
  6 40  1  0  0  0  0
  6 41  1  0  0  0  0
  7  8  1  0  0  0  0
  7 12  1  0  0  0  0
  8  9  1  0  0  0  0
  8 42  1  0  0  0  0
  8 43  1  0  0  0  0
  9 10  1  0  0  0  0
  9 44  1  0  0  0  0
  9 45  1  0  0  0  0
 10 11  3  0  0  0  0
 12 17  1  0  0  0  0
 12 13  2  0  0  0  0
 13 14  1  0  0  0  0
 14 15  2  0  0  0  0
 14 46  1  0  0  0  0
 15 16  1  0  0  0  0
 16 20  1  0  0  0  0
 16 17  2  0  0  0  0
 17 18  1  0  0  0  0
 18 19  2  0  0  0  0
 19 20  1  0  0  0  0
 19 47  1  0  0  0  0
 20 21  1  0  0  0  0
 21 22  1  0  0  0  0
 21 48  1  0  0  0  0
 21 49  1  0  0  0  0
 22 23  1  0  0  0  0
 22 24  1  0  0  0  0
 22 50  1  0  0  0  0
 23 51  1  0  0  0  0
 24 28  1  0  0  0  0
 24 25  1  0  0  0  0
 24 52  1  0  0  0  0
 25 26  1  0  0  0  0
 25 53  1  0  0  0  0
 25 54  1  0  0  0  0
 26 27  1  0  0  0  0
 26 55  1  0  0  0  0
 26 56  1  0  0  0  0
 27 28  1  0  0  0  0
 27 57  1  0  0  0  0
 27 58  1  0  0  0  0
M  END
> <s_m_source_file>
AV-unprocessed.smi

> <i_m_source_file_index>
87

> <i_lp_mmshare_version>
43012

> <i_f3d_flags>
0

> <s_epik_input>
W0NIM11bQ0gyXVtDSF0oW0NIMl1bQ0gzXSlbQ0gyXU4oW0NIMl1bQ0gyXUMjTiljKG5bY0hdbjEpYyhjMTIpbltjSF1uMltDSDJdW0NASF0oW09IXSlbQ0BASF0zW0NIMl1bQ0gyXVtDSDJdTzM=

> <s_epik_cmdline>
J2VwaWtfcHl0aG9uJywgJy1waCcsICc3LjAnLCAnLXRuJywgJzgnLCAnLW1hJywgJzIwMCcsICctbWV0YWxfYmluZGluZycsICctaW1hZScsICc8aW5maWxlLm1hZT4nLCAnLW9tYWUnLCAnPG91dGZpbGUubWFlPic=

> <r_lp_tautomer_probability>
1

> <r_epik_Ionization_Penalty>
0.000348566

> <r_epik_Ionization_Penalty_Charging>
0

> <r_epik_Ionization_Penalty_Neutral>
0.000348566

> <r_epik_State_Penalty>
-0

> <r_epik_Charging_Adjusted_Penalty>
0

> <i_epik_Tot_Q>
0

> <i_epik_Tot_abs_Q>
0

> <r_epik_Metal_State_Penalty>
-0

> <b_epik_Metal_Only>
0

> <s_lp_Force_Field>
OPLS_2005

> <r_lp_Energy>
36.8585

> <b_lp_Chiralities_Consistent>
1

> <s_lp_Variant>
AV-unprocessed.smi:87-3

> <Gold.Version>
5.8.1

> <Gold.Id.Protein>
6NUR|6NUR_protein|mol2

> <Gold.PLP.Fitness>
54.8547

> <Gold.PLP.PLP>
-49.7728

> <Gold.PLP.part.hbond>
-4.0835

> <Gold.PLP.part.metal>
0.0000

> <Gold.PLP.part.buried>
-7.9154

> <Gold.PLP.part.nonpolar>
-39.1019

> <Gold.PLP.part.repulsive>
0.4894

> <Gold.PLP.ligand.clash>
0.0000

> <Gold.PLP.ligand.torsion>
1.5745

> <Gold.PLP.Chemscore.Hbond>
1.9760

> <Gold.PLP.Chemscore.CHOScore>
0.0000

> <Gold.PLP.Chemscore.Metal>
0.0000

> <Gold.Chemscore.Hbonds>
donor molecule, donor type, donor heavy atom, donor atom, acceptor molecule, acceptor atom, score
      L1  H    23    51       P1  7948  1.00
      P1  H  7997  8008       L1    11  0.74

> <Gold.PLP.Chemscore.Internal.Correction>
2.3030

> <Gold.Rescore>
     Score         DG    S(hbond)    S(metal)    S(lipo)     H(rot)  DE(clash)    DE(int)     intcor
      8.45     -15.60       1.95        0.00     104.55       3.37       3.76       3.39       ----

> <Gold.Chemscore.Fitness>
8.4481

> <Gold.Chemscore.DG>
-15.5981

> <Gold.Chemscore.ZeroCoef>
-5.4800

> <Gold.Chemscore.Hbond>
1.9479

> <Gold.Chemscore.Metal>
0.0000

> <Gold.Chemscore.Lipo>
104.5487

> <Gold.Chemscore.Internal_Hbond>
0.0000

> <Gold.Chemscore.DEClash>
3.7601

> <Gold.Chemscore.DEInternal>
3.3900

> <Gold.Chemscore.Rot>
3.3672

> <Gold.Chemscore.Internal.Correction>
   9.000000E+99

> <Gold.Chemscore.Hbonds>
donor molecule, donor type, donor heavy atom, donor atom, acceptor molecule, acceptor atom, score
      L1  H    23    51       P1  7948  1.00
      P1  H  7997  8008       L1    11  0.44

> <Gold.Chemscore.Hbond.Weighted>
-6.5060

> <Gold.Chemscore.Metal.Weighted>
-0.0000

> <Gold.Chemscore.Lipo.Weighted>
-12.2322

> <Gold.Chemscore.Internal_Hbond.Weighted>
0.0000

> <Gold.Chemscore.DEClash.Weighted>
3.7601

> <Gold.Chemscore.DEInternal.Weighted>
3.3900

> <Gold.Chemscore.Rot.Weighted>
8.6201

> <Gold.Chemscore.Internal.Correction.Weighted>
   9.000000E+99

> <Gold.Protein.RotatedTorsions>
[ 6907 6896 6895 6894 ] final  127.37 input  -60.11 | X-H torsion
[ 7974 7965 7964 7962 ] final  138.33 input  175.53 | X-H torsion
[ 8008 7997 7996 7995 ] final   -7.25 input   59.86 | X-H torsion
[ 10167 10162 10161 10158 ] final   -4.29 input  -65.29 | X-H torsion
[ 10718 10713 10712 10709 ] final  -86.88 input   66.30 | X-H torsion
[ 10763 10752 10751 10750 ] final -141.90 input  -60.55 | X-H torsion
[ 11005 11000 10999 10996 ] final  179.07 input  -57.11 | X-H torsion

> <Gold.Protein.ActiveResidues>
 VAL166  LYS551  ARG553  GLY616  TRP617  ASP618  TYR619  PRO620  LYS621  CYS622 
 ASP623  PHE694  ASN695  SER759  ASP760  ASP761  ALA762  ILE779  LEU786  VAL792 
 PHE793  MET794  SER795  GLU796  ALA797  LYS798  CYS799  TRP800  GLU811  SER814 

> <Gold.Protein.RotatedAtoms>
  152.3818  133.6557  159.6167 H   0  0  0  0  0  0  0  0  0  0  0  0  # atno 6907 bound_to 6896
  150.7747  133.9101  159.3375 H   0  0  0  0  0  0  0  0  0  0  0  0  # atno 6908 bound_to 6896
  151.6905  135.0948  160.0284 H   0  0  0  0  0  0  0  0  0  0  0  0  # atno 6909 bound_to 6896
  144.9382  139.4963  143.5585 H   0  0  0  0  0  0  0  0  0  0  0  0  # atno 7974 bound_to 7965
  154.5857  140.2412  155.7991 H   0  0  0  0  0  0  0  0  0  0  0  0  # atno 8008 bound_to 7997
  156.2211  140.2997  155.9911 H   0  0  0  0  0  0  0  0  0  0  0  0  # atno 8009 bound_to 7997
  155.2462  140.0409  157.2971 H   0  0  0  0  0  0  0  0  0  0  0  0  # atno 8010 bound_to 7997
  140.6922  143.6441  150.8409 H   0  0  0  0  0  0  0  0  0  0  0  0  # atno 10167 bound_to 10162
  155.9987  130.4780  150.4782 H   0  0  0  0  0  0  0  0  0  0  0  0  # atno 10718 bound_to 10713
  154.8529  135.3511  154.5941 H   0  0  0  0  0  0  0  0  0  0  0  0  # atno 10763 bound_to 10752
  153.6550  135.6992  153.5201 H   0  0  0  0  0  0  0  0  0  0  0  0  # atno 10764 bound_to 10752
  153.2863  135.4248  155.1083 H   0  0  0  0  0  0  0  0  0  0  0  0  # atno 10765 bound_to 10752
  140.4020  134.6768  157.4567 H   0  0  0  0  0  0  0  0  0  0  0  0  # atno 11005 bound_to 11000
  146.3275  139.8382  142.8895 LP  0  0  0  0  0  0  0  0  0  0  0  0  # atno 17320 bound_to 7965
  145.3033  141.0200  143.3596 LP  0  0  0  0  0  0  0  0  0  0  0  0  # atno 17321 bound_to 7965
  140.0155  143.5597  152.2822 LP  0  0  0  0  0  0  0  0  0  0  0  0  # atno 17342 bound_to 10162
  139.6336  144.7647  151.2484 LP  0  0  0  0  0  0  0  0  0  0  0  0  # atno 17343 bound_to 10162
  157.2790  131.0603  151.2210 LP  0  0  0  0  0  0  0  0  0  0  0  0  # atno 17370 bound_to 10713
  157.3263  130.6962  149.6298 LP  0  0  0  0  0  0  0  0  0  0  0  0  # atno 17371 bound_to 10713
  140.0329  134.6380  155.9082 LP  0  0  0  0  0  0  0  0  0  0  0  0  # atno 17394 bound_to 11000
  141.1853  133.6554  156.5192 LP  0  0  0  0  0  0  0  0  0  0  0  0  # atno 17395 bound_to 11000

$$$$
