AV-unprocessed.smi:2168|AV-procd|sdf|8820|dock8
  -GOLD-   2272012 13D 1   1.00000     0.00000
 Structure written by MMmdl.
 45 46  0  0  0  0  0  0  0  0  2 V2000
  149.2381  133.1430  153.4737 C   0  0  0  0  0  0  0  0  0  0  0  0
  148.7774  134.1968  154.4925 C   0  0  0  0  0  0  0  0  0  0  0  0
  149.6385  134.2450  155.6916 N   0  0  0  0  0  0  0  0  0  0  0  0
  150.1877  132.9639  156.1821 C   0  0  0  0  0  0  0  0  0  0  0  0
  151.6985  133.0197  156.4605 C   0  0  0  0  0  0  0  0  0  0  0  0
  150.1911  135.7727  156.3366 S   0  0  0  0  0  0  0  0  0  0  0  0
  149.0063  136.6448  156.3373 O   0  0  0  0  0  0  0  0  0  0  0  0
  150.8156  135.4754  157.6380 O   0  0  0  0  0  0  0  0  0  0  0  0
  151.2328  136.1739  155.1497 N   0  5  0  0  0  0  0  0  0  0  0  0
  151.1311  137.4308  154.4236 C   0  0  0  0  0  0  0  0  0  0  0  0
  151.3547  138.6200  155.3459 C   0  0  0  0  0  0  0  0  0  0  0  0
  150.5245  139.7597  155.2792 C   0  0  0  0  0  0  0  0  0  0  0  0
  150.7781  140.8426  156.1438 C   0  0  0  0  0  0  0  0  0  0  0  0
  151.8557  140.7616  157.0577 C   0  0  0  0  0  0  0  0  0  0  0  0
  152.1352  141.8387  157.9277 N   0  0  0  0  0  0  0  0  0  0  0  0
  152.4197  141.5351  159.3294 C   0  0  0  0  0  0  0  0  0  0  0  0
  152.9990  142.7704  160.0389 C   0  0  0  0  0  0  0  0  0  0  0  0
  152.1139  143.8741  159.8812 O   0  0  0  0  0  0  0  0  0  0  0  0
  151.9421  144.2227  158.5117 C   0  0  0  0  0  0  0  0  0  0  0  0
  151.3242  143.0400  157.7460 C   0  0  0  0  0  0  0  0  0  0  0  0
  152.6521  139.6658  157.1179 N   0  0  0  0  0  0  0  0  0  0  0  0
  152.4072  138.6290  156.2875 C   0  0  0  0  0  0  0  0  0  0  0  0
  148.5350  133.0790  152.6436 H   0  0  0  0  0  0  0  0  0  0  0  0
  149.3132  132.1519  153.9197 H   0  0  0  0  0  0  0  0  0  0  0  0
  150.2116  133.3950  153.0538 H   0  0  0  0  0  0  0  0  0  0  0  0
  148.7714  135.1802  154.0224 H   0  0  0  0  0  0  0  0  0  0  0  0
  147.7460  134.0040  154.7885 H   0  0  0  0  0  0  0  0  0  0  0  0
  149.6661  132.6668  157.0912 H   0  0  0  0  0  0  0  0  0  0  0  0
  149.9780  132.1889  155.4448 H   0  0  0  0  0  0  0  0  0  0  0  0
  152.0398  132.0824  156.8998 H   0  0  0  0  0  0  0  0  0  0  0  0
  151.9474  133.8180  157.1578 H   0  0  0  0  0  0  0  0  0  0  0  0
  152.2747  133.1779  155.5494 H   0  0  0  0  0  0  0  0  0  0  0  0
  151.8610  137.4889  153.6155 H   0  0  0  0  0  0  0  0  0  0  0  0
  150.1575  137.5459  153.9462 H   0  0  0  0  0  0  0  0  0  0  0  0
  149.7060  139.8250  154.5750 H   0  0  0  0  0  0  0  0  0  0  0  0
  150.1578  141.7236  156.0779 H   0  0  0  0  0  0  0  0  0  0  0  0
  151.5006  141.2168  159.8232 H   0  0  0  0  0  0  0  0  0  0  0  0
  153.1318  140.7123  159.4027 H   0  0  0  0  0  0  0  0  0  0  0  0
  153.1269  142.5664  161.1019 H   0  0  0  0  0  0  0  0  0  0  0  0
  153.9844  143.0202  159.6420 H   0  0  0  0  0  0  0  0  0  0  0  0
  151.2900  145.0937  158.4463 H   0  0  0  0  0  0  0  0  0  0  0  0
  152.9005  144.5095  158.0755 H   0  0  0  0  0  0  0  0  0  0  0  0
  151.2282  143.3120  156.6961 H   0  0  0  0  0  0  0  0  0  0  0  0
  150.3170  142.8423  158.1149 H   0  0  0  0  0  0  0  0  0  0  0  0
  153.0842  137.7923  156.3908 H   0  0  0  0  0  0  0  0  0  0  0  0
  1  2  1  0  0  0  0
  1 23  1  0  0  0  0
  1 24  1  0  0  0  0
  1 25  1  0  0  0  0
  2  3  1  0  0  0  0
  2 26  1  0  0  0  0
  2 27  1  0  0  0  0
  3  4  1  0  0  0  0
  3  6  1  0  0  0  0
  4  5  1  0  0  0  0
  4 28  1  0  0  0  0
  4 29  1  0  0  0  0
  5 30  1  0  0  0  0
  5 31  1  0  0  0  0
  5 32  1  0  0  0  0
  6  7  2  0  0  0  0
  6  8  2  0  0  0  0
  6  9  1  0  0  0  0
  9 10  1  0  0  0  0
 10 11  1  0  0  0  0
 10 33  1  0  0  0  0
 10 34  1  0  0  0  0
 11 22  1  0  0  0  0
 11 12  2  0  0  0  0
 12 13  1  0  0  0  0
 12 35  1  0  0  0  0
 13 14  2  0  0  0  0
 13 36  1  0  0  0  0
 14 15  1  0  0  0  0
 14 21  1  0  0  0  0
 15 20  1  0  0  0  0
 15 16  1  0  0  0  0
 16 17  1  0  0  0  0
 16 37  1  0  0  0  0
 16 38  1  0  0  0  0
 17 18  1  0  0  0  0
 17 39  1  0  0  0  0
 17 40  1  0  0  0  0
 18 19  1  0  0  0  0
 19 20  1  0  0  0  0
 19 41  1  0  0  0  0
 19 42  1  0  0  0  0
 20 43  1  0  0  0  0
 20 44  1  0  0  0  0
 21 22  2  0  0  0  0
 22 45  1  0  0  0  0
M  CHG  1   9  -1
M  END
> <s_m_source_file>
AV-unprocessed.smi

> <i_m_source_file_index>
2168

> <i_lp_mmshare_version>
43012

> <i_f3d_flags>
0

> <s_epik_input>
W0NIM11bQ0gyXU4oW0NIMl1bQ0gzXSlTKD1PKSg9TylbTkhdW0NIMl1jMVtjSF1bY0hdYyhuW2NIXTEpTjJbQ0gyXVtDSDJdT1tDSDJdW0NIMl0y

> <s_epik_cmdline>
J2VwaWtfcHl0aG9uJywgJy1waCcsICc3LjAnLCAnLXRuJywgJzgnLCAnLW1hJywgJzIwMCcsICctbWV0YWxfYmluZGluZycsICctaW1hZScsICc8aW5maWxlLm1hZT4nLCAnLW9tYWUnLCAnPG91dGZpbGUubWFlPic=

> <r_lp_tautomer_probability>
1

> <r_epik_Ionization_Penalty>
2.49252

> <r_epik_Ionization_Penalty_Charging>
2.41478

> <r_epik_Ionization_Penalty_Neutral>
0.0777351

> <r_epik_State_Penalty>
2.68884

> <r_epik_Charging_Adjusted_Penalty>
5.10362

> <i_epik_Tot_Q>
-1

> <i_epik_Tot_abs_Q>
1

> <r_epik_Metal_State_Penalty>
0.584574

> <b_epik_Metal_Only>
0

> <s_lp_Force_Field>
OPLS_2005

> <r_lp_Energy>
16.7

> <b_lp_Chiralities_Consistent>
1

> <s_lp_Variant>
AV-unprocessed.smi:2168-3

> <Gold.Version>
5.8.1

> <Gold.Id.Protein>
6NUR|6NUR_protein|mol2

> <Gold.PLP.Fitness>
49.2453

> <Gold.PLP.PLP>
-40.4318

> <Gold.PLP.part.hbond>
-3.0000

> <Gold.PLP.part.metal>
0.0000

> <Gold.PLP.part.buried>
-3.5120

> <Gold.PLP.part.nonpolar>
-33.7553

> <Gold.PLP.part.repulsive>
0.1739

> <Gold.PLP.ligand.clash>
0.0000

> <Gold.PLP.ligand.torsion>
2.4845

> <Gold.PLP.Chemscore.Hbond>
3.3921

> <Gold.PLP.Chemscore.CHOScore>
0.0000

> <Gold.PLP.Chemscore.Metal>
0.0000

> <Gold.Chemscore.Hbonds>
donor molecule, donor type, donor heavy atom, donor atom, acceptor molecule, acceptor atom, score
      P1  H  6896  6908       L1     8  0.34
      P1  H  7997  8009       L1    21  1.00
      P1  H 10752 10764       L1     9  2.00

> <Gold.PLP.Chemscore.Internal.Correction>
3.6062

> <Gold.Rescore>
     Score         DG    S(hbond)    S(metal)    S(lipo)     H(rot)  DE(clash)    DE(int)     intcor
     13.80     -18.43       1.69        0.00      98.94       1.66       0.79       3.83       ----

> <Gold.Chemscore.Fitness>
13.7994

> <Gold.Chemscore.DG>
-18.4253

> <Gold.Chemscore.ZeroCoef>
-5.4800

> <Gold.Chemscore.Hbond>
1.6857

> <Gold.Chemscore.Metal>
0.0000

> <Gold.Chemscore.Lipo>
98.9364

> <Gold.Chemscore.Internal_Hbond>
0.0000

> <Gold.Chemscore.DEClash>
0.7933

> <Gold.Chemscore.DEInternal>
3.8325

> <Gold.Chemscore.Rot>
1.6642

> <Gold.Chemscore.Internal.Correction>
   9.000000E+99

> <Gold.Chemscore.Hbonds>
donor molecule, donor type, donor heavy atom, donor atom, acceptor molecule, acceptor atom, score
      P1  H  6896  6908       L1     8  0.34
      P1  H  7997  8009       L1    21  0.19
      P1  H 10752 10764       L1     9  0.45

> <Gold.Chemscore.Hbond.Weighted>
-5.6301

> <Gold.Chemscore.Metal.Weighted>
-0.0000

> <Gold.Chemscore.Lipo.Weighted>
-11.5756

> <Gold.Chemscore.Internal_Hbond.Weighted>
0.0000

> <Gold.Chemscore.DEClash.Weighted>
0.7933

> <Gold.Chemscore.DEInternal.Weighted>
3.8325

> <Gold.Chemscore.Rot.Weighted>
4.2604

> <Gold.Chemscore.Internal.Correction.Weighted>
   9.000000E+99

> <Gold.Protein.RotatedTorsions>
[ 6907 6896 6895 6894 ] final  165.98 input  -60.11 | X-H torsion
[ 7974 7965 7964 7962 ] final  -44.10 input  175.53 | X-H torsion
[ 8008 7997 7996 7995 ] final -177.14 input   59.86 | X-H torsion
[ 10167 10162 10161 10158 ] final   59.18 input  -65.29 | X-H torsion
[ 10718 10713 10712 10709 ] final   -9.97 input   66.30 | X-H torsion
[ 10763 10752 10751 10750 ] final  -50.95 input  -60.55 | X-H torsion
[ 11005 11000 10999 10996 ] final  118.68 input  -57.11 | X-H torsion

> <Gold.Protein.ActiveResidues>
 VAL166  LYS551  ARG553  GLY616  TRP617  ASP618  TYR619  PRO620  LYS621  CYS622 
 ASP623  PHE694  ASN695  SER759  ASP760  ASP761  ALA762  ILE779  LEU786  VAL792 
 PHE793  MET794  SER795  GLU796  ALA797  LYS798  CYS799  TRP800  GLU811  SER814 

> <Gold.Protein.RotatedAtoms>
  151.8860  133.3505  159.3782 H   0  0  0  0  0  0  0  0  0  0  0  0  # atno 6907 bound_to 6896
  150.7115  134.4971  159.5553 H   0  0  0  0  0  0  0  0  0  0  0  0  # atno 6908 bound_to 6896
  152.2532  134.8111  160.0493 H   0  0  0  0  0  0  0  0  0  0  0  0  # atno 6909 bound_to 6896
  145.9954  140.7134  142.9296 H   0  0  0  0  0  0  0  0  0  0  0  0  # atno 7974 bound_to 7965
  156.0034  140.1225  157.0525 H   0  0  0  0  0  0  0  0  0  0  0  0  # atno 8008 bound_to 7997
  154.4250  140.1102  156.5797 H   0  0  0  0  0  0  0  0  0  0  0  0  # atno 8009 bound_to 7997
  155.6181  140.3472  155.4645 H   0  0  0  0  0  0  0  0  0  0  0  0  # atno 8010 bound_to 7997
  140.1792  144.4199  150.6623 H   0  0  0  0  0  0  0  0  0  0  0  0  # atno 10167 bound_to 10162
  156.6803  130.5035  149.5973 H   0  0  0  0  0  0  0  0  0  0  0  0  # atno 10718 bound_to 10713
  154.1186  135.6538  153.4898 H   0  0  0  0  0  0  0  0  0  0  0  0  # atno 10763 bound_to 10752
  153.0232  135.5265  154.7119 H   0  0  0  0  0  0  0  0  0  0  0  0  # atno 10764 bound_to 10752
  154.6320  135.2977  155.0175 H   0  0  0  0  0  0  0  0  0  0  0  0  # atno 10765 bound_to 10752
  139.9118  134.9622  156.7540 H   0  0  0  0  0  0  0  0  0  0  0  0  # atno 11005 bound_to 11000
  144.6902  140.3141  143.7243 LP  0  0  0  0  0  0  0  0  0  0  0  0  # atno 17320 bound_to 7965
  145.7568  139.1811  143.2290 LP  0  0  0  0  0  0  0  0  0  0  0  0  # atno 17321 bound_to 7965
  140.6531  143.2230  151.6031 LP  0  0  0  0  0  0  0  0  0  0  0  0  # atno 17342 bound_to 10162
  139.5304  144.2934  152.1133 LP  0  0  0  0  0  0  0  0  0  0  0  0  # atno 17343 bound_to 10162
  156.1873  130.6537  151.1021 LP  0  0  0  0  0  0  0  0  0  0  0  0  # atno 17370 bound_to 10713
  157.7046  131.0762  150.6709 LP  0  0  0  0  0  0  0  0  0  0  0  0  # atno 17371 bound_to 10713
  140.6750  133.9525  155.7878 LP  0  0  0  0  0  0  0  0  0  0  0  0  # atno 17394 bound_to 11000
  141.0550  134.0429  157.3734 LP  0  0  0  0  0  0  0  0  0  0  0  0  # atno 17395 bound_to 11000

$$$$
