AV-unprocessed.smi:528|AV-procd|sdf|2837|dock9
  -GOLD-   2262023323D 1   1.00000     0.00000
 Structure written by MMmdl.
 45 47  0  0  0  0  0  0  0  0  1 V2000
  149.8583  135.8769  155.5389 C   0  0  0  0  0  0  0  0  0  0  0  0
  149.7319  137.1498  156.3898 C   0  0  2  0  0  0  0  0  0  0  0  0
  148.6024  136.9893  157.3047 N   0  0  0  0  0  0  0  0  0  0  0  0
  148.5154  136.1029  158.3090 C   0  0  0  0  0  0  0  0  0  0  0  0
  149.3951  135.2791  158.5639 O   0  0  0  0  0  0  0  0  0  0  0  0
  147.2316  136.1726  159.1480 C   0  0  0  0  0  0  0  0  0  0  0  0
  147.2761  135.3188  160.3464 N   0  0  0  0  0  0  0  0  0  0  0  0
  147.1856  133.9287  160.1372 C   0  0  0  0  0  0  0  0  0  0  0  0
  147.1853  133.0340  161.1435 C   0  0  0  0  0  0  0  0  0  0  0  0
  147.1277  131.5373  160.8806 C   0  0  0  0  0  0  0  0  0  0  0  0
  147.1226  131.2780  159.5729 F   0  0  0  0  0  0  0  0  0  0  0  0
  148.1916  130.9420  161.4180 F   0  0  0  0  0  0  0  0  0  0  0  0
  146.0341  130.9965  161.4193 F   0  0  0  0  0  0  0  0  0  0  0  0
  147.3238  133.5703  162.4833 C   0  0  0  0  0  0  0  0  0  0  0  0
  147.4158  134.8971  162.7005 C   0  0  0  0  0  0  0  0  0  0  0  0
  147.3825  135.8597  161.5969 C   0  0  0  0  0  0  0  0  0  0  0  0
  147.4460  137.0747  161.7856 O   0  0  0  0  0  0  0  0  0  0  0  0
  149.5287  138.4200  155.5266 C   0  0  1  0  0  0  0  0  0  0  0  0
  149.2888  139.7259  156.3208 C   0  0  0  0  0  0  0  0  0  0  0  0
  150.2767  140.7137  155.6741 C   0  0  1  0  0  0  0  0  0  0  0  0
  151.7043  140.3679  156.1350 C   0  0  0  0  0  0  0  0  0  0  0  0
  152.0029  139.0710  155.3614 C   0  0  0  0  0  0  0  0  0  0  0  0
  150.6919  138.8235  154.5863 C   0  0  2  0  0  0  0  0  0  0  0  0
  150.2931  140.2506  154.2221 C   0  0  0  0  0  0  0  0  0  0  0  0
  150.7357  135.9164  154.8932 H   0  0  0  0  0  0  0  0  0  0  0  0
  148.9830  135.7333  154.9044 H   0  0  0  0  0  0  0  0  0  0  0  0
  149.9611  134.9932  156.1696 H   0  0  0  0  0  0  0  0  0  0  0  0
  150.6505  137.2506  156.9680 H   0  0  0  0  0  0  0  0  0  0  0  0
  147.8253  137.6200  157.1712 H   0  0  0  0  0  0  0  0  0  0  0  0
  147.0590  137.2087  159.4447 H   0  0  0  0  0  0  0  0  0  0  0  0
  146.3839  135.9165  158.5103 H   0  0  0  0  0  0  0  0  0  0  0  0
  147.1070  133.6363  159.0999 H   0  0  0  0  0  0  0  0  0  0  0  0
  147.3499  132.8980  163.3282 H   0  0  0  0  0  0  0  0  0  0  0  0
  147.5151  135.2614  163.7126 H   0  0  0  0  0  0  0  0  0  0  0  0
  148.6526  138.2489  154.8977 H   0  0  0  0  0  0  0  0  0  0  0  0
  148.2585  140.0626  156.2001 H   0  0  0  0  0  0  0  0  0  0  0  0
  149.4772  139.6210  157.3895 H   0  0  0  0  0  0  0  0  0  0  0  0
  150.0104  141.7602  155.8243 H   0  0  0  0  0  0  0  0  0  0  0  0
  152.4070  141.1529  155.8529 H   0  0  0  0  0  0  0  0  0  0  0  0
  151.7696  140.2323  157.2153 H   0  0  0  0  0  0  0  0  0  0  0  0
  152.8282  139.2306  154.6662 H   0  0  0  0  0  0  0  0  0  0  0  0
  152.2877  138.2454  156.0120 H   0  0  0  0  0  0  0  0  0  0  0  0
  150.8110  138.1597  153.7294 H   0  0  0  0  0  0  0  0  0  0  0  0
  149.3194  140.3203  153.7341 H   0  0  0  0  0  0  0  0  0  0  0  0
  151.0360  140.7671  153.6117 H   0  0  0  0  0  0  0  0  0  0  0  0
  1  2  1  0  0  0  0
  1 25  1  0  0  0  0
  1 26  1  0  0  0  0
  1 27  1  0  0  0  0
  2  3  1  0  0  0  0
  2 18  1  0  0  0  0
  2 28  1  0  0  0  0
  3  4  1  0  0  0  0
  3 29  1  0  0  0  0
  4  5  2  0  0  0  0
  4  6  1  0  0  0  0
  6  7  1  0  0  0  0
  6 30  1  0  0  0  0
  6 31  1  0  0  0  0
  7 16  1  0  0  0  0
  7  8  1  0  0  0  0
  8  9  2  0  0  0  0
  8 32  1  0  0  0  0
  9 10  1  0  0  0  0
  9 14  1  0  0  0  0
 10 11  1  0  0  0  0
 10 12  1  0  0  0  0
 10 13  1  0  0  0  0
 14 15  2  0  0  0  0
 14 33  1  0  0  0  0
 15 16  1  0  0  0  0
 15 34  1  0  0  0  0
 16 17  2  0  0  0  0
 18 23  1  0  0  0  0
 18 19  1  0  0  0  0
 18 35  1  0  0  0  0
 19 20  1  0  0  0  0
 19 36  1  0  0  0  0
 19 37  1  0  0  0  0
 20 24  1  0  0  0  0
 20 21  1  0  0  0  0
 20 38  1  0  0  0  0
 21 22  1  0  0  0  0
 21 39  1  0  0  0  0
 21 40  1  0  0  0  0
 22 23  1  0  0  0  0
 22 41  1  0  0  0  0
 22 42  1  0  0  0  0
 23 24  1  0  0  0  0
 23 43  1  0  0  0  0
 24 44  1  0  0  0  0
 24 45  1  0  0  0  0
M  END
> <s_m_source_file>
AV-unprocessed.smi

> <i_m_source_file_index>
528

> <i_lp_mmshare_version>
43012

> <i_f3d_flags>
0

> <s_epik_input>
W0NIMl0xW0NIMl1bQ0BASF0oW0NIMl0yKVtDQEBIXShbQ0gyXVtDQEhdMTIpW0NASF0oW0NIM10pW05IXUMoPU8pW0NIMl1uM1tjSF1jKEMoRikoRilGKVtjSF1bY0hdYzM9Tw==

> <s_epik_cmdline>
J2VwaWtfcHl0aG9uJywgJy1waCcsICc3LjAnLCAnLXRuJywgJzgnLCAnLW1hJywgJzIwMCcsICctbWV0YWxfYmluZGluZycsICctaW1hZScsICc8aW5maWxlLm1hZT4nLCAnLW9tYWUnLCAnPG91dGZpbGUubWFlPic=

> <r_lp_tautomer_probability>
1

> <r_epik_Ionization_Penalty>
4.09479e-08

> <r_epik_Ionization_Penalty_Charging>
1.9321e-08

> <r_epik_Ionization_Penalty_Neutral>
2.16269e-08

> <r_epik_State_Penalty>
-0

> <r_epik_Charging_Adjusted_Penalty>
1.9321e-08

> <i_epik_Tot_Q>
0

> <i_epik_Tot_abs_Q>
0

> <r_epik_Metal_State_Penalty>
-0

> <b_epik_Metal_Only>
0

> <s_lp_Force_Field>
OPLS_2005

> <r_lp_Energy>
63.2054

> <b_lp_Chiralities_Consistent>
1

> <s_lp_Variant>
AV-unprocessed.smi:528-7

> <Gold.Version>
5.8.1

> <Gold.Id.Protein>
6NUR|6NUR_protein|mol2

> <Gold.PLP.Fitness>
44.5855

> <Gold.PLP.PLP>
-38.6038

> <Gold.PLP.part.hbond>
-3.0000

> <Gold.PLP.part.metal>
0.0000

> <Gold.PLP.part.buried>
-1.1666

> <Gold.PLP.part.nonpolar>
-35.2229

> <Gold.PLP.part.repulsive>
0.0204

> <Gold.PLP.ligand.clash>
1.4145

> <Gold.PLP.ligand.torsion>
0.3206

> <Gold.PLP.Chemscore.Hbond>
2.6640

> <Gold.PLP.Chemscore.CHOScore>
0.0000

> <Gold.PLP.Chemscore.Metal>
0.0000

> <Gold.Chemscore.Hbonds>
donor molecule, donor type, donor heavy atom, donor atom, acceptor molecule, acceptor atom, score
      P1  H  6896  6909       L1     5  1.00
      P1  H  6931  6943       L1    17  0.99
      P1  H  6934  6947       L1    17  0.59

> <Gold.PLP.Chemscore.Internal.Correction>
0.0453

> <Gold.Rescore>
     Score         DG    S(hbond)    S(metal)    S(lipo)     H(rot)  DE(clash)    DE(int)     intcor
     18.21     -20.36       2.61        0.00      90.09       1.71       1.77       0.39       ----

> <Gold.Chemscore.Fitness>
18.2089

> <Gold.Chemscore.DG>
-20.3629

> <Gold.Chemscore.ZeroCoef>
-5.4800

> <Gold.Chemscore.Hbond>
2.6127

> <Gold.Chemscore.Metal>
0.0000

> <Gold.Chemscore.Lipo>
90.0888

> <Gold.Chemscore.Internal_Hbond>
0.0000

> <Gold.Chemscore.DEClash>
1.7665

> <Gold.Chemscore.DEInternal>
0.3875

> <Gold.Chemscore.Rot>
1.7125

> <Gold.Chemscore.Internal.Correction>
   9.000000E+99

> <Gold.Chemscore.Hbonds>
donor molecule, donor type, donor heavy atom, donor atom, acceptor molecule, acceptor atom, score
      P1  H  6896  6909       L1     5  1.00
      P1  H  6931  6943       L1    17  0.91
      P1  H  6934  6947       L1    17  0.58

> <Gold.Chemscore.Hbond.Weighted>
-8.7265

> <Gold.Chemscore.Metal.Weighted>
-0.0000

> <Gold.Chemscore.Lipo.Weighted>
-10.5404

> <Gold.Chemscore.Internal_Hbond.Weighted>
0.0000

> <Gold.Chemscore.DEClash.Weighted>
1.7665

> <Gold.Chemscore.DEInternal.Weighted>
0.3875

> <Gold.Chemscore.Rot.Weighted>
4.3840

> <Gold.Chemscore.Internal.Correction.Weighted>
   9.000000E+99

> <Gold.Protein.RotatedTorsions>
[ 6907 6896 6895 6894 ] final   53.75 input  -60.11 | X-H torsion
[ 7974 7965 7964 7962 ] final   88.87 input  175.53 | X-H torsion
[ 8008 7997 7996 7995 ] final  164.13 input   59.86 | X-H torsion
[ 10167 10162 10161 10158 ] final -147.69 input  -65.29 | X-H torsion
[ 10718 10713 10712 10709 ] final -128.72 input   66.30 | X-H torsion
[ 10763 10752 10751 10750 ] final   33.84 input  -60.55 | X-H torsion
[ 11005 11000 10999 10996 ] final -132.12 input  -57.11 | X-H torsion

> <Gold.Protein.ActiveResidues>
 VAL166  LYS551  ARG553  GLY616  TRP617  ASP618  TYR619  PRO620  LYS621  CYS622 
 ASP623  PHE694  ASN695  SER759  ASP760  ASP761  ALA762  ILE779  LEU786  VAL792 
 PHE793  MET794  SER795  GLU796  ALA797  LYS798  CYS799  TRP800  GLU811  SER814 

> <Gold.Protein.RotatedAtoms>
  152.3368  134.7187  160.0274 H   0  0  0  0  0  0  0  0  0  0  0  0  # atno 6907 bound_to 6896
  151.7585  133.3326  159.3419 H   0  0  0  0  0  0  0  0  0  0  0  0  # atno 6908 bound_to 6896
  150.7456  134.6060  159.6105 H   0  0  0  0  0  0  0  0  0  0  0  0  # atno 6909 bound_to 6896
  145.5400  139.2288  143.2571 H   0  0  0  0  0  0  0  0  0  0  0  0  # atno 7974 bound_to 7965
  156.1903  140.1705  156.8104 H   0  0  0  0  0  0  0  0  0  0  0  0  # atno 8008 bound_to 7997
  154.5464  140.0726  156.8627 H   0  0  0  0  0  0  0  0  0  0  0  0  # atno 8009 bound_to 7997
  155.3114  140.3368  155.4246 H   0  0  0  0  0  0  0  0  0  0  0  0  # atno 8010 bound_to 7997
  139.7599  143.8392  152.2605 H   0  0  0  0  0  0  0  0  0  0  0  0  # atno 10167 bound_to 10162
  156.1978  130.6837  151.0502 H   0  0  0  0  0  0  0  0  0  0  0  0  # atno 10718 bound_to 10713
  153.0192  135.6376  154.1574 H   0  0  0  0  0  0  0  0  0  0  0  0  # atno 10763 bound_to 10752
  154.1310  135.2840  155.3186 H   0  0  0  0  0  0  0  0  0  0  0  0  # atno 10764 bound_to 10752
  154.6194  135.5530  153.7620 H   0  0  0  0  0  0  0  0  0  0  0  0  # atno 10765 bound_to 10752
  140.9198  134.1458  157.4323 H   0  0  0  0  0  0  0  0  0  0  0  0  # atno 11005 bound_to 11000
  146.1987  140.6219  142.9112 LP  0  0  0  0  0  0  0  0  0  0  0  0  # atno 17320 bound_to 7965
  144.7582  140.5358  143.6754 LP  0  0  0  0  0  0  0  0  0  0  0  0  # atno 17321 bound_to 7965
  139.8395  144.7216  150.9349 LP  0  0  0  0  0  0  0  0  0  0  0  0  # atno 17342 bound_to 10162
  140.7806  143.3996  151.1171 LP  0  0  0  0  0  0  0  0  0  0  0  0  # atno 17343 bound_to 10162
  157.6968  131.0791  150.6945 LP  0  0  0  0  0  0  0  0  0  0  0  0  # atno 17370 bound_to 10713
  156.7002  130.4621  149.5575 LP  0  0  0  0  0  0  0  0  0  0  0  0  # atno 17371 bound_to 10713
  139.8773  134.9967  156.5809 LP  0  0  0  0  0  0  0  0  0  0  0  0  # atno 17394 bound_to 11000
  140.8002  133.8511  155.8720 LP  0  0  0  0  0  0  0  0  0  0  0  0  # atno 17395 bound_to 11000

$$$$
