AV-unprocessed.smi:103|AV-procd|sdf|987|dock8
  -GOLD-   2262017563D 1   1.00000     0.00000
 Structure written by MMmdl.
 53 55  0  0  0  0  0  0  0  0  1 V2000
  146.2377  135.9823  162.3710 C   0  0  0  0  0  0  0  0  0  0  0  0
  147.2697  136.0915  161.2561 C   0  0  0  0  0  0  0  0  0  0  0  0
  148.2663  136.8053  161.3701 O   0  0  0  0  0  0  0  0  0  0  0  0
  146.9554  135.3386  160.1909 O   0  0  0  0  0  0  0  0  0  0  0  0
  147.9156  135.1429  159.1661 C   0  0  0  0  0  0  0  0  0  0  0  0
  148.3908  136.5042  158.6382 C   0  0  2  0  0  0  0  0  0  0  0  0
  147.3523  137.1720  157.9375 O   0  0  0  0  0  0  0  0  0  0  0  0
  147.9336  138.1741  157.1701 C   0  0  2  0  0  0  0  0  0  0  0  0
  147.0388  138.4537  156.0067 N   0  0  0  0  0  0  0  0  0  0  0  0
  146.4357  139.6307  155.6115 C   0  0  0  0  0  0  0  0  0  0  0  0
  146.5421  141.2117  156.4418 S   0  0  0  0  0  0  0  0  0  0  0  0
  146.4689  142.3878  155.0307 C   0  0  0  0  0  0  0  0  0  0  0  0
  145.3265  141.3547  157.2569 O   0  0  0  0  0  0  0  0  0  0  0  0
  147.8729  141.2820  157.0656 O   0  0  0  0  0  0  0  0  0  0  0  0
  145.6398  139.5617  154.5787 N   0  0  0  0  0  0  0  0  0  0  0  0
  145.7495  138.2353  154.1848 C   0  0  0  0  0  0  0  0  0  0  0  0
  145.1884  137.4691  153.1323 C   0  0  0  0  0  0  0  0  0  0  0  0
  144.3448  137.9800  152.2250 N   0  0  0  0  0  0  0  0  0  0  0  0
  145.5201  136.1603  153.0370 N   0  0  0  0  0  0  0  0  0  0  0  0
  146.3594  135.6260  153.9303 C   0  0  0  0  0  0  0  0  0  0  0  0
  146.9595  136.2138  154.9688 N   0  0  0  0  0  0  0  0  0  0  0  0
  146.6251  137.5349  155.0630 C   0  0  0  0  0  0  0  0  0  0  0  0
  149.2883  137.6278  156.6922 C   0  0  1  0  0  0  0  0  0  0  0  0
  150.3164  138.6210  156.6372 O   0  0  0  0  0  0  0  0  0  0  0  0
  150.3106  139.6555  155.7671 C   0  0  0  0  0  0  0  0  0  0  0  0
  151.4106  140.6640  156.0681 C   0  0  0  0  0  0  0  0  0  0  0  0
  149.5409  139.8129  154.8201 O   0  0  0  0  0  0  0  0  0  0  0  0
  149.5524  136.4448  157.6310 C   0  0  2  0  0  0  0  0  0  0  0  0
  149.5330  135.2300  156.8884 O   0  0  0  0  0  0  0  0  0  0  0  0
  150.3125  135.0854  155.8030 C   0  0  0  0  0  0  0  0  0  0  0  0
  149.9897  133.8182  155.0235 C   0  0  0  0  0  0  0  0  0  0  0  0
  151.1956  135.8606  155.4357 O   0  0  0  0  0  0  0  0  0  0  0  0
  145.2284  136.0414  161.9639 H   0  0  0  0  0  0  0  0  0  0  0  0
  146.3662  136.7902  163.0918 H   0  0  0  0  0  0  0  0  0  0  0  0
  146.3467  135.0317  162.8933 H   0  0  0  0  0  0  0  0  0  0  0  0
  148.7630  134.5941  159.5798 H   0  0  0  0  0  0  0  0  0  0  0  0
  147.4960  134.5418  158.3581 H   0  0  0  0  0  0  0  0  0  0  0  0
  148.6926  137.1339  159.4766 H   0  0  0  0  0  0  0  0  0  0  0  0
  147.9815  139.0898  157.7552 H   0  0  0  0  0  0  0  0  0  0  0  0
  146.5253  143.4087  155.4074 H   0  0  0  0  0  0  0  0  0  0  0  0
  145.5345  142.2522  154.4873 H   0  0  0  0  0  0  0  0  0  0  0  0
  147.3081  142.2019  154.3604 H   0  0  0  0  0  0  0  0  0  0  0  0
  144.0821  138.9541  152.2736 H   0  0  0  0  0  0  0  0  0  0  0  0
  143.9744  137.3911  151.4931 H   0  0  0  0  0  0  0  0  0  0  0  0
  146.5802  134.5775  153.7958 H   0  0  0  0  0  0  0  0  0  0  0  0
  149.1614  137.2488  155.6774 H   0  0  0  0  0  0  0  0  0  0  0  0
  151.3456  140.9999  157.1032 H   0  0  0  0  0  0  0  0  0  0  0  0
  151.3228  141.5334  155.4162 H   0  0  0  0  0  0  0  0  0  0  0  0
  152.3896  140.2112  155.9102 H   0  0  0  0  0  0  0  0  0  0  0  0
  150.5007  136.5337  158.1633 H   0  0  0  0  0  0  0  0  0  0  0  0
  150.0986  132.9421  155.6629 H   0  0  0  0  0  0  0  0  0  0  0  0
  150.6620  133.7107  154.1721 H   0  0  0  0  0  0  0  0  0  0  0  0
  148.9651  133.8530  154.6528 H   0  0  0  0  0  0  0  0  0  0  0  0
  1  2  1  0  0  0  0
  1 33  1  0  0  0  0
  1 34  1  0  0  0  0
  1 35  1  0  0  0  0
  2  3  2  0  0  0  0
  2  4  1  0  0  0  0
  4  5  1  0  0  0  0
  5  6  1  0  0  0  0
  5 36  1  0  0  0  0
  5 37  1  0  0  0  0
  6 28  1  0  0  0  0
  6  7  1  0  0  0  0
  6 38  1  0  0  0  0
  7  8  1  0  0  0  0
  8  9  1  0  0  0  0
  8 23  1  0  0  0  0
  8 39  1  0  0  0  0
  9 22  1  0  0  0  0
  9 10  1  0  0  0  0
 10 11  1  0  0  0  0
 10 15  2  0  0  0  0
 11 12  1  0  0  0  0
 11 13  2  0  0  0  0
 11 14  2  0  0  0  0
 12 40  1  0  0  0  0
 12 41  1  0  0  0  0
 12 42  1  0  0  0  0
 15 16  1  0  0  0  0
 16 22  2  0  0  0  0
 16 17  1  0  0  0  0
 17 18  1  0  0  0  0
 17 19  2  0  0  0  0
 18 43  1  0  0  0  0
 18 44  1  0  0  0  0
 19 20  1  0  0  0  0
 20 21  2  0  0  0  0
 20 45  1  0  0  0  0
 21 22  1  0  0  0  0
 23 24  1  0  0  0  0
 23 28  1  0  0  0  0
 23 46  1  0  0  0  0
 24 25  1  0  0  0  0
 25 26  1  0  0  0  0
 25 27  2  0  0  0  0
 26 47  1  0  0  0  0
 26 48  1  0  0  0  0
 26 49  1  0  0  0  0
 28 29  1  0  0  0  0
 28 50  1  0  0  0  0
 29 30  1  0  0  0  0
 30 31  1  0  0  0  0
 30 32  2  0  0  0  0
 31 51  1  0  0  0  0
 31 52  1  0  0  0  0
 31 53  1  0  0  0  0
M  END
> <s_m_source_file>
AV-unprocessed.smi

> <i_m_source_file_index>
103

> <i_lp_mmshare_version>
43012

> <i_f3d_flags>
0

> <s_epik_input>
W0NIM11DKD1PKU9bQ0gyXVtDQEBIXTFPW0NASF0oW0NAQEhdKE9DKD1PKVtDSDNdKVtDQEhdMU9DKD1PKVtDSDNdKW4oYyhuMilTKD1PKSg9TylbQ0gzXSljKGMyMyluW2NIXW5jM1tOSDJd

> <s_epik_cmdline>
J2VwaWtfcHl0aG9uJywgJy1waCcsICc3LjAnLCAnLXRuJywgJzgnLCAnLW1hJywgJzIwMCcsICctbWV0YWxfYmluZGluZycsICctaW1hZScsICc8aW5maWxlLm1hZT4nLCAnLW9tYWUnLCAnPG91dGZpbGUubWFlPic=

> <r_lp_tautomer_probability>
1

> <r_epik_Ionization_Penalty>
1.51338e-05

> <r_epik_Ionization_Penalty_Charging>
0

> <r_epik_Ionization_Penalty_Neutral>
1.51338e-05

> <r_epik_State_Penalty>
-0

> <r_epik_Charging_Adjusted_Penalty>
0

> <i_epik_Tot_Q>
0

> <i_epik_Tot_abs_Q>
0

> <r_epik_Metal_State_Penalty>
-0

> <b_epik_Metal_Only>
0

> <s_epik_Chemistry_Notes>
This compound has an ester and may undergo hydrolysis at high or low pH. This compound contains an acetal/aminal-like group ( X-CH(R)-Y where X, Y are N, S, or O) that may be acid/base labile, releasing an aldehyde.

> <s_lp_Force_Field>
OPLS_2005

> <r_lp_Energy>
18.7655

> <b_lp_Chiralities_Consistent>
1

> <s_lp_Variant>
AV-unprocessed.smi:103-11

> <Gold.Version>
5.8.1

> <Gold.Id.Protein>
6NUR|6NUR_protein|mol2

> <Gold.PLP.Fitness>
36.4438

> <Gold.PLP.PLP>
-28.2301

> <Gold.PLP.part.hbond>
-4.1126

> <Gold.PLP.part.metal>
0.0000

> <Gold.PLP.part.buried>
-6.5168

> <Gold.PLP.part.nonpolar>
-18.3759

> <Gold.PLP.part.repulsive>
0.8129

> <Gold.PLP.ligand.clash>
0.0000

> <Gold.PLP.ligand.torsion>
1.5346

> <Gold.PLP.Chemscore.Hbond>
3.0452

> <Gold.PLP.Chemscore.CHOScore>
0.0000

> <Gold.PLP.Chemscore.Metal>
0.0000

> <Gold.Chemscore.Hbonds>
donor molecule, donor type, donor heavy atom, donor atom, acceptor molecule, acceptor atom, score
      L1  H    18    43       P1 10175  1.00
      L1  H    18    44       P1 10171  0.10
      P1  H  6931  6943       L1     3  1.00
      P1  H 10752 10763       L1    32  1.00

> <Gold.PLP.Chemscore.Internal.Correction>
2.1471

> <Gold.Rescore>
     Score         DG    S(hbond)    S(metal)    S(lipo)     H(rot)  DE(clash)    DE(int)     intcor
      5.74      -9.04       3.02        0.00      37.17       4.25       0.01       3.29       ----

> <Gold.Chemscore.Fitness>
5.7385

> <Gold.Chemscore.DG>
-9.0409

> <Gold.Chemscore.ZeroCoef>
-5.4800

> <Gold.Chemscore.Hbond>
3.0180

> <Gold.Chemscore.Metal>
0.0000

> <Gold.Chemscore.Lipo>
37.1745

> <Gold.Chemscore.Internal_Hbond>
0.0000

> <Gold.Chemscore.DEClash>
0.0106

> <Gold.Chemscore.DEInternal>
3.2918

> <Gold.Chemscore.Rot>
4.2456

> <Gold.Chemscore.Internal.Correction>
   9.000000E+99

> <Gold.Chemscore.Hbonds>
donor molecule, donor type, donor heavy atom, donor atom, acceptor molecule, acceptor atom, score
      L1  H    18    43       P1 10175  0.95
      L1  H    18    44       P1 10171  0.12
      P1  H  6931  6943       L1     3  1.00
      P1  H 10752 10763       L1    32  0.99

> <Gold.Chemscore.Hbond.Weighted>
-10.0802

> <Gold.Chemscore.Metal.Weighted>
-0.0000

> <Gold.Chemscore.Lipo.Weighted>
-4.3494

> <Gold.Chemscore.Internal_Hbond.Weighted>
0.0000

> <Gold.Chemscore.DEClash.Weighted>
0.0106

> <Gold.Chemscore.DEInternal.Weighted>
3.2918

> <Gold.Chemscore.Rot.Weighted>
10.8687

> <Gold.Chemscore.Internal.Correction.Weighted>
   9.000000E+99

> <Gold.Protein.RotatedTorsions>
[ 6907 6896 6895 6894 ] final -111.30 input  -60.11 | X-H torsion
[ 7974 7965 7964 7962 ] final  161.61 input  175.53 | X-H torsion
[ 8008 7997 7996 7995 ] final  -88.45 input   59.86 | X-H torsion
[ 10167 10162 10161 10158 ] final -124.50 input  -65.29 | X-H torsion
[ 10718 10713 10712 10709 ] final  146.33 input   66.30 | X-H torsion
[ 10763 10752 10751 10750 ] final   58.39 input  -60.55 | X-H torsion
[ 11005 11000 10999 10996 ] final  -11.54 input  -57.11 | X-H torsion

> <Gold.Protein.ActiveResidues>
 VAL166  LYS551  ARG553  GLY616  TRP617  ASP618  TYR619  PRO620  LYS621  CYS622 
 ASP623  PHE694  ASN695  SER759  ASP760  ASP761  ALA762  ILE779  LEU786  VAL792 
 PHE793  MET794  SER795  GLU796  ALA797  LYS798  CYS799  TRP800  GLU811  SER814 

> <Gold.Protein.RotatedAtoms>
  150.7681  133.9256  159.3410 H   0  0  0  0  0  0  0  0  0  0  0  0  # atno 6907 bound_to 6896
  151.7149  135.0904  160.0283 H   0  0  0  0  0  0  0  0  0  0  0  0  # atno 6908 bound_to 6896
  152.3686  133.6352  159.6105 H   0  0  0  0  0  0  0  0  0  0  0  0  # atno 6909 bound_to 6896
  144.7677  139.7922  143.6309 H   0  0  0  0  0  0  0  0  0  0  0  0  # atno 7974 bound_to 7965
  154.6749  140.0553  157.0205 H   0  0  0  0  0  0  0  0  0  0  0  0  # atno 8008 bound_to 7997
  155.1035  140.3231  155.4522 H   0  0  0  0  0  0  0  0  0  0  0  0  # atno 8009 bound_to 7997
  156.2672  140.2027  156.6160 H   0  0  0  0  0  0  0  0  0  0  0  0  # atno 8010 bound_to 7997
  139.9921  143.5630  152.2338 H   0  0  0  0  0  0  0  0  0  0  0  0  # atno 10167 bound_to 10162
  157.3345  131.0926  151.1134 H   0  0  0  0  0  0  0  0  0  0  0  0  # atno 10718 bound_to 10713
  152.9870  135.5608  154.5545 H   0  0  0  0  0  0  0  0  0  0  0  0  # atno 10763 bound_to 10752
  154.4975  135.2795  155.1449 H   0  0  0  0  0  0  0  0  0  0  0  0  # atno 10764 bound_to 10752
  154.2893  135.6329  153.5432 H   0  0  0  0  0  0  0  0  0  0  0  0  # atno 10765 bound_to 10752
  140.7563  133.8551  155.9087 H   0  0  0  0  0  0  0  0  0  0  0  0  # atno 11005 bound_to 11000
  146.1799  139.4986  142.9873 LP  0  0  0  0  0  0  0  0  0  0  0  0  # atno 17320 bound_to 7965
  145.6418  141.0282  143.1807 LP  0  0  0  0  0  0  0  0  0  0  0  0  # atno 17321 bound_to 7965
  139.6332  144.7647  151.2491 LP  0  0  0  0  0  0  0  0  0  0  0  0  # atno 17342 bound_to 10162
  140.7451  143.6442  150.8307 LP  0  0  0  0  0  0  0  0  0  0  0  0  # atno 17343 bound_to 10162
  157.2370  130.6551  149.5873 LP  0  0  0  0  0  0  0  0  0  0  0  0  # atno 17370 bound_to 10713
  155.9700  130.4580  150.5985 LP  0  0  0  0  0  0  0  0  0  0  0  0  # atno 17371 bound_to 10713
  140.9704  134.1538  157.4581 LP  0  0  0  0  0  0  0  0  0  0  0  0  # atno 17394 bound_to 11000
  139.8778  134.9976  156.5858 LP  0  0  0  0  0  0  0  0  0  0  0  0  # atno 17395 bound_to 11000

$$$$
