AV-unprocessed.smi:691|AV-procd|sdf|3366|dock2
  -GOLD-   22720 0343D 1   1.00000     0.00000
 Structure written by MMmdl.
 37 38  0  0  0  0  0  0  0  0  1 V2000
  146.8031  139.4649  154.2462 C   0  0  0  0  0  0  0  0  0  0  0  0
  147.7226  140.6746  154.5373 C   0  0  1  0  0  0  0  0  0  0  0  0
  149.1979  140.1965  154.5708 C   0  0  0  0  0  0  0  0  0  0  0  0
  149.5101  139.3824  153.4582 O   0  0  0  0  0  0  0  0  0  0  0  0
  147.5148  141.7375  153.4437 C   0  0  0  0  0  0  0  0  0  0  0  0
  146.2579  142.5207  153.8399 C   0  0  0  0  0  0  0  0  0  0  0  0
  146.0842  142.3193  155.3515 C   0  0  0  0  0  0  0  0  0  0  0  0
  147.2439  141.4192  155.8127 C   0  0  2  0  0  0  0  0  0  0  0  0
  148.2928  142.2552  156.4029 N   0  0  0  0  0  0  0  0  0  0  0  0
  149.1594  141.8798  157.3547 C   0  0  0  0  0  0  0  0  0  0  0  0
  149.1698  140.7612  157.8673 O   0  0  0  0  0  0  0  0  0  0  0  0
  150.0126  142.8763  157.6468 N   0  0  0  0  0  0  0  0  0  0  0  0
  151.0890  142.8788  158.5749 C   0  0  0  0  0  0  0  0  0  0  0  0
  151.6523  144.0474  159.1426 C   0  0  0  0  0  0  0  0  0  0  0  0
  152.7286  143.9153  160.0412 C   0  0  0  0  0  0  0  0  0  0  0  0
  153.2068  142.6235  160.3335 C   0  0  0  0  0  0  0  0  0  0  0  0
  152.6896  141.5024  159.7886 N   0  0  0  0  0  0  0  0  0  0  0  0
  151.6584  141.6369  158.9278 C   0  0  0  0  0  0  0  0  0  0  0  0
  147.0892  138.9652  153.3203 H   0  0  0  0  0  0  0  0  0  0  0  0
  145.7576  139.7569  154.1466 H   0  0  0  0  0  0  0  0  0  0  0  0
  146.8529  138.7249  155.0451 H   0  0  0  0  0  0  0  0  0  0  0  0
  149.8721  141.0536  154.5703 H   0  0  0  0  0  0  0  0  0  0  0  0
  149.4180  139.6375  155.4808 H   0  0  0  0  0  0  0  0  0  0  0  0
  149.5176  139.9215  152.6821 H   0  0  0  0  0  0  0  0  0  0  0  0
  148.3628  142.4237  153.4288 H   0  0  0  0  0  0  0  0  0  0  0  0
  147.4369  141.3086  152.4439 H   0  0  0  0  0  0  0  0  0  0  0  0
  146.3508  143.5752  153.5784 H   0  0  0  0  0  0  0  0  0  0  0  0
  145.3866  142.1312  153.3121 H   0  0  0  0  0  0  0  0  0  0  0  0
  146.0526  143.2692  155.8876 H   0  0  0  0  0  0  0  0  0  0  0  0
  145.1324  141.8217  155.5420 H   0  0  0  0  0  0  0  0  0  0  0  0
  146.8822  140.7027  156.5522 H   0  0  0  0  0  0  0  0  0  0  0  0
  148.3688  143.1956  156.0442 H   0  0  0  0  0  0  0  0  0  0  0  0
  149.9223  143.7131  157.0894 H   0  0  0  0  0  0  0  0  0  0  0  0
  151.2943  145.0357  158.8999 H   0  0  0  0  0  0  0  0  0  0  0  0
  153.1805  144.7861  160.4930 H   0  0  0  0  0  0  0  0  0  0  0  0
  154.0307  142.4875  161.0183 H   0  0  0  0  0  0  0  0  0  0  0  0
  151.2713  140.7186  158.5105 H   0  0  0  0  0  0  0  0  0  0  0  0
  1  2  1  0  0  0  0
  1 19  1  0  0  0  0
  1 20  1  0  0  0  0
  1 21  1  0  0  0  0
  2  8  1  0  0  0  0
  2  3  1  0  0  0  0
  2  5  1  0  0  0  0
  3  4  1  0  0  0  0
  3 22  1  0  0  0  0
  3 23  1  0  0  0  0
  4 24  1  0  0  0  0
  5  6  1  0  0  0  0
  5 25  1  0  0  0  0
  5 26  1  0  0  0  0
  6  7  1  0  0  0  0
  6 27  1  0  0  0  0
  6 28  1  0  0  0  0
  7  8  1  0  0  0  0
  7 29  1  0  0  0  0
  7 30  1  0  0  0  0
  8  9  1  0  0  0  0
  8 31  1  0  0  0  0
  9 10  1  0  0  0  0
  9 32  1  0  0  0  0
 10 11  2  0  0  0  0
 10 12  1  0  0  0  0
 12 13  1  0  0  0  0
 12 33  1  0  0  0  0
 13 18  1  0  0  0  0
 13 14  2  0  0  0  0
 14 15  1  0  0  0  0
 14 34  1  0  0  0  0
 15 16  2  0  0  0  0
 15 35  1  0  0  0  0
 16 17  1  0  0  0  0
 16 36  1  0  0  0  0
 17 18  2  0  0  0  0
 18 37  1  0  0  0  0
M  END
> <s_m_source_file>
AV-unprocessed.smi

> <i_m_source_file_index>
691

> <i_lp_mmshare_version>
43012

> <i_f3d_flags>
0

> <s_epik_input>
W09IXVtDSDJdW0NAXTEoW0NIM10pW0NIMl1bQ0gyXVtDSDJdW0NASF0xW05IXUMoPU8pW05IXWMyW2NIXVtjSF1bY0hdbltjSF0y

> <s_epik_cmdline>
J2VwaWtfcHl0aG9uJywgJy1waCcsICc3LjAnLCAnLXRuJywgJzgnLCAnLW1hJywgJzIwMCcsICctbWV0YWxfYmluZGluZycsICctaW1hZScsICc8aW5maWxlLm1hZT4nLCAnLW9tYWUnLCAnPG91dGZpbGUubWFlPic=

> <r_epik_Ionization_Penalty>
0.00496828

> <r_epik_Ionization_Penalty_Charging>
0

> <r_epik_Ionization_Penalty_Neutral>
0.00496828

> <r_epik_State_Penalty>
0.00358054

> <r_epik_Charging_Adjusted_Penalty>
0.00358054

> <i_epik_Tot_Q>
0

> <i_epik_Tot_abs_Q>
0

> <r_epik_Metal_State_Penalty>
-0

> <b_epik_Metal_Only>
0

> <s_lp_Force_Field>
OPLS_2005

> <r_lp_Energy>
29.635

> <b_lp_Chiralities_Consistent>
1

> <s_lp_Variant>
AV-unprocessed.smi:691-3

> <Gold.Version>
5.8.1

> <Gold.Id.Protein>
6NUR|6NUR_protein|mol2

> <Gold.PLP.Fitness>
41.7265

> <Gold.PLP.PLP>
-33.9264

> <Gold.PLP.part.hbond>
-2.6745

> <Gold.PLP.part.metal>
0.0000

> <Gold.PLP.part.buried>
-7.0715

> <Gold.PLP.part.nonpolar>
-24.4329

> <Gold.PLP.part.repulsive>
0.0739

> <Gold.PLP.ligand.clash>
0.0000

> <Gold.PLP.ligand.torsion>
0.5718

> <Gold.PLP.Chemscore.Hbond>
2.9760

> <Gold.PLP.Chemscore.CHOScore>
0.0000

> <Gold.PLP.Chemscore.Metal>
0.0000

> <Gold.Chemscore.Hbonds>
donor molecule, donor type, donor heavy atom, donor atom, acceptor molecule, acceptor atom, score
      L1  H     4    24       P1  7957  0.98
      L1  H     9    32       P1  8028  1.00
      L1  H    12    33       P1  8028  0.98

> <Gold.PLP.Chemscore.Internal.Correction>
0.0157

> <Gold.Rescore>
     Score         DG    S(hbond)    S(metal)    S(lipo)     H(rot)  DE(clash)    DE(int)     intcor
     19.21     -21.16       2.89        0.00      90.55       1.78       0.12       1.83       ----

> <Gold.Chemscore.Fitness>
19.2097

> <Gold.Chemscore.DG>
-21.1555

> <Gold.Chemscore.ZeroCoef>
-5.4800

> <Gold.Chemscore.Hbond>
2.8886

> <Gold.Chemscore.Metal>
0.0000

> <Gold.Chemscore.Lipo>
90.5494

> <Gold.Chemscore.Internal_Hbond>
0.0000

> <Gold.Chemscore.DEClash>
0.1178

> <Gold.Chemscore.DEInternal>
1.8279

> <Gold.Chemscore.Rot>
1.7838

> <Gold.Chemscore.Internal.Correction>
   9.000000E+99

> <Gold.Chemscore.Hbonds>
donor molecule, donor type, donor heavy atom, donor atom, acceptor molecule, acceptor atom, score
      L1  H     4    24       P1  7957  0.86
      L1  H     9    32       P1  8028  0.85
      L1  H    12    33       P1  8028  0.84

> <Gold.Chemscore.Hbond.Weighted>
-9.6478

> <Gold.Chemscore.Metal.Weighted>
-0.0000

> <Gold.Chemscore.Lipo.Weighted>
-10.5943

> <Gold.Chemscore.Internal_Hbond.Weighted>
0.0000

> <Gold.Chemscore.DEClash.Weighted>
0.1178

> <Gold.Chemscore.DEInternal.Weighted>
1.8279

> <Gold.Chemscore.Rot.Weighted>
4.5666

> <Gold.Chemscore.Internal.Correction.Weighted>
   9.000000E+99

> <Gold.Protein.RotatedTorsions>
[ 6907 6896 6895 6894 ] final  -12.59 input  -60.11 | X-H torsion
[ 7974 7965 7964 7962 ] final -154.13 input  175.53 | X-H torsion
[ 8008 7997 7996 7995 ] final  -11.82 input   59.86 | X-H torsion
[ 10167 10162 10161 10158 ] final   -2.74 input  -65.29 | X-H torsion
[ 10718 10713 10712 10709 ] final -120.33 input   66.30 | X-H torsion
[ 10763 10752 10751 10750 ] final   63.93 input  -60.55 | X-H torsion
[ 11005 11000 10999 10996 ] final  -32.87 input  -57.11 | X-H torsion

> <Gold.Protein.ActiveResidues>
 VAL166  LYS551  ARG553  GLY616  TRP617  ASP618  TYR619  PRO620  LYS621  CYS622 
 ASP623  PHE694  ASN695  SER759  ASP760  ASP761  ALA762  ILE779  LEU786  VAL792 
 PHE793  MET794  SER795  GLU796  ALA797  LYS798  CYS799  TRP800  GLU811  SER814 

> <Gold.Protein.RotatedAtoms>
  151.3681  135.0917  159.9456 H   0  0  0  0  0  0  0  0  0  0  0  0  # atno 6907 bound_to 6896
  152.5143  133.9191  159.7536 H   0  0  0  0  0  0  0  0  0  0  0  0  # atno 6908 bound_to 6896
  150.9599  133.6401  159.2785 H   0  0  0  0  0  0  0  0  0  0  0  0  # atno 6909 bound_to 6896
  144.7705  140.4430  143.5911 H   0  0  0  0  0  0  0  0  0  0  0  0  # atno 7974 bound_to 7965
  154.5431  140.2292  155.8607 H   0  0  0  0  0  0  0  0  0  0  0  0  # atno 8008 bound_to 7997
  156.1877  140.3085  155.9233 H   0  0  0  0  0  0  0  0  0  0  0  0  # atno 8009 bound_to 7997
  155.3218  140.0441  157.3030 H   0  0  0  0  0  0  0  0  0  0  0  0  # atno 8010 bound_to 7997
  140.6863  143.6621  150.8258 H   0  0  0  0  0  0  0  0  0  0  0  0  # atno 10167 bound_to 10162
  156.1250  130.6352  150.9527 H   0  0  0  0  0  0  0  0  0  0  0  0  # atno 10718 bound_to 10713
  153.0036  135.5411  154.6429 H   0  0  0  0  0  0  0  0  0  0  0  0  # atno 10763 bound_to 10752
  154.5680  135.2839  155.0857 H   0  0  0  0  0  0  0  0  0  0  0  0  # atno 10764 bound_to 10752
  154.2034  135.6480  153.5146 H   0  0  0  0  0  0  0  0  0  0  0  0  # atno 10765 bound_to 10752
  140.9588  133.7176  156.1336 H   0  0  0  0  0  0  0  0  0  0  0  0  # atno 11005 bound_to 11000
  145.6339  139.1540  143.2953 LP  0  0  0  0  0  0  0  0  0  0  0  0  # atno 17320 bound_to 7965
  146.1847  140.6441  142.9173 LP  0  0  0  0  0  0  0  0  0  0  0  0  # atno 17321 bound_to 7965
  140.0328  143.5426  152.2752 LP  0  0  0  0  0  0  0  0  0  0  0  0  # atno 17342 bound_to 10162
  139.6225  144.7631  151.2710 LP  0  0  0  0  0  0  0  0  0  0  0  0  # atno 17343 bound_to 10162
  157.6432  131.0907  150.8209 LP  0  0  0  0  0  0  0  0  0  0  0  0  # atno 17370 bound_to 10713
  156.8300  130.5013  149.5332 LP  0  0  0  0  0  0  0  0  0  0  0  0  # atno 17371 bound_to 10713
  140.7497  134.4058  157.5543 LP  0  0  0  0  0  0  0  0  0  0  0  0  # atno 17394 bound_to 11000
  139.8871  134.8891  156.2547 LP  0  0  0  0  0  0  0  0  0  0  0  0  # atno 17395 bound_to 11000

$$$$
