AV-unprocessed.smi:1047|AV-procd|sdf|4581|dock7
  -GOLD-   22720 3 53D 1   1.00000     0.00000
 Structure written by MMmdl.
 58 60  0  0  0  0  0  0  0  0  4 V2000
  143.5732  132.4857  150.8141 C   0  0  0  0  0  0  0  0  0  0  0  0
  144.7007  133.0145  151.7115 C   0  0  0  0  0  0  0  0  0  0  0  0
  144.1841  133.7012  152.9255 N   0  3  2  0  0  0  0  0  0  0  0  0
  143.1523  134.7256  152.6329 C   0  0  0  0  0  0  0  0  0  0  0  0
  143.7913  136.0246  152.1111 C   0  0  0  0  0  0  0  0  0  0  0  0
  144.7381  136.5005  153.0609 O   0  0  0  0  0  0  0  0  0  0  0  0
  145.8090  135.5855  153.2723 C   0  0  1  0  0  0  0  0  0  0  0  0
  146.7945  136.2268  154.2620 C   0  0  0  0  0  0  0  0  0  0  0  0
  147.3698  137.4740  153.7186 N   0  3  0  0  0  0  0  0  0  0  0  0
  148.4411  138.0568  154.5519 C   0  0  0  0  0  0  0  0  0  0  0  0
  148.4170  139.5962  154.4987 C   0  0  2  0  0  0  0  0  0  0  0  0
  147.7096  140.0018  153.3446 O   0  0  0  0  0  0  0  0  0  0  0  0
  149.8131  140.2486  154.4405 C   0  0  0  0  0  0  0  0  0  0  0  0
  150.7012  139.8138  155.5281 N   0  0  0  0  0  0  0  0  0  0  0  0
  151.1852  138.5720  155.8050 C   0  0  0  0  0  0  0  0  0  0  0  0
  151.9580  138.6709  156.9215 N   0  3  0  0  0  0  0  0  0  0  0  0
  151.9641  139.9935  157.3687 C   0  0  0  0  0  0  0  0  0  0  0  0
  152.5992  140.5825  158.4553 C   0  0  0  0  0  0  0  0  0  0  0  0
  152.4055  141.9695  158.6419 C   0  0  0  0  0  0  0  0  0  0  0  0
  153.0848  142.6443  159.8218 C   0  0  0  0  0  0  0  0  0  0  0  0
  151.5939  142.7193  157.7518 C   0  0  0  0  0  0  0  0  0  0  0  0
  151.3927  144.2106  157.9616 C   0  0  0  0  0  0  0  0  0  0  0  0
  150.9549  142.1013  156.6530 C   0  0  0  0  0  0  0  0  0  0  0  0
  151.1568  140.7331  156.4820 C   0  0  0  0  0  0  0  0  0  0  0  0
  145.2302  134.2610  153.8203 C   0  0  0  0  0  0  0  0  0  0  0  0
  143.9816  132.0698  149.8928 H   0  0  0  0  0  0  0  0  0  0  0  0
  142.8832  133.2834  150.5370 H   0  0  0  0  0  0  0  0  0  0  0  0
  142.9987  131.6957  151.2966 H   0  0  0  0  0  0  0  0  0  0  0  0
  145.3849  132.2093  151.9782 H   0  0  0  0  0  0  0  0  0  0  0  0
  145.2823  133.7248  151.1224 H   0  0  0  0  0  0  0  0  0  0  0  0
  142.4157  134.3426  151.9254 H   0  0  0  0  0  0  0  0  0  0  0  0
  142.6083  134.9375  153.5543 H   0  0  0  0  0  0  0  0  0  0  0  0
  144.2693  135.8715  151.1424 H   0  0  0  0  0  0  0  0  0  0  0  0
  143.0245  136.7860  151.9680 H   0  0  0  0  0  0  0  0  0  0  0  0
  146.3277  135.4051  152.3294 H   0  0  0  0  0  0  0  0  0  0  0  0
  146.2983  136.4338  155.2113 H   0  0  0  0  0  0  0  0  0  0  0  0
  147.6096  135.5322  154.4703 H   0  0  0  0  0  0  0  0  0  0  0  0
  147.7518  137.2859  152.8022 H   0  0  0  0  0  0  0  0  0  0  0  0
  148.2904  137.7129  155.5754 H   0  0  0  0  0  0  0  0  0  0  0  0
  149.4113  137.6791  154.2255 H   0  0  0  0  0  0  0  0  0  0  0  0
  147.8846  139.9782  155.3710 H   0  0  0  0  0  0  0  0  0  0  0  0
  148.2133  139.7683  152.5792 H   0  0  0  0  0  0  0  0  0  0  0  0
  150.2978  140.0650  153.4816 H   0  0  0  0  0  0  0  0  0  0  0  0
  149.7182  141.3322  154.5273 H   0  0  0  0  0  0  0  0  0  0  0  0
  150.9896  137.6697  155.2431 H   0  0  0  0  0  0  0  0  0  0  0  0
  153.2144  140.0049  159.1302 H   0  0  0  0  0  0  0  0  0  0  0  0
  152.3418  143.0618  160.5020 H   0  0  0  0  0  0  0  0  0  0  0  0
  153.7359  143.4504  159.4820 H   0  0  0  0  0  0  0  0  0  0  0  0
  153.6954  141.9395  160.3872 H   0  0  0  0  0  0  0  0  0  0  0  0
  150.7322  144.6356  157.2052 H   0  0  0  0  0  0  0  0  0  0  0  0
  152.3456  144.7373  157.9043 H   0  0  0  0  0  0  0  0  0  0  0  0
  150.9479  144.4039  158.9378 H   0  0  0  0  0  0  0  0  0  0  0  0
  150.3378  142.6764  155.9791 H   0  0  0  0  0  0  0  0  0  0  0  0
  144.7723  134.4440  154.7936 H   0  0  0  0  0  0  0  0  0  0  0  0
  146.0238  133.5355  153.9944 H   0  0  0  0  0  0  0  0  0  0  0  0
  146.6307  138.1560  153.6236 H   0  0  0  0  0  0  0  0  0  0  0  0
  143.7113  132.9790  153.4508 H   0  0  0  0  0  0  0  0  0  0  0  0
  152.4404  137.8900  157.3484 H   0  0  0  0  0  0  0  0  0  0  0  0
  1  2  1  0  0  0  0
  1 26  1  0  0  0  0
  1 27  1  0  0  0  0
  1 28  1  0  0  0  0
  2  3  1  0  0  0  0
  2 29  1  0  0  0  0
  2 30  1  0  0  0  0
  3 25  1  0  0  0  0
  3  4  1  0  0  0  0
  3 57  1  0  0  0  0
  4  5  1  0  0  0  0
  4 31  1  0  0  0  0
  4 32  1  0  0  0  0
  5  6  1  0  0  0  0
  5 33  1  0  0  0  0
  5 34  1  0  0  0  0
  6  7  1  0  0  0  0
  7  8  1  0  0  0  0
  7 25  1  0  0  0  0
  7 35  1  0  0  0  0
  8  9  1  0  0  0  0
  8 36  1  0  0  0  0
  8 37  1  0  0  0  0
  9 10  1  0  0  0  0
  9 38  1  0  0  0  0
  9 56  1  0  0  0  0
 10 11  1  0  0  0  0
 10 39  1  0  0  0  0
 10 40  1  0  0  0  0
 11 12  1  0  0  0  0
 11 13  1  0  0  0  0
 11 41  1  0  0  0  0
 12 42  1  0  0  0  0
 13 14  1  0  0  0  0
 13 43  1  0  0  0  0
 13 44  1  0  0  0  0
 14 24  1  0  0  0  0
 14 15  1  0  0  0  0
 15 16  2  0  0  0  0
 15 45  1  0  0  0  0
 16 17  1  0  0  0  0
 16 58  1  0  0  0  0
 17 24  2  0  0  0  0
 17 18  1  0  0  0  0
 18 19  2  0  0  0  0
 18 46  1  0  0  0  0
 19 20  1  0  0  0  0
 19 21  1  0  0  0  0
 20 47  1  0  0  0  0
 20 48  1  0  0  0  0
 20 49  1  0  0  0  0
 21 22  1  0  0  0  0
 21 23  2  0  0  0  0
 22 50  1  0  0  0  0
 22 51  1  0  0  0  0
 22 52  1  0  0  0  0
 23 24  1  0  0  0  0
 23 53  1  0  0  0  0
 25 54  1  0  0  0  0
 25 55  1  0  0  0  0
M  CHG  1   3   1
M  CHG  1   9   1
M  CHG  1  16   1
M  END
> <s_m_source_file>
AV-unprocessed.smi

> <i_m_source_file_index>
1047

> <i_lp_mmshare_version>
43012

> <i_f3d_flags>
0

> <s_epik_input>
W0NIM11bQ0gyXU4xW0NIMl1bQ0gyXU9bQ0BIXShbQ0gyXTEpW0NIMl1bTkhdW0NIMl1bQ0BIXShbT0hdKVtDSDJdbihbY0hdbjIpYyhjMjMpW2NIXWMoW0NIM10pYyhbY0hdMylbQ0gzXQ==

> <s_epik_cmdline>
J2VwaWtfcHl0aG9uJywgJy1waCcsICc3LjAnLCAnLXRuJywgJzgnLCAnLW1hJywgJzIwMCcsICctbWV0YWxfYmluZGluZycsICctaW1hZScsICc8aW5maWxlLm1hZT4nLCAnLW9tYWUnLCAnPG91dGZpbGUubWFlPic=

> <r_epik_Ionization_Penalty>
1.6114

> <r_epik_Ionization_Penalty_Charging>
1.61139

> <r_epik_Ionization_Penalty_Neutral>
5.04732e-06

> <r_epik_State_Penalty>
1.63724

> <r_epik_Charging_Adjusted_Penalty>
3.24864

> <i_epik_Tot_Q>
3

> <i_epik_Tot_abs_Q>
3

> <r_epik_Metal_State_Penalty>
5.64594

> <b_epik_Metal_Only>
0

> <s_lp_Force_Field>
OPLS_2005

> <r_lp_Energy>
44.3097

> <b_lp_Chiralities_Consistent>
1

> <s_lp_Variant>
AV-unprocessed.smi:1047-22

> <Gold.Version>
5.8.1

> <Gold.Id.Protein>
6NUR|6NUR_protein|mol2

> <Gold.PLP.Fitness>
55.4529

> <Gold.PLP.PLP>
-41.9681

> <Gold.PLP.part.hbond>
-2.9790

> <Gold.PLP.part.metal>
0.0000

> <Gold.PLP.part.buried>
-5.3245

> <Gold.PLP.part.nonpolar>
-35.1669

> <Gold.PLP.part.repulsive>
0.1986

> <Gold.PLP.ligand.clash>
0.0000

> <Gold.PLP.ligand.torsion>
0.8541

> <Gold.PLP.Chemscore.Hbond>
5.0000

> <Gold.PLP.Chemscore.CHOScore>
0.0000

> <Gold.PLP.Chemscore.Metal>
0.0000

> <Gold.Chemscore.Hbonds>
donor molecule, donor type, donor heavy atom, donor atom, acceptor molecule, acceptor atom, score
      L1  H     3    57       P1 10957  1.76
      L1  H     9    38       P1  7948  1.79
      L1  H    12    42       P1  7957  1.00

> <Gold.PLP.Chemscore.Internal.Correction>
0.1931

> <Gold.Rescore>
     Score         DG    S(hbond)    S(metal)    S(lipo)     H(rot)  DE(clash)    DE(int)     intcor
     20.49     -21.56       2.87        0.00     116.36       2.78       0.19       0.88       ----

> <Gold.Chemscore.Fitness>
20.4948

> <Gold.Chemscore.DG>
-21.5620

> <Gold.Chemscore.ZeroCoef>
-5.4800

> <Gold.Chemscore.Hbond>
2.8734

> <Gold.Chemscore.Metal>
0.0000

> <Gold.Chemscore.Lipo>
116.3577

> <Gold.Chemscore.Internal_Hbond>
0.0000

> <Gold.Chemscore.DEClash>
0.1914

> <Gold.Chemscore.DEInternal>
0.8758

> <Gold.Chemscore.Rot>
2.7848

> <Gold.Chemscore.Internal.Correction>
   9.000000E+99

> <Gold.Chemscore.Hbonds>
donor molecule, donor type, donor heavy atom, donor atom, acceptor molecule, acceptor atom, score
      L1  H     3    57       P1 10957  0.70
      L1  H     9    38       P1  7948  0.88
      L1  H    12    42       P1  7957  0.95

> <Gold.Chemscore.Hbond.Weighted>
-9.5972

> <Gold.Chemscore.Metal.Weighted>
-0.0000

> <Gold.Chemscore.Lipo.Weighted>
-13.6139

> <Gold.Chemscore.Internal_Hbond.Weighted>
0.0000

> <Gold.Chemscore.DEClash.Weighted>
0.1914

> <Gold.Chemscore.DEInternal.Weighted>
0.8758

> <Gold.Chemscore.Rot.Weighted>
7.1291

> <Gold.Chemscore.Internal.Correction.Weighted>
   9.000000E+99

> <Gold.Protein.RotatedTorsions>
[ 6907 6896 6895 6894 ] final   72.19 input  -60.11 | X-H torsion
[ 7974 7965 7964 7962 ] final -105.49 input  175.53 | X-H torsion
[ 8008 7997 7996 7995 ] final  -77.59 input   59.86 | X-H torsion
[ 10167 10162 10161 10158 ] final -108.90 input  -65.29 | X-H torsion
[ 10718 10713 10712 10709 ] final -162.29 input   66.30 | X-H torsion
[ 10763 10752 10751 10750 ] final  -80.58 input  -60.55 | X-H torsion
[ 11005 11000 10999 10996 ] final  125.39 input  -57.11 | X-H torsion

> <Gold.Protein.ActiveResidues>
 VAL166  LYS551  ARG553  GLY616  TRP617  ASP618  TYR619  PRO620  LYS621  CYS622 
 ASP623  PHE694  ASN695  SER759  ASP760  ASP761  ALA762  ILE779  LEU786  VAL792 
 PHE793  MET794  SER795  GLU796  ALA797  LYS798  CYS799  TRP800  GLU811  SER814 

> <Gold.Protein.RotatedAtoms>
  152.4853  134.4608  159.9604 H   0  0  0  0  0  0  0  0  0  0  0  0  # atno 6907 bound_to 6896
  151.4606  133.3588  159.2816 H   0  0  0  0  0  0  0  0  0  0  0  0  # atno 6908 bound_to 6896
  150.8959  134.8392  159.7387 H   0  0  0  0  0  0  0  0  0  0  0  0  # atno 6909 bound_to 6896
  145.2299  140.9166  143.3211 H   0  0  0  0  0  0  0  0  0  0  0  0  # atno 7974 bound_to 7965
  154.5610  140.0708  156.8819 H   0  0  0  0  0  0  0  0  0  0  0  0  # atno 8008 bound_to 7997
  155.2811  140.3372  155.4240 H   0  0  0  0  0  0  0  0  0  0  0  0  # atno 8009 bound_to 7997
  156.2042  140.1733  156.7821 H   0  0  0  0  0  0  0  0  0  0  0  0  # atno 8010 bound_to 7997
  140.1612  143.4119  152.1424 H   0  0  0  0  0  0  0  0  0  0  0  0  # atno 10167 bound_to 10162
  156.6084  130.8840  151.2930 H   0  0  0  0  0  0  0  0  0  0  0  0  # atno 10718 bound_to 10713
  154.5529  135.5656  153.6938 H   0  0  0  0  0  0  0  0  0  0  0  0  # atno 10763 bound_to 10752
  152.9995  135.6255  154.2349 H   0  0  0  0  0  0  0  0  0  0  0  0  # atno 10764 bound_to 10752
  154.2285  135.2867  155.2878 H   0  0  0  0  0  0  0  0  0  0  0  0  # atno 10765 bound_to 10752
  139.9404  134.9636  156.8552 H   0  0  0  0  0  0  0  0  0  0  0  0  # atno 11005 bound_to 11000
  144.9687  139.3903  143.6320 LP  0  0  0  0  0  0  0  0  0  0  0  0  # atno 17320 bound_to 7965
  146.3355  139.8774  142.8830 LP  0  0  0  0  0  0  0  0  0  0  0  0  # atno 17321 bound_to 7965
  139.5380  144.7229  151.4827 LP  0  0  0  0  0  0  0  0  0  0  0  0  # atno 17342 bound_to 10162
  140.6642  143.8434  150.6922 LP  0  0  0  0  0  0  0  0  0  0  0  0  # atno 17343 bound_to 10162
  157.7261  130.9624  150.1641 LP  0  0  0  0  0  0  0  0  0  0  0  0  # atno 17370 bound_to 10713
  156.2410  130.3691  149.8337 LP  0  0  0  0  0  0  0  0  0  0  0  0  # atno 17371 bound_to 10713
  140.5966  134.0211  155.7520 LP  0  0  0  0  0  0  0  0  0  0  0  0  # atno 17394 bound_to 11000
  141.1036  133.9728  157.3035 LP  0  0  0  0  0  0  0  0  0  0  0  0  # atno 17395 bound_to 11000

$$$$
