AV-unprocessed.smi:2355|AV-procd|sdf|9386|dock10
  -GOLD-   2272013 23D 1   1.00000     0.00000
 Structure written by MMmdl.
 48 49  0  0  0  0  0  0  0  0  1 V2000
  146.4563  135.1404  162.5219 C   0  0  0  0  0  0  0  0  0  0  0  0
  147.3416  135.1934  161.2948 C   0  0  0  0  0  0  0  0  0  0  0  0
  147.4556  134.0809  160.4394 C   0  0  0  0  0  0  0  0  0  0  0  0
  148.2971  134.1904  159.3153 C   0  0  0  0  0  0  0  0  0  0  0  0
  148.4664  133.0342  158.3521 C   0  0  0  0  0  0  0  0  0  0  0  0
  148.9974  135.3076  159.0257 N   0  0  0  0  0  0  0  0  0  0  0  0
  148.8967  136.3851  159.8430 C   0  0  0  0  0  0  0  0  0  0  0  0
  149.5889  137.6061  159.6243 N   0  0  0  0  0  0  0  0  0  0  0  0
  150.6939  137.8118  158.8861 C   0  0  0  0  0  0  0  0  0  0  0  0
  151.3129  136.9417  158.2722 O   0  0  0  0  0  0  0  0  0  0  0  0
  151.0571  139.1034  158.9029 N   0  0  0  0  0  0  0  0  0  0  0  0
  152.2250  139.6598  158.2202 C   0  0  1  0  0  0  0  0  0  0  0  0
  151.7742  140.3032  156.8970 C   0  0  0  0  0  0  0  0  0  0  0  0
  153.0255  140.6341  159.1452 C   0  0  2  0  0  0  0  0  0  0  0  0
  153.6336  139.8497  160.3372 C   0  0  0  0  0  0  0  0  0  0  0  0
  152.2629  141.8318  159.5706 N   0  0  0  0  0  0  0  0  0  0  0  0
  152.8550  142.4834  160.7446 C   0  0  0  0  0  0  0  0  0  0  0  0
  152.0864  143.7420  161.1811 C   0  0  0  0  0  0  0  0  0  0  0  0
  152.0207  144.6601  160.0989 O   0  0  0  0  0  0  0  0  0  0  0  0
  151.3837  144.0972  158.9606 C   0  0  0  0  0  0  0  0  0  0  0  0
  152.1423  142.8373  158.5083 C   0  0  0  0  0  0  0  0  0  0  0  0
  148.0728  136.3596  160.9906 C   0  0  0  0  0  0  0  0  0  0  0  0
  145.7508  134.3112  162.4620 H   0  0  0  0  0  0  0  0  0  0  0  0
  145.8859  136.0641  162.6229 H   0  0  0  0  0  0  0  0  0  0  0  0
  147.0633  135.0108  163.4180 H   0  0  0  0  0  0  0  0  0  0  0  0
  146.9130  133.1684  160.6399 H   0  0  0  0  0  0  0  0  0  0  0  0
  147.7684  132.2271  158.5764 H   0  0  0  0  0  0  0  0  0  0  0  0
  149.4799  132.6368  158.4136 H   0  0  0  0  0  0  0  0  0  0  0  0
  148.2871  133.3622  157.3278 H   0  0  0  0  0  0  0  0  0  0  0  0
  149.1980  138.4151  160.0837 H   0  0  0  0  0  0  0  0  0  0  0  0
  150.4920  139.7501  159.4334 H   0  0  0  0  0  0  0  0  0  0  0  0
  152.8415  138.7998  157.9622 H   0  0  0  0  0  0  0  0  0  0  0  0
  152.6240  140.6982  156.3399 H   0  0  0  0  0  0  0  0  0  0  0  0
  151.0737  141.1221  157.0611 H   0  0  0  0  0  0  0  0  0  0  0  0
  151.2791  139.5721  156.2574 H   0  0  0  0  0  0  0  0  0  0  0  0
  153.8724  140.9890  158.5556 H   0  0  0  0  0  0  0  0  0  0  0  0
  154.0992  138.9142  160.0295 H   0  0  0  0  0  0  0  0  0  0  0  0
  152.8765  139.6085  161.0839 H   0  0  0  0  0  0  0  0  0  0  0  0
  154.4219  140.4144  160.8338 H   0  0  0  0  0  0  0  0  0  0  0  0
  152.8672  141.8039  161.5952 H   0  0  0  0  0  0  0  0  0  0  0  0
  153.8928  142.7483  160.5361 H   0  0  0  0  0  0  0  0  0  0  0  0
  151.0796  143.4849  161.5139 H   0  0  0  0  0  0  0  0  0  0  0  0
  152.5892  144.2198  162.0222 H   0  0  0  0  0  0  0  0  0  0  0  0
  150.3451  143.8584  159.1951 H   0  0  0  0  0  0  0  0  0  0  0  0
  151.3688  144.8369  158.1602 H   0  0  0  0  0  0  0  0  0  0  0  0
  153.1338  143.1197  158.1509 H   0  0  0  0  0  0  0  0  0  0  0  0
  151.5993  142.4352  157.6556 H   0  0  0  0  0  0  0  0  0  0  0  0
  148.0018  137.2244  161.6346 H   0  0  0  0  0  0  0  0  0  0  0  0
  1  2  1  0  0  0  0
  1 23  1  0  0  0  0
  1 24  1  0  0  0  0
  1 25  1  0  0  0  0
  2 22  1  0  0  0  0
  2  3  2  0  0  0  0
  3  4  1  0  0  0  0
  3 26  1  0  0  0  0
  4  5  1  0  0  0  0
  4  6  2  0  0  0  0
  5 27  1  0  0  0  0
  5 28  1  0  0  0  0
  5 29  1  0  0  0  0
  6  7  1  0  0  0  0
  7  8  1  0  0  0  0
  7 22  2  0  0  0  0
  8  9  1  0  0  0  0
  8 30  1  0  0  0  0
  9 10  2  0  0  0  0
  9 11  1  0  0  0  0
 11 12  1  0  0  0  0
 11 31  1  0  0  0  0
 12 13  1  0  0  0  0
 12 14  1  0  0  0  0
 12 32  1  0  0  0  0
 13 33  1  0  0  0  0
 13 34  1  0  0  0  0
 13 35  1  0  0  0  0
 14 15  1  0  0  0  0
 14 16  1  0  0  0  0
 14 36  1  0  0  0  0
 15 37  1  0  0  0  0
 15 38  1  0  0  0  0
 15 39  1  0  0  0  0
 16 21  1  0  0  0  0
 16 17  1  0  0  0  0
 17 18  1  0  0  0  0
 17 40  1  0  0  0  0
 17 41  1  0  0  0  0
 18 19  1  0  0  0  0
 18 42  1  0  0  0  0
 18 43  1  0  0  0  0
 19 20  1  0  0  0  0
 20 21  1  0  0  0  0
 20 44  1  0  0  0  0
 20 45  1  0  0  0  0
 21 46  1  0  0  0  0
 21 47  1  0  0  0  0
 22 48  1  0  0  0  0
M  END
> <s_m_source_file>
AV-unprocessed.smi

> <i_m_source_file_index>
2355

> <i_lp_mmshare_version>
43012

> <i_f3d_flags>
0

> <s_epik_input>
W0NIM11jMVtjSF1jKFtDSDNdKW5jKFtjSF0xKVtOSF1DKD1PKVtOSF1bQ0BIXShbQ0gzXSlbQ0BIXShbQ0gzXSlOMltDSDJdW0NIMl1PW0NIMl1bQ0gyXTI=

> <s_epik_cmdline>
J2VwaWtfcHl0aG9uJywgJy1waCcsICc3LjAnLCAnLXRuJywgJzgnLCAnLW1hJywgJzIwMCcsICctbWV0YWxfYmluZGluZycsICctaW1hZScsICc8aW5maWxlLm1hZT4nLCAnLW9tYWUnLCAnPG91dGZpbGUubWFlPic=

> <r_epik_Ionization_Penalty>
0.266238

> <r_epik_Ionization_Penalty_Charging>
0

> <r_epik_Ionization_Penalty_Neutral>
0.266238

> <r_epik_State_Penalty>
0.257924

> <r_epik_Charging_Adjusted_Penalty>
0.257924

> <i_epik_Tot_Q>
0

> <i_epik_Tot_abs_Q>
0

> <r_epik_Metal_State_Penalty>
0.257904

> <b_epik_Metal_Only>
0

> <s_lp_Force_Field>
OPLS_2005

> <r_lp_Energy>
33.1774

> <b_lp_Chiralities_Consistent>
1

> <s_lp_Variant>
AV-unprocessed.smi:2355-2

> <Gold.Version>
5.8.1

> <Gold.Id.Protein>
6NUR|6NUR_protein|mol2

> <Gold.PLP.Fitness>
38.7593

> <Gold.PLP.PLP>
-37.4832

> <Gold.PLP.part.hbond>
-1.3996

> <Gold.PLP.part.metal>
0.0000

> <Gold.PLP.part.buried>
-5.7667

> <Gold.PLP.part.nonpolar>
-32.7588

> <Gold.PLP.part.repulsive>
2.3241

> <Gold.PLP.ligand.clash>
0.0000

> <Gold.PLP.ligand.torsion>
0.7598

> <Gold.PLP.Chemscore.Hbond>
0.9000

> <Gold.PLP.Chemscore.CHOScore>
0.0000

> <Gold.PLP.Chemscore.Metal>
0.0000

> <Gold.Chemscore.Hbonds>
donor molecule, donor type, donor heavy atom, donor atom, acceptor molecule, acceptor atom, score
      P1  H  6896  6907       L1     6  0.76

> <Gold.PLP.Chemscore.Internal.Correction>
0.0957

> <Gold.Rescore>
     Score         DG    S(hbond)    S(metal)    S(lipo)     H(rot)  DE(clash)    DE(int)     intcor
     11.84     -13.98       0.03        0.00     102.61       1.40       0.06       2.08       ----

> <Gold.Chemscore.Fitness>
11.8426

> <Gold.Chemscore.DG>
-13.9849

> <Gold.Chemscore.ZeroCoef>
-5.4800

> <Gold.Chemscore.Hbond>
0.0262

> <Gold.Chemscore.Metal>
0.0000

> <Gold.Chemscore.Lipo>
102.6085

> <Gold.Chemscore.Internal_Hbond>
0.0000

> <Gold.Chemscore.DEClash>
0.0637

> <Gold.Chemscore.DEInternal>
2.0786

> <Gold.Chemscore.Rot>
1.4015

> <Gold.Chemscore.Internal.Correction>
   9.000000E+99

> <Gold.Chemscore.Hbonds>
donor molecule, donor type, donor heavy atom, donor atom, acceptor molecule, acceptor atom, score
      P1  H  6896  6907       L1     6  0.03

> <Gold.Chemscore.Hbond.Weighted>
-0.0875

> <Gold.Chemscore.Metal.Weighted>
-0.0000

> <Gold.Chemscore.Lipo.Weighted>
-12.0052

> <Gold.Chemscore.Internal_Hbond.Weighted>
0.0000

> <Gold.Chemscore.DEClash.Weighted>
0.0637

> <Gold.Chemscore.DEInternal.Weighted>
2.0786

> <Gold.Chemscore.Rot.Weighted>
3.5878

> <Gold.Chemscore.Internal.Correction.Weighted>
   9.000000E+99

> <Gold.Protein.RotatedTorsions>
[ 6907 6896 6895 6894 ] final  -63.06 input  -60.11 | X-H torsion
[ 7974 7965 7964 7962 ] final -177.75 input  175.53 | X-H torsion
[ 8008 7997 7996 7995 ] final  -50.42 input   59.86 | X-H torsion
[ 10167 10162 10161 10158 ] final   98.42 input  -65.29 | X-H torsion
[ 10718 10713 10712 10709 ] final  133.17 input   66.30 | X-H torsion
[ 10763 10752 10751 10750 ] final   -9.07 input  -60.55 | X-H torsion
[ 11005 11000 10999 10996 ] final   34.45 input  -57.11 | X-H torsion

> <Gold.Protein.ActiveResidues>
 VAL166  LYS551  ARG553  GLY616  TRP617  ASP618  TYR619  PRO620  LYS621  CYS622 
 ASP623  PHE694  ASN695  SER759  ASP760  ASP761  ALA762  ILE779  LEU786  VAL792 
 PHE793  MET794  SER795  GLU796  ALA797  LYS798  CYS799  TRP800  GLU811  SER814 

> <Gold.Protein.RotatedAtoms>
  150.7674  134.6487  159.6275 H   0  0  0  0  0  0  0  0  0  0  0  0  # atno 6907 bound_to 6896
  152.3712  134.6728  160.0184 H   0  0  0  0  0  0  0  0  0  0  0  0  # atno 6908 bound_to 6896
  151.7087  133.3275  159.3321 H   0  0  0  0  0  0  0  0  0  0  0  0  # atno 6909 bound_to 6896
  144.7128  140.0973  143.6418 H   0  0  0  0  0  0  0  0  0  0  0  0  # atno 7974 bound_to 7965
  154.4062  140.1272  156.4663 H   0  0  0  0  0  0  0  0  0  0  0  0  # atno 8008 bound_to 7997
  155.7223  140.3492  155.5002 H   0  0  0  0  0  0  0  0  0  0  0  0  # atno 8009 bound_to 7997
  155.9203  140.1051  157.1202 H   0  0  0  0  0  0  0  0  0  0  0  0  # atno 8010 bound_to 7997
  139.7710  144.6922  151.0155 H   0  0  0  0  0  0  0  0  0  0  0  0  # atno 10167 bound_to 10162
  157.4799  131.1085  150.9695 H   0  0  0  0  0  0  0  0  0  0  0  0  # atno 10718 bound_to 10713
  153.4495  135.7015  153.6118 H   0  0  0  0  0  0  0  0  0  0  0  0  # atno 10763 bound_to 10752
  153.4459  135.3769  155.2255 H   0  0  0  0  0  0  0  0  0  0  0  0  # atno 10764 bound_to 10752
  154.8728  135.3985  154.3905 H   0  0  0  0  0  0  0  0  0  0  0  0  # atno 10765 bound_to 10752
  140.2527  134.3284  155.7884 H   0  0  0  0  0  0  0  0  0  0  0  0  # atno 11005 bound_to 11000
  145.9569  139.2772  143.1179 LP  0  0  0  0  0  0  0  0  0  0  0  0  # atno 17320 bound_to 7965
  145.9263  140.9080  143.0379 LP  0  0  0  0  0  0  0  0  0  0  0  0  # atno 17321 bound_to 7965
  140.7814  143.4588  151.0307 LP  0  0  0  0  0  0  0  0  0  0  0  0  # atno 17342 bound_to 10162
  139.8272  143.7740  152.3179 LP  0  0  0  0  0  0  0  0  0  0  0  0  # atno 17343 bound_to 10162
  157.0432  130.5757  149.5359 LP  0  0  0  0  0  0  0  0  0  0  0  0  # atno 17370 bound_to 10713
  156.0116  130.5208  150.8006 LP  0  0  0  0  0  0  0  0  0  0  0  0  # atno 17371 bound_to 10713
  141.2199  133.7363  156.9063 LP  0  0  0  0  0  0  0  0  0  0  0  0  # atno 17394 bound_to 11000
  140.1542  134.9210  157.2632 LP  0  0  0  0  0  0  0  0  0  0  0  0  # atno 17395 bound_to 11000

$$$$
