AV-unprocessed.smi:33|AV-procd|sdf|208|dock10
  -GOLD-   2262015503D 1   1.00000     0.00000
 Structure written by MMmdl.
 67 72  0  0  0  0  0  0  0  0  1 V2000
  153.2384  140.6779  159.8873 O   0  0  0  0  0  0  0  0  0  0  0  0
  152.5503  141.2477  159.0379 C   0  0  0  0  0  0  0  0  0  0  0  0
  152.1702  140.6774  157.8773 O   0  0  0  0  0  0  0  0  0  0  0  0
  152.2566  139.2710  157.7086 C   0  0  0  0  0  0  0  0  0  0  0  0
  152.3727  138.9530  156.2090 C   0  0  1  0  0  0  0  0  0  0  0  0
  152.3938  137.5319  156.0393 O   0  0  0  0  0  0  0  0  0  0  0  0
  151.2461  137.0881  155.3762 C   0  0  1  0  0  0  0  0  0  0  0  0
  150.7452  135.8247  156.0077 N   0  0  0  0  0  0  0  0  0  0  0  0
  150.6195  135.5632  157.3542 C   0  0  0  0  0  0  0  0  0  0  0  0
  150.1533  134.3817  157.6567 N   0  0  0  0  0  0  0  0  0  0  0  0
  149.9389  133.7811  156.4235 C   0  0  0  0  0  0  0  0  0  0  0  0
  149.4497  132.5110  156.0149 C   0  0  0  0  0  0  0  0  0  0  0  0
  149.0500  131.5595  156.8906 N   0  0  0  0  0  0  0  0  0  0  0  0
  149.7872  130.2874  156.8764 C   0  0  0  0  0  0  0  0  0  0  0  0
  149.2441  129.2641  157.2970 O   0  0  0  0  0  0  0  0  0  0  0  0
  151.1789  130.2182  156.3150 C   0  0  0  0  0  0  0  0  0  0  0  0
  152.1149  131.2308  156.6195 C   0  0  0  0  0  0  0  0  0  0  0  0
  153.4170  131.1780  156.0850 C   0  0  0  0  0  0  0  0  0  0  0  0
  153.7847  130.1241  155.2270 C   0  0  0  0  0  0  0  0  0  0  0  0
  152.8473  129.1271  154.8963 C   0  0  0  0  0  0  0  0  0  0  0  0
  151.5457  129.1778  155.4318 C   0  0  0  0  0  0  0  0  0  0  0  0
  147.9278  131.8925  157.7804 C   0  0  0  0  0  0  0  0  0  0  0  0
  147.1093  132.7454  157.4314 O   0  0  0  0  0  0  0  0  0  0  0  0
  147.7401  131.1619  159.0802 C   0  0  0  0  0  0  0  0  0  0  0  0
  146.4503  131.0393  159.6421 C   0  0  0  0  0  0  0  0  0  0  0  0
  146.2699  130.3650  160.8654 C   0  0  0  0  0  0  0  0  0  0  0  0
  147.3797  129.8265  161.5442 C   0  0  0  0  0  0  0  0  0  0  0  0
  148.6717  129.9711  161.0044 C   0  0  0  0  0  0  0  0  0  0  0  0
  148.8530  130.6444  159.7809 C   0  0  0  0  0  0  0  0  0  0  0  0
  149.3798  132.2506  154.6839 N   0  0  0  0  0  0  0  0  0  0  0  0
  149.7628  133.1818  153.8061 C   0  0  0  0  0  0  0  0  0  0  0  0
  150.2337  134.4076  154.0440 N   0  0  0  0  0  0  0  0  0  0  0  0
  150.3088  134.6737  155.3798 C   0  0  0  0  0  0  0  0  0  0  0  0
  150.2233  138.2300  155.4079 C   0  0  1  0  0  0  0  0  0  0  0  0
  149.3940  138.2127  156.5570 O   0  0  0  0  0  0  0  0  0  0  0  0
  151.1670  139.4174  155.3838 C   0  0  1  0  0  0  0  0  0  0  0  0
  150.6076  140.5590  155.7891 F   0  0  0  0  0  0  0  0  0  0  0  0
  152.0626  142.6495  159.1818 C   0  0  0  0  0  0  0  0  0  0  0  0
  151.6803  143.3718  158.0272 C   0  0  0  0  0  0  0  0  0  0  0  0
  151.2110  144.6956  158.1318 C   0  0  0  0  0  0  0  0  0  0  0  0
  151.1195  145.3141  159.3922 C   0  0  0  0  0  0  0  0  0  0  0  0
  151.4977  144.6068  160.5482 C   0  0  0  0  0  0  0  0  0  0  0  0
  151.9658  143.2822  160.4458 C   0  0  0  0  0  0  0  0  0  0  0  0
  153.1070  138.8601  158.2523 H   0  0  0  0  0  0  0  0  0  0  0  0
  151.3570  138.8167  158.1245 H   0  0  0  0  0  0  0  0  0  0  0  0
  153.2898  139.3913  155.8136 H   0  0  0  0  0  0  0  0  0  0  0  0
  151.5186  136.8028  154.3589 H   0  0  0  0  0  0  0  0  0  0  0  0
  150.8878  136.2842  158.1128 H   0  0  0  0  0  0  0  0  0  0  0  0
  151.8435  132.0441  157.2773 H   0  0  0  0  0  0  0  0  0  0  0  0
  154.1333  131.9473  156.3326 H   0  0  0  0  0  0  0  0  0  0  0  0
  154.7832  130.0848  154.8172 H   0  0  0  0  0  0  0  0  0  0  0  0
  153.1256  128.3238  154.2302 H   0  0  0  0  0  0  0  0  0  0  0  0
  150.8330  128.4102  155.1668 H   0  0  0  0  0  0  0  0  0  0  0  0
  145.5912  131.4482  159.1300 H   0  0  0  0  0  0  0  0  0  0  0  0
  145.2794  130.2619  161.2834 H   0  0  0  0  0  0  0  0  0  0  0  0
  147.2403  129.3089  162.4818 H   0  0  0  0  0  0  0  0  0  0  0  0
  149.5249  129.5665  161.5287 H   0  0  0  0  0  0  0  0  0  0  0  0
  149.8500  130.7526  159.3786 H   0  0  0  0  0  0  0  0  0  0  0  0
  149.6795  132.9072  152.7647 H   0  0  0  0  0  0  0  0  0  0  0  0
  149.5914  138.1858  154.5203 H   0  0  0  0  0  0  0  0  0  0  0  0
  149.9195  138.4380  157.3096 H   0  0  0  0  0  0  0  0  0  0  0  0
  151.4908  139.5872  154.3559 H   0  0  0  0  0  0  0  0  0  0  0  0
  151.7399  142.9173  157.0487 H   0  0  0  0  0  0  0  0  0  0  0  0
  150.9200  145.2366  157.2436 H   0  0  0  0  0  0  0  0  0  0  0  0
  150.7597  146.3292  159.4722 H   0  0  0  0  0  0  0  0  0  0  0  0
  151.4278  145.0805  161.5162 H   0  0  0  0  0  0  0  0  0  0  0  0
  152.2471  142.7677  161.3531 H   0  0  0  0  0  0  0  0  0  0  0  0
  1  2  2  0  0  0  0
  2  3  1  0  0  0  0
  2 38  1  0  0  0  0
  3  4  1  0  0  0  0
  4  5  1  0  0  0  0
  4 44  1  0  0  0  0
  4 45  1  0  0  0  0
  5 36  1  0  0  0  0
  5  6  1  0  0  0  0
  5 46  1  0  0  0  0
  6  7  1  0  0  0  0
  7  8  1  0  0  0  0
  7 34  1  0  0  0  0
  7 47  1  0  0  0  0
  8 33  1  0  0  0  0
  8  9  1  0  0  0  0
  9 10  2  0  0  0  0
  9 48  1  0  0  0  0
 10 11  1  0  0  0  0
 11 33  2  0  0  0  0
 11 12  1  0  0  0  0
 12 13  1  0  0  0  0
 12 30  2  0  0  0  0
 13 14  1  0  0  0  0
 13 22  1  0  0  0  0
 14 15  2  0  0  0  0
 14 16  1  0  0  0  0
 16 21  1  0  0  0  0
 16 17  2  0  0  0  0
 17 18  1  0  0  0  0
 17 49  1  0  0  0  0
 18 19  2  0  0  0  0
 18 50  1  0  0  0  0
 19 20  1  0  0  0  0
 19 51  1  0  0  0  0
 20 21  2  0  0  0  0
 20 52  1  0  0  0  0
 21 53  1  0  0  0  0
 22 23  2  0  0  0  0
 22 24  1  0  0  0  0
 24 29  1  0  0  0  0
 24 25  2  0  0  0  0
 25 26  1  0  0  0  0
 25 54  1  0  0  0  0
 26 27  2  0  0  0  0
 26 55  1  0  0  0  0
 27 28  1  0  0  0  0
 27 56  1  0  0  0  0
 28 29  2  0  0  0  0
 28 57  1  0  0  0  0
 29 58  1  0  0  0  0
 30 31  1  0  0  0  0
 31 32  2  0  0  0  0
 31 59  1  0  0  0  0
 32 33  1  0  0  0  0
 34 35  1  0  0  0  0
 34 36  1  0  0  0  0
 34 60  1  0  0  0  0
 35 61  1  0  0  0  0
 36 37  1  0  0  0  0
 36 62  1  0  0  0  0
 38 43  1  0  0  0  0
 38 39  2  0  0  0  0
 39 40  1  0  0  0  0
 39 63  1  0  0  0  0
 40 41  2  0  0  0  0
 40 64  1  0  0  0  0
 41 42  1  0  0  0  0
 41 65  1  0  0  0  0
 42 43  2  0  0  0  0
 42 66  1  0  0  0  0
 43 67  1  0  0  0  0
M  END
> <s_m_source_file>
AV-unprocessed.smi

> <i_m_source_file_index>
33

> <i_lp_mmshare_version>
43012

> <i_f3d_flags>
0

> <s_epik_input>
W2NIXTFbY0hdW2NIXVtjSF1bY0hdYzFDKD1PKU9bQ0gyXVtDQEBIXTJPW0NASF0oW0NAQEhdKFtPSF0pW0NAQEhdMkYpbihbY0hdbjMpYyhjMzQpbltjSF1uYzROKEMoPU8pYzVbY0hdW2NIXVtjSF1bY0hdW2NIXTUpQyg9TyljNltjSF1bY0hdW2NIXVtjSF1bY0hdNg==

> <s_epik_cmdline>
J2VwaWtfcHl0aG9uJywgJy1waCcsICc3LjAnLCAnLXRuJywgJzgnLCAnLW1hJywgJzIwMCcsICctbWV0YWxfYmluZGluZycsICctaW1hZScsICc8aW5maWxlLm1hZT4nLCAnLW9tYWUnLCAnPG91dGZpbGUubWFlPic=

> <r_lp_tautomer_probability>
1

> <r_epik_Ionization_Penalty>
0.00067664

> <r_epik_Ionization_Penalty_Charging>
0

> <r_epik_Ionization_Penalty_Neutral>
0.00067664

> <r_epik_State_Penalty>
0.000428095

> <r_epik_Charging_Adjusted_Penalty>
0.000428095

> <i_epik_Tot_Q>
0

> <i_epik_Tot_abs_Q>
0

> <r_epik_Metal_State_Penalty>
-0

> <b_epik_Metal_Only>
0

> <s_epik_Chemistry_Notes>
This compound has an ester and may undergo hydrolysis at high or low pH. This compound contains an acetal/aminal-like group ( X-CH(R)-Y where X, Y are N, S, or O) that may be acid/base labile, releasing an aldehyde.

> <s_lp_Force_Field>
OPLS_2005

> <r_lp_Energy>
79.915

> <b_lp_Chiralities_Consistent>
1

> <s_lp_Variant>
AV-unprocessed.smi:33-10

> <Gold.Version>
5.8.1

> <Gold.Id.Protein>
6NUR|6NUR_protein|mol2

> <Gold.PLP.Fitness>
58.0447

> <Gold.PLP.PLP>
-58.1213

> <Gold.PLP.part.hbond>
-2.4296

> <Gold.PLP.part.metal>
0.0000

> <Gold.PLP.part.buried>
-3.3819

> <Gold.PLP.part.nonpolar>
-52.5821

> <Gold.PLP.part.repulsive>
1.3462

> <Gold.PLP.ligand.clash>
0.0000

> <Gold.PLP.ligand.torsion>
3.5851

> <Gold.PLP.Chemscore.Hbond>
0.9017

> <Gold.PLP.Chemscore.CHOScore>
0.0000

> <Gold.PLP.Chemscore.Metal>
0.0000

> <Gold.Chemscore.Hbonds>
donor molecule, donor type, donor heavy atom, donor atom, acceptor molecule, acceptor atom, score
      P1  H  6896  6907       L1    10  0.83

> <Gold.PLP.Chemscore.Internal.Correction>
4.3886

> <Gold.Rescore>
     Score         DG    S(hbond)    S(metal)    S(lipo)     H(rot)  DE(clash)    DE(int)     intcor
      9.40     -18.99       0.67        0.00     151.52       2.52       0.56       9.03       ----

> <Gold.Chemscore.Fitness>
9.3992

> <Gold.Chemscore.DG>
-18.9935

> <Gold.Chemscore.ZeroCoef>
-5.4800

> <Gold.Chemscore.Hbond>
0.6732

> <Gold.Chemscore.Metal>
0.0000

> <Gold.Chemscore.Lipo>
151.5224

> <Gold.Chemscore.Internal_Hbond>
0.0000

> <Gold.Chemscore.DEClash>
0.5636

> <Gold.Chemscore.DEInternal>
9.0307

> <Gold.Chemscore.Rot>
2.5247

> <Gold.Chemscore.Internal.Correction>
   9.000000E+99

> <Gold.Chemscore.Hbonds>
donor molecule, donor type, donor heavy atom, donor atom, acceptor molecule, acceptor atom, score
      P1  H  6896  6907       L1    10  0.46

> <Gold.Chemscore.Hbond.Weighted>
-2.2486

> <Gold.Chemscore.Metal.Weighted>
-0.0000

> <Gold.Chemscore.Lipo.Weighted>
-17.7281

> <Gold.Chemscore.Internal_Hbond.Weighted>
0.0000

> <Gold.Chemscore.DEClash.Weighted>
0.5636

> <Gold.Chemscore.DEInternal.Weighted>
9.0307

> <Gold.Chemscore.Rot.Weighted>
6.4633

> <Gold.Chemscore.Internal.Correction.Weighted>
   9.000000E+99

> <Gold.Protein.RotatedTorsions>
[ 6907 6896 6895 6894 ] final -104.64 input  -60.11 | X-H torsion
[ 7974 7965 7964 7962 ] final  -90.48 input  175.53 | X-H torsion
[ 8008 7997 7996 7995 ] final    3.53 input   59.86 | X-H torsion
[ 10167 10162 10161 10158 ] final  -93.31 input  -65.29 | X-H torsion
[ 10718 10713 10712 10709 ] final   -1.01 input   66.30 | X-H torsion
[ 10763 10752 10751 10750 ] final   98.83 input  -60.55 | X-H torsion
[ 11005 11000 10999 10996 ] final  177.05 input  -57.11 | X-H torsion

> <Gold.Protein.ActiveResidues>
 VAL166  LYS551  ARG553  GLY616  TRP617  ASP618  TYR619  PRO620  LYS621  CYS622 
 ASP623  PHE694  ASN695  SER759  ASP760  ASP761  ALA762  ILE779  LEU786  VAL792 
 PHE793  MET794  SER795  GLU796  ALA797  LYS798  CYS799  TRP800  GLU811  SER814 

> <Gold.Protein.RotatedAtoms>
  150.7297  134.0247  159.3712 H   0  0  0  0  0  0  0  0  0  0  0  0  # atno 6907 bound_to 6896
  151.8213  135.0648  160.0435 H   0  0  0  0  0  0  0  0  0  0  0  0  # atno 6908 bound_to 6896
  152.3001  133.5611  159.5649 H   0  0  0  0  0  0  0  0  0  0  0  0  # atno 6909 bound_to 6896
  145.4259  140.9553  143.2155 H   0  0  0  0  0  0  0  0  0  0  0  0  # atno 7974 bound_to 7965
  154.7048  140.2680  155.6684 H   0  0  0  0  0  0  0  0  0  0  0  0  # atno 8008 bound_to 7997
  156.2777  140.2765  156.1595 H   0  0  0  0  0  0  0  0  0  0  0  0  # atno 8009 bound_to 7997
  155.0714  140.0372  157.2600 H   0  0  0  0  0  0  0  0  0  0  0  0  # atno 8010 bound_to 7997
  140.3259  143.3022  151.9995 H   0  0  0  0  0  0  0  0  0  0  0  0  # atno 10167 bound_to 10162
  156.8119  130.5427  149.5708 H   0  0  0  0  0  0  0  0  0  0  0  0  # atno 10718 bound_to 10713
  153.2939  135.4134  155.1192 H   0  0  0  0  0  0  0  0  0  0  0  0  # atno 10763 bound_to 10752
  154.8529  135.3525  154.5943 H   0  0  0  0  0  0  0  0  0  0  0  0  # atno 10764 bound_to 10752
  153.6367  135.7058  153.5314 H   0  0  0  0  0  0  0  0  0  0  0  0  # atno 10765 bound_to 10752
  140.3798  134.6956  157.4444 H   0  0  0  0  0  0  0  0  0  0  0  0  # atno 11005 bound_to 11000
  144.8214  139.5784  143.6985 LP  0  0  0  0  0  0  0  0  0  0  0  0  # atno 17320 bound_to 7965
  146.2632  139.6459  142.9347 LP  0  0  0  0  0  0  0  0  0  0  0  0  # atno 17321 bound_to 7965
  139.4865  144.6274  151.7138 LP  0  0  0  0  0  0  0  0  0  0  0  0  # atno 17342 bound_to 10162
  140.5441  144.0531  150.6100 LP  0  0  0  0  0  0  0  0  0  0  0  0  # atno 17343 bound_to 10162
  156.1039  130.5990  150.9939 LP  0  0  0  0  0  0  0  0  0  0  0  0  # atno 17370 bound_to 10713
  157.6501  131.0898  150.8069 LP  0  0  0  0  0  0  0  0  0  0  0  0  # atno 17371 bound_to 10713
  140.0487  134.6162  155.8889 LP  0  0  0  0  0  0  0  0  0  0  0  0  # atno 17394 bound_to 11000
  141.1927  133.6576  156.5514 LP  0  0  0  0  0  0  0  0  0  0  0  0  # atno 17395 bound_to 11000

$$$$
