AV-unprocessed.smi:1952|AV-procd|sdf|7892|dock5
  -GOLD-   2272010 43D 1   1.00000     0.00000
 Structure written by MMmdl.
 39 40  0  0  0  0  0  0  0  0  3 V2000
  153.7132  142.2862  160.0770 C   0  0  0  0  0  0  0  0  0  0  0  0
  152.8078  142.6966  158.9669 C   0  0  0  0  0  0  0  0  0  0  0  0
  152.0132  141.9921  158.1071 C   0  0  0  0  0  0  0  0  0  0  0  0
  151.4325  143.0075  157.3016 C   0  0  0  0  0  0  0  0  0  0  0  0
  150.5221  142.6762  156.2640 N   0  0  0  0  0  0  0  0  0  0  0  0
  150.5109  141.5913  155.4692 C   0  0  0  0  0  0  0  0  0  0  0  0
  151.3630  140.7053  155.6065 O   0  0  0  0  0  0  0  0  0  0  0  0
  149.5015  141.6299  154.5555 N   0  5  0  0  0  0  0  0  0  0  0  0
  148.4367  140.6273  154.4217 C   0  0  1  0  0  0  0  0  0  0  0  0
  147.1283  141.3447  154.0621 C   0  0  0  0  0  0  0  0  0  0  0  0
  148.8180  139.5806  153.3462 C   0  0  0  0  0  0  0  0  0  0  0  0
  147.8075  138.4949  153.2311 N   0  3  0  0  0  0  0  0  0  0  0  0
  147.2788  138.0048  154.5290 C   0  0  0  0  0  0  0  0  0  0  0  0
  146.3469  136.8050  154.2954 C   0  0  0  0  0  0  0  0  0  0  0  0
  145.2925  137.1846  153.4182 O   0  0  0  0  0  0  0  0  0  0  0  0
  145.7791  137.5906  152.1441 C   0  0  0  0  0  0  0  0  0  0  0  0
  146.6959  138.8145  152.3056 C   0  0  0  0  0  0  0  0  0  0  0  0
  151.8311  144.2235  157.6453 N   0  0  0  0  0  0  0  0  0  0  0  0
  152.7163  144.0300  158.7126 O   0  0  0  0  0  0  0  0  0  0  0  0
  153.5392  141.2471  160.3569 H   0  0  0  0  0  0  0  0  0  0  0  0
  153.5509  142.9054  160.9594 H   0  0  0  0  0  0  0  0  0  0  0  0
  154.7572  142.3862  159.7795 H   0  0  0  0  0  0  0  0  0  0  0  0
  151.8741  140.9221  158.0606 H   0  0  0  0  0  0  0  0  0  0  0  0
  149.7827  143.3442  156.1034 H   0  0  0  0  0  0  0  0  0  0  0  0
  148.2631  140.0991  155.3604 H   0  0  0  0  0  0  0  0  0  0  0  0
  146.3071  140.6341  153.9644 H   0  0  0  0  0  0  0  0  0  0  0  0
  147.2134  141.8845  153.1181 H   0  0  0  0  0  0  0  0  0  0  0  0
  146.8478  142.0630  154.8334 H   0  0  0  0  0  0  0  0  0  0  0  0
  148.9526  140.0584  152.3747 H   0  0  0  0  0  0  0  0  0  0  0  0
  149.7908  139.1587  153.6048 H   0  0  0  0  0  0  0  0  0  0  0  0
  148.0983  137.7073  155.1840 H   0  0  0  0  0  0  0  0  0  0  0  0
  146.7394  138.8075  155.0340 H   0  0  0  0  0  0  0  0  0  0  0  0
  146.8977  135.9595  153.8794 H   0  0  0  0  0  0  0  0  0  0  0  0
  145.9181  136.4723  155.2409 H   0  0  0  0  0  0  0  0  0  0  0  0
  146.3119  136.7669  151.6658 H   0  0  0  0  0  0  0  0  0  0  0  0
  144.9320  137.8373  151.5038 H   0  0  0  0  0  0  0  0  0  0  0  0
  146.1314  139.6665  152.6874 H   0  0  0  0  0  0  0  0  0  0  0  0
  147.0964  139.0995  151.3320 H   0  0  0  0  0  0  0  0  0  0  0  0
  148.3047  137.7222  152.8086 H   0  0  0  0  0  0  0  0  0  0  0  0
  1  2  1  0  0  0  0
  1 20  1  0  0  0  0
  1 21  1  0  0  0  0
  1 22  1  0  0  0  0
  2 19  1  0  0  0  0
  2  3  2  0  0  0  0
  3  4  1  0  0  0  0
  3 23  1  0  0  0  0
  4  5  1  0  0  0  0
  4 18  2  0  0  0  0
  5  6  1  0  0  0  0
  5 24  1  0  0  0  0
  6  7  2  0  0  0  0
  6  8  1  0  0  0  0
  8  9  1  0  0  0  0
  9 10  1  0  0  0  0
  9 11  1  0  0  0  0
  9 25  1  0  0  0  0
 10 26  1  0  0  0  0
 10 27  1  0  0  0  0
 10 28  1  0  0  0  0
 11 12  1  0  0  0  0
 11 29  1  0  0  0  0
 11 30  1  0  0  0  0
 12 17  1  0  0  0  0
 12 13  1  0  0  0  0
 12 39  1  0  0  0  0
 13 14  1  0  0  0  0
 13 31  1  0  0  0  0
 13 32  1  0  0  0  0
 14 15  1  0  0  0  0
 14 33  1  0  0  0  0
 14 34  1  0  0  0  0
 15 16  1  0  0  0  0
 16 17  1  0  0  0  0
 16 35  1  0  0  0  0
 16 36  1  0  0  0  0
 17 37  1  0  0  0  0
 17 38  1  0  0  0  0
 18 19  1  0  0  0  0
M  CHG  1   8  -1
M  CHG  1  12   1
M  END
> <s_m_source_file>
AV-unprocessed.smi

> <i_m_source_file_index>
1952

> <i_lp_mmshare_version>
43012

> <i_f3d_flags>
0

> <s_epik_input>
W0NIM11jMVtjSF1jKG5vMSlbTkhdQyg9TylbTkhdW0NASF0oW0NIM10pW0NIMl1OMltDSDJdW0NIMl1PW0NIMl1bQ0gyXTI=

> <s_epik_cmdline>
J2VwaWtfcHl0aG9uJywgJy1waCcsICc3LjAnLCAnLXRuJywgJzgnLCAnLW1hJywgJzIwMCcsICctbWV0YWxfYmluZGluZycsICctaW1hZScsICc8aW5maWxlLm1hZT4nLCAnLW9tYWUnLCAnPG91dGZpbGUubWFlPic=

> <r_epik_Ionization_Penalty>
6.76648

> <r_epik_Ionization_Penalty_Charging>
6.76648

> <r_epik_Ionization_Penalty_Neutral>
5.6208e-06

> <r_epik_State_Penalty>
7.45901

> <r_epik_Charging_Adjusted_Penalty>
14.2255

> <i_epik_Tot_Q>
0

> <i_epik_Tot_abs_Q>
2

> <r_epik_Metal_State_Penalty>
3.38802

> <b_epik_Metal_Only>
1

> <s_lp_Force_Field>
OPLS_2005

> <r_lp_Energy>
9.12096

> <b_lp_Chiralities_Consistent>
1

> <s_lp_Variant>
AV-unprocessed.smi:1952-10

> <Gold.Version>
5.8.1

> <Gold.Id.Protein>
6NUR|6NUR_protein|mol2

> <Gold.PLP.Fitness>
39.6218

> <Gold.PLP.PLP>
-32.0408

> <Gold.PLP.part.hbond>
-5.8520

> <Gold.PLP.part.metal>
0.0000

> <Gold.PLP.part.buried>
3.6643

> <Gold.PLP.part.nonpolar>
-29.1167

> <Gold.PLP.part.repulsive>
0.6766

> <Gold.PLP.ligand.clash>
0.0000

> <Gold.PLP.ligand.torsion>
1.3618

> <Gold.PLP.Chemscore.Hbond>
3.3758

> <Gold.PLP.Chemscore.CHOScore>
0.0000

> <Gold.PLP.Chemscore.Metal>
0.0000

> <Gold.Chemscore.Hbonds>
donor molecule, donor type, donor heavy atom, donor atom, acceptor molecule, acceptor atom, score
      L1  H     5    24       P1  8028  1.00
      L1  H    12    39       P1  7948  2.00
      P1  H  7989  7998       L1     7  0.15
      P1  H  8011  8017       L1     8  0.08

> <Gold.PLP.Chemscore.Internal.Correction>
0.1773

> <Gold.Rescore>
     Score         DG    S(hbond)    S(metal)    S(lipo)     H(rot)  DE(clash)    DE(int)     intcor
     11.94     -16.34       1.92        0.00      72.46       1.58       1.61       2.79       ----

> <Gold.Chemscore.Fitness>
11.9416

> <Gold.Chemscore.DG>
-16.3382

> <Gold.Chemscore.ZeroCoef>
-5.4800

> <Gold.Chemscore.Hbond>
1.9235

> <Gold.Chemscore.Metal>
0.0000

> <Gold.Chemscore.Lipo>
72.4593

> <Gold.Chemscore.Internal_Hbond>
0.0000

> <Gold.Chemscore.DEClash>
1.6114

> <Gold.Chemscore.DEInternal>
2.7852

> <Gold.Chemscore.Rot>
1.5798

> <Gold.Chemscore.Internal.Correction>
   9.000000E+99

> <Gold.Chemscore.Hbonds>
donor molecule, donor type, donor heavy atom, donor atom, acceptor molecule, acceptor atom, score
      L1  H     5    24       P1  8028  1.00
      L1  H    12    39       P1  7948  1.00
      P1  H  8011  8017       L1     8  0.04

> <Gold.Chemscore.Hbond.Weighted>
-6.4246

> <Gold.Chemscore.Metal.Weighted>
-0.0000

> <Gold.Chemscore.Lipo.Weighted>
-8.4777

> <Gold.Chemscore.Internal_Hbond.Weighted>
0.0000

> <Gold.Chemscore.DEClash.Weighted>
1.6114

> <Gold.Chemscore.DEInternal.Weighted>
2.7852

> <Gold.Chemscore.Rot.Weighted>
4.0442

> <Gold.Chemscore.Internal.Correction.Weighted>
   9.000000E+99

> <Gold.Protein.RotatedTorsions>
[ 6907 6896 6895 6894 ] final -125.10 input  -60.11 | X-H torsion
[ 7974 7965 7964 7962 ] final   95.95 input  175.53 | X-H torsion
[ 8008 7997 7996 7995 ] final  148.03 input   59.86 | X-H torsion
[ 10167 10162 10161 10158 ] final  123.92 input  -65.29 | X-H torsion
[ 10718 10713 10712 10709 ] final  142.23 input   66.30 | X-H torsion
[ 10763 10752 10751 10750 ] final   52.96 input  -60.55 | X-H torsion
[ 11005 11000 10999 10996 ] final   68.18 input  -57.11 | X-H torsion

> <Gold.Protein.ActiveResidues>
 VAL166  LYS551  ARG553  GLY616  TRP617  ASP618  TYR619  PRO620  LYS621  CYS622 
 ASP623  PHE694  ASN695  SER759  ASP760  ASP761  ALA762  ILE779  LEU786  VAL792 
 PHE793  MET794  SER795  GLU796  ALA797  LYS798  CYS799  TRP800  GLU811  SER814 

> <Gold.Protein.RotatedAtoms>
  150.8833  133.7342  159.2925 H   0  0  0  0  0  0  0  0  0  0  0  0  # atno 6907 bound_to 6896
  151.4916  135.1056  159.9814 H   0  0  0  0  0  0  0  0  0  0  0  0  # atno 6908 bound_to 6896
  152.4774  133.8125  159.7066 H   0  0  0  0  0  0  0  0  0  0  0  0  # atno 6909 bound_to 6896
  145.4454  139.2297  143.3069 H   0  0  0  0  0  0  0  0  0  0  0  0  # atno 7974 bound_to 7965
  156.2805  140.2139  156.5633 H   0  0  0  0  0  0  0  0  0  0  0  0  # atno 8008 bound_to 7997
  154.7195  140.0505  157.0649 H   0  0  0  0  0  0  0  0  0  0  0  0  # atno 8009 bound_to 7997
  155.0497  140.3155  155.4699 H   0  0  0  0  0  0  0  0  0  0  0  0  # atno 8010 bound_to 7997
  139.5771  144.6969  151.3624 H   0  0  0  0  0  0  0  0  0  0  0  0  # atno 10167 bound_to 10162
  157.3829  131.0994  151.0721 H   0  0  0  0  0  0  0  0  0  0  0  0  # atno 10718 bound_to 10713
  152.9792  135.5795  154.4663 H   0  0  0  0  0  0  0  0  0  0  0  0  # atno 10763 bound_to 10752
  154.4232  135.2772  155.1963 H   0  0  0  0  0  0  0  0  0  0  0  0  # atno 10764 bound_to 10752
  154.3703  135.6169  153.5790 H   0  0  0  0  0  0  0  0  0  0  0  0  # atno 10765 bound_to 10752
  139.9726  134.6874  156.0416 H   0  0  0  0  0  0  0  0  0  0  0  0  # atno 11005 bound_to 11000
  146.2534  140.5207  142.8884 LP  0  0  0  0  0  0  0  0  0  0  0  0  # atno 17320 bound_to 7965
  144.8095  140.6360  143.6424 LP  0  0  0  0  0  0  0  0  0  0  0  0  # atno 17321 bound_to 7965
  140.7053  143.7530  150.7471 LP  0  0  0  0  0  0  0  0  0  0  0  0  # atno 17342 bound_to 10162
  140.1052  143.4750  152.2402 LP  0  0  0  0  0  0  0  0  0  0  0  0  # atno 17343 bound_to 10162
  157.1783  130.6298  149.5663 LP  0  0  0  0  0  0  0  0  0  0  0  0  # atno 17370 bound_to 10713
  155.9780  130.4762  150.6628 LP  0  0  0  0  0  0  0  0  0  0  0  0  # atno 17371 bound_to 10713
  141.1405  133.6566  156.3717 LP  0  0  0  0  0  0  0  0  0  0  0  0  # atno 17394 bound_to 11000
  140.5261  134.6258  157.5334 LP  0  0  0  0  0  0  0  0  0  0  0  0  # atno 17395 bound_to 11000

$$$$
