AV-unprocessed.smi:54|AV-procd|sdf|542|dock9
  -GOLD-   2262016433D 1   1.00000     0.00000
 Structure written by MMmdl.
 44 46  0  0  0  0  0  0  0  0  1 V2000
  143.7108  132.6074  149.9262 C   0  0  0  0  0  0  0  0  0  0  0  0
  145.2042  132.8899  150.1563 C   0  0  0  0  0  0  0  0  0  0  0  0
  145.9322  131.6452  150.6890 C   0  0  0  0  0  0  0  0  0  0  0  0
  145.3851  134.0755  151.1110 C   0  0  0  0  0  0  0  0  0  0  0  0
  145.8516  135.1517  150.7349 O   0  0  0  0  0  0  0  0  0  0  0  0
  144.9806  133.8355  152.4851 N   0  0  0  0  0  0  0  0  0  0  0  0
  145.0536  134.6991  153.5244 C   0  0  0  0  0  0  0  0  0  0  0  0
  145.7972  135.7961  153.5023 N   0  0  0  0  0  0  0  0  0  0  0  0
  145.7489  136.5394  154.6484 C   0  0  0  0  0  0  0  0  0  0  0  0
  145.0086  136.2621  155.7780 C   0  0  0  0  0  0  0  0  0  0  0  0
  145.2116  137.2488  156.7360 N   0  0  0  0  0  0  0  0  0  0  0  0
  146.0481  138.0738  156.1700 C   0  0  0  0  0  0  0  0  0  0  0  0
  146.4377  137.7058  154.9023 N   0  0  0  0  0  0  0  0  0  0  0  0
  147.3575  138.3983  153.9430 C   0  0  1  0  0  0  0  0  0  0  0  0
  146.7928  139.6310  153.6101 O   0  0  0  0  0  0  0  0  0  0  0  0
  147.3401  140.6428  154.4485 C   0  0  2  0  0  0  0  0  0  0  0  0
  147.0771  142.0464  153.8764 C   0  0  0  0  0  0  0  0  0  0  0  0
  148.1733  142.8911  154.1541 O   0  0  0  0  0  0  0  0  0  0  0  0
  148.8117  140.2188  154.5261 C   0  0  2  0  0  0  0  0  0  0  0  0
  149.5126  140.6431  153.3678 O   0  0  0  0  0  0  0  0  0  0  0  0
  148.7065  138.6969  154.6273 C   0  0  2  0  0  0  0  0  0  0  0  0
  149.8014  138.0286  154.0288 O   0  0  0  0  0  0  0  0  0  0  0  0
  144.1866  135.0867  155.8125 C   0  0  0  0  0  0  0  0  0  0  0  0
  143.4644  134.6881  156.7237 O   0  0  0  0  0  0  0  0  0  0  0  0
  144.2700  134.3487  154.6242 N   0  0  0  0  0  0  0  0  0  0  0  0
  147.4133  137.7350  153.0788 H   0  0  0  0  0  0  0  0  0  0  0  0
  146.9059  140.5592  155.4471 H   0  0  0  0  0  0  0  0  0  0  0  0
  149.3091  140.6446  155.3982 H   0  0  0  0  0  0  0  0  0  0  0  0
  148.6534  138.4107  155.6791 H   0  0  0  0  0  0  0  0  0  0  0  0
  143.1937  133.4905  149.5485 H   0  0  0  0  0  0  0  0  0  0  0  0
  143.2136  132.2986  150.8469 H   0  0  0  0  0  0  0  0  0  0  0  0
  143.5737  131.8112  149.1942 H   0  0  0  0  0  0  0  0  0  0  0  0
  145.6497  133.1546  149.1962 H   0  0  0  0  0  0  0  0  0  0  0  0
  146.9898  131.8474  150.8633 H   0  0  0  0  0  0  0  0  0  0  0  0
  145.8706  130.8237  149.9749 H   0  0  0  0  0  0  0  0  0  0  0  0
  145.4998  131.2976  151.6283 H   0  0  0  0  0  0  0  0  0  0  0  0
  144.6387  132.9082  152.6893 H   0  0  0  0  0  0  0  0  0  0  0  0
  146.3992  138.9669  156.6663 H   0  0  0  0  0  0  0  0  0  0  0  0
  146.9696  141.9956  152.7926 H   0  0  0  0  0  0  0  0  0  0  0  0
  146.1584  142.4770  154.2761 H   0  0  0  0  0  0  0  0  0  0  0  0
  148.2667  142.9595  155.0921 H   0  0  0  0  0  0  0  0  0  0  0  0
  149.2776  140.0706  152.6531 H   0  0  0  0  0  0  0  0  0  0  0  0
  149.4989  137.6078  153.2375 H   0  0  0  0  0  0  0  0  0  0  0  0
  143.7205  133.5031  154.5798 H   0  0  0  0  0  0  0  0  0  0  0  0
  1  2  1  0  0  0  0
  1 30  1  0  0  0  0
  1 31  1  0  0  0  0
  1 32  1  0  0  0  0
  2  3  1  0  0  0  0
  2  4  1  0  0  0  0
  2 33  1  0  0  0  0
  3 34  1  0  0  0  0
  3 35  1  0  0  0  0
  3 36  1  0  0  0  0
  4  5  2  0  0  0  0
  4  6  1  0  0  0  0
  6 37  1  0  0  0  0
  6  7  1  0  0  0  0
  7 25  1  0  0  0  0
  7  8  2  0  0  0  0
  8  9  1  0  0  0  0
  9 13  1  0  0  0  0
  9 10  2  0  0  0  0
 10 11  1  0  0  0  0
 10 23  1  0  0  0  0
 11 12  2  0  0  0  0
 12 13  1  0  0  0  0
 12 38  1  0  0  0  0
 13 14  1  0  0  0  0
 14 26  1  0  0  0  0
 14 21  1  0  0  0  0
 14 15  1  0  0  0  0
 15 16  1  0  0  0  0
 16 27  1  0  0  0  0
 16 17  1  0  0  0  0
 16 19  1  0  0  0  0
 17 18  1  0  0  0  0
 17 39  1  0  0  0  0
 17 40  1  0  0  0  0
 18 41  1  0  0  0  0
 19 28  1  0  0  0  0
 19 20  1  0  0  0  0
 19 21  1  0  0  0  0
 20 42  1  0  0  0  0
 21 29  1  0  0  0  0
 21 22  1  0  0  0  0
 22 43  1  0  0  0  0
 23 24  2  0  0  0  0
 23 25  1  0  0  0  0
 25 44  1  0  0  0  0
M  END
> <s_m_source_file>
AV-unprocessed.smi

> <i_m_source_file_index>
54

> <i_lp_mmshare_version>
43012

> <i_f3d_flags>
0

> <s_epik_input>
W0NIM11bQ0hdKFtDSDNdKUMoPU8pW05IXWMobjEpW25IXWMoPU8pYyhjMTIpbltjSF1uMltDQEBIXTNPW0NASF0oW0NIMl1bT0hdKVtDQEBIXShbT0hdKVtDQEhdM1tPSF0=

> <s_epik_cmdline>
J2VwaWtfcHl0aG9uJywgJy1waCcsICc3LjAnLCAnLXRuJywgJzgnLCAnLW1hJywgJzIwMCcsICctbWV0YWxfYmluZGluZycsICctaW1hZScsICc8aW5maWxlLm1hZT4nLCAnLW9tYWUnLCAnPG91dGZpbGUubWFlPic=

> <r_lp_tautomer_probability>
0.85571

> <r_epik_Ionization_Penalty>
0.0316551

> <r_epik_Ionization_Penalty_Charging>
0.0316043

> <r_epik_Ionization_Penalty_Neutral>
5.07097e-05

> <r_epik_State_Penalty>
3.15494e-07

> <r_epik_Charging_Adjusted_Penalty>
0.0316047

> <i_epik_Tot_Q>
0

> <i_epik_Tot_abs_Q>
0

> <r_epik_Metal_State_Penalty>
0.421206

> <b_epik_Metal_Only>
0

> <s_epik_Chemistry_Notes>
This compound contains an acetal/aminal-like group ( X-CH(R)-Y where X, Y are N, S, or O) that may be acid/base labile, releasing an aldehyde.

> <s_lp_Force_Field>
OPLS_2005

> <r_lp_Energy>
43.5631

> <b_lp_Chiralities_Consistent>
1

> <s_lp_Variant>
AV-unprocessed.smi:54-14

> <Gold.Version>
5.8.1

> <Gold.Id.Protein>
6NUR|6NUR_protein|mol2

> <Gold.PLP.Fitness>
43.8770

> <Gold.PLP.PLP>
-29.9054

> <Gold.PLP.part.hbond>
-7.4769

> <Gold.PLP.part.metal>
0.0000

> <Gold.PLP.part.buried>
-4.9950

> <Gold.PLP.part.nonpolar>
-16.9276

> <Gold.PLP.part.repulsive>
0.6124

> <Gold.PLP.ligand.clash>
0.0000

> <Gold.PLP.ligand.torsion>
0.6641

> <Gold.PLP.Chemscore.Hbond>
5.0850

> <Gold.PLP.Chemscore.CHOScore>
0.0000

> <Gold.PLP.Chemscore.Metal>
0.0000

> <Gold.Chemscore.Hbonds>
donor molecule, donor type, donor heavy atom, donor atom, acceptor molecule, acceptor atom, score
      L1  H    18    41       P1  8028  0.24
      L1  H    20    42       P1  7957  0.68
      L1  H    22    43       P1  7948  1.00
      L1  H    25    44       P1 10957  0.98
      P1  H  7989  7998       L1    20  0.29
      P1  H  8011  8017       L1    20  0.91
      P1  H  8022  8030       L1    18  0.99

> <Gold.PLP.Chemscore.Internal.Correction>
0.0449

> <Gold.Rescore>
     Score         DG    S(hbond)    S(metal)    S(lipo)     H(rot)  DE(clash)    DE(int)     intcor
     11.93     -13.73       3.73        0.00      52.73       4.05       0.08       1.72       ----

> <Gold.Chemscore.Fitness>
11.9260

> <Gold.Chemscore.DG>
-13.7271

> <Gold.Chemscore.ZeroCoef>
-5.4800

> <Gold.Chemscore.Hbond>
3.7256

> <Gold.Chemscore.Metal>
0.0000

> <Gold.Chemscore.Lipo>
52.7330

> <Gold.Chemscore.Internal_Hbond>
0.0000

> <Gold.Chemscore.DEClash>
0.0774

> <Gold.Chemscore.DEInternal>
1.7236

> <Gold.Chemscore.Rot>
4.0493

> <Gold.Chemscore.Internal.Correction>
   9.000000E+99

> <Gold.Chemscore.Hbonds>
donor molecule, donor type, donor heavy atom, donor atom, acceptor molecule, acceptor atom, score
      L1  H    18    41       P1  8028  0.24
      L1  H    20    42       P1  7957  0.63
      L1  H    22    43       P1  7948  0.88
      L1  H    25    44       P1 10957  0.91
      P1  H  7989  7998       L1    20  0.20
      P1  H  8011  8017       L1    20  0.22
      P1  H  8022  8030       L1    18  0.28

> <Gold.Chemscore.Hbond.Weighted>
-12.4436

> <Gold.Chemscore.Metal.Weighted>
-0.0000

> <Gold.Chemscore.Lipo.Weighted>
-6.1698

> <Gold.Chemscore.Internal_Hbond.Weighted>
0.0000

> <Gold.Chemscore.DEClash.Weighted>
0.0774

> <Gold.Chemscore.DEInternal.Weighted>
1.7236

> <Gold.Chemscore.Rot.Weighted>
10.3662

> <Gold.Chemscore.Internal.Correction.Weighted>
   9.000000E+99

> <Gold.Protein.RotatedTorsions>
[ 6907 6896 6895 6894 ] final   87.90 input  -60.11 | X-H torsion
[ 7974 7965 7964 7962 ] final  -92.28 input  175.53 | X-H torsion
[ 8008 7997 7996 7995 ] final -146.78 input   59.86 | X-H torsion
[ 10167 10162 10161 10158 ] final   89.08 input  -65.29 | X-H torsion
[ 10718 10713 10712 10709 ] final -162.87 input   66.30 | X-H torsion
[ 10763 10752 10751 10750 ] final   17.15 input  -60.55 | X-H torsion
[ 11005 11000 10999 10996 ] final   68.82 input  -57.11 | X-H torsion

> <Gold.Protein.ActiveResidues>
 VAL166  LYS551  ARG553  GLY616  TRP617  ASP618  TYR619  PRO620  LYS621  CYS622 
 ASP623  PHE694  ASN695  SER759  ASP760  ASP761  ALA762  ILE779  LEU786  VAL792 
 PHE793  MET794  SER795  GLU796  ALA797  LYS798  CYS799  TRP800  GLU811  SER814 

> <Gold.Protein.RotatedAtoms>
  152.5418  134.2205  159.8785 H   0  0  0  0  0  0  0  0  0  0  0  0  # atno 6907 bound_to 6896
  151.2183  133.4510  159.2607 H   0  0  0  0  0  0  0  0  0  0  0  0  # atno 6908 bound_to 6896
  151.0830  134.9883  159.8421 H   0  0  0  0  0  0  0  0  0  0  0  0  # atno 6909 bound_to 6896
  145.4019  140.9538  143.2282 H   0  0  0  0  0  0  0  0  0  0  0  0  # atno 7974 bound_to 7965
  155.5649  140.0629  157.2820 H   0  0  0  0  0  0  0  0  0  0  0  0  # atno 8008 bound_to 7997
  154.4379  140.1879  156.0865 H   0  0  0  0  0  0  0  0  0  0  0  0  # atno 8009 bound_to 7997
  156.0420  140.3294  155.7258 H   0  0  0  0  0  0  0  0  0  0  0  0  # atno 8010 bound_to 7997
  139.8609  144.6544  150.9060 H   0  0  0  0  0  0  0  0  0  0  0  0  # atno 10167 bound_to 10162
  156.6165  130.8872  151.2948 H   0  0  0  0  0  0  0  0  0  0  0  0  # atno 10718 bound_to 10713
  153.1365  135.6751  153.9095 H   0  0  0  0  0  0  0  0  0  0  0  0  # atno 10763 bound_to 10752
  153.8565  135.3086  155.3437 H   0  0  0  0  0  0  0  0  0  0  0  0  # atno 10764 bound_to 10752
  154.7752  135.4918  153.9811 H   0  0  0  0  0  0  0  0  0  0  0  0  # atno 10765 bound_to 10752
  139.9689  134.6933  156.0487 H   0  0  0  0  0  0  0  0  0  0  0  0  # atno 11005 bound_to 11000
  144.8368  139.5537  143.6918 LP  0  0  0  0  0  0  0  0  0  0  0  0  # atno 17320 bound_to 7965
  146.2747  139.6724  142.9271 LP  0  0  0  0  0  0  0  0  0  0  0  0  # atno 17321 bound_to 7965
  140.7775  143.3745  151.1588 LP  0  0  0  0  0  0  0  0  0  0  0  0  # atno 17342 bound_to 10162
  139.7375  143.8976  152.3039 LP  0  0  0  0  0  0  0  0  0  0  0  0  # atno 17343 bound_to 10162
  157.7239  130.9596  150.1554 LP  0  0  0  0  0  0  0  0  0  0  0  0  # atno 17370 bound_to 10713
  156.2346  130.3685  149.8406 LP  0  0  0  0  0  0  0  0  0  0  0  0  # atno 17371 bound_to 10713
  141.1369  133.6573  156.3619 LP  0  0  0  0  0  0  0  0  0  0  0  0  # atno 17394 bound_to 11000
  140.5336  134.6189  157.5358 LP  0  0  0  0  0  0  0  0  0  0  0  0  # atno 17395 bound_to 11000

$$$$
