#       Name:                AV-unprocessed.smi:1226
#       Creating user name   scv26
#       Creation time:       Fri Mar 27 04:21:23 2020


#       File generated by GOLD software.
#

@<TRIPOS>MOLECULE
AV-unprocessed.smi:1226
    42    43     1
SMALL
NO_CHARGES


@<TRIPOS>ATOM
      1 ****        -1.8571   6.3524  -0.9195 C.3            1 S1                 0.0000
      2 ****        -1.7975   5.2974   0.1316 C.2            1 S1                 0.0000
      3 ****        -1.2590   4.0909  -0.0626 N.2            1 S1                 0.0000
      4 ****        -1.3246   3.2816   1.0759 C.2            1 S1                 0.0000
      5 ****        -0.7606   1.8938   1.0391 C.3            1 S1                 0.0000
      6 ****         0.7734   1.8877   1.1476 C.3            1 S1                 0.0000
      7 ****         1.3084   0.5311   1.1498 N.am           1 S1                 0.0000
      8 ****         1.4886  -0.2236   0.0572 C.2            1 S1                 0.0000
      9 ****         1.2246   0.1443  -1.0875 O.2            1 S1                 0.0000
     10 ****         1.9837  -1.4305   0.3626 N.am           1 S1                 0.0000
     11 ****         2.2658  -2.4863  -0.6037 C.3            1 S1                 0.0000
     12 ****         0.9850  -3.1982  -1.0739 C.3            1 S1                 0.0000
     13 ****         0.1686  -3.8555   0.0403 C.3            1 S1                 0.0000
     14 ****        -0.5504  -4.9971  -0.6633 C.3            1 S1                 0.0000
     15 ****         0.1345  -5.0898  -2.0296 C.3            1 S1                 0.0000
     16 ****         1.3074  -4.2981  -1.9084 O.3            1 S1                 0.0000
     17 ****        -1.9283   3.8982   2.1436 C.2            1 S1                 0.0000
     18 ****        -2.4354   5.5194   1.7560 S.3            1 S1                 0.0000
     19 ****        -1.2368   6.0788  -1.7736 H              1 S1                 0.0000
     20 ****        -1.4987   7.3002  -0.5177 H              1 S1                 0.0000
     21 ****        -2.8845   6.4808  -1.2598 H              1 S1                 0.0000
     22 ****        -1.1833   1.3002   1.8507 H              1 S1                 0.0000
     23 ****        -1.0672   1.3983   0.1170 H              1 S1                 0.0000
     24 ****         1.2184   2.4624   0.3334 H              1 S1                 0.0000
     25 ****         1.0808   2.3731   2.0743 H              1 S1                 0.0000
     26 ****         1.5550   0.1394   2.0469 H              1 S1                 0.0000
     27 ****         2.1694  -1.6395   1.3325 H              1 S1                 0.0000
     28 ****         2.8055  -2.0762  -1.4589 H              1 S1                 0.0000
     29 ****         2.9371  -3.2040  -0.1315 H              1 S1                 0.0000
     30 ****         0.3531  -2.5102  -1.6390 H              1 S1                 0.0000
     31 ****         0.8305  -4.2600   0.8072 H              1 S1                 0.0000
     32 ****        -0.5160  -3.1567   0.5222 H              1 S1                 0.0000
     33 ****        -0.4429  -5.9243  -0.0992 H              1 S1                 0.0000
     34 ****        -1.6161  -4.7955  -0.7768 H              1 S1                 0.0000
     35 ****         0.3771  -6.1153  -2.3091 H              1 S1                 0.0000
     36 ****        -0.5033  -4.6669  -2.8072 H              1 S1                 0.0000
     37 ****        -2.1042   3.4992   3.1316 H              1 S1                 0.0000
     38 ****        -0.8529   3.7979  -0.9282 LP             1 S1                 0.0000
     39 ****         0.8508   1.0583  -1.2452 LP             1 S1                 0.0000
     40 ****         1.3839  -0.4709  -1.8596 LP             1 S1                 0.0000
     41 ****         2.0432  -4.8362  -1.4973 LP             1 S1                 0.0000
     42 ****         1.5956  -3.9724  -2.8088 LP             1 S1                 0.0000
@<TRIPOS>BOND
    1    1    2 1     
    2    1   19 1     
    3    1   20 1     
    4    1   21 1     
    5    2   18 1     
    6    2    3 2     
    7    3    4 1     
    8    4    5 1     
    9    4   17 2     
   10    5    6 1     
   11    5   22 1     
   12    5   23 1     
   13    6    7 1     
   14    6   24 1     
   15    6   25 1     
   16    7    8 am    
   17    7   26 1     
   18    8    9 2     
   19    8   10 am    
   20   10   11 1     
   21   10   27 1     
   22   11   12 1     
   23   11   28 1     
   24   11   29 1     
   25   12   16 1     
   26   12   13 1     
   27   12   30 1     
   28   13   14 1     
   29   13   31 1     
   30   13   32 1     
   31   14   15 1     
   32   14   33 1     
   33   14   34 1     
   34   15   16 1     
   35   15   35 1     
   36   15   36 1     
   37   17   18 1     
   38   17   37 1     
   39    3   38 1     
   40    9   39 1     
   41    9   40 1     
   42   16   41 1     
   43   16   42 1     
@<TRIPOS>SUBSTRUCTURE
      1 S1             1
@<TRIPOS>SET
LONE_PAIRS      STATIC     ATOMS    <user>   **** ""
5 38 39 40 41 42
DONOR_HYDROGENS      STATIC     ATOMS    <user>   **** ""
2 26 27
ATOM$BLUE        STATIC     ATOMS    COLORGROUP SYSTEM
5 38 39 40 41 42
ATOM$RED        STATIC     ATOMS    COLORGROUP SYSTEM
2 26 27
