AV-unprocessed.smi:1633|AV-procd|sdf|6535|dock3
  -GOLD-   22720 7213D 1   1.00000     0.00000
 Structure written by MMmdl.
 52 54  0  0  0  0  0  0  0  0  3 V2000
  147.9770  133.2251  152.5389 C   0  0  0  0  0  0  0  0  0  0  0  0
  148.8502  132.7964  153.7201 C   0  0  0  0  0  0  0  0  0  0  0  0
  149.4449  131.7219  153.6395 O   0  0  0  0  0  0  0  0  0  0  0  0
  148.9414  133.6022  154.8055 N   0  0  0  0  0  0  0  0  0  0  0  0
  148.3284  134.9276  154.9383 C   0  0  0  0  0  0  0  0  0  0  0  0
  149.4374  135.9945  155.0029 C   0  0  0  0  0  0  0  0  0  0  0  0
  150.4077  135.7067  156.0960 N   0  3  0  0  0  0  0  0  0  0  0  0
  151.5018  136.7066  156.2017 C   0  0  0  0  0  0  0  0  0  0  0  0
  151.0078  138.1176  156.5950 C   0  0  1  0  0  0  0  0  0  0  0  0
  150.8882  138.1939  158.0012 O   0  0  0  0  0  0  0  0  0  0  0  0
  151.9605  139.2501  156.1609 C   0  0  0  0  0  0  0  0  0  0  0  0
  151.5009  140.5840  156.5732 N   0  0  0  0  0  0  0  0  0  0  0  0
  150.6996  141.4650  155.9142 C   0  0  0  0  0  0  0  0  0  0  0  0
  150.5531  142.5610  156.7084 N   0  3  0  0  0  0  0  0  0  0  0  0
  151.2654  142.3760  157.8951 C   0  0  0  0  0  0  0  0  0  0  0  0
  151.4186  143.2027  159.0016 C   0  0  0  0  0  0  0  0  0  0  0  0
  152.2184  142.7200  160.0619 C   0  0  0  0  0  0  0  0  0  0  0  0
  152.4081  143.5997  161.2858 C   0  0  0  0  0  0  0  0  0  0  0  0
  152.8340  141.4439  159.9890 C   0  0  0  0  0  0  0  0  0  0  0  0
  153.6943  140.9354  161.1337 C   0  0  0  0  0  0  0  0  0  0  0  0
  152.6647  140.6173  158.8553 C   0  0  0  0  0  0  0  0  0  0  0  0
  151.8739  141.1078  157.8179 C   0  0  0  0  0  0  0  0  0  0  0  0
  150.9295  134.3146  156.0442 C   0  0  0  0  0  0  0  0  0  0  0  0
  149.7873  133.2866  155.9600 C   0  0  0  0  0  0  0  0  0  0  0  0
  148.3302  134.1662  152.1166 H   0  0  0  0  0  0  0  0  0  0  0  0
  146.9379  133.3415  152.8482 H   0  0  0  0  0  0  0  0  0  0  0  0
  148.0053  132.4748  151.7480 H   0  0  0  0  0  0  0  0  0  0  0  0
  147.6335  135.1716  154.1363 H   0  0  0  0  0  0  0  0  0  0  0  0
  147.7359  134.9519  155.8540 H   0  0  0  0  0  0  0  0  0  0  0  0
  149.9666  136.0323  154.0493 H   0  0  0  0  0  0  0  0  0  0  0  0
  148.9787  136.9713  155.1494 H   0  0  0  0  0  0  0  0  0  0  0  0
  152.2222  136.3756  156.9515 H   0  0  0  0  0  0  0  0  0  0  0  0
  152.0392  136.7323  155.2532 H   0  0  0  0  0  0  0  0  0  0  0  0
  150.0283  138.3150  156.1604 H   0  0  0  0  0  0  0  0  0  0  0  0
  149.9726  138.2182  158.2332 H   0  0  0  0  0  0  0  0  0  0  0  0
  152.9423  139.1004  156.6128 H   0  0  0  0  0  0  0  0  0  0  0  0
  152.1220  139.2402  155.0829 H   0  0  0  0  0  0  0  0  0  0  0  0
  150.2573  141.3203  154.9388 H   0  0  0  0  0  0  0  0  0  0  0  0
  150.9468  144.1734  159.0503 H   0  0  0  0  0  0  0  0  0  0  0  0
  152.0769  143.0829  162.1864 H   0  0  0  0  0  0  0  0  0  0  0  0
  151.8372  144.5250  161.2054 H   0  0  0  0  0  0  0  0  0  0  0  0
  153.4585  143.8654  161.4052 H   0  0  0  0  0  0  0  0  0  0  0  0
  154.1057  139.9491  160.9176 H   0  0  0  0  0  0  0  0  0  0  0  0
  153.1069  140.8572  162.0488 H   0  0  0  0  0  0  0  0  0  0  0  0
  154.5300  141.6118  161.3146 H   0  0  0  0  0  0  0  0  0  0  0  0
  153.1353  139.6468  158.8055 H   0  0  0  0  0  0  0  0  0  0  0  0
  151.5877  134.2078  155.1803 H   0  0  0  0  0  0  0  0  0  0  0  0
  151.5327  134.1152  156.9307 H   0  0  0  0  0  0  0  0  0  0  0  0
  149.1820  133.3226  156.8670 H   0  0  0  0  0  0  0  0  0  0  0  0
  150.2026  132.2785  155.9206 H   0  0  0  0  0  0  0  0  0  0  0  0
  149.8883  135.7647  156.9603 H   0  0  0  0  0  0  0  0  0  0  0  0
  150.0008  143.3720  156.4595 H   0  0  0  0  0  0  0  0  0  0  0  0
  1  2  1  0  0  0  0
  1 25  1  0  0  0  0
  1 26  1  0  0  0  0
  1 27  1  0  0  0  0
  2  3  2  0  0  0  0
  2  4  1  0  0  0  0
  4 24  1  0  0  0  0
  4  5  1  0  0  0  0
  5  6  1  0  0  0  0
  5 28  1  0  0  0  0
  5 29  1  0  0  0  0
  6  7  1  0  0  0  0
  6 30  1  0  0  0  0
  6 31  1  0  0  0  0
  7  8  1  0  0  0  0
  7 23  1  0  0  0  0
  7 51  1  0  0  0  0
  8  9  1  0  0  0  0
  8 32  1  0  0  0  0
  8 33  1  0  0  0  0
  9 10  1  0  0  0  0
  9 11  1  0  0  0  0
  9 34  1  0  0  0  0
 10 35  1  0  0  0  0
 11 12  1  0  0  0  0
 11 36  1  0  0  0  0
 11 37  1  0  0  0  0
 12 22  1  0  0  0  0
 12 13  1  0  0  0  0
 13 14  2  0  0  0  0
 13 38  1  0  0  0  0
 14 15  1  0  0  0  0
 14 52  1  0  0  0  0
 15 22  2  0  0  0  0
 15 16  1  0  0  0  0
 16 17  2  0  0  0  0
 16 39  1  0  0  0  0
 17 18  1  0  0  0  0
 17 19  1  0  0  0  0
 18 40  1  0  0  0  0
 18 41  1  0  0  0  0
 18 42  1  0  0  0  0
 19 20  1  0  0  0  0
 19 21  2  0  0  0  0
 20 43  1  0  0  0  0
 20 44  1  0  0  0  0
 20 45  1  0  0  0  0
 21 22  1  0  0  0  0
 21 46  1  0  0  0  0
 23 24  1  0  0  0  0
 23 47  1  0  0  0  0
 23 48  1  0  0  0  0
 24 49  1  0  0  0  0
 24 50  1  0  0  0  0
M  CHG  1   7   1
M  CHG  1  14   1
M  END
> <s_m_source_file>
AV-unprocessed.smi

> <i_m_source_file_index>
1633

> <i_lp_mmshare_version>
43012

> <i_f3d_flags>
0

> <s_epik_input>
W0NIM11DKD1PKU4xW0NIMl1bQ0gyXU4oW0NIMl1bQ0gyXTEpW0NIMl1bQ0BIXShbT0hdKVtDSDJdbihbY0hdbjIpYyhjMjMpW2NIXWMoW0NIM10pYyhbY0hdMylbQ0gzXQ==

> <s_epik_cmdline>
J2VwaWtfcHl0aG9uJywgJy1waCcsICc3LjAnLCAnLXRuJywgJzgnLCAnLW1hJywgJzIwMCcsICctbWV0YWxfYmluZGluZycsICctaW1hZScsICc8aW5maWxlLm1hZT4nLCAnLW9tYWUnLCAnPG91dGZpbGUubWFlPic=

> <r_epik_Ionization_Penalty>
1.18448

> <r_epik_Ionization_Penalty_Charging>
1.18447

> <r_epik_Ionization_Penalty_Neutral>
4.53746e-06

> <r_epik_State_Penalty>
1.28566

> <r_epik_Charging_Adjusted_Penalty>
2.47013

> <i_epik_Tot_Q>
2

> <i_epik_Tot_abs_Q>
2

> <r_epik_Metal_State_Penalty>
5.30076

> <b_epik_Metal_Only>
0

> <s_lp_Force_Field>
OPLS_2005

> <r_lp_Energy>
59.1266

> <b_lp_Chiralities_Consistent>
1

> <s_lp_Variant>
AV-unprocessed.smi:1633-4

> <Gold.Version>
5.8.1

> <Gold.Id.Protein>
6NUR|6NUR_protein|mol2

> <Gold.PLP.Fitness>
49.1455

> <Gold.PLP.PLP>
-44.4620

> <Gold.PLP.part.hbond>
-1.0000

> <Gold.PLP.part.metal>
0.0000

> <Gold.PLP.part.buried>
-6.0961

> <Gold.PLP.part.nonpolar>
-38.2353

> <Gold.PLP.part.repulsive>
0.2265

> <Gold.PLP.ligand.clash>
0.0000

> <Gold.PLP.ligand.torsion>
0.6934

> <Gold.PLP.Chemscore.Hbond>
2.0000

> <Gold.PLP.Chemscore.CHOScore>
0.0000

> <Gold.PLP.Chemscore.Metal>
0.0000

> <Gold.Chemscore.Hbonds>
donor molecule, donor type, donor heavy atom, donor atom, acceptor molecule, acceptor atom, score
      L1  H    14    52       P1  8028  2.00

> <Gold.PLP.Chemscore.Internal.Correction>
0.0703

> <Gold.Rescore>
     Score         DG    S(hbond)    S(metal)    S(lipo)     H(rot)  DE(clash)    DE(int)     intcor
     16.20     -17.00       1.00        0.00     118.46       2.22       0.02       0.77       ----

> <Gold.Chemscore.Fitness>
16.2024

> <Gold.Chemscore.DG>
-17.0017

> <Gold.Chemscore.ZeroCoef>
-5.4800

> <Gold.Chemscore.Hbond>
1.0000

> <Gold.Chemscore.Metal>
0.0000

> <Gold.Chemscore.Lipo>
118.4550

> <Gold.Chemscore.Internal_Hbond>
0.0000

> <Gold.Chemscore.DEClash>
0.0249

> <Gold.Chemscore.DEInternal>
0.7744

> <Gold.Chemscore.Rot>
2.2178

> <Gold.Chemscore.Internal.Correction>
   9.000000E+99

> <Gold.Chemscore.Hbonds>
donor molecule, donor type, donor heavy atom, donor atom, acceptor molecule, acceptor atom, score
      L1  H    14    52       P1  8028  1.00

> <Gold.Chemscore.Hbond.Weighted>
-3.3400

> <Gold.Chemscore.Metal.Weighted>
-0.0000

> <Gold.Chemscore.Lipo.Weighted>
-13.8592

> <Gold.Chemscore.Internal_Hbond.Weighted>
0.0000

> <Gold.Chemscore.DEClash.Weighted>
0.0249

> <Gold.Chemscore.DEInternal.Weighted>
0.7744

> <Gold.Chemscore.Rot.Weighted>
5.6775

> <Gold.Chemscore.Internal.Correction.Weighted>
   9.000000E+99

> <Gold.Protein.RotatedTorsions>
[ 6907 6896 6895 6894 ] final  151.40 input  -60.11 | X-H torsion
[ 7974 7965 7964 7962 ] final   12.21 input  175.53 | X-H torsion
[ 8008 7997 7996 7995 ] final   42.65 input   59.86 | X-H torsion
[ 10167 10162 10161 10158 ] final  170.54 input  -65.29 | X-H torsion
[ 10718 10713 10712 10709 ] final   39.84 input   66.30 | X-H torsion
[ 10763 10752 10751 10750 ] final   -2.21 input  -60.55 | X-H torsion
[ 11005 11000 10999 10996 ] final  -69.71 input  -57.11 | X-H torsion

> <Gold.Protein.ActiveResidues>
 VAL166  LYS551  ARG553  GLY616  TRP617  ASP618  TYR619  PRO620  LYS621  CYS622 
 ASP623  PHE694  ASN695  SER759  ASP760  ASP761  ALA762  ILE779  LEU786  VAL792 
 PHE793  MET794  SER795  GLU796  ALA797  LYS798  CYS799  TRP800  GLU811  SER814 

> <Gold.Protein.RotatedAtoms>
  152.1012  133.4251  159.4587 H   0  0  0  0  0  0  0  0  0  0  0  0  # atno 6907 bound_to 6896
  150.6864  134.2758  159.4616 H   0  0  0  0  0  0  0  0  0  0  0  0  # atno 6908 bound_to 6896
  152.0618  134.9589  160.0625 H   0  0  0  0  0  0  0  0  0  0  0  0  # atno 6909 bound_to 6896
  146.2356  139.9371  142.8488 H   0  0  0  0  0  0  0  0  0  0  0  0  # atno 7974 bound_to 7965
  155.2897  140.3378  155.4253 H   0  0  0  0  0  0  0  0  0  0  0  0  # atno 8008 bound_to 7997
  156.2051  140.1748  156.7856 H   0  0  0  0  0  0  0  0  0  0  0  0  # atno 8009 bound_to 7997
  154.5611  140.0687  156.8804 H   0  0  0  0  0  0  0  0  0  0  0  0  # atno 8010 bound_to 7997
  139.5021  144.3585  151.9849 H   0  0  0  0  0  0  0  0  0  0  0  0  # atno 10167 bound_to 10162
  157.3752  130.7723  149.7150 H   0  0  0  0  0  0  0  0  0  0  0  0  # atno 10718 bound_to 10713
  153.3550  135.6987  153.6757 H   0  0  0  0  0  0  0  0  0  0  0  0  # atno 10763 bound_to 10752
  153.5469  135.3561  155.2743 H   0  0  0  0  0  0  0  0  0  0  0  0  # atno 10764 bound_to 10752
  154.8659  135.4217  154.2795 H   0  0  0  0  0  0  0  0  0  0  0  0  # atno 10765 bound_to 10752
  141.1559  133.6771  156.6640 H   0  0  0  0  0  0  0  0  0  0  0  0  # atno 11005 bound_to 11000
  145.1988  140.9845  143.4168 LP  0  0  0  0  0  0  0  0  0  0  0  0  # atno 17320 bound_to 7965
  144.9792  139.3801  143.6270 LP  0  0  0  0  0  0  0  0  0  0  0  0  # atno 17321 bound_to 7965
  140.3022  144.3634  150.6057 LP  0  0  0  0  0  0  0  0  0  0  0  0  # atno 17342 bound_to 10162
  140.5864  143.2170  151.7333 LP  0  0  0  0  0  0  0  0  0  0  0  0  # atno 17343 bound_to 10162
  155.9764  130.4076  150.3784 LP  0  0  0  0  0  0  0  0  0  0  0  0  # atno 17370 bound_to 10713
  157.1880  131.0408  151.2715 LP  0  0  0  0  0  0  0  0  0  0  0  0  # atno 17371 bound_to 10713
  140.3225  134.7996  157.4264 LP  0  0  0  0  0  0  0  0  0  0  0  0  # atno 17394 bound_to 11000
  140.1085  134.5378  155.8288 LP  0  0  0  0  0  0  0  0  0  0  0  0  # atno 17395 bound_to 11000

$$$$
