AV-unprocessed.smi:785|AV-procd|sdf|3720|dock9
  -GOLD-   22720 1143D 1   1.00000     0.00000
 Structure written by MMmdl.
 35 36  0  0  0  0  0  0  0  0  1 V2000
  152.0813  138.7887  157.2478 C   0  0  0  0  0  0  0  0  0  0  0  0
  151.2119  138.9061  156.0431 C   0  0  0  0  0  0  0  0  0  0  0  0
  150.2734  139.8451  155.8972 N   0  0  0  0  0  0  0  0  0  0  0  0
  149.5909  139.7420  154.6801 C   0  0  0  0  0  0  0  0  0  0  0  0
  148.5027  140.7203  154.3437 C   0  0  0  0  0  0  0  0  0  0  0  0
  147.3163  139.9994  153.7013 C   0  0  0  0  0  0  0  0  0  0  0  0
  146.2473  139.9131  154.3052 O   0  0  0  0  0  0  0  0  0  0  0  0
  147.5136  139.4941  152.4733 N   0  0  0  0  0  0  0  0  0  0  0  0
  146.5118  138.7814  151.6905 C   0  0  0  0  0  0  0  0  0  0  0  0
  145.9100  137.6074  152.4828 C   0  0  0  0  0  0  0  0  0  0  0  0
  145.1684  136.7008  151.6146 N   0  0  0  0  0  0  0  0  0  0  0  0
  145.3473  135.3726  151.5519 C   0  0  0  0  0  0  0  0  0  0  0  0
  146.1759  134.7739  152.2396 O   0  0  0  0  0  0  0  0  0  0  0  0
  144.4511  134.6861  150.5736 C   0  0  0  0  0  0  0  0  0  0  0  0
  143.5889  133.5503  151.0862 C   0  0  0  0  0  0  0  0  0  0  0  0
  144.7772  133.2526  150.2067 C   0  0  0  0  0  0  0  0  0  0  0  0
  150.0375  138.7050  153.8982 C   0  0  0  0  0  0  0  0  0  0  0  0
  151.3215  137.8143  154.6682 S   0  0  0  0  0  0  0  0  0  0  0  0
  151.9674  139.6622  157.8908 H   0  0  0  0  0  0  0  0  0  0  0  0
  153.1263  138.7112  156.9476 H   0  0  0  0  0  0  0  0  0  0  0  0
  151.8123  137.8981  157.8156 H   0  0  0  0  0  0  0  0  0  0  0  0
  148.1622  141.2441  155.2382 H   0  0  0  0  0  0  0  0  0  0  0  0
  148.8718  141.4880  153.6624 H   0  0  0  0  0  0  0  0  0  0  0  0
  148.4236  139.6114  152.0513 H   0  0  0  0  0  0  0  0  0  0  0  0
  145.7316  139.4938  151.4208 H   0  0  0  0  0  0  0  0  0  0  0  0
  146.9474  138.4292  150.7539 H   0  0  0  0  0  0  0  0  0  0  0  0
  146.7017  137.0334  152.9650 H   0  0  0  0  0  0  0  0  0  0  0  0
  145.2631  137.9746  153.2815 H   0  0  0  0  0  0  0  0  0  0  0  0
  144.4672  137.1139  151.0168 H   0  0  0  0  0  0  0  0  0  0  0  0
  144.0242  135.3062  149.7865 H   0  0  0  0  0  0  0  0  0  0  0  0
  143.6624  133.2726  152.1364 H   0  0  0  0  0  0  0  0  0  0  0  0
  142.5954  133.4517  150.6538 H   0  0  0  0  0  0  0  0  0  0  0  0
  144.5890  132.9517  149.1782 H   0  0  0  0  0  0  0  0  0  0  0  0
  145.6386  132.7781  150.6736 H   0  0  0  0  0  0  0  0  0  0  0  0
  149.6879  138.4103  152.9199 H   0  0  0  0  0  0  0  0  0  0  0  0
  1  2  1  0  0  0  0
  1 19  1  0  0  0  0
  1 20  1  0  0  0  0
  1 21  1  0  0  0  0
  2 18  1  0  0  0  0
  2  3  2  0  0  0  0
  3  4  1  0  0  0  0
  4  5  1  0  0  0  0
  4 17  2  0  0  0  0
  5  6  1  0  0  0  0
  5 22  1  0  0  0  0
  5 23  1  0  0  0  0
  6  7  2  0  0  0  0
  6  8  1  0  0  0  0
  8  9  1  0  0  0  0
  8 24  1  0  0  0  0
  9 10  1  0  0  0  0
  9 25  1  0  0  0  0
  9 26  1  0  0  0  0
 10 11  1  0  0  0  0
 10 27  1  0  0  0  0
 10 28  1  0  0  0  0
 11 12  1  0  0  0  0
 11 29  1  0  0  0  0
 12 13  2  0  0  0  0
 12 14  1  0  0  0  0
 14 16  1  0  0  0  0
 14 15  1  0  0  0  0
 14 30  1  0  0  0  0
 15 16  1  0  0  0  0
 15 31  1  0  0  0  0
 15 32  1  0  0  0  0
 16 33  1  0  0  0  0
 16 34  1  0  0  0  0
 17 18  1  0  0  0  0
 17 35  1  0  0  0  0
M  END
> <s_m_source_file>
AV-unprocessed.smi

> <i_m_source_file_index>
785

> <i_lp_mmshare_version>
43012

> <i_f3d_flags>
0

> <s_epik_input>
W0NIM11jMW5jKFtjSF1zMSlbQ0gyXUMoPU8pW05IXVtDSDJdW0NIMl1bTkhdQyg9TylbQ0hdMltDSDJdW0NIMl0y

> <s_epik_cmdline>
J2VwaWtfcHl0aG9uJywgJy1waCcsICc3LjAnLCAnLXRuJywgJzgnLCAnLW1hJywgJzIwMCcsICctbWV0YWxfYmluZGluZycsICctaW1hZScsICc8aW5maWxlLm1hZT4nLCAnLW9tYWUnLCAnPG91dGZpbGUubWFlPic=

> <r_lp_tautomer_probability>
1

> <r_epik_Ionization_Penalty>
4.93122e-05

> <r_epik_Ionization_Penalty_Charging>
0

> <r_epik_Ionization_Penalty_Neutral>
4.93122e-05

> <r_epik_State_Penalty>
-0

> <r_epik_Charging_Adjusted_Penalty>
0

> <i_epik_Tot_Q>
0

> <i_epik_Tot_abs_Q>
0

> <r_epik_Metal_State_Penalty>
-0

> <b_epik_Metal_Only>
0

> <s_lp_Force_Field>
OPLS_2005

> <r_lp_Energy>
2.28636

> <b_lp_Chiralities_Consistent>
1

> <s_lp_Variant>
AV-unprocessed.smi:785-1

> <Gold.Version>
5.8.1

> <Gold.Id.Protein>
6NUR|6NUR_protein|mol2

> <Gold.PLP.Fitness>
42.1879

> <Gold.PLP.PLP>
-31.8680

> <Gold.PLP.part.hbond>
-1.9362

> <Gold.PLP.part.metal>
0.0000

> <Gold.PLP.part.buried>
-4.5529

> <Gold.PLP.part.nonpolar>
-28.9682

> <Gold.PLP.part.repulsive>
0.6785

> <Gold.PLP.ligand.clash>
0.0000

> <Gold.PLP.ligand.torsion>
0.5839

> <Gold.PLP.Chemscore.Hbond>
1.9825

> <Gold.PLP.Chemscore.CHOScore>
1.8124

> <Gold.PLP.Chemscore.Metal>
0.0000

> <Gold.Chemscore.Hbonds>
donor molecule, donor type, donor heavy atom, donor atom, acceptor molecule, acceptor atom, score
      L1  H     8    24       P1  7957  0.99
      L1  H    11    29       P1 10171  1.00
      L1  C    17    35       P1  7948  1.00
      L1  C    17    35       P1  7957  0.80

> <Gold.PLP.Chemscore.Internal.Correction>
0.1029

> <Gold.Rescore>
     Score         DG    S(hbond)    S(metal)    S(lipo)     H(rot)  DE(clash)    DE(int)     intcor
     13.19     -15.23       1.94        0.00      75.25       2.16       0.46       1.57       ----

> <Gold.Chemscore.Fitness>
13.1917

> <Gold.Chemscore.DG>
-15.2259

> <Gold.Chemscore.ZeroCoef>
-5.4800

> <Gold.Chemscore.Hbond>
1.9355

> <Gold.Chemscore.Metal>
0.0000

> <Gold.Chemscore.Lipo>
75.2491

> <Gold.Chemscore.Internal_Hbond>
0.0000

> <Gold.Chemscore.DEClash>
0.4629

> <Gold.Chemscore.DEInternal>
1.5713

> <Gold.Chemscore.Rot>
2.1573

> <Gold.Chemscore.Internal.Correction>
   9.000000E+99

> <Gold.Chemscore.Hbonds>
donor molecule, donor type, donor heavy atom, donor atom, acceptor molecule, acceptor atom, score
      L1  H     8    24       P1  7957  0.92
      L1  H    11    29       P1 10171  0.92

> <Gold.Chemscore.Hbond.Weighted>
-6.4645

> <Gold.Chemscore.Metal.Weighted>
-0.0000

> <Gold.Chemscore.Lipo.Weighted>
-8.8041

> <Gold.Chemscore.Internal_Hbond.Weighted>
0.0000

> <Gold.Chemscore.DEClash.Weighted>
0.4629

> <Gold.Chemscore.DEInternal.Weighted>
1.5713

> <Gold.Chemscore.Rot.Weighted>
5.5228

> <Gold.Chemscore.Internal.Correction.Weighted>
   9.000000E+99

> <Gold.Protein.RotatedTorsions>
[ 6907 6896 6895 6894 ] final  -48.01 input  -60.11 | X-H torsion
[ 7974 7965 7964 7962 ] final    4.07 input  175.53 | X-H torsion
[ 8008 7997 7996 7995 ] final  -44.73 input   59.86 | X-H torsion
[ 10167 10162 10161 10158 ] final  159.93 input  -65.29 | X-H torsion
[ 10718 10713 10712 10709 ] final -135.19 input   66.30 | X-H torsion
[ 10763 10752 10751 10750 ] final -106.52 input  -60.55 | X-H torsion
[ 11005 11000 10999 10996 ] final   66.98 input  -57.11 | X-H torsion

> <Gold.Protein.ActiveResidues>
 VAL166  LYS551  ARG553  GLY616  TRP617  ASP618  TYR619  PRO620  LYS621  CYS622 
 ASP623  PHE694  ASN695  SER759  ASP760  ASP761  ALA762  ILE779  LEU786  VAL792 
 PHE793  MET794  SER795  GLU796  ALA797  LYS798  CYS799  TRP800  GLU811  SER814 

> <Gold.Protein.RotatedAtoms>
  150.8949  134.8356  159.7319 H   0  0  0  0  0  0  0  0  0  0  0  0  # atno 6907 bound_to 6896
  152.4859  134.4591  159.9609 H   0  0  0  0  0  0  0  0  0  0  0  0  # atno 6908 bound_to 6896
  151.4649  133.3544  159.2850 H   0  0  0  0  0  0  0  0  0  0  0  0  # atno 6909 bound_to 6896
  146.2444  140.0590  142.8370 H   0  0  0  0  0  0  0  0  0  0  0  0  # atno 7974 bound_to 7965
  154.3998  140.1415  156.3730 H   0  0  0  0  0  0  0  0  0  0  0  0  # atno 8008 bound_to 7997
  155.8075  140.3474  155.5417 H   0  0  0  0  0  0  0  0  0  0  0  0  # atno 8009 bound_to 7997
  155.8421  140.0928  157.1718 H   0  0  0  0  0  0  0  0  0  0  0  0  # atno 8010 bound_to 7997
  139.4836  144.4683  151.8611 H   0  0  0  0  0  0  0  0  0  0  0  0  # atno 10167 bound_to 10162
  156.2635  130.7223  151.1166 H   0  0  0  0  0  0  0  0  0  0  0  0  # atno 10718 bound_to 10713
  154.8017  135.4709  154.0293 H   0  0  0  0  0  0  0  0  0  0  0  0  # atno 10763 bound_to 10752
  153.1793  135.6838  153.8507 H   0  0  0  0  0  0  0  0  0  0  0  0  # atno 10764 bound_to 10752
  153.8062  135.3223  155.3373 H   0  0  0  0  0  0  0  0  0  0  0  0  # atno 10765 bound_to 10752
  139.9799  134.6761  156.0283 H   0  0  0  0  0  0  0  0  0  0  0  0  # atno 11005 bound_to 11000
  145.0916  140.9288  143.4765 LP  0  0  0  0  0  0  0  0  0  0  0  0  # atno 17320 bound_to 7965
  145.0764  139.2992  143.5805 LP  0  0  0  0  0  0  0  0  0  0  0  0  # atno 17321 bound_to 7965
  140.4150  144.2319  150.5888 LP  0  0  0  0  0  0  0  0  0  0  0  0  # atno 17342 bound_to 10162
  140.4929  143.2341  151.8791 LP  0  0  0  0  0  0  0  0  0  0  0  0  # atno 17343 bound_to 10162
  157.7259  131.0650  150.5934 LP  0  0  0  0  0  0  0  0  0  0  0  0  # atno 17370 bound_to 10713
  156.6023  130.4358  149.5892 LP  0  0  0  0  0  0  0  0  0  0  0  0  # atno 17371 bound_to 10713
  141.1472  133.6554  156.3903 LP  0  0  0  0  0  0  0  0  0  0  0  0  # atno 17394 bound_to 11000
  140.5118  134.6387  157.5287 LP  0  0  0  0  0  0  0  0  0  0  0  0  # atno 17395 bound_to 11000

$$$$
