AV-unprocessed.smi:1000|AV-procd|sdf|4355|dock3
  -GOLD-   22720 2253D 1   1.00000     0.00000
 Structure written by MMmdl.
 40 41  0  0  0  0  0  0  0  0  1 V2000
  145.7094  142.6403  154.5995 C   0  0  0  0  0  0  0  0  0  0  0  0
  145.7287  141.3633  155.9441 S   0  0  2  0  0  0  0  0  0  0  0  0
  146.9178  141.6810  156.8527 O   0  0  0  0  0  0  0  0  0  0  0  0
  146.3311  140.0150  154.8678 C   0  0  0  0  0  0  0  0  0  0  0  0
  145.7437  138.8184  154.7744 N   0  0  0  0  0  0  0  0  0  0  0  0
  146.5109  138.1151  153.8651 N   0  0  0  0  0  0  0  0  0  0  0  0
  147.4776  138.9633  153.5090 C   0  0  0  0  0  0  0  0  0  0  0  0
  147.4238  140.1693  154.0962 N   0  0  0  0  0  0  0  0  0  0  0  0
  148.3129  141.3068  153.9244 C   0  0  0  0  0  0  0  0  0  0  0  0
  149.6100  141.1306  154.7164 C   0  0  0  0  0  0  0  0  0  0  0  0
  150.3138  140.1395  154.5243 O   0  0  0  0  0  0  0  0  0  0  0  0
  149.9074  142.0871  155.6098 N   0  0  0  0  0  0  0  0  0  0  0  0
  151.0487  142.0589  156.5154 C   0  0  0  0  0  0  0  0  0  0  0  0
  150.6919  141.3529  157.8353 C   0  0  0  0  0  0  0  0  0  0  0  0
  151.7409  141.5568  158.9154 C   0  0  0  0  0  0  0  0  0  0  0  0
  152.0329  142.7782  159.4034 C   0  0  0  0  0  0  0  0  0  0  0  0
  153.0598  143.0398  160.4913 C   0  0  0  0  0  0  0  0  0  0  0  0
  153.4852  141.7531  161.2183 C   0  0  0  0  0  0  0  0  0  0  0  0
  153.7168  140.6068  160.2256 C   0  0  0  0  0  0  0  0  0  0  0  0
  152.4438  140.3001  159.4165 C   0  0  0  0  0  0  0  0  0  0  0  0
  145.4948  142.1879  153.6311 H   0  0  0  0  0  0  0  0  0  0  0  0
  146.6753  143.1421  154.5428 H   0  0  0  0  0  0  0  0  0  0  0  0
  144.9429  143.3869  154.8060 H   0  0  0  0  0  0  0  0  0  0  0  0
  148.2444  138.6970  152.7963 H   0  0  0  0  0  0  0  0  0  0  0  0
  148.5293  141.4275  152.8621 H   0  0  0  0  0  0  0  0  0  0  0  0
  147.8036  142.2131  154.2546 H   0  0  0  0  0  0  0  0  0  0  0  0
  149.2747  142.8691  155.6982 H   0  0  0  0  0  0  0  0  0  0  0  0
  151.8990  141.5702  156.0364 H   0  0  0  0  0  0  0  0  0  0  0  0
  151.3481  143.0896  156.7053 H   0  0  0  0  0  0  0  0  0  0  0  0
  149.7322  141.7140  158.2076 H   0  0  0  0  0  0  0  0  0  0  0  0
  150.5662  140.2838  157.6571 H   0  0  0  0  0  0  0  0  0  0  0  0
  151.5273  143.6484  159.0110 H   0  0  0  0  0  0  0  0  0  0  0  0
  153.9252  143.5154  160.0291 H   0  0  0  0  0  0  0  0  0  0  0  0
  152.6509  143.7524  161.2079 H   0  0  0  0  0  0  0  0  0  0  0  0
  154.3854  141.9368  161.8055 H   0  0  0  0  0  0  0  0  0  0  0  0
  152.7088  141.4603  161.9262 H   0  0  0  0  0  0  0  0  0  0  0  0
  154.5237  140.8809  159.5445 H   0  0  0  0  0  0  0  0  0  0  0  0
  154.0482  139.7107  160.7511 H   0  0  0  0  0  0  0  0  0  0  0  0
  151.7417  139.7421  160.0366 H   0  0  0  0  0  0  0  0  0  0  0  0
  152.6963  139.6601  158.5703 H   0  0  0  0  0  0  0  0  0  0  0  0
  1  2  1  0  0  0  0
  1 21  1  0  0  0  0
  1 22  1  0  0  0  0
  1 23  1  0  0  0  0
  2  3  2  0  0  0  0
  2  4  1  0  0  0  0
  4  8  1  0  0  0  0
  4  5  2  0  0  0  0
  5  6  1  0  0  0  0
  6  7  2  0  0  0  0
  7  8  1  0  0  0  0
  7 24  1  0  0  0  0
  8  9  1  0  0  0  0
  9 10  1  0  0  0  0
  9 25  1  0  0  0  0
  9 26  1  0  0  0  0
 10 11  2  0  0  0  0
 10 12  1  0  0  0  0
 12 13  1  0  0  0  0
 12 27  1  0  0  0  0
 13 14  1  0  0  0  0
 13 28  1  0  0  0  0
 13 29  1  0  0  0  0
 14 15  1  0  0  0  0
 14 30  1  0  0  0  0
 14 31  1  0  0  0  0
 15 20  1  0  0  0  0
 15 16  2  0  0  0  0
 16 17  1  0  0  0  0
 16 32  1  0  0  0  0
 17 18  1  0  0  0  0
 17 33  1  0  0  0  0
 17 34  1  0  0  0  0
 18 19  1  0  0  0  0
 18 35  1  0  0  0  0
 18 36  1  0  0  0  0
 19 20  1  0  0  0  0
 19 37  1  0  0  0  0
 19 38  1  0  0  0  0
 20 39  1  0  0  0  0
 20 40  1  0  0  0  0
M  END
> <s_m_source_file>
AV-unprocessed.smi

> <i_m_source_file_index>
1000

> <i_lp_mmshare_version>
43012

> <i_f3d_flags>
0

> <s_epik_input>
W0NIM11bU0BdKD1PKWMxbm5bY0hdbjFbQ0gyXUMoPU8pW05IXVtDSDJdW0NIMl1DMj1bQ0hdW0NIMl1bQ0gyXVtDSDJdW0NIMl0y

> <s_epik_cmdline>
J2VwaWtfcHl0aG9uJywgJy1waCcsICc3LjAnLCAnLXRuJywgJzgnLCAnLW1hJywgJzIwMCcsICctbWV0YWxfYmluZGluZycsICctaW1hZScsICc8aW5maWxlLm1hZT4nLCAnLW9tYWUnLCAnPG91dGZpbGUubWFlPic=

> <r_lp_tautomer_probability>
1

> <r_epik_Ionization_Penalty>
9.22166e-08

> <r_epik_Ionization_Penalty_Charging>
0

> <r_epik_Ionization_Penalty_Neutral>
9.22166e-08

> <r_epik_State_Penalty>
-0

> <r_epik_Charging_Adjusted_Penalty>
0

> <i_epik_Tot_Q>
0

> <i_epik_Tot_abs_Q>
0

> <r_epik_Metal_State_Penalty>
-0

> <b_epik_Metal_Only>
0

> <s_lp_Force_Field>
OPLS_2005

> <r_lp_Energy>
5.87902

> <b_lp_Chiralities_Consistent>
1

> <s_lp_Variant>
AV-unprocessed.smi:1000-1

> <Gold.Version>
5.8.1

> <Gold.Id.Protein>
6NUR|6NUR_protein|mol2

> <Gold.PLP.Fitness>
47.5782

> <Gold.PLP.PLP>
-38.6327

> <Gold.PLP.part.hbond>
-2.0000

> <Gold.PLP.part.metal>
0.0000

> <Gold.PLP.part.buried>
-3.2828

> <Gold.PLP.part.nonpolar>
-32.7996

> <Gold.PLP.part.repulsive>
0.6204

> <Gold.PLP.ligand.clash>
0.0000

> <Gold.PLP.ligand.torsion>
1.4918

> <Gold.PLP.Chemscore.Hbond>
2.0000

> <Gold.PLP.Chemscore.CHOScore>
1.5712

> <Gold.PLP.Chemscore.Metal>
0.0000

> <Gold.Chemscore.Hbonds>
donor molecule, donor type, donor heavy atom, donor atom, acceptor molecule, acceptor atom, score
      L1  H    12    27       P1  8028  1.00
      P1  H  7989  7998       L1    11  1.00
      L1  C     7    24       P1  7948  0.56
      L1  C     7    24       P1  7957  1.00

> <Gold.PLP.Chemscore.Internal.Correction>
1.2155

> <Gold.Rescore>
     Score         DG    S(hbond)    S(metal)    S(lipo)     H(rot)  DE(clash)    DE(int)     intcor
     14.07     -15.66       1.63        0.00      90.09       2.26       0.14       1.45       ----

> <Gold.Chemscore.Fitness>
14.0708

> <Gold.Chemscore.DG>
-15.6585

> <Gold.Chemscore.ZeroCoef>
-5.4800

> <Gold.Chemscore.Hbond>
1.6269

> <Gold.Chemscore.Metal>
0.0000

> <Gold.Chemscore.Lipo>
90.0878

> <Gold.Chemscore.Internal_Hbond>
0.0000

> <Gold.Chemscore.DEClash>
0.1366

> <Gold.Chemscore.DEInternal>
1.4511

> <Gold.Chemscore.Rot>
2.2640

> <Gold.Chemscore.Internal.Correction>
   9.000000E+99

> <Gold.Chemscore.Hbonds>
donor molecule, donor type, donor heavy atom, donor atom, acceptor molecule, acceptor atom, score
      L1  H    12    27       P1  8028  0.96
      P1  H  7989  7998       L1    11  0.25

> <Gold.Chemscore.Hbond.Weighted>
-5.4340

> <Gold.Chemscore.Metal.Weighted>
-0.0000

> <Gold.Chemscore.Lipo.Weighted>
-10.5403

> <Gold.Chemscore.Internal_Hbond.Weighted>
0.0000

> <Gold.Chemscore.DEClash.Weighted>
0.1366

> <Gold.Chemscore.DEInternal.Weighted>
1.4511

> <Gold.Chemscore.Rot.Weighted>
5.7957

> <Gold.Chemscore.Internal.Correction.Weighted>
   9.000000E+99

> <Gold.Protein.RotatedTorsions>
[ 6907 6896 6895 6894 ] final   53.72 input  -60.11 | X-H torsion
[ 7974 7965 7964 7962 ] final   23.68 input  175.53 | X-H torsion
[ 8008 7997 7996 7995 ] final  121.42 input   59.86 | X-H torsion
[ 10167 10162 10161 10158 ] final -113.00 input  -65.29 | X-H torsion
[ 10718 10713 10712 10709 ] final  137.73 input   66.30 | X-H torsion
[ 10763 10752 10751 10750 ] final  -76.33 input  -60.55 | X-H torsion
[ 11005 11000 10999 10996 ] final  156.33 input  -57.11 | X-H torsion

> <Gold.Protein.ActiveResidues>
 VAL166  LYS551  ARG553  GLY616  TRP617  ASP618  TYR619  PRO620  LYS621  CYS622 
 ASP623  PHE694  ASN695  SER759  ASP760  ASP761  ALA762  ILE779  LEU786  VAL792 
 PHE793  MET794  SER795  GLU796  ALA797  LYS798  CYS799  TRP800  GLU811  SER814 

> <Gold.Protein.RotatedAtoms>
  152.3366  134.7190  160.0275 H   0  0  0  0  0  0  0  0  0  0  0  0  # atno 6907 bound_to 6896
  151.7589  133.3327  159.3420 H   0  0  0  0  0  0  0  0  0  0  0  0  # atno 6908 bound_to 6896
  150.7454  134.6056  159.6104 H   0  0  0  0  0  0  0  0  0  0  0  0  # atno 6909 bound_to 6896
  146.1973  139.7711  142.8787 H   0  0  0  0  0  0  0  0  0  0  0  0  # atno 7974 bound_to 7965
  156.2685  140.2809  156.1305 H   0  0  0  0  0  0  0  0  0  0  0  0  # atno 8008 bound_to 7997
  155.1059  140.0390  157.2728 H   0  0  0  0  0  0  0  0  0  0  0  0  # atno 8009 bound_to 7997
  154.6780  140.2602  155.6944 H   0  0  0  0  0  0  0  0  0  0  0  0  # atno 8010 bound_to 7997
  140.1166  143.4480  152.1718 H   0  0  0  0  0  0  0  0  0  0  0  0  # atno 10167 bound_to 10162
  157.4330  131.1050  151.0229 H   0  0  0  0  0  0  0  0  0  0  0  0  # atno 10718 bound_to 10713
  154.4984  135.5801  153.6512 H   0  0  0  0  0  0  0  0  0  0  0  0  # atno 10763 bound_to 10752
  152.9874  135.6130  154.3034 H   0  0  0  0  0  0  0  0  0  0  0  0  # atno 10764 bound_to 10752
  154.2939  135.2848  155.2621 H   0  0  0  0  0  0  0  0  0  0  0  0  # atno 10765 bound_to 10752
  140.1664  134.8573  157.2637 H   0  0  0  0  0  0  0  0  0  0  0  0  # atno 11005 bound_to 11000
  145.3601  141.0324  143.3290 LP  0  0  0  0  0  0  0  0  0  0  0  0  # atno 17320 bound_to 7965
  144.8608  139.5181  143.6813 LP  0  0  0  0  0  0  0  0  0  0  0  0  # atno 17321 bound_to 7965
  139.5591  144.7393  151.4208 LP  0  0  0  0  0  0  0  0  0  0  0  0  # atno 17342 bound_to 10162
  140.6896  143.7894  150.7235 LP  0  0  0  0  0  0  0  0  0  0  0  0  # atno 17343 bound_to 10162
  157.1119  130.6025  149.5484 LP  0  0  0  0  0  0  0  0  0  0  0  0  # atno 17370 bound_to 10713
  155.9920  130.4976  150.7322 LP  0  0  0  0  0  0  0  0  0  0  0  0  # atno 17371 bound_to 10713
  140.2428  134.3775  155.7473 LP  0  0  0  0  0  0  0  0  0  0  0  0  # atno 17394 bound_to 11000
  141.2214  133.7274  156.8816 LP  0  0  0  0  0  0  0  0  0  0  0  0  # atno 17395 bound_to 11000

$$$$
