AV-unprocessed.smi:229|AV-procd|sdf|1753|dock4
  -GOLD-   2262020273D 1   1.00000     0.00000
 Structure written by MMmdl.
 58 62  0  0  0  0  0  0  0  0  1 V2000
  150.7015  131.8697  155.3389 C   0  0  0  0  0  0  0  0  0  0  0  0
  150.6332  132.2974  156.8101 C   0  0  0  0  0  0  0  0  0  0  0  0
  149.8318  133.5904  157.0220 C   0  0  2  0  0  0  0  0  0  0  0  0
  150.5713  134.8183  156.4632 C   0  0  0  0  0  0  0  0  0  0  0  0
  149.8311  136.0345  156.7826 N   0  0  0  0  0  0  0  0  0  0  0  0
  150.1534  137.1781  156.1257 C   0  0  0  0  0  0  0  0  0  0  0  0
  149.9844  137.2575  154.7784 N   0  0  0  0  0  0  0  0  0  0  0  0
  150.2947  138.3793  154.1228 C   0  0  0  0  0  0  0  0  0  0  0  0
  150.7793  139.5226  154.6096 N   0  0  0  0  0  0  0  0  0  0  0  0
  150.9518  139.4531  155.9608 C   0  0  0  0  0  0  0  0  0  0  0  0
  150.6623  138.3314  156.7888 C   0  0  0  0  0  0  0  0  0  0  0  0
  150.9377  138.6424  158.1147 N   0  0  0  0  0  0  0  0  0  0  0  0
  151.3732  139.8714  158.0717 C   0  0  0  0  0  0  0  0  0  0  0  0
  151.4316  140.4328  156.8147 N   0  0  0  0  0  0  0  0  0  0  0  0
  151.8579  141.7838  156.4707 C   0  0  0  0  0  0  0  0  0  0  0  0
  151.0471  142.9108  157.1560 C   0  0  1  0  0  0  0  0  0  0  0  0
  149.6725  142.6504  156.9501 O   0  0  0  0  0  0  0  0  0  0  0  0
  151.2794  143.0543  158.6759 C   0  0  1  0  0  0  0  0  0  0  0  0
  152.7516  143.1489  159.0982 C   0  0  0  0  0  0  0  0  0  0  0  0
  152.7501  144.0765  160.3054 C   0  0  0  0  0  0  0  0  0  0  0  0
  151.3019  144.5482  160.4069 C   0  0  0  0  0  0  0  0  0  0  0  0
  150.7758  144.3090  159.1128 O   0  0  0  0  0  0  0  0  0  0  0  0
  149.5819  136.1845  158.2115 C   0  0  0  0  0  0  0  0  0  0  0  0
  148.8727  134.9334  158.7783 C   0  0  1  0  0  0  0  0  0  0  0  0
  148.7928  134.9927  160.3003 C   0  0  0  0  0  0  0  0  0  0  0  0
  147.4102  135.5741  160.5541 C   0  0  0  0  0  0  0  0  0  0  0  0
  146.6244  134.9181  159.5773 O   0  0  0  0  0  0  0  0  0  0  0  0
  147.3816  134.8446  158.3749 C   0  0  0  0  0  0  0  0  0  0  0  0
  149.6182  133.7648  158.4245 O   0  0  0  0  0  0  0  0  0  0  0  0
  151.2917  130.9600  155.2271 H   0  0  0  0  0  0  0  0  0  0  0  0
  151.1632  132.6432  154.7247 H   0  0  0  0  0  0  0  0  0  0  0  0
  149.7074  131.6716  154.9375 H   0  0  0  0  0  0  0  0  0  0  0  0
  150.1981  131.4929  157.4041 H   0  0  0  0  0  0  0  0  0  0  0  0
  151.6494  132.4376  157.1805 H   0  0  0  0  0  0  0  0  0  0  0  0
  148.8757  133.4912  156.5074 H   0  0  0  0  0  0  0  0  0  0  0  0
  151.5737  134.8823  156.8892 H   0  0  0  0  0  0  0  0  0  0  0  0
  150.6810  134.7171  155.3825 H   0  0  0  0  0  0  0  0  0  0  0  0
  150.1304  138.3580  153.0555 H   0  0  0  0  0  0  0  0  0  0  0  0
  151.6628  140.4020  158.9665 H   0  0  0  0  0  0  0  0  0  0  0  0
  152.9106  141.8884  156.7333 H   0  0  0  0  0  0  0  0  0  0  0  0
  151.8126  141.8897  155.3860 H   0  0  0  0  0  0  0  0  0  0  0  0
  151.2847  143.8547  156.6639 H   0  0  0  0  0  0  0  0  0  0  0  0
  149.3248  143.3141  156.3745 H   0  0  0  0  0  0  0  0  0  0  0  0
  150.7881  142.2514  159.2299 H   0  0  0  0  0  0  0  0  0  0  0  0
  153.1714  142.1728  159.3373 H   0  0  0  0  0  0  0  0  0  0  0  0
  153.3559  143.5877  158.3032 H   0  0  0  0  0  0  0  0  0  0  0  0
  153.0694  143.5727  161.2181 H   0  0  0  0  0  0  0  0  0  0  0  0
  153.4215  144.9184  160.1332 H   0  0  0  0  0  0  0  0  0  0  0  0
  150.7498  143.9540  161.1367 H   0  0  0  0  0  0  0  0  0  0  0  0
  151.2186  145.5990  160.6852 H   0  0  0  0  0  0  0  0  0  0  0  0
  150.5448  136.3195  158.7065 H   0  0  0  0  0  0  0  0  0  0  0  0
  148.9957  137.0756  158.4321 H   0  0  0  0  0  0  0  0  0  0  0  0
  148.8359  133.9859  160.7187 H   0  0  0  0  0  0  0  0  0  0  0  0
  149.5907  135.5761  160.7606 H   0  0  0  0  0  0  0  0  0  0  0  0
  147.0468  135.3788  161.5629 H   0  0  0  0  0  0  0  0  0  0  0  0
  147.3958  136.6513  160.3796 H   0  0  0  0  0  0  0  0  0  0  0  0
  147.0958  135.6681  157.7193 H   0  0  0  0  0  0  0  0  0  0  0  0
  147.1334  133.9142  157.8651 H   0  0  0  0  0  0  0  0  0  0  0  0
  1  2  1  0  0  0  0
  1 30  1  0  0  0  0
  1 31  1  0  0  0  0
  1 32  1  0  0  0  0
  2  3  1  0  0  0  0
  2 33  1  0  0  0  0
  2 34  1  0  0  0  0
  3 29  1  0  0  0  0
  3  4  1  0  0  0  0
  3 35  1  0  0  0  0
  4  5  1  0  0  0  0
  4 36  1  0  0  0  0
  4 37  1  0  0  0  0
  5  6  1  0  0  0  0
  5 23  1  0  0  0  0
  6 11  1  0  0  0  0
  6  7  2  0  0  0  0
  7  8  1  0  0  0  0
  8  9  2  0  0  0  0
  8 38  1  0  0  0  0
  9 10  1  0  0  0  0
 10 14  1  0  0  0  0
 10 11  2  0  0  0  0
 11 12  1  0  0  0  0
 12 13  2  0  0  0  0
 13 14  1  0  0  0  0
 13 39  1  0  0  0  0
 14 15  1  0  0  0  0
 15 16  1  0  0  0  0
 15 40  1  0  0  0  0
 15 41  1  0  0  0  0
 16 17  1  0  0  0  0
 16 18  1  0  0  0  0
 16 42  1  0  0  0  0
 17 43  1  0  0  0  0
 18 22  1  0  0  0  0
 18 19  1  0  0  0  0
 18 44  1  0  0  0  0
 19 20  1  0  0  0  0
 19 45  1  0  0  0  0
 19 46  1  0  0  0  0
 20 21  1  0  0  0  0
 20 47  1  0  0  0  0
 20 48  1  0  0  0  0
 21 22  1  0  0  0  0
 21 49  1  0  0  0  0
 21 50  1  0  0  0  0
 23 24  1  0  0  0  0
 23 51  1  0  0  0  0
 23 52  1  0  0  0  0
 24 28  1  0  0  0  0
 24 25  1  0  0  0  0
 24 29  1  0  0  0  0
 25 26  1  0  0  0  0
 25 53  1  0  0  0  0
 25 54  1  0  0  0  0
 26 27  1  0  0  0  0
 26 55  1  0  0  0  0
 26 56  1  0  0  0  0
 27 28  1  0  0  0  0
 28 57  1  0  0  0  0
 28 58  1  0  0  0  0
M  END
> <s_m_source_file>
AV-unprocessed.smi

> <i_m_source_file_index>
229

> <i_lp_mmshare_version>
43012

> <i_f3d_flags>
0

> <s_epik_input>
W0NIMl0xT1tDSDJdW0NIMl1bQ0BdMTJbQ0gyXU4oW0NIMl1bQ0BIXShPMilbQ0gyXVtDSDNdKWMobltjSF1uMyljKGMzNCluW2NIXW40W0NIMl1bQ0BIXShbT0hdKVtDQEBIXTVbQ0gyXVtDSDJdW0NIMl1PNQ==

> <s_epik_cmdline>
J2VwaWtfcHl0aG9uJywgJy1waCcsICc3LjAnLCAnLXRuJywgJzgnLCAnLW1hJywgJzIwMCcsICctbWV0YWxfYmluZGluZycsICctaW1hZScsICc8aW5maWxlLm1hZT4nLCAnLW9tYWUnLCAnPG91dGZpbGUubWFlPic=

> <r_lp_tautomer_probability>
1

> <r_epik_Ionization_Penalty>
0.00318402

> <r_epik_Ionization_Penalty_Charging>
0

> <r_epik_Ionization_Penalty_Neutral>
0.00318402

> <r_epik_State_Penalty>
0.00215642

> <r_epik_Charging_Adjusted_Penalty>
0.00215642

> <i_epik_Tot_Q>
0

> <i_epik_Tot_abs_Q>
0

> <r_epik_Metal_State_Penalty>
-0

> <b_epik_Metal_Only>
0

> <s_lp_Force_Field>
OPLS_2005

> <r_lp_Energy>
56.4777

> <b_lp_Chiralities_Consistent>
1

> <s_lp_Variant>
AV-unprocessed.smi:229-7

> <Gold.Version>
5.8.1

> <Gold.Id.Protein>
6NUR|6NUR_protein|mol2

> <Gold.PLP.Fitness>
46.4727

> <Gold.PLP.PLP>
-33.6956

> <Gold.PLP.part.hbond>
-2.8706

> <Gold.PLP.part.metal>
0.0000

> <Gold.PLP.part.buried>
-6.3521

> <Gold.PLP.part.nonpolar>
-25.4896

> <Gold.PLP.part.repulsive>
0.4412

> <Gold.PLP.ligand.clash>
0.0000

> <Gold.PLP.ligand.torsion>
0.5580

> <Gold.PLP.Chemscore.Hbond>
3.0000

> <Gold.PLP.Chemscore.CHOScore>
1.4996

> <Gold.PLP.Chemscore.Metal>
0.0000

> <Gold.Chemscore.Hbonds>
donor molecule, donor type, donor heavy atom, donor atom, acceptor molecule, acceptor atom, score
      L1  H    17    43       P1  8028  1.00
      P1  H  6896  6907       L1    29  0.86
      P1  H  7989  7998       L1     9  1.00
      L1  C     8    38       P1  7948  0.58
      L1  C     8    38       P1  7957  0.91

> <Gold.PLP.Chemscore.Internal.Correction>
0.3944

> <Gold.Rescore>
     Score         DG    S(hbond)    S(metal)    S(lipo)     H(rot)  DE(clash)    DE(int)     intcor
     15.48     -19.27       2.49        0.00     100.60       2.46       1.65       2.14       ----

> <Gold.Chemscore.Fitness>
15.4801

> <Gold.Chemscore.DG>
-19.2689

> <Gold.Chemscore.ZeroCoef>
-5.4800

> <Gold.Chemscore.Hbond>
2.4893

> <Gold.Chemscore.Metal>
0.0000

> <Gold.Chemscore.Lipo>
100.5992

> <Gold.Chemscore.Internal_Hbond>
0.0000

> <Gold.Chemscore.DEClash>
1.6532

> <Gold.Chemscore.DEInternal>
2.1356

> <Gold.Chemscore.Rot>
2.4591

> <Gold.Chemscore.Internal.Correction>
   9.000000E+99

> <Gold.Chemscore.Hbonds>
donor molecule, donor type, donor heavy atom, donor atom, acceptor molecule, acceptor atom, score
      L1  H    17    43       P1  8028  0.99
      P1  H  6896  6907       L1    29  0.48
      P1  H  7989  7998       L1     9  0.98

> <Gold.Chemscore.Hbond.Weighted>
-8.3141

> <Gold.Chemscore.Metal.Weighted>
-0.0000

> <Gold.Chemscore.Lipo.Weighted>
-11.7701

> <Gold.Chemscore.Internal_Hbond.Weighted>
0.0000

> <Gold.Chemscore.DEClash.Weighted>
1.6532

> <Gold.Chemscore.DEInternal.Weighted>
2.1356

> <Gold.Chemscore.Rot.Weighted>
6.2953

> <Gold.Chemscore.Internal.Correction.Weighted>
   9.000000E+99

> <Gold.Protein.RotatedTorsions>
[ 6907 6896 6895 6894 ] final -126.24 input  -60.11 | X-H torsion
[ 7974 7965 7964 7962 ] final   51.29 input  175.53 | X-H torsion
[ 8008 7997 7996 7995 ] final -171.15 input   59.86 | X-H torsion
[ 10167 10162 10161 10158 ] final  150.31 input  -65.29 | X-H torsion
[ 10718 10713 10712 10709 ] final -167.89 input   66.30 | X-H torsion
[ 10763 10752 10751 10750 ] final  -26.15 input  -60.55 | X-H torsion
[ 11005 11000 10999 10996 ] final  152.50 input  -57.11 | X-H torsion

> <Gold.Protein.ActiveResidues>
 VAL166  LYS551  ARG553  GLY616  TRP617  ASP618  TYR619  PRO620  LYS621  CYS622 
 ASP623  PHE694  ASN695  SER759  ASP760  ASP761  ALA762  ILE779  LEU786  VAL792 
 PHE793  MET794  SER795  GLU796  ALA797  LYS798  CYS799  TRP800  GLU811  SER814 

> <Gold.Protein.RotatedAtoms>
  150.8949  133.7194  159.2894 H   0  0  0  0  0  0  0  0  0  0  0  0  # atno 6907 bound_to 6896
  151.4732  135.1046  159.9767 H   0  0  0  0  0  0  0  0  0  0  0  0  # atno 6908 bound_to 6896
  152.4842  133.8284  159.7145 H   0  0  0  0  0  0  0  0  0  0  0  0  # atno 6909 bound_to 6896
  145.9928  139.4357  143.0063 H   0  0  0  0  0  0  0  0  0  0  0  0  # atno 7974 bound_to 7965
  155.9278  140.1085  157.1156 H   0  0  0  0  0  0  0  0  0  0  0  0  # atno 8008 bound_to 7997
  154.4065  140.1243  156.4828 H   0  0  0  0  0  0  0  0  0  0  0  0  # atno 8009 bound_to 7997
  155.7117  140.3471  155.4979 H   0  0  0  0  0  0  0  0  0  0  0  0  # atno 8010 bound_to 7997
  139.4851  144.5532  151.7363 H   0  0  0  0  0  0  0  0  0  0  0  0  # atno 10167 bound_to 10162
  156.6889  130.9151  151.3066 H   0  0  0  0  0  0  0  0  0  0  0  0  # atno 10718 bound_to 10713
  153.7113  135.6950  153.5036 H   0  0  0  0  0  0  0  0  0  0  0  0  # atno 10763 bound_to 10752
  153.2270  135.4350  155.0552 H   0  0  0  0  0  0  0  0  0  0  0  0  # atno 10764 bound_to 10752
  154.8314  135.3475  154.6650 H   0  0  0  0  0  0  0  0  0  0  0  0  # atno 10765 bound_to 10752
  140.1313  134.8800  157.2208 H   0  0  0  0  0  0  0  0  0  0  0  0  # atno 11005 bound_to 11000
  145.7605  140.9937  143.1202 LP  0  0  0  0  0  0  0  0  0  0  0  0  # atno 17320 bound_to 7965
  144.6894  139.9324  143.7472 LP  0  0  0  0  0  0  0  0  0  0  0  0  # atno 17321 bound_to 7965
  140.5090  144.1054  150.5990 LP  0  0  0  0  0  0  0  0  0  0  0  0  # atno 17342 bound_to 10162
  140.3973  143.2721  151.9989 LP  0  0  0  0  0  0  0  0  0  0  0  0  # atno 17343 bound_to 10162
  157.7016  130.9339  150.0803 LP  0  0  0  0  0  0  0  0  0  0  0  0  # atno 17370 bound_to 10713
  156.1812  130.3650  149.9033 LP  0  0  0  0  0  0  0  0  0  0  0  0  # atno 17371 bound_to 10713
  140.2838  134.3319  155.7335 LP  0  0  0  0  0  0  0  0  0  0  0  0  # atno 17394 bound_to 11000
  141.2170  133.7494  156.9403 LP  0  0  0  0  0  0  0  0  0  0  0  0  # atno 17395 bound_to 11000

$$$$
