AV-unprocessed.smi:1285|AV-procd|sdf|5367|dock10
  -GOLD-   22720 4513D 1   1.00000     0.00000
 Structure written by MMmdl.
 46 47  0  0  0  0  0  0  0  0  1 V2000
  148.1607  141.4585  155.5975 C   0  0  0  0  0  0  0  0  0  0  0  0
  148.5011  140.3872  156.6499 C   0  0  0  0  0  0  0  0  0  0  0  0
  150.0226  140.1841  156.9403 C   0  0  1  0  0  0  0  0  0  0  0  0
  150.6363  141.6042  157.0706 C   0  0  0  0  0  0  0  0  0  0  0  0
  150.1665  139.4497  158.3134 C   0  0  0  0  0  0  0  0  0  0  0  0
  149.1059  138.4780  158.5809 N   0  0  0  0  0  0  0  0  0  0  0  0
  149.2821  137.2089  158.9832 C   0  0  0  0  0  0  0  0  0  0  0  0
  150.3911  136.7092  159.1750 O   0  0  0  0  0  0  0  0  0  0  0  0
  148.0041  136.3869  159.2080 C   0  0  2  0  0  0  0  0  0  0  0  0
  146.7583  137.0478  158.5830 C   0  0  0  0  0  0  0  0  0  0  0  0
  147.8323  136.1027  160.6275 N   0  0  0  0  0  0  0  0  0  0  0  0
  147.8438  134.9349  161.2742 C   0  0  0  0  0  0  0  0  0  0  0  0
  147.7050  135.0442  162.5880 N   0  0  0  0  0  0  0  0  0  0  0  0
  147.6200  136.4034  162.6955 C   0  0  0  0  0  0  0  0  0  0  0  0
  147.7028  137.0856  161.5536 N   0  0  0  0  0  0  0  0  0  0  0  0
  150.6837  139.4350  155.8341 N   0  0  0  0  0  0  0  0  0  0  0  0
  152.1481  139.3674  155.9118 C   0  0  0  0  0  0  0  0  0  0  0  0
  152.7622  138.7086  154.6646 C   0  0  0  0  0  0  0  0  0  0  0  0
  152.2078  137.4110  154.4843 O   0  0  0  0  0  0  0  0  0  0  0  0
  150.7923  137.4391  154.3474 C   0  0  0  0  0  0  0  0  0  0  0  0
  150.1655  138.0825  155.5958 C   0  0  0  0  0  0  0  0  0  0  0  0
  147.0822  141.5204  155.4533 H   0  0  0  0  0  0  0  0  0  0  0  0
  148.6046  141.2328  154.6280 H   0  0  0  0  0  0  0  0  0  0  0  0
  148.5029  142.4475  155.9009 H   0  0  0  0  0  0  0  0  0  0  0  0
  147.9801  140.6604  157.5682 H   0  0  0  0  0  0  0  0  0  0  0  0
  148.0439  139.4440  156.3508 H   0  0  0  0  0  0  0  0  0  0  0  0
  150.0247  142.2603  157.6903 H   0  0  0  0  0  0  0  0  0  0  0  0
  150.7424  142.0890  156.0996 H   0  0  0  0  0  0  0  0  0  0  0  0
  151.6243  141.5803  157.5312 H   0  0  0  0  0  0  0  0  0  0  0  0
  151.1000  138.8886  158.3475 H   0  0  0  0  0  0  0  0  0  0  0  0
  150.2237  140.1624  159.1363 H   0  0  0  0  0  0  0  0  0  0  0  0
  148.1584  138.8017  158.4519 H   0  0  0  0  0  0  0  0  0  0  0  0
  148.1406  135.4271  158.7064 H   0  0  0  0  0  0  0  0  0  0  0  0
  146.8954  137.2102  157.5132 H   0  0  0  0  0  0  0  0  0  0  0  0
  146.5331  138.0143  159.0358 H   0  0  0  0  0  0  0  0  0  0  0  0
  145.8798  136.4137  158.7063 H   0  0  0  0  0  0  0  0  0  0  0  0
  147.9605  133.9848  160.7736 H   0  0  0  0  0  0  0  0  0  0  0  0
  147.5001  136.9055  163.6442 H   0  0  0  0  0  0  0  0  0  0  0  0
  152.5805  140.3618  156.0075 H   0  0  0  0  0  0  0  0  0  0  0  0
  152.4553  138.8020  156.7913 H   0  0  0  0  0  0  0  0  0  0  0  0
  152.5801  139.3166  153.7770 H   0  0  0  0  0  0  0  0  0  0  0  0
  153.8429  138.6212  154.7766 H   0  0  0  0  0  0  0  0  0  0  0  0
  150.5165  137.9922  153.4482 H   0  0  0  0  0  0  0  0  0  0  0  0
  150.4261  136.4202  154.2215 H   0  0  0  0  0  0  0  0  0  0  0  0
  150.3674  137.4429  156.4552 H   0  0  0  0  0  0  0  0  0  0  0  0
  149.0861  138.0951  155.4573 H   0  0  0  0  0  0  0  0  0  0  0  0
  1  2  1  0  0  0  0
  1 22  1  0  0  0  0
  1 23  1  0  0  0  0
  1 24  1  0  0  0  0
  2  3  1  0  0  0  0
  2 25  1  0  0  0  0
  2 26  1  0  0  0  0
  3  4  1  0  0  0  0
  3  5  1  0  0  0  0
  3 16  1  0  0  0  0
  4 27  1  0  0  0  0
  4 28  1  0  0  0  0
  4 29  1  0  0  0  0
  5  6  1  0  0  0  0
  5 30  1  0  0  0  0
  5 31  1  0  0  0  0
  6  7  1  0  0  0  0
  6 32  1  0  0  0  0
  7  8  2  0  0  0  0
  7  9  1  0  0  0  0
  9 10  1  0  0  0  0
  9 11  1  0  0  0  0
  9 33  1  0  0  0  0
 10 34  1  0  0  0  0
 10 35  1  0  0  0  0
 10 36  1  0  0  0  0
 11 15  1  0  0  0  0
 11 12  1  0  0  0  0
 12 13  2  0  0  0  0
 12 37  1  0  0  0  0
 13 14  1  0  0  0  0
 14 15  2  0  0  0  0
 14 38  1  0  0  0  0
 16 21  1  0  0  0  0
 16 17  1  0  0  0  0
 17 18  1  0  0  0  0
 17 39  1  0  0  0  0
 17 40  1  0  0  0  0
 18 19  1  0  0  0  0
 18 41  1  0  0  0  0
 18 42  1  0  0  0  0
 19 20  1  0  0  0  0
 20 21  1  0  0  0  0
 20 43  1  0  0  0  0
 20 44  1  0  0  0  0
 21 45  1  0  0  0  0
 21 46  1  0  0  0  0
M  END
> <s_m_source_file>
AV-unprocessed.smi

> <i_m_source_file_index>
1285

> <i_lp_mmshare_version>
43012

> <i_f3d_flags>
0

> <s_epik_input>
W0NIMl0xW0NIMl1PW0NIMl1bQ0gyXU4xW0NAQF0oW0NIM10pKFtDSDJdW0NIM10pW0NIMl1bTkhdQyg9TylbQ0BIXShbQ0gzXSluMltjSF1uW2NIXW4y

> <s_epik_cmdline>
J2VwaWtfcHl0aG9uJywgJy1waCcsICc3LjAnLCAnLXRuJywgJzgnLCAnLW1hJywgJzIwMCcsICctbWV0YWxfYmluZGluZycsICctaW1hZScsICc8aW5maWxlLm1hZT4nLCAnLW9tYWUnLCAnPG91dGZpbGUubWFlPic=

> <r_lp_tautomer_probability>
1

> <r_epik_Ionization_Penalty>
0.285697

> <r_epik_Ionization_Penalty_Charging>
0

> <r_epik_Ionization_Penalty_Neutral>
0.285697

> <r_epik_State_Penalty>
0.278478

> <r_epik_Charging_Adjusted_Penalty>
0.278478

> <i_epik_Tot_Q>
0

> <i_epik_Tot_abs_Q>
0

> <r_epik_Metal_State_Penalty>
0.278477

> <b_epik_Metal_Only>
0

> <s_lp_Force_Field>
OPLS_2005

> <r_lp_Energy>
49.2775

> <b_lp_Chiralities_Consistent>
1

> <s_lp_Variant>
AV-unprocessed.smi:1285-1

> <Gold.Version>
5.8.1

> <Gold.Id.Protein>
6NUR|6NUR_protein|mol2

> <Gold.PLP.Fitness>
42.4863

> <Gold.PLP.PLP>
-33.7506

> <Gold.PLP.part.hbond>
-4.0000

> <Gold.PLP.part.metal>
0.0000

> <Gold.PLP.part.buried>
-5.9717

> <Gold.PLP.part.nonpolar>
-24.9103

> <Gold.PLP.part.repulsive>
0.3276

> <Gold.PLP.ligand.clash>
0.0386

> <Gold.PLP.ligand.torsion>
1.0683

> <Gold.PLP.Chemscore.Hbond>
3.5760

> <Gold.PLP.Chemscore.CHOScore>
0.0000

> <Gold.PLP.Chemscore.Metal>
0.0000

> <Gold.Chemscore.Hbonds>
donor molecule, donor type, donor heavy atom, donor atom, acceptor molecule, acceptor atom, score
      P1  H  6896  6908       L1     8  0.99
      P1  H  6931  6943       L1    15  1.00
      P1  H  6934  6947       L1    15  0.65
      P1  H 10752 10763       L1    19  0.75

> <Gold.PLP.Chemscore.Internal.Correction>
0.1829

> <Gold.Rescore>
     Score         DG    S(hbond)    S(metal)    S(lipo)     H(rot)  DE(clash)    DE(int)     intcor
     13.94     -14.84       3.14        0.00      49.03       2.68       0.08       0.82       ----

> <Gold.Chemscore.Fitness>
13.9388

> <Gold.Chemscore.DG>
-14.8385

> <Gold.Chemscore.ZeroCoef>
-5.4800

> <Gold.Chemscore.Hbond>
3.1403

> <Gold.Chemscore.Metal>
0.0000

> <Gold.Chemscore.Lipo>
49.0272

> <Gold.Chemscore.Internal_Hbond>
0.0000

> <Gold.Chemscore.DEClash>
0.0787

> <Gold.Chemscore.DEInternal>
0.8210

> <Gold.Chemscore.Rot>
2.6821

> <Gold.Chemscore.Internal.Correction>
   9.000000E+99

> <Gold.Chemscore.Hbonds>
donor molecule, donor type, donor heavy atom, donor atom, acceptor molecule, acceptor atom, score
      P1  H  6896  6908       L1     8  0.91
      P1  H  6931  6943       L1    15  0.33
      P1  H  6934  6947       L1    15  0.62
      P1  H 10752 10763       L1    19  0.67

> <Gold.Chemscore.Hbond.Weighted>
-10.4885

> <Gold.Chemscore.Metal.Weighted>
-0.0000

> <Gold.Chemscore.Lipo.Weighted>
-5.7362

> <Gold.Chemscore.Internal_Hbond.Weighted>
0.0000

> <Gold.Chemscore.DEClash.Weighted>
0.0787

> <Gold.Chemscore.DEInternal.Weighted>
0.8210

> <Gold.Chemscore.Rot.Weighted>
6.8661

> <Gold.Chemscore.Internal.Correction.Weighted>
   9.000000E+99

> <Gold.Protein.RotatedTorsions>
[ 6907 6896 6895 6894 ] final -172.73 input  -60.11 | X-H torsion
[ 7974 7965 7964 7962 ] final  -32.74 input  175.53 | X-H torsion
[ 8008 7997 7996 7995 ] final  164.01 input   59.86 | X-H torsion
[ 10167 10162 10161 10158 ] final   -8.17 input  -65.29 | X-H torsion
[ 10718 10713 10712 10709 ] final  140.68 input   66.30 | X-H torsion
[ 10763 10752 10751 10750 ] final   49.92 input  -60.55 | X-H torsion
[ 11005 11000 10999 10996 ] final -148.67 input  -57.11 | X-H torsion

> <Gold.Protein.ActiveResidues>
 VAL166  LYS551  ARG553  GLY616  TRP617  ASP618  TYR619  PRO620  LYS621  CYS622 
 ASP623  PHE694  ASN695  SER759  ASP760  ASP761  ALA762  ILE779  LEU786  VAL792 
 PHE793  MET794  SER795  GLU796  ALA797  LYS798  CYS799  TRP800  GLU811  SER814 

> <Gold.Protein.RotatedAtoms>
  151.5447  133.3427  159.2941 H   0  0  0  0  0  0  0  0  0  0  0  0  # atno 6907 bound_to 6896
  150.8514  134.7843  159.7023 H   0  0  0  0  0  0  0  0  0  0  0  0  # atno 6908 bound_to 6896
  152.4559  134.5300  159.9860 H   0  0  0  0  0  0  0  0  0  0  0  0  # atno 6909 bound_to 6896
  146.0966  140.5830  142.8840 H   0  0  0  0  0  0  0  0  0  0  0  0  # atno 7974 bound_to 7965
  156.1913  140.1708  156.8086 H   0  0  0  0  0  0  0  0  0  0  0  0  # atno 8008 bound_to 7997
  154.5475  140.0724  156.8645 H   0  0  0  0  0  0  0  0  0  0  0  0  # atno 8009 bound_to 7997
  155.3093  140.3366  155.4247 H   0  0  0  0  0  0  0  0  0  0  0  0  # atno 8010 bound_to 7997
  140.7051  143.5999  150.8809 H   0  0  0  0  0  0  0  0  0  0  0  0  # atno 10167 bound_to 10162
  157.4006  131.1016  151.0556 H   0  0  0  0  0  0  0  0  0  0  0  0  # atno 10718 bound_to 10713
  152.9785  135.5896  154.4167 H   0  0  0  0  0  0  0  0  0  0  0  0  # atno 10763 bound_to 10752
  154.3796  135.2767  155.2221 H   0  0  0  0  0  0  0  0  0  0  0  0  # atno 10764 bound_to 10752
  154.4140  135.6074  153.6024 H   0  0  0  0  0  0  0  0  0  0  0  0  # atno 10765 bound_to 10752
  140.7588  134.3322  157.5107 H   0  0  0  0  0  0  0  0  0  0  0  0  # atno 11005 bound_to 11000
  144.7400  140.4915  143.6876 LP  0  0  0  0  0  0  0  0  0  0  0  0  # atno 17320 bound_to 7965
  145.5937  139.1497  143.3168 LP  0  0  0  0  0  0  0  0  0  0  0  0  # atno 17321 bound_to 7965
  139.9723  143.6043  152.2969 LP  0  0  0  0  0  0  0  0  0  0  0  0  # atno 17342 bound_to 10162
  139.6634  144.7662  151.1919 LP  0  0  0  0  0  0  0  0  0  0  0  0  # atno 17343 bound_to 10162
  157.1556  130.6203  149.5595 LP  0  0  0  0  0  0  0  0  0  0  0  0  # atno 17370 bound_to 10713
  155.9822  130.4834  150.6869 LP  0  0  0  0  0  0  0  0  0  0  0  0  # atno 17371 bound_to 10713
  139.8774  134.9189  156.3213 LP  0  0  0  0  0  0  0  0  0  0  0  0  # atno 17394 bound_to 11000
  140.9682  133.7344  156.0497 LP  0  0  0  0  0  0  0  0  0  0  0  0  # atno 17395 bound_to 11000

$$$$
