#       Name:                AV-unprocessed.smi:603
#       Creating user name   scv26
#       Creation time:       Thu Mar 26 23:55:29 2020


#       File generated by GOLD software.
#

@<TRIPOS>MOLECULE
AV-unprocessed.smi:603
    42    43     1
SMALL
NO_CHARGES


@<TRIPOS>ATOM
      1 ****         0.5786   0.5321  -1.4220 O.2            1 S1                 0.0000
      2 ****         1.3922  -0.1123  -0.7569 C.2            1 S1                 0.0000
      3 ****         2.8883   0.0971  -1.0158 C.3            1 S1                 0.0000
      4 ****         3.4108   1.2501  -0.2701 N.am           1 S1                 0.0000
      5 ****         3.4220   2.4297  -0.9943 N.2            1 S1                 0.0000
      6 ****         3.8520   3.5108  -0.4409 C.2            1 S1                 0.0000
      7 ****         4.3321   3.5394   0.9228 C.2            1 S1                 0.0000
      8 ****         4.8965   5.0202   1.6126 Cl             1 S1                 0.0000
      9 ****         4.3217   2.3772   1.6227 C.2            1 S1                 0.0000
     10 ****         4.8807   2.3321   3.2596 Cl             1 S1                 0.0000
     11 ****         3.8389   1.1249   1.0239 C.2            1 S1                 0.0000
     12 ****         3.8143   0.0509   1.6262 O.2            1 S1                 0.0000
     13 ****         1.0918  -1.0081   0.2120 N.am           1 S1                 0.0000
     14 ****        -0.1000  -1.4234   0.7018 C.2            1 S1                 0.0000
     15 ****        -0.1491  -2.2606   1.6015 O.2            1 S1                 0.0000
     16 ****        -1.2083  -0.8830   0.1608 N.am           1 S1                 0.0000
     17 ****        -2.5809  -1.1962   0.5481 C.3            1 S1                 0.0000
     18 ****        -3.0764  -2.4908  -0.1269 C.3            1 S1                 0.0000
     19 ****        -4.0785  -2.0506  -1.1940 C.3            1 S1                 0.0000
     20 ****        -4.7012  -0.7830  -0.6179 C.3            1 S1                 0.0000
     21 ****        -3.5430  -0.0814   0.0939 C.3            1 S1                 0.0000
     22 ****         3.4427  -0.8112  -0.7719 H              1 S1                 0.0000
     23 ****         3.0378   0.2437  -2.0873 H              1 S1                 0.0000
     24 ****         3.8770   4.4626  -0.9719 H              1 S1                 0.0000
     25 ****         1.8937  -1.4366   0.6514 H              1 S1                 0.0000
     26 ****        -1.0875  -0.2016  -0.5753 H              1 S1                 0.0000
     27 ****        -2.6384  -1.3056   1.6327 H              1 S1                 0.0000
     28 ****        -2.2741  -3.0992  -0.5467 H              1 S1                 0.0000
     29 ****        -3.5885  -3.1062   0.6138 H              1 S1                 0.0000
     30 ****        -3.5510  -1.8130  -2.1189 H              1 S1                 0.0000
     31 ****        -4.8184  -2.8194  -1.4183 H              1 S1                 0.0000
     32 ****        -5.1657  -0.1579  -1.3810 H              1 S1                 0.0000
     33 ****        -5.4707  -1.0507   0.1075 H              1 S1                 0.0000
     34 ****        -3.8898   0.5279   0.9291 H              1 S1                 0.0000
     35 ****        -3.0496   0.5909  -0.6102 H              1 S1                 0.0000
     36 ****         0.8990   1.1774  -2.1155 LP             1 S1                 0.0000
     37 ****        -0.4019   0.4097  -1.2680 LP             1 S1                 0.0000
     38 ****         3.0986   2.4427  -1.9405 LP             1 S1                 0.0000
     39 ****         3.4725  -0.7706   1.1698 LP             1 S1                 0.0000
     40 ****         4.1361   0.0004   2.5717 LP             1 S1                 0.0000
     41 ****         0.6960  -2.6406   1.9775 LP             1 S1                 0.0000
     42 ****        -1.0341  -2.5612   1.9569 LP             1 S1                 0.0000
@<TRIPOS>BOND
    1    1    2 2     
    2    2    3 1     
    3    2   13 1     
    4    3    4 1     
    5    3   22 1     
    6    3   23 1     
    7    4   11 am    
    8    4    5 1     
    9    5    6 2     
   10    6    7 1     
   11    6   24 1     
   12    7    8 1     
   13    7    9 2     
   14    9   10 1     
   15    9   11 1     
   16   11   12 2     
   17   13   14 1     
   18   13   25 1     
   19   14   15 2     
   20   14   16 1     
   21   16   17 1     
   22   16   26 1     
   23   17   21 1     
   24   17   18 1     
   25   17   27 1     
   26   18   19 1     
   27   18   28 1     
   28   18   29 1     
   29   19   20 1     
   30   19   30 1     
   31   19   31 1     
   32   20   21 1     
   33   20   32 1     
   34   20   33 1     
   35   21   34 1     
   36   21   35 1     
   37    1   36 1     
   38    1   37 1     
   39    5   38 1     
   40   12   39 1     
   41   12   40 1     
   42   15   41 1     
   43   15   42 1     
@<TRIPOS>SUBSTRUCTURE
      1 S1             1
@<TRIPOS>SET
LONE_PAIRS      STATIC     ATOMS    <user>   **** ""
7 36 37 38 39 40 41 42
DONOR_HYDROGENS      STATIC     ATOMS    <user>   **** ""
2 25 26
ATOM$BLUE        STATIC     ATOMS    COLORGROUP SYSTEM
7 36 37 38 39 40 41 42
ATOM$RED        STATIC     ATOMS    COLORGROUP SYSTEM
2 25 26
