AV-unprocessed.smi:2749|AV-procd|sdf|10586|dock1
  -GOLD-   2272015 33D 1   1.00000     0.00000
 Structure written by MMmdl.
 32 34  0  0  0  0  0  0  0  0  1 V2000
  150.3275  140.4939  156.5269 O   0  0  0  0  0  0  0  0  0  0  0  0
  150.0357  141.6679  156.3063 C   0  0  0  0  0  0  0  0  0  0  0  0
  150.3850  142.6488  157.1656 N   0  0  0  0  0  0  0  0  0  0  0  0
  151.1024  142.6058  158.3972 C   0  0  0  0  0  0  0  0  0  0  0  0
  151.0898  143.8163  159.1274 C   0  0  0  0  0  0  0  0  0  0  0  0
  151.7538  143.8885  160.3676 C   0  0  0  0  0  0  0  0  0  0  0  0
  152.4102  142.7426  160.8498 C   0  0  0  0  0  0  0  0  0  0  0  0
  153.0614  142.7628  162.0367 F   0  0  0  0  0  0  0  0  0  0  0  0
  152.3717  141.5742  160.0671 C   0  0  0  0  0  0  0  0  0  0  0  0
  151.7367  141.5053  158.8779 N   0  0  0  0  0  0  0  0  0  0  0  0
  149.3502  142.0531  155.2185 N   0  0  0  0  0  0  0  0  0  0  0  0
  148.9067  141.1712  154.1440 C   0  0  1  0  0  0  0  0  0  0  0  0
  148.3950  139.8315  154.6812 C   0  0  0  0  0  0  0  0  0  0  0  0
  146.9555  139.8032  154.1504 C   0  0  1  0  0  0  0  0  0  0  0  0
  146.0489  140.7943  154.8940 C   0  0  0  0  0  0  0  0  0  0  0  0
  146.5192  142.1332  154.3284 C   0  0  0  0  0  0  0  0  0  0  0  0
  147.6623  141.6948  153.3969 C   0  0  2  0  0  0  0  0  0  0  0  0
  147.1246  140.4751  152.9140 O   0  0  0  0  0  0  0  0  0  0  0  0
  150.0304  143.5622  156.9222 H   0  0  0  0  0  0  0  0  0  0  0  0
  150.5778  144.6869  158.7432 H   0  0  0  0  0  0  0  0  0  0  0  0
  151.7577  144.8058  160.9374 H   0  0  0  0  0  0  0  0  0  0  0  0
  152.8618  140.6722  160.4022 H   0  0  0  0  0  0  0  0  0  0  0  0
  149.1505  143.0378  155.1126 H   0  0  0  0  0  0  0  0  0  0  0  0
  149.7209  140.9901  153.4397 H   0  0  0  0  0  0  0  0  0  0  0  0
  148.9753  139.0097  154.2602 H   0  0  0  0  0  0  0  0  0  0  0  0
  148.4336  139.7482  155.7685 H   0  0  0  0  0  0  0  0  0  0  0  0
  146.5369  138.8002  154.0641 H   0  0  0  0  0  0  0  0  0  0  0  0
  144.9998  140.6233  154.6502 H   0  0  0  0  0  0  0  0  0  0  0  0
  146.1648  140.7283  155.9763 H   0  0  0  0  0  0  0  0  0  0  0  0
  145.7193  142.6000  153.7526 H   0  0  0  0  0  0  0  0  0  0  0  0
  146.8291  142.8391  155.0992 H   0  0  0  0  0  0  0  0  0  0  0  0
  147.8922  142.4189  152.6148 H   0  0  0  0  0  0  0  0  0  0  0  0
  1  2  2  0  0  0  0
  2  3  1  0  0  0  0
  2 11  1  0  0  0  0
  3  4  1  0  0  0  0
  3 19  1  0  0  0  0
  4 10  1  0  0  0  0
  4  5  2  0  0  0  0
  5  6  1  0  0  0  0
  5 20  1  0  0  0  0
  6  7  2  0  0  0  0
  6 21  1  0  0  0  0
  7  8  1  0  0  0  0
  7  9  1  0  0  0  0
  9 10  2  0  0  0  0
  9 22  1  0  0  0  0
 11 12  1  0  0  0  0
 11 23  1  0  0  0  0
 12 17  1  0  0  0  0
 12 13  1  0  0  0  0
 12 24  1  0  0  0  0
 13 14  1  0  0  0  0
 13 25  1  0  0  0  0
 13 26  1  0  0  0  0
 14 18  1  0  0  0  0
 14 15  1  0  0  0  0
 14 27  1  0  0  0  0
 15 16  1  0  0  0  0
 15 28  1  0  0  0  0
 15 29  1  0  0  0  0
 16 17  1  0  0  0  0
 16 30  1  0  0  0  0
 16 31  1  0  0  0  0
 17 18  1  0  0  0  0
 17 32  1  0  0  0  0
M  END
> <s_m_source_file>
AV-unprocessed.smi

> <i_m_source_file_index>
2749

> <i_lp_mmshare_version>
43012

> <i_f3d_flags>
0

> <s_epik_input>
W0NIMl0xW0NIMl1bQ0BIXShPMilbQ0BASF0oW0NIMl1bQ0BASF0xMilbTkhdQyg9TylbTkhdYzNbY0hdW2NIXWMoRilbY0hdbjM=

> <s_epik_cmdline>
J2VwaWtfcHl0aG9uJywgJy1waCcsICc3LjAnLCAnLXRuJywgJzgnLCAnLW1hJywgJzIwMCcsICctbWV0YWxfYmluZGluZycsICctaW1hZScsICc8aW5maWxlLm1hZT4nLCAnLW9tYWUnLCAnPG91dGZpbGUubWFlPic=

> <r_lp_tautomer_probability>
1

> <r_epik_Ionization_Penalty>
3.37159e-05

> <r_epik_Ionization_Penalty_Charging>
0

> <r_epik_Ionization_Penalty_Neutral>
3.37159e-05

> <r_epik_State_Penalty>
-0

> <r_epik_Charging_Adjusted_Penalty>
0

> <i_epik_Tot_Q>
0

> <i_epik_Tot_abs_Q>
0

> <r_epik_Metal_State_Penalty>
-0

> <b_epik_Metal_Only>
0

> <s_lp_Force_Field>
OPLS_2005

> <r_lp_Energy>
40.3406

> <b_lp_Chiralities_Consistent>
1

> <s_lp_Variant>
AV-unprocessed.smi:2749-2

> <Gold.Version>
5.8.1

> <Gold.Id.Protein>
6NUR|6NUR_protein|mol2

> <Gold.PLP.Fitness>
40.4004

> <Gold.PLP.PLP>
-35.0829

> <Gold.PLP.part.hbond>
-2.0000

> <Gold.PLP.part.metal>
0.0000

> <Gold.PLP.part.buried>
-5.2369

> <Gold.PLP.part.nonpolar>
-27.6408

> <Gold.PLP.part.repulsive>
0.7978

> <Gold.PLP.ligand.clash>
0.0000

> <Gold.PLP.ligand.torsion>
0.3393

> <Gold.PLP.Chemscore.Hbond>
1.9920

> <Gold.PLP.Chemscore.CHOScore>
0.0000

> <Gold.PLP.Chemscore.Metal>
0.0000

> <Gold.Chemscore.Hbonds>
donor molecule, donor type, donor heavy atom, donor atom, acceptor molecule, acceptor atom, score
      L1  H     3    19       P1  8028  0.95
      L1  H    11    23       P1  8028  1.00

> <Gold.PLP.Chemscore.Internal.Correction>
0.0201

> <Gold.Rescore>
     Score         DG    S(hbond)    S(metal)    S(lipo)     H(rot)  DE(clash)    DE(int)     intcor
     14.52     -18.18       1.91        0.00      75.88       1.00       0.65       3.01       ----

> <Gold.Chemscore.Fitness>
14.5224

> <Gold.Chemscore.DG>
-18.1837

> <Gold.Chemscore.ZeroCoef>
-5.4800

> <Gold.Chemscore.Hbond>
1.9119

> <Gold.Chemscore.Metal>
0.0000

> <Gold.Chemscore.Lipo>
75.8797

> <Gold.Chemscore.Internal_Hbond>
0.0000

> <Gold.Chemscore.DEClash>
0.6547

> <Gold.Chemscore.DEInternal>
3.0066

> <Gold.Chemscore.Rot>
1.0000

> <Gold.Chemscore.Internal.Correction>
   9.000000E+99

> <Gold.Chemscore.Hbonds>
donor molecule, donor type, donor heavy atom, donor atom, acceptor molecule, acceptor atom, score
      L1  H     3    19       P1  8028  0.84
      L1  H    11    23       P1  8028  0.99

> <Gold.Chemscore.Hbond.Weighted>
-6.3858

> <Gold.Chemscore.Metal.Weighted>
-0.0000

> <Gold.Chemscore.Lipo.Weighted>
-8.8779

> <Gold.Chemscore.Internal_Hbond.Weighted>
0.0000

> <Gold.Chemscore.DEClash.Weighted>
0.6547

> <Gold.Chemscore.DEInternal.Weighted>
3.0066

> <Gold.Chemscore.Rot.Weighted>
2.5600

> <Gold.Chemscore.Internal.Correction.Weighted>
   9.000000E+99

> <Gold.Protein.RotatedTorsions>
[ 6907 6896 6895 6894 ] final  152.34 input  -60.11 | X-H torsion
[ 7974 7965 7964 7962 ] final  -58.62 input  175.53 | X-H torsion
[ 8008 7997 7996 7995 ] final  150.54 input   59.86 | X-H torsion
[ 10167 10162 10161 10158 ] final -100.10 input  -65.29 | X-H torsion
[ 10718 10713 10712 10709 ] final  135.26 input   66.30 | X-H torsion
[ 10763 10752 10751 10750 ] final -138.29 input  -60.55 | X-H torsion
[ 11005 11000 10999 10996 ] final -165.35 input  -57.11 | X-H torsion

> <Gold.Protein.ActiveResidues>
 VAL166  LYS551  ARG553  GLY616  TRP617  ASP618  TYR619  PRO620  LYS621  CYS622 
 ASP623  PHE694  ASN695  SER759  ASP760  ASP761  ALA762  ILE779  LEU786  VAL792 
 PHE793  MET794  SER795  GLU796  ALA797  LYS798  CYS799  TRP800  GLU811  SER814 

> <Gold.Protein.RotatedAtoms>
  152.0880  133.4186  159.4530 H   0  0  0  0  0  0  0  0  0  0  0  0  # atno 6907 bound_to 6896
  150.6862  134.2905  159.4673 H   0  0  0  0  0  0  0  0  0  0  0  0  # atno 6908 bound_to 6896
  152.0753  134.9506  160.0625 H   0  0  0  0  0  0  0  0  0  0  0  0  # atno 6909 bound_to 6896
  145.8372  140.8441  143.0053 H   0  0  0  0  0  0  0  0  0  0  0  0  # atno 7974 bound_to 7965
  156.2711  140.2072  156.6034 H   0  0  0  0  0  0  0  0  0  0  0  0  # atno 8008 bound_to 7997
  154.6889  140.0532  157.0366 H   0  0  0  0  0  0  0  0  0  0  0  0  # atno 8009 bound_to 7997
  155.0895  140.3195  155.4581 H   0  0  0  0  0  0  0  0  0  0  0  0  # atno 8010 bound_to 7997
  140.2555  143.3443  152.0675 H   0  0  0  0  0  0  0  0  0  0  0  0  # atno 10167 bound_to 10162
  157.4589  131.1072  150.9944 H   0  0  0  0  0  0  0  0  0  0  0  0  # atno 10718 bound_to 10713
  154.8641  135.3616  154.5361 H   0  0  0  0  0  0  0  0  0  0  0  0  # atno 10763 bound_to 10752
  153.5984  135.7013  153.5399 H   0  0  0  0  0  0  0  0  0  0  0  0  # atno 10764 bound_to 10752
  153.3312  135.4124  155.1458 H   0  0  0  0  0  0  0  0  0  0  0  0  # atno 10765 bound_to 10752
  140.5767  134.5183  157.5171 H   0  0  0  0  0  0  0  0  0  0  0  0  # atno 11005 bound_to 11000
  144.6736  140.0759  143.7471 LP  0  0  0  0  0  0  0  0  0  0  0  0  # atno 17320 bound_to 7965
  145.9505  139.2731  143.1215 LP  0  0  0  0  0  0  0  0  0  0  0  0  # atno 17321 bound_to 7965
  139.5033  144.6752  151.6145 LP  0  0  0  0  0  0  0  0  0  0  0  0  # atno 17342 bound_to 10162
  140.6007  143.9615  150.6384 LP  0  0  0  0  0  0  0  0  0  0  0  0  # atno 17343 bound_to 10162
  157.0748  130.5879  149.5409 LP  0  0  0  0  0  0  0  0  0  0  0  0  # atno 17370 bound_to 10713
  156.0020  130.5100  150.7696 LP  0  0  0  0  0  0  0  0  0  0  0  0  # atno 17371 bound_to 10713
  139.9336  134.7917  156.0863 LP  0  0  0  0  0  0  0  0  0  0  0  0  # atno 17394 bound_to 11000
  141.1022  133.6673  156.2780 LP  0  0  0  0  0  0  0  0  0  0  0  0  # atno 17395 bound_to 11000

$$$$
