AV-unprocessed.smi:2120|AV-procd|sdf|8639|dock2
  -GOLD-   2272011383D 1   1.00000     0.00000
 Structure written by MMmdl.
 46 49  0  0  0  0  0  0  0  0  2 V2000
  148.7062  141.6759  157.9379 O   0  0  0  0  0  0  0  0  0  0  0  0
  149.6321  142.2861  157.4012 C   0  0  0  0  0  0  0  0  0  0  0  0
  149.7773  142.3299  156.0659 N   0  0  0  0  0  0  0  0  0  0  0  0
  148.8962  141.6784  155.1042 C   0  0  0  0  0  0  0  0  0  0  0  0
  148.7633  140.1710  155.3823 C   0  0  0  0  0  0  0  0  0  0  0  0
  150.0198  139.4055  155.0153 C   0  0  0  0  0  0  0  0  0  0  0  0
  151.2658  139.7684  155.5732 C   0  0  0  0  0  0  0  0  0  0  0  0
  152.4212  139.0420  155.2175 C   0  0  0  0  0  0  0  0  0  0  0  0
  152.3041  137.9664  154.3135 C   0  0  0  0  0  0  0  0  0  0  0  0
  151.0951  137.6472  153.8012 N   0  3  0  0  0  0  0  0  0  0  0  0
  149.9655  138.3193  154.1150 C   0  0  0  0  0  0  0  0  0  0  0  0
  150.6639  143.0352  158.2774 C   0  0  0  0  0  0  0  0  0  0  0  0
  149.9116  143.9821  159.2519 C   0  0  0  0  0  0  0  0  0  0  0  0
  150.9129  144.7066  160.1777 C   0  0  1  0  0  0  0  0  0  0  0  0
  151.6971  143.6659  161.0040 C   0  0  0  0  0  0  0  0  0  0  0  0
  152.4675  142.7328  160.0464 C   0  0  2  0  0  0  0  0  0  0  0  0
  153.4540  143.5610  159.1978 C   0  0  0  0  0  0  0  0  0  0  0  0
  152.6670  144.6032  158.3769 C   0  0  2  0  0  0  0  0  0  0  0  0
  151.8951  145.5405  159.3290 C   0  0  0  0  0  0  0  0  0  0  0  0
  151.6712  143.8825  157.4433 C   0  0  0  0  0  0  0  0  0  0  0  0
  151.4692  142.0064  159.1194 C   0  0  0  0  0  0  0  0  0  0  0  0
  150.5601  142.8478  155.6931 H   0  0  0  0  0  0  0  0  0  0  0  0
  147.9173  142.1550  155.1639 H   0  0  0  0  0  0  0  0  0  0  0  0
  149.2660  141.8532  154.0925 H   0  0  0  0  0  0  0  0  0  0  0  0
  148.5535  139.9950  156.4381 H   0  0  0  0  0  0  0  0  0  0  0  0
  147.9153  139.7636  154.8298 H   0  0  0  0  0  0  0  0  0  0  0  0
  151.3362  140.5957  156.2647 H   0  0  0  0  0  0  0  0  0  0  0  0
  153.3830  139.3062  155.6326 H   0  0  0  0  0  0  0  0  0  0  0  0
  153.1344  137.3569  153.9876 H   0  0  0  0  0  0  0  0  0  0  0  0
  149.0606  137.9689  153.6399 H   0  0  0  0  0  0  0  0  0  0  0  0
  149.3298  144.7171  158.6930 H   0  0  0  0  0  0  0  0  0  0  0  0
  149.1951  143.4244  159.8575 H   0  0  0  0  0  0  0  0  0  0  0  0
  150.3678  145.3672  160.8526 H   0  0  0  0  0  0  0  0  0  0  0  0
  152.3887  144.1653  161.6836 H   0  0  0  0  0  0  0  0  0  0  0  0
  151.0153  143.0873  161.6283 H   0  0  0  0  0  0  0  0  0  0  0  0
  153.0215  141.9955  160.6282 H   0  0  0  0  0  0  0  0  0  0  0  0
  154.1816  144.0573  159.8414 H   0  0  0  0  0  0  0  0  0  0  0  0
  154.0229  142.9078  158.5348 H   0  0  0  0  0  0  0  0  0  0  0  0
  153.3634  145.1908  157.7780 H   0  0  0  0  0  0  0  0  0  0  0  0
  151.3549  146.2979  158.7596 H   0  0  0  0  0  0  0  0  0  0  0  0
  152.5898  146.0789  159.9750 H   0  0  0  0  0  0  0  0  0  0  0  0
  152.2216  143.2486  156.7460 H   0  0  0  0  0  0  0  0  0  0  0  0
  151.1459  144.6249  156.8402 H   0  0  0  0  0  0  0  0  0  0  0  0
  150.8012  141.3904  159.7238 H   0  0  0  0  0  0  0  0  0  0  0  0
  152.0073  141.3190  158.4648 H   0  0  0  0  0  0  0  0  0  0  0  0
  151.0323  136.8643  153.1497 H   0  0  0  0  0  0  0  0  0  0  0  0
  1  2  2  0  0  0  0
  2  3  1  0  0  0  0
  2 12  1  0  0  0  0
  3  4  1  0  0  0  0
  3 22  1  0  0  0  0
  4  5  1  0  0  0  0
  4 23  1  0  0  0  0
  4 24  1  0  0  0  0
  5  6  1  0  0  0  0
  5 25  1  0  0  0  0
  5 26  1  0  0  0  0
  6 11  1  0  0  0  0
  6  7  2  0  0  0  0
  7  8  1  0  0  0  0
  7 27  1  0  0  0  0
  8  9  2  0  0  0  0
  8 28  1  0  0  0  0
  9 10  1  0  0  0  0
  9 29  1  0  0  0  0
 10 11  2  0  0  0  0
 10 46  1  0  0  0  0
 11 30  1  0  0  0  0
 12 20  1  0  0  0  0
 12 21  1  0  0  0  0
 12 13  1  0  0  0  0
 13 14  1  0  0  0  0
 13 31  1  0  0  0  0
 13 32  1  0  0  0  0
 14 19  1  0  0  0  0
 14 15  1  0  0  0  0
 14 33  1  0  0  0  0
 15 16  1  0  0  0  0
 15 34  1  0  0  0  0
 15 35  1  0  0  0  0
 16 17  1  0  0  0  0
 16 21  1  0  0  0  0
 16 36  1  0  0  0  0
 17 18  1  0  0  0  0
 17 37  1  0  0  0  0
 17 38  1  0  0  0  0
 18 19  1  0  0  0  0
 18 20  1  0  0  0  0
 18 39  1  0  0  0  0
 19 40  1  0  0  0  0
 19 41  1  0  0  0  0
 20 42  1  0  0  0  0
 20 43  1  0  0  0  0
 21 44  1  0  0  0  0
 21 45  1  0  0  0  0
M  CHG  1  10   1
M  END
> <s_m_source_file>
AV-unprocessed.smi

> <i_m_source_file_index>
2120

> <i_lp_mmshare_version>
43012

> <i_f3d_flags>
0

> <s_epik_input>
W0NIMl0xW0NASF0oW0NIMl0yKVtDSDJdW0NASF0oW0NIMl0zKVtDSDJdW0NAQEhdMVtDSDJdQzIzQyg9TylbTkhdW0NIMl1bQ0gyXWM0W2NIXVtjSF1bY0hdbltjSF00

> <s_epik_cmdline>
J2VwaWtfcHl0aG9uJywgJy1waCcsICc3LjAnLCAnLXRuJywgJzgnLCAnLW1hJywgJzIwMCcsICctbWV0YWxfYmluZGluZycsICctaW1hZScsICc8aW5maWxlLm1hZT4nLCAnLW9tYWUnLCAnPG91dGZpbGUubWFlPic=

> <r_epik_Ionization_Penalty>
2.23732

> <r_epik_Ionization_Penalty_Charging>
2.23732

> <r_epik_Ionization_Penalty_Neutral>
2.68417e-08

> <r_epik_State_Penalty>
2.38345

> <r_epik_Charging_Adjusted_Penalty>
4.62076

> <i_epik_Tot_Q>
1

> <i_epik_Tot_abs_Q>
1

> <r_epik_Metal_State_Penalty>
2.39692

> <b_epik_Metal_Only>
0

> <s_lp_Force_Field>
OPLS_2005

> <r_lp_Energy>
42.1143

> <b_lp_Chiralities_Consistent>
1

> <s_lp_Variant>
AV-unprocessed.smi:2120-2

> <Gold.Version>
5.8.1

> <Gold.Id.Protein>
6NUR|6NUR_protein|mol2

> <Gold.PLP.Fitness>
54.6289

> <Gold.PLP.PLP>
-48.9915

> <Gold.PLP.part.hbond>
-2.6020

> <Gold.PLP.part.metal>
0.0000

> <Gold.PLP.part.buried>
-2.1925

> <Gold.PLP.part.nonpolar>
-45.6444

> <Gold.PLP.part.repulsive>
0.3244

> <Gold.PLP.ligand.clash>
0.0000

> <Gold.PLP.ligand.torsion>
0.1908

> <Gold.PLP.Chemscore.Hbond>
2.0000

> <Gold.PLP.Chemscore.CHOScore>
0.0000

> <Gold.PLP.Chemscore.Metal>
0.0000

> <Gold.Chemscore.Hbonds>
donor molecule, donor type, donor heavy atom, donor atom, acceptor molecule, acceptor atom, score
      L1  H    10    46       P1  7949  2.00

> <Gold.PLP.Chemscore.Internal.Correction>
0.0189

> <Gold.Rescore>
     Score         DG    S(hbond)    S(metal)    S(lipo)     H(rot)  DE(clash)    DE(int)     intcor
     20.73     -23.65       0.90        0.00     160.47       1.41       0.57       2.35       ----

> <Gold.Chemscore.Fitness>
20.7315

> <Gold.Chemscore.DG>
-23.6507

> <Gold.Chemscore.ZeroCoef>
-5.4800

> <Gold.Chemscore.Hbond>
0.9033

> <Gold.Chemscore.Metal>
0.0000

> <Gold.Chemscore.Lipo>
160.4674

> <Gold.Chemscore.Internal_Hbond>
0.0000

> <Gold.Chemscore.DEClash>
0.5739

> <Gold.Chemscore.DEInternal>
2.3452

> <Gold.Chemscore.Rot>
1.4145

> <Gold.Chemscore.Internal.Correction>
   9.000000E+99

> <Gold.Chemscore.Hbonds>
donor molecule, donor type, donor heavy atom, donor atom, acceptor molecule, acceptor atom, score
      L1  H    10    46       P1  7949  0.30

> <Gold.Chemscore.Hbond.Weighted>
-3.0170

> <Gold.Chemscore.Metal.Weighted>
-0.0000

> <Gold.Chemscore.Lipo.Weighted>
-18.7747

> <Gold.Chemscore.Internal_Hbond.Weighted>
0.0000

> <Gold.Chemscore.DEClash.Weighted>
0.5739

> <Gold.Chemscore.DEInternal.Weighted>
2.3452

> <Gold.Chemscore.Rot.Weighted>
3.6210

> <Gold.Chemscore.Internal.Correction.Weighted>
   9.000000E+99

> <Gold.Protein.RotatedTorsions>
[ 6907 6896 6895 6894 ] final -133.94 input  -60.11 | X-H torsion
[ 7974 7965 7964 7962 ] final -160.99 input  175.53 | X-H torsion
[ 8008 7997 7996 7995 ] final  -26.56 input   59.86 | X-H torsion
[ 10167 10162 10161 10158 ] final  -53.11 input  -65.29 | X-H torsion
[ 10718 10713 10712 10709 ] final   97.15 input   66.30 | X-H torsion
[ 10763 10752 10751 10750 ] final  139.44 input  -60.55 | X-H torsion
[ 11005 11000 10999 10996 ] final   52.65 input  -57.11 | X-H torsion

> <Gold.Protein.ActiveResidues>
 VAL166  LYS551  ARG553  GLY616  TRP617  ASP618  TYR619  PRO620  LYS621  CYS622 
 ASP623  PHE694  ASN695  SER759  ASP760  ASP761  ALA762  ILE779  LEU786  VAL792 
 PHE793  MET794  SER795  GLU796  ALA797  LYS798  CYS799  TRP800  GLU811  SER814 

> <Gold.Protein.RotatedAtoms>
  150.9799  133.6256  159.2724 H   0  0  0  0  0  0  0  0  0  0  0  0  # atno 6907 bound_to 6896
  151.3514  135.0884  159.9414 H   0  0  0  0  0  0  0  0  0  0  0  0  # atno 6908 bound_to 6896
  152.5212  133.9391  159.7672 H   0  0  0  0  0  0  0  0  0  0  0  0  # atno 6909 bound_to 6896
  144.7407  140.3461  143.6125 H   0  0  0  0  0  0  0  0  0  0  0  0  # atno 7974 bound_to 7965
  154.4419  140.1896  156.0795 H   0  0  0  0  0  0  0  0  0  0  0  0  # atno 8008 bound_to 7997
  156.0450  140.3315  155.7260 H   0  0  0  0  0  0  0  0  0  0  0  0  # atno 8009 bound_to 7997
  155.5643  140.0606  157.2812 H   0  0  0  0  0  0  0  0  0  0  0  0  # atno 8010 bound_to 7997
  140.6502  143.2561  151.4745 H   0  0  0  0  0  0  0  0  0  0  0  0  # atno 10167 bound_to 10162
  157.6917  131.0600  150.4600 H   0  0  0  0  0  0  0  0  0  0  0  0  # atno 10718 bound_to 10713
  153.9062  135.3016  155.3448 H   0  0  0  0  0  0  0  0  0  0  0  0  # atno 10763 bound_to 10752
  154.7646  135.4917  153.9532 H   0  0  0  0  0  0  0  0  0  0  0  0  # atno 10764 bound_to 10752
  153.1217  135.6784  153.9425 H   0  0  0  0  0  0  0  0  0  0  0  0  # atno 10765 bound_to 10752
  140.0832  134.5310  155.8925 H   0  0  0  0  0  0  0  0  0  0  0  0  # atno 11005 bound_to 11000
  145.7324  139.1740  143.2423 LP  0  0  0  0  0  0  0  0  0  0  0  0  # atno 17320 bound_to 7965
  146.1196  140.7326  142.9464 LP  0  0  0  0  0  0  0  0  0  0  0  0  # atno 17321 bound_to 7965
  139.5716  144.1915  152.1845 LP  0  0  0  0  0  0  0  0  0  0  0  0  # atno 17342 bound_to 10162
  140.1213  144.5371  150.6861 LP  0  0  0  0  0  0  0  0  0  0  0  0  # atno 17343 bound_to 10162
  156.4945  130.4103  149.6388 LP  0  0  0  0  0  0  0  0  0  0  0  0  # atno 17370 bound_to 10713
  156.3386  130.7370  151.2311 LP  0  0  0  0  0  0  0  0  0  0  0  0  # atno 17371 bound_to 10713
  141.2054  133.6646  156.6177 LP  0  0  0  0  0  0  0  0  0  0  0  0  # atno 17394 bound_to 11000
  140.3458  134.7811  157.4431 LP  0  0  0  0  0  0  0  0  0  0  0  0  # atno 17395 bound_to 11000

$$$$
