AV-unprocessed.smi:1797|AV-procd|sdf|7258|dock5
  -GOLD-   22720 8513D 1   1.00000     0.00000
 Structure written by MMmdl.
 29 30  0  0  0  0  0  0  0  0  2 V2000
  150.0412  135.0466  155.4461 C   0  0  0  0  0  0  0  0  0  0  0  0
  150.9101  136.2403  155.6481 C   0  0  0  0  0  0  0  0  0  0  0  0
  151.7476  136.6914  154.7111 N   0  0  0  0  0  0  0  0  0  0  0  0
  152.4484  137.8123  155.1320 N   0  0  0  0  0  0  0  0  0  0  0  0
  152.1230  138.2003  156.3735 C   0  0  0  0  0  0  0  0  0  0  0  0
  152.6842  139.2686  156.9695 N   0  5  0  0  0  0  0  0  0  0  0  0
  152.0181  140.0417  157.8670 C   0  0  0  0  0  0  0  0  0  0  0  0
  151.2346  139.5856  158.6988 O   0  0  0  0  0  0  0  0  0  0  0  0
  152.2357  141.3711  157.8362 N   0  0  0  0  0  0  0  0  0  0  0  0
  151.6163  142.3708  158.7009 C   0  0  1  0  0  0  0  0  0  0  0  0
  152.6808  143.2462  159.3791 C   0  0  0  0  0  0  0  0  0  0  0  0
  152.0307  144.2994  160.2906 C   0  0  0  0  0  0  0  0  0  0  0  0
  150.8391  145.0205  159.6429 C   0  0  0  0  0  0  0  0  0  0  0  0
  150.4392  146.0786  160.1236 O   0  0  0  0  0  0  0  0  0  0  0  0
  150.2335  144.4578  158.5823 N   0  0  0  0  0  0  0  0  0  0  0  0
  150.6699  143.2565  157.8712 C   0  0  0  0  0  0  0  0  0  0  0  0
  150.9120  137.1707  157.1369 S   0  0  0  0  0  0  0  0  0  0  0  0
  149.1602  135.3214  154.8661 H   0  0  0  0  0  0  0  0  0  0  0  0
  149.7175  134.6473  156.4075 H   0  0  0  0  0  0  0  0  0  0  0  0
  150.5863  134.2680  154.9117 H   0  0  0  0  0  0  0  0  0  0  0  0
  152.8912  141.7138  157.1491 H   0  0  0  0  0  0  0  0  0  0  0  0
  151.0280  141.8664  159.4700 H   0  0  0  0  0  0  0  0  0  0  0  0
  153.3608  142.6294  159.9679 H   0  0  0  0  0  0  0  0  0  0  0  0
  153.2920  143.7419  158.6232 H   0  0  0  0  0  0  0  0  0  0  0  0
  151.6678  143.8169  161.1987 H   0  0  0  0  0  0  0  0  0  0  0  0
  152.7753  145.0322  160.6030 H   0  0  0  0  0  0  0  0  0  0  0  0
  149.4319  144.9380  158.1994 H   0  0  0  0  0  0  0  0  0  0  0  0
  151.1686  143.5839  156.9577 H   0  0  0  0  0  0  0  0  0  0  0  0
  149.7931  142.6868  157.5618 H   0  0  0  0  0  0  0  0  0  0  0  0
  1  2  1  0  0  0  0
  1 18  1  0  0  0  0
  1 19  1  0  0  0  0
  1 20  1  0  0  0  0
  2 17  1  0  0  0  0
  2  3  2  0  0  0  0
  3  4  1  0  0  0  0
  4  5  2  0  0  0  0
  5  6  1  0  0  0  0
  5 17  1  0  0  0  0
  6  7  1  0  0  0  0
  7  8  2  0  0  0  0
  7  9  1  0  0  0  0
  9 10  1  0  0  0  0
  9 21  1  0  0  0  0
 10 16  1  0  0  0  0
 10 11  1  0  0  0  0
 10 22  1  0  0  0  0
 11 12  1  0  0  0  0
 11 23  1  0  0  0  0
 11 24  1  0  0  0  0
 12 13  1  0  0  0  0
 12 25  1  0  0  0  0
 12 26  1  0  0  0  0
 13 14  2  0  0  0  0
 13 15  1  0  0  0  0
 15 16  1  0  0  0  0
 15 27  1  0  0  0  0
 16 28  1  0  0  0  0
 16 29  1  0  0  0  0
M  CHG  1   6  -1
M  END
> <s_m_source_file>
AV-unprocessed.smi

> <i_m_source_file_index>
1797

> <i_lp_mmshare_version>
43012

> <i_f3d_flags>
0

> <s_epik_input>
W0NIM11jMW5uYyhzMSlbTkhdQyg9TylbTkhdW0NAQEhdMltDSDJdW0NIMl1DKD1PKVtOSF1bQ0gyXTI=

> <s_epik_cmdline>
J2VwaWtfcHl0aG9uJywgJy1waCcsICc3LjAnLCAnLXRuJywgJzgnLCAnLW1hJywgJzIwMCcsICctbWV0YWxfYmluZGluZycsICctaW1hZScsICc8aW5maWxlLm1hZT4nLCAnLW9tYWUnLCAnPG91dGZpbGUubWFlPic=

> <r_lp_tautomer_probability>
1

> <r_epik_Ionization_Penalty>
3.31792

> <r_epik_Ionization_Penalty_Charging>
3.17379

> <r_epik_Ionization_Penalty_Neutral>
0.144127

> <r_epik_State_Penalty>
3.17099

> <r_epik_Charging_Adjusted_Penalty>
6.34478

> <i_epik_Tot_Q>
-1

> <i_epik_Tot_abs_Q>
1

> <r_epik_Metal_State_Penalty>
0.468583

> <b_epik_Metal_Only>
1

> <s_lp_Force_Field>
OPLS_2005

> <r_lp_Energy>
8.48183

> <b_lp_Chiralities_Consistent>
1

> <s_lp_Variant>
AV-unprocessed.smi:1797-4

> <Gold.Version>
5.8.1

> <Gold.Id.Protein>
6NUR|6NUR_protein|mol2

> <Gold.PLP.Fitness>
35.2013

> <Gold.PLP.PLP>
-24.3190

> <Gold.PLP.part.hbond>
-6.2343

> <Gold.PLP.part.metal>
0.0000

> <Gold.PLP.part.buried>
-0.6492

> <Gold.PLP.part.nonpolar>
-17.9863

> <Gold.PLP.part.repulsive>
0.6613

> <Gold.PLP.ligand.clash>
0.0000

> <Gold.PLP.ligand.torsion>
0.5463

> <Gold.PLP.Chemscore.Hbond>
3.9913

> <Gold.PLP.Chemscore.CHOScore>
0.0000

> <Gold.PLP.Chemscore.Metal>
0.0000

> <Gold.Chemscore.Hbonds>
donor molecule, donor type, donor heavy atom, donor atom, acceptor molecule, acceptor atom, score
      L1  H    15    27       P1  8029  0.96
      P1  H  7997  8008       L1     6  2.00
      P1  H 10752 10765       L1     3  1.00

> <Gold.PLP.Chemscore.Internal.Correction>
0.0012

> <Gold.Rescore>
     Score         DG    S(hbond)    S(metal)    S(lipo)     H(rot)  DE(clash)    DE(int)     intcor
     11.61     -16.27       2.13        0.00      53.21       1.00       2.89       1.77       ----

> <Gold.Chemscore.Fitness>
11.6117

> <Gold.Chemscore.DG>
-16.2735

> <Gold.Chemscore.ZeroCoef>
-5.4800

> <Gold.Chemscore.Hbond>
2.1340

> <Gold.Chemscore.Metal>
0.0000

> <Gold.Chemscore.Lipo>
53.2125

> <Gold.Chemscore.Internal_Hbond>
0.0000

> <Gold.Chemscore.DEClash>
2.8883

> <Gold.Chemscore.DEInternal>
1.7736

> <Gold.Chemscore.Rot>
1.0000

> <Gold.Chemscore.Internal.Correction>
   9.000000E+99

> <Gold.Chemscore.Hbonds>
donor molecule, donor type, donor heavy atom, donor atom, acceptor molecule, acceptor atom, score
      L1  H    15    27       P1  8029  0.32
      P1  H  7997  8008       L1     6  0.74
      P1  H 10752 10765       L1     3  0.18

> <Gold.Chemscore.Hbond.Weighted>
-7.1277

> <Gold.Chemscore.Metal.Weighted>
-0.0000

> <Gold.Chemscore.Lipo.Weighted>
-6.2259

> <Gold.Chemscore.Internal_Hbond.Weighted>
0.0000

> <Gold.Chemscore.DEClash.Weighted>
2.8883

> <Gold.Chemscore.DEInternal.Weighted>
1.7736

> <Gold.Chemscore.Rot.Weighted>
2.5600

> <Gold.Chemscore.Internal.Correction.Weighted>
   9.000000E+99

> <Gold.Protein.RotatedTorsions>
[ 6907 6896 6895 6894 ] final  -80.09 input  -60.11 | X-H torsion
[ 7974 7965 7964 7962 ] final    6.26 input  175.53 | X-H torsion
[ 8008 7997 7996 7995 ] final  -53.64 input   59.86 | X-H torsion
[ 10167 10162 10161 10158 ] final  -79.91 input  -65.29 | X-H torsion
[ 10718 10713 10712 10709 ] final -158.64 input   66.30 | X-H torsion
[ 10763 10752 10751 10750 ] final  179.37 input  -60.55 | X-H torsion
[ 11005 11000 10999 10996 ] final -120.80 input  -57.11 | X-H torsion

> <Gold.Protein.ActiveResidues>
 VAL166  LYS551  ARG553  GLY616  TRP617  ASP618  TYR619  PRO620  LYS621  CYS622 
 ASP623  PHE694  ASN695  SER759  ASP760  ASP761  ALA762  ILE779  LEU786  VAL792 
 PHE793  MET794  SER795  GLU796  ALA797  LYS798  CYS799  TRP800  GLU811  SER814 

> <Gold.Protein.RotatedAtoms>
  150.6936  134.4023  159.5124 H   0  0  0  0  0  0  0  0  0  0  0  0  # atno 6907 bound_to 6896
  152.1794  134.8764  160.0537 H   0  0  0  0  0  0  0  0  0  0  0  0  # atno 6908 bound_to 6896
  151.9760  133.3707  159.4126 H   0  0  0  0  0  0  0  0  0  0  0  0  # atno 6909 bound_to 6896
  146.2436  140.0260  142.8394 H   0  0  0  0  0  0  0  0  0  0  0  0  # atno 7974 bound_to 7965
  154.4139  140.1195  156.5186 H   0  0  0  0  0  0  0  0  0  0  0  0  # atno 8008 bound_to 7997
  155.6726  140.3496  155.4805 H   0  0  0  0  0  0  0  0  0  0  0  0  # atno 8009 bound_to 7997
  155.9620  140.1125  157.0877 H   0  0  0  0  0  0  0  0  0  0  0  0  # atno 8010 bound_to 7997
  140.4551  143.2471  151.8432 H   0  0  0  0  0  0  0  0  0  0  0  0  # atno 10167 bound_to 10162
  156.5569  130.8630  151.2797 H   0  0  0  0  0  0  0  0  0  0  0  0  # atno 10718 bound_to 10713
  154.5197  135.2793  155.1273 H   0  0  0  0  0  0  0  0  0  0  0  0  # atno 10763 bound_to 10752
  154.2835  135.6281  153.5360 H   0  0  0  0  0  0  0  0  0  0  0  0  # atno 10764 bound_to 10752
  152.9934  135.5657  154.5683 H   0  0  0  0  0  0  0  0  0  0  0  0  # atno 10765 bound_to 10752
  141.0117  134.0254  157.3404 H   0  0  0  0  0  0  0  0  0  0  0  0  # atno 11005 bound_to 11000
  145.1198  140.9455  143.4607 LP  0  0  0  0  0  0  0  0  0  0  0  0  # atno 17320 bound_to 7965
  145.0492  139.3195  143.5937 LP  0  0  0  0  0  0  0  0  0  0  0  0  # atno 17321 bound_to 7965
  139.4800  144.5075  151.8978 LP  0  0  0  0  0  0  0  0  0  0  0  0  # atno 17342 bound_to 10162
  140.4161  144.2305  150.5888 LP  0  0  0  0  0  0  0  0  0  0  0  0  # atno 17343 bound_to 10162
  157.7376  130.9799  150.2204 LP  0  0  0  0  0  0  0  0  0  0  0  0  # atno 17370 bound_to 10713
  156.2834  130.3736  149.7913 LP  0  0  0  0  0  0  0  0  0  0  0  0  # atno 17371 bound_to 10713
  139.9094  135.0187  156.7626 LP  0  0  0  0  0  0  0  0  0  0  0  0  # atno 17394 bound_to 11000
  140.6722  133.9549  155.7863 LP  0  0  0  0  0  0  0  0  0  0  0  0  # atno 17395 bound_to 11000

$$$$
