AV-unprocessed.smi:460|AV-procd|sdf|2629|dock3
  -GOLD-   2262023 33D 1   1.00000     0.00000
 Structure written by MMmdl.
 47 49  0  0  0  0  0  0  0  0  2 V2000
  150.2379  135.4605  155.0790 C   0  0  0  0  0  0  0  0  0  0  0  0
  151.0548  136.5026  155.8561 C   0  0  0  0  0  0  0  0  0  0  0  0
  151.5482  137.6780  154.9914 C   0  0  1  0  0  0  0  0  0  0  0  0
  152.1923  137.1520  153.8504 O   0  0  0  0  0  0  0  0  0  0  0  0
  150.4295  138.6029  154.6153 C   0  0  0  0  0  0  0  0  0  0  0  0
  149.3511  138.2716  153.8492 N   0  3  0  0  0  0  0  0  0  0  0  0
  148.5177  139.3795  153.6976 C   0  0  0  0  0  0  0  0  0  0  0  0
  147.3198  139.5308  153.0062 C   0  0  0  0  0  0  0  0  0  0  0  0
  146.7228  140.8080  153.0473 C   0  0  0  0  0  0  0  0  0  0  0  0
  147.3164  141.8734  153.7551 C   0  0  0  0  0  0  0  0  0  0  0  0
  148.5307  141.7070  154.4535 C   0  0  0  0  0  0  0  0  0  0  0  0
  149.1129  140.4404  154.4097 C   0  0  0  0  0  0  0  0  0  0  0  0
  150.2839  139.9147  154.9668 N   0  0  0  0  0  0  0  0  0  0  0  0
  151.1452  140.7901  155.7758 C   0  0  0  0  0  0  0  0  0  0  0  0
  150.4227  141.3096  157.0261 C   0  0  0  0  0  0  0  0  0  0  0  0
  151.3774  141.4876  158.0639 O   0  0  0  0  0  0  0  0  0  0  0  0
  151.5672  142.7510  158.5813 C   0  0  0  0  0  0  0  0  0  0  0  0
  150.9621  143.9173  158.0488 C   0  0  0  0  0  0  0  0  0  0  0  0
  151.2023  145.1747  158.6314 C   0  0  0  0  0  0  0  0  0  0  0  0
  152.0472  145.2809  159.7493 C   0  0  0  0  0  0  0  0  0  0  0  0
  152.6519  144.1297  160.2857 C   0  0  0  0  0  0  0  0  0  0  0  0
  152.4168  142.8567  159.7067 C   0  0  0  0  0  0  0  0  0  0  0  0
  152.9782  141.6872  160.1774 O   0  0  0  0  0  0  0  0  0  0  0  0
  153.8428  141.7607  161.3014 C   0  0  0  0  0  0  0  0  0  0  0  0
  149.8822  134.6744  155.7453 H   0  0  0  0  0  0  0  0  0  0  0  0
  150.8307  134.9847  154.2975 H   0  0  0  0  0  0  0  0  0  0  0  0
  149.3656  135.9159  154.6097 H   0  0  0  0  0  0  0  0  0  0  0  0
  150.4343  136.8898  156.6654 H   0  0  0  0  0  0  0  0  0  0  0  0
  151.9033  136.0111  156.3339 H   0  0  0  0  0  0  0  0  0  0  0  0
  152.3030  138.2361  155.5452 H   0  0  0  0  0  0  0  0  0  0  0  0
  151.5308  136.9203  153.2155 H   0  0  0  0  0  0  0  0  0  0  0  0
  146.8650  138.7166  152.4611 H   0  0  0  0  0  0  0  0  0  0  0  0
  145.7920  140.9741  152.5242 H   0  0  0  0  0  0  0  0  0  0  0  0
  146.8311  142.8387  153.7625 H   0  0  0  0  0  0  0  0  0  0  0  0
  148.9779  142.5304  154.9902 H   0  0  0  0  0  0  0  0  0  0  0  0
  152.0558  140.2523  156.0409 H   0  0  0  0  0  0  0  0  0  0  0  0
  151.4571  141.6253  155.1490 H   0  0  0  0  0  0  0  0  0  0  0  0
  149.9322  142.2572  156.7978 H   0  0  0  0  0  0  0  0  0  0  0  0
  149.6568  140.5952  157.3309 H   0  0  0  0  0  0  0  0  0  0  0  0
  150.3058  143.8737  157.1931 H   0  0  0  0  0  0  0  0  0  0  0  0
  150.7370  146.0584  158.2203 H   0  0  0  0  0  0  0  0  0  0  0  0
  152.2321  146.2465  160.1966 H   0  0  0  0  0  0  0  0  0  0  0  0
  153.2947  144.2510  161.1442 H   0  0  0  0  0  0  0  0  0  0  0  0
  154.1954  140.7599  161.5495 H   0  0  0  0  0  0  0  0  0  0  0  0
  153.3260  142.1538  162.1778 H   0  0  0  0  0  0  0  0  0  0  0  0
  154.7190  142.3754  161.0910 H   0  0  0  0  0  0  0  0  0  0  0  0
  149.2064  137.3514  153.4541 H   0  0  0  0  0  0  0  0  0  0  0  0
  1  2  1  0  0  0  0
  1 25  1  0  0  0  0
  1 26  1  0  0  0  0
  1 27  1  0  0  0  0
  2  3  1  0  0  0  0
  2 28  1  0  0  0  0
  2 29  1  0  0  0  0
  3  4  1  0  0  0  0
  3  5  1  0  0  0  0
  3 30  1  0  0  0  0
  4 31  1  0  0  0  0
  5 13  1  0  0  0  0
  5  6  2  0  0  0  0
  6  7  1  0  0  0  0
  6 47  1  0  0  0  0
  7 12  2  0  0  0  0
  7  8  1  0  0  0  0
  8  9  2  0  0  0  0
  8 32  1  0  0  0  0
  9 10  1  0  0  0  0
  9 33  1  0  0  0  0
 10 11  2  0  0  0  0
 10 34  1  0  0  0  0
 11 12  1  0  0  0  0
 11 35  1  0  0  0  0
 12 13  1  0  0  0  0
 13 14  1  0  0  0  0
 14 15  1  0  0  0  0
 14 36  1  0  0  0  0
 14 37  1  0  0  0  0
 15 16  1  0  0  0  0
 15 38  1  0  0  0  0
 15 39  1  0  0  0  0
 16 17  1  0  0  0  0
 17 22  1  0  0  0  0
 17 18  2  0  0  0  0
 18 19  1  0  0  0  0
 18 40  1  0  0  0  0
 19 20  2  0  0  0  0
 19 41  1  0  0  0  0
 20 21  1  0  0  0  0
 20 42  1  0  0  0  0
 21 22  2  0  0  0  0
 21 43  1  0  0  0  0
 22 23  1  0  0  0  0
 23 24  1  0  0  0  0
 24 44  1  0  0  0  0
 24 45  1  0  0  0  0
 24 46  1  0  0  0  0
M  CHG  1   6   1
M  END
> <s_m_source_file>
AV-unprocessed.smi

> <i_m_source_file_index>
460

> <i_lp_mmshare_version>
43012

> <i_f3d_flags>
0

> <s_epik_input>
W2NIXTFbY0hdW2NIXVtjSF1jKGMxMiluKGMobjIpW0NAQEhdKFtPSF0pW0NIMl1bQ0gzXSlbQ0gyXVtDSDJdT2MzW2NIXVtjSF1bY0hdW2NIXWMzT1tDSDNd

> <s_epik_cmdline>
J2VwaWtfcHl0aG9uJywgJy1waCcsICc3LjAnLCAnLXRuJywgJzgnLCAnLW1hJywgJzIwMCcsICctbWV0YWxfYmluZGluZycsICctaW1hZScsICc8aW5maWxlLm1hZT4nLCAnLW9tYWUnLCAnPG91dGZpbGUubWFlPic=

> <r_lp_tautomer_probability>
1

> <r_epik_Ionization_Penalty>
1.48085

> <r_epik_Ionization_Penalty_Charging>
1.48083

> <r_epik_Ionization_Penalty_Neutral>
1.80167e-05

> <r_epik_State_Penalty>
1.56944

> <r_epik_Charging_Adjusted_Penalty>
3.05027

> <i_epik_Tot_Q>
1

> <i_epik_Tot_abs_Q>
1

> <r_epik_Metal_State_Penalty>
5.61877

> <b_epik_Metal_Only>
0

> <s_lp_Force_Field>
OPLS_2005

> <r_lp_Energy>
21.4697

> <b_lp_Chiralities_Consistent>
1

> <s_lp_Variant>
AV-unprocessed.smi:460-4

> <Gold.Version>
5.8.1

> <Gold.Id.Protein>
6NUR|6NUR_protein|mol2

> <Gold.PLP.Fitness>
66.5018

> <Gold.PLP.PLP>
-55.9750

> <Gold.PLP.part.hbond>
-3.4727

> <Gold.PLP.part.metal>
0.0000

> <Gold.PLP.part.buried>
-1.8617

> <Gold.PLP.part.nonpolar>
-50.5024

> <Gold.PLP.part.repulsive>
0.0524

> <Gold.PLP.ligand.clash>
0.0000

> <Gold.PLP.ligand.torsion>
0.6980

> <Gold.PLP.Chemscore.Hbond>
3.8880

> <Gold.PLP.Chemscore.CHOScore>
0.0000

> <Gold.PLP.Chemscore.Metal>
0.0000

> <Gold.Chemscore.Hbonds>
donor molecule, donor type, donor heavy atom, donor atom, acceptor molecule, acceptor atom, score
      L1  H     4    31       P1  7949  0.90
      L1  H     6    47       P1  7948  1.92
      P1  H 10752 10765       L1     4  0.99

> <Gold.PLP.Chemscore.Internal.Correction>
0.2588

> <Gold.Rescore>
     Score         DG    S(hbond)    S(metal)    S(lipo)     H(rot)  DE(clash)    DE(int)     intcor
     23.17     -25.14       2.41        0.00     152.89       2.45       1.29       0.69       ----

> <Gold.Chemscore.Fitness>
23.1651

> <Gold.Chemscore.DG>
-25.1443

> <Gold.Chemscore.ZeroCoef>
-5.4800

> <Gold.Chemscore.Hbond>
2.4059

> <Gold.Chemscore.Metal>
0.0000

> <Gold.Chemscore.Lipo>
152.8859

> <Gold.Chemscore.Internal_Hbond>
0.0000

> <Gold.Chemscore.DEClash>
1.2921

> <Gold.Chemscore.DEInternal>
0.6871

> <Gold.Chemscore.Rot>
2.4450

> <Gold.Chemscore.Internal.Correction>
   9.000000E+99

> <Gold.Chemscore.Hbonds>
donor molecule, donor type, donor heavy atom, donor atom, acceptor molecule, acceptor atom, score
      L1  H     4    31       P1  7949  0.77
      L1  H     6    47       P1  7948  0.91
      P1  H 10752 10765       L1     4  0.32

> <Gold.Chemscore.Hbond.Weighted>
-8.0359

> <Gold.Chemscore.Metal.Weighted>
-0.0000

> <Gold.Chemscore.Lipo.Weighted>
-17.8876

> <Gold.Chemscore.Internal_Hbond.Weighted>
0.0000

> <Gold.Chemscore.DEClash.Weighted>
1.2921

> <Gold.Chemscore.DEInternal.Weighted>
0.6871

> <Gold.Chemscore.Rot.Weighted>
6.2593

> <Gold.Chemscore.Internal.Correction.Weighted>
   9.000000E+99

> <Gold.Protein.RotatedTorsions>
[ 6907 6896 6895 6894 ] final   21.89 input  -60.11 | X-H torsion
[ 7974 7965 7964 7962 ] final -103.13 input  175.53 | X-H torsion
[ 8008 7997 7996 7995 ] final  -72.68 input   59.86 | X-H torsion
[ 10167 10162 10161 10158 ] final  -10.51 input  -65.29 | X-H torsion
[ 10718 10713 10712 10709 ] final  -71.20 input   66.30 | X-H torsion
[ 10763 10752 10751 10750 ] final  140.07 input  -60.55 | X-H torsion
[ 11005 11000 10999 10996 ] final -139.70 input  -57.11 | X-H torsion

> <Gold.Protein.ActiveResidues>
 VAL166  LYS551  ARG553  GLY616  TRP617  ASP618  TYR619  PRO620  LYS621  CYS622 
 ASP623  PHE694  ASN695  SER759  ASP760  ASP761  ALA762  ILE779  LEU786  VAL792 
 PHE793  MET794  SER795  GLU796  ALA797  LYS798  CYS799  TRP800  GLU811  SER814 

> <Gold.Protein.RotatedAtoms>
  151.9187  135.0308  160.0520 H   0  0  0  0  0  0  0  0  0  0  0  0  # atno 6907 bound_to 6896
  152.2218  133.4985  159.5175 H   0  0  0  0  0  0  0  0  0  0  0  0  # atno 6908 bound_to 6896
  150.7002  134.1249  159.4091 H   0  0  0  0  0  0  0  0  0  0  0  0  # atno 6909 bound_to 6896
  145.2598  140.9265  143.3047 H   0  0  0  0  0  0  0  0  0  0  0  0  # atno 7974 bound_to 7965
  154.5186  140.0793  156.8128 H   0  0  0  0  0  0  0  0  0  0  0  0  # atno 8008 bound_to 7997
  155.3626  140.3418  155.4223 H   0  0  0  0  0  0  0  0  0  0  0  0  # atno 8009 bound_to 7997
  156.1655  140.1602  156.8525 H   0  0  0  0  0  0  0  0  0  0  0  0  # atno 8010 bound_to 7997
  140.7115  143.5740  150.9062 H   0  0  0  0  0  0  0  0  0  0  0  0  # atno 10167 bound_to 10162
  156.0373  130.4346  150.2408 H   0  0  0  0  0  0  0  0  0  0  0  0  # atno 10718 bound_to 10713
  153.9167  135.3005  155.3448 H   0  0  0  0  0  0  0  0  0  0  0  0  # atno 10763 bound_to 10752
  154.7596  135.4940  153.9443 H   0  0  0  0  0  0  0  0  0  0  0  0  # atno 10764 bound_to 10752
  153.1164  135.6771  153.9513 H   0  0  0  0  0  0  0  0  0  0  0  0  # atno 10765 bound_to 10752
  140.8494  134.2304  157.4768 H   0  0  0  0  0  0  0  0  0  0  0  0  # atno 11005 bound_to 11000
  144.9428  139.4169  143.6440 LP  0  0  0  0  0  0  0  0  0  0  0  0  # atno 17320 bound_to 7965
  146.3278  139.8397  142.8893 LP  0  0  0  0  0  0  0  0  0  0  0  0  # atno 17321 bound_to 7965
  139.9466  143.6320  152.3040 LP  0  0  0  0  0  0  0  0  0  0  0  0  # atno 17342 bound_to 10162
  139.6824  144.7654  151.1585 LP  0  0  0  0  0  0  0  0  0  0  0  0  # atno 17343 bound_to 10162
  157.0506  131.0061  151.3255 LP  0  0  0  0  0  0  0  0  0  0  0  0  # atno 17370 bound_to 10713
  157.5143  130.7958  149.7739 LP  0  0  0  0  0  0  0  0  0  0  0  0  # atno 17371 bound_to 10713
  139.8704  134.9676  156.4601 LP  0  0  0  0  0  0  0  0  0  0  0  0  # atno 17394 bound_to 11000
  140.8807  133.7920  155.9463 LP  0  0  0  0  0  0  0  0  0  0  0  0  # atno 17395 bound_to 11000

$$$$
