#       Name:                AV-unprocessed.smi:1451
#       Creating user name   scv26
#       Creation time:       Fri Mar 27 05:58:54 2020


#       File generated by GOLD software.
#

@<TRIPOS>MOLECULE
AV-unprocessed.smi:1451
    51    52     1
SMALL
NO_CHARGES


@<TRIPOS>ATOM
      1 ****        -5.2329   0.4772   1.9041 C.3            1 S1                 0.0000
      2 ****        -4.6077   1.1842   0.6932 C.3            1 S1                 0.0000
      3 ****        -5.1508   2.6143   0.5359 C.3            1 S1                 0.0000
      4 ****        -4.4894   3.3050  -0.6632 C.3            1 S1                 0.0000
      5 ****        -2.9577   3.2715  -0.5418 C.3            1 S1                 0.0000
      6 ****        -2.4623   1.8781  -0.3976 N.4            1 S1                 1.0000
      7 ****        -0.9791   1.8060  -0.4175 C.3            1 S1                 0.0000
      8 ****        -0.4638   0.4202  -0.8402 C.3            1 S1                 0.0000
      9 ****         0.9926   0.4092  -0.8839 N.am           1 S1                 0.0000
     10 ****         1.7482  -0.6968  -0.8228 C.2            1 S1                 0.0000
     11 ****         1.2753  -1.8313  -0.7482 O.2            1 S1                 0.0000
     12 ****         3.2677  -0.4837  -0.8727 C.3            1 S1                 0.0000
     13 ****         4.0150  -1.5122  -0.1298 N.am           1 S1                 0.0000
     14 ****         4.5814  -2.5635  -0.8773 C.2            1 S1                 0.0000
     15 ****         5.2705  -3.5745  -0.3142 C.2            1 S1                 0.0000
     16 ****         5.9152  -4.6672  -1.1527 C.3            1 S1                 0.0000
     17 ****         6.9883  -5.1711  -0.5426 F              1 S1                 0.0000
     18 ****         5.0470  -5.6580  -1.3511 F              1 S1                 0.0000
     19 ****         6.2915  -4.2005  -2.3441 F              1 S1                 0.0000
     20 ****         5.4380  -3.5185   1.1248 C.2            1 S1                 0.0000
     21 ****         4.9089  -2.5165   1.8537 C.2            1 S1                 0.0000
     22 ****         4.1420  -1.4366   1.2291 C.2            1 S1                 0.0000
     23 ****         3.6441  -0.5212   1.8855 O.2            1 S1                 0.0000
     24 ****        -3.0683   1.2047   0.7833 C.3            1 S1                 0.0000
     25 ****        -4.9997   0.9989   2.8328 H              1 S1                 0.0000
     26 ****        -4.8657  -0.5454   1.9954 H              1 S1                 0.0000
     27 ****        -6.3185   0.4293   1.8131 H              1 S1                 0.0000
     28 ****        -4.8852   0.6164  -0.1964 H              1 S1                 0.0000
     29 ****        -6.2330   2.5969   0.4033 H              1 S1                 0.0000
     30 ****        -4.9567   3.1889   1.4427 H              1 S1                 0.0000
     31 ****        -4.7951   2.8105  -1.5864 H              1 S1                 0.0000
     32 ****        -4.8354   4.3365  -0.7357 H              1 S1                 0.0000
     33 ****        -2.5212   3.7303  -1.4298 H              1 S1                 0.0000
     34 ****        -2.6333   3.8650   0.3147 H              1 S1                 0.0000
     35 ****        -0.5929   2.5385  -1.1281 H              1 S1                 0.0000
     36 ****        -0.5833   2.0873   0.5598 H              1 S1                 0.0000
     37 ****        -0.8105  -0.3460  -0.1465 H              1 S1                 0.0000
     38 ****        -0.8477   0.1581  -1.8271 H              1 S1                 0.0000
     39 ****         1.4602   1.3010  -0.9581 H              1 S1                 0.0000
     40 ****         3.5727  -0.4654  -1.9198 H              1 S1                 0.0000
     41 ****         3.5148   0.5075  -0.4872 H              1 S1                 0.0000
     42 ****         4.4158  -2.4982  -1.9430 H              1 S1                 0.0000
     43 ****         5.9921  -4.2964   1.6289 H              1 S1                 0.0000
     44 ****         5.0507  -2.5091   2.9245 H              1 S1                 0.0000
     45 ****        -2.7501   1.7144   1.6946 H              1 S1                 0.0000
     46 ****        -2.7080   0.1795   0.8570 H              1 S1                 0.0000
     47 ****        -2.7827   1.3816  -1.2169 H              1 S1                 0.0000
     48 ****         0.2837  -1.9595  -0.7308 LP             1 S1                 0.0000
     49 ****         1.8828  -2.6244  -0.7050 LP             1 S1                 0.0000
     50 ****         3.1260   0.1998   1.4252 LP             1 S1                 0.0000
     51 ****         3.7579  -0.4988   2.8787 LP             1 S1                 0.0000
@<TRIPOS>BOND
    1    1    2 1     
    2    1   25 1     
    3    1   26 1     
    4    1   27 1     
    5    2   24 1     
    6    2    3 1     
    7    2   28 1     
    8    3    4 1     
    9    3   29 1     
   10    3   30 1     
   11    4    5 1     
   12    4   31 1     
   13    4   32 1     
   14    5    6 1     
   15    5   33 1     
   16    5   34 1     
   17    6    7 1     
   18    6   24 1     
   19    6   47 1     
   20    7    8 1     
   21    7   35 1     
   22    7   36 1     
   23    8    9 1     
   24    8   37 1     
   25    8   38 1     
   26    9   10 am    
   27    9   39 1     
   28   10   11 2     
   29   10   12 1     
   30   12   13 1     
   31   12   40 1     
   32   12   41 1     
   33   13   22 am    
   34   13   14 1     
   35   14   15 2     
   36   14   42 1     
   37   15   16 1     
   38   15   20 1     
   39   16   17 1     
   40   16   18 1     
   41   16   19 1     
   42   20   21 2     
   43   20   43 1     
   44   21   22 1     
   45   21   44 1     
   46   22   23 2     
   47   24   45 1     
   48   24   46 1     
   49   11   48 1     
   50   11   49 1     
   51   23   50 1     
   52   23   51 1     
@<TRIPOS>SUBSTRUCTURE
      1 S1             1
@<TRIPOS>SET
LONE_PAIRS      STATIC     ATOMS    <user>   **** ""
4 48 49 50 51
DONOR_HYDROGENS      STATIC     ATOMS    <user>   **** ""
2 47 39
ATOM$BLUE        STATIC     ATOMS    COLORGROUP SYSTEM
4 48 49 50 51
ATOM$RED        STATIC     ATOMS    COLORGROUP SYSTEM
2 47 39
