AV-unprocessed.smi:1432|AV-procd|sdf|5834|dock3
  -GOLD-   22720 5493D 1   1.00000     0.00000
 Structure written by MMmdl.
 47 48  0  0  0  0  0  0  0  0  2 V2000
  146.4698  138.7878  151.1010 C   0  0  0  0  0  0  0  0  0  0  0  0
  145.9140  137.5415  151.8217 C   0  0  1  0  0  0  0  0  0  0  0  0
  145.9333  136.3543  150.8304 C   0  0  0  0  0  0  0  0  0  0  0  0
  145.4249  135.0552  151.4621 C   0  0  0  0  0  0  0  0  0  0  0  0
  146.2258  134.7576  152.7299 C   0  0  0  0  0  0  0  0  0  0  0  0
  146.1433  135.9463  153.6953 C   0  0  0  0  0  0  0  0  0  0  0  0
  146.6648  137.1956  153.0727 N   0  3  2  0  0  0  0  0  0  0  0  0
  146.7675  138.2953  154.0767 C   0  0  0  0  0  0  0  0  0  0  0  0
  147.8865  138.0711  155.1174 C   0  0  0  0  0  0  0  0  0  0  0  0
  148.9272  139.0922  155.0241 N   0  0  0  0  0  0  0  0  0  0  0  0
  148.8342  140.3434  155.4998 C   0  0  0  0  0  0  0  0  0  0  0  0
  147.8113  140.7994  156.0108 O   0  0  0  0  0  0  0  0  0  0  0  0
  150.0967  141.2076  155.3954 C   0  0  0  0  0  0  0  0  0  0  0  0
  150.8086  141.3085  156.6810 N   0  0  0  0  0  0  0  0  0  0  0  0
  151.0091  142.5986  157.2104 C   0  0  0  0  0  0  0  0  0  0  0  0
  151.6254  142.8195  158.3877 C   0  0  0  0  0  0  0  0  0  0  0  0
  151.8735  144.2244  158.9145 C   0  0  0  0  0  0  0  0  0  0  0  0
  150.7320  144.9064  159.0112 F   0  0  0  0  0  0  0  0  0  0  0  0
  152.4482  144.1968  160.1176 F   0  0  0  0  0  0  0  0  0  0  0  0
  152.6802  144.8827  158.0836 F   0  0  0  0  0  0  0  0  0  0  0  0
  152.1158  141.6496  159.0891 C   0  0  0  0  0  0  0  0  0  0  0  0
  151.9374  140.4090  158.5947 C   0  0  0  0  0  0  0  0  0  0  0  0
  151.2441  140.1837  157.3250 C   0  0  0  0  0  0  0  0  0  0  0  0
  151.0612  139.0543  156.8688 O   0  0  0  0  0  0  0  0  0  0  0  0
  146.0301  138.8906  150.1086 H   0  0  0  0  0  0  0  0  0  0  0  0
  147.5509  138.7272  150.9734 H   0  0  0  0  0  0  0  0  0  0  0  0
  146.2371  139.7133  151.6259 H   0  0  0  0  0  0  0  0  0  0  0  0
  144.8769  137.7416  152.0962 H   0  0  0  0  0  0  0  0  0  0  0  0
  145.3252  136.5877  149.9555 H   0  0  0  0  0  0  0  0  0  0  0  0
  146.9478  136.1979  150.4618 H   0  0  0  0  0  0  0  0  0  0  0  0
  144.3652  135.1489  151.7037 H   0  0  0  0  0  0  0  0  0  0  0  0
  145.5147  134.2299  150.7550 H   0  0  0  0  0  0  0  0  0  0  0  0
  145.8421  133.8572  153.2109 H   0  0  0  0  0  0  0  0  0  0  0  0
  147.2683  134.5570  152.4768 H   0  0  0  0  0  0  0  0  0  0  0  0
  145.1098  136.1013  154.0091 H   0  0  0  0  0  0  0  0  0  0  0  0
  146.7037  135.7006  154.5957 H   0  0  0  0  0  0  0  0  0  0  0  0
  146.9960  139.2430  153.5969 H   0  0  0  0  0  0  0  0  0  0  0  0
  145.8060  138.4376  154.5720 H   0  0  0  0  0  0  0  0  0  0  0  0
  147.4591  138.1199  156.1191 H   0  0  0  0  0  0  0  0  0  0  0  0
  148.3117  137.0706  155.0306 H   0  0  0  0  0  0  0  0  0  0  0  0
  149.8017  138.8121  154.6032 H   0  0  0  0  0  0  0  0  0  0  0  0
  150.7674  140.8027  154.6347 H   0  0  0  0  0  0  0  0  0  0  0  0
  149.8043  142.1922  155.0280 H   0  0  0  0  0  0  0  0  0  0  0  0
  150.6240  143.4017  156.5988 H   0  0  0  0  0  0  0  0  0  0  0  0
  152.6312  141.7699  160.0307 H   0  0  0  0  0  0  0  0  0  0  0  0
  152.3134  139.5601  159.1465 H   0  0  0  0  0  0  0  0  0  0  0  0
  147.6115  137.0000  152.7787 H   0  0  0  0  0  0  0  0  0  0  0  0
  1  2  1  0  0  0  0
  1 25  1  0  0  0  0
  1 26  1  0  0  0  0
  1 27  1  0  0  0  0
  2  7  1  0  0  0  0
  2  3  1  0  0  0  0
  2 28  1  0  0  0  0
  3  4  1  0  0  0  0
  3 29  1  0  0  0  0
  3 30  1  0  0  0  0
  4  5  1  0  0  0  0
  4 31  1  0  0  0  0
  4 32  1  0  0  0  0
  5  6  1  0  0  0  0
  5 33  1  0  0  0  0
  5 34  1  0  0  0  0
  6  7  1  0  0  0  0
  6 35  1  0  0  0  0
  6 36  1  0  0  0  0
  7  8  1  0  0  0  0
  7 47  1  0  0  0  0
  8  9  1  0  0  0  0
  8 37  1  0  0  0  0
  8 38  1  0  0  0  0
  9 10  1  0  0  0  0
  9 39  1  0  0  0  0
  9 40  1  0  0  0  0
 10 11  1  0  0  0  0
 10 41  1  0  0  0  0
 11 12  2  0  0  0  0
 11 13  1  0  0  0  0
 13 14  1  0  0  0  0
 13 42  1  0  0  0  0
 13 43  1  0  0  0  0
 14 23  1  0  0  0  0
 14 15  1  0  0  0  0
 15 16  2  0  0  0  0
 15 44  1  0  0  0  0
 16 17  1  0  0  0  0
 16 21  1  0  0  0  0
 17 18  1  0  0  0  0
 17 19  1  0  0  0  0
 17 20  1  0  0  0  0
 21 22  2  0  0  0  0
 21 45  1  0  0  0  0
 22 23  1  0  0  0  0
 22 46  1  0  0  0  0
 23 24  2  0  0  0  0
M  CHG  1   7   1
M  END
> <s_m_source_file>
AV-unprocessed.smi

> <i_m_source_file_index>
1432

> <i_lp_mmshare_version>
43012

> <i_f3d_flags>
0

> <s_epik_input>
W0NIM11bQ0BASF0xW0NIMl1bQ0gyXVtDSDJdW0NIMl1OMVtDSDJdW0NIMl1bTkhdQyg9TylbQ0gyXW4yW2NIXWMoQyhGKShGKUYpW2NIXVtjSF1jMj1P

> <s_epik_cmdline>
J2VwaWtfcHl0aG9uJywgJy1waCcsICc3LjAnLCAnLXRuJywgJzgnLCAnLW1hJywgJzIwMCcsICctbWV0YWxfYmluZGluZycsICctaW1hZScsICc8aW5maWxlLm1hZT4nLCAnLW9tYWUnLCAnPG91dGZpbGUubWFlPic=

> <r_lp_tautomer_probability>
1

> <r_epik_Ionization_Penalty>
0.00237222

> <r_epik_Ionization_Penalty_Charging>
0.00237213

> <r_epik_Ionization_Penalty_Neutral>
8.2065e-08

> <r_epik_State_Penalty>
0.00163922

> <r_epik_Charging_Adjusted_Penalty>
0.00401135

> <i_epik_Tot_Q>
1

> <i_epik_Tot_abs_Q>
1

> <r_epik_Metal_State_Penalty>
-0

> <b_epik_Metal_Only>
0

> <s_lp_Force_Field>
OPLS_2005

> <r_lp_Energy>
36.6546

> <b_lp_Chiralities_Consistent>
1

> <s_lp_Variant>
AV-unprocessed.smi:1432-4

> <Gold.Version>
5.8.1

> <Gold.Id.Protein>
6NUR|6NUR_protein|mol2

> <Gold.PLP.Fitness>
51.2426

> <Gold.PLP.PLP>
-43.9236

> <Gold.PLP.part.hbond>
-1.0000

> <Gold.PLP.part.metal>
0.0000

> <Gold.PLP.part.buried>
0.8587

> <Gold.PLP.part.nonpolar>
-43.1480

> <Gold.PLP.part.repulsive>
0.0866

> <Gold.PLP.ligand.clash>
0.0000

> <Gold.PLP.ligand.torsion>
0.9157

> <Gold.PLP.Chemscore.Hbond>
2.0000

> <Gold.PLP.Chemscore.CHOScore>
1.0000

> <Gold.PLP.Chemscore.Metal>
0.0000

> <Gold.Chemscore.Hbonds>
donor molecule, donor type, donor heavy atom, donor atom, acceptor molecule, acceptor atom, score
      L1  H     7    47       P1  7948  2.00
      L1  C    15    44       P1  8028  1.00

> <Gold.PLP.Chemscore.Internal.Correction>
0.1504

> <Gold.Rescore>
     Score         DG    S(hbond)    S(metal)    S(lipo)     H(rot)  DE(clash)    DE(int)     intcor
     11.00     -14.70       0.98        0.00      96.26       2.08       0.96       2.74       ----

> <Gold.Chemscore.Fitness>
11.0007

> <Gold.Chemscore.DG>
-14.7023

> <Gold.Chemscore.ZeroCoef>
-5.4800

> <Gold.Chemscore.Hbond>
0.9805

> <Gold.Chemscore.Metal>
0.0000

> <Gold.Chemscore.Lipo>
96.2587

> <Gold.Chemscore.Internal_Hbond>
0.0000

> <Gold.Chemscore.DEClash>
0.9615

> <Gold.Chemscore.DEInternal>
2.7401

> <Gold.Chemscore.Rot>
2.0762

> <Gold.Chemscore.Internal.Correction>
   9.000000E+99

> <Gold.Chemscore.Hbonds>
donor molecule, donor type, donor heavy atom, donor atom, acceptor molecule, acceptor atom, score
      L1  H     7    47       P1  7948  0.99

> <Gold.Chemscore.Hbond.Weighted>
-3.2750

> <Gold.Chemscore.Metal.Weighted>
-0.0000

> <Gold.Chemscore.Lipo.Weighted>
-11.2623

> <Gold.Chemscore.Internal_Hbond.Weighted>
0.0000

> <Gold.Chemscore.DEClash.Weighted>
0.9615

> <Gold.Chemscore.DEInternal.Weighted>
2.7401

> <Gold.Chemscore.Rot.Weighted>
5.3150

> <Gold.Chemscore.Internal.Correction.Weighted>
   9.000000E+99

> <Gold.Protein.RotatedTorsions>
[ 6907 6896 6895 6894 ] final   18.66 input  -60.11 | X-H torsion
[ 7974 7965 7964 7962 ] final  -60.31 input  175.53 | X-H torsion
[ 8008 7997 7996 7995 ] final  -61.59 input   59.86 | X-H torsion
[ 10167 10162 10161 10158 ] final   68.17 input  -65.29 | X-H torsion
[ 10718 10713 10712 10709 ] final   92.99 input   66.30 | X-H torsion
[ 10763 10752 10751 10750 ] final  -90.51 input  -60.55 | X-H torsion
[ 11005 11000 10999 10996 ] final  -32.46 input  -57.11 | X-H torsion

> <Gold.Protein.ActiveResidues>
 VAL166  LYS551  ARG553  GLY616  TRP617  ASP618  TYR619  PRO620  LYS621  CYS622 
 ASP623  PHE694  ASN695  SER759  ASP760  ASP761  ALA762  ILE779  LEU786  VAL792 
 PHE793  MET794  SER795  GLU796  ALA797  LYS798  CYS799  TRP800  GLU811  SER814 

> <Gold.Protein.RotatedAtoms>
  151.8687  135.0497  160.0476 H   0  0  0  0  0  0  0  0  0  0  0  0  # atno 6907 bound_to 6896
  152.2605  133.5289  159.5387 H   0  0  0  0  0  0  0  0  0  0  0  0  # atno 6908 bound_to 6896
  150.7115  134.0752  159.3921 H   0  0  0  0  0  0  0  0  0  0  0  0  # atno 6909 bound_to 6896
  145.8170  140.8563  143.0152 H   0  0  0  0  0  0  0  0  0  0  0  0  # atno 7974 bound_to 7965
  154.4455  140.1014  156.6454 H   0  0  0  0  0  0  0  0  0  0  0  0  # atno 8008 bound_to 7997
  155.5455  140.3484  155.4438 H   0  0  0  0  0  0  0  0  0  0  0  0  # atno 8009 bound_to 7997
  156.0566  140.1316  156.9978 H   0  0  0  0  0  0  0  0  0  0  0  0  # atno 8010 bound_to 7997
  140.0816  144.5066  150.7158 H   0  0  0  0  0  0  0  0  0  0  0  0  # atno 10167 bound_to 10162
  157.6956  131.0463  150.3966 H   0  0  0  0  0  0  0  0  0  0  0  0  # atno 10718 bound_to 10713
  154.6665  135.5302  153.8084 H   0  0  0  0  0  0  0  0  0  0  0  0  # atno 10763 bound_to 10752
  153.0474  135.6518  154.0791 H   0  0  0  0  0  0  0  0  0  0  0  0  # atno 10764 bound_to 10752
  154.0694  135.2955  155.3290 H   0  0  0  0  0  0  0  0  0  0  0  0  # atno 10765 bound_to 10752
  140.9554  133.7196  156.1284 H   0  0  0  0  0  0  0  0  0  0  0  0  # atno 11005 bound_to 11000
  144.6751  140.0478  143.7479 LP  0  0  0  0  0  0  0  0  0  0  0  0  # atno 17320 bound_to 7965
  145.9716  139.2874  143.1095 LP  0  0  0  0  0  0  0  0  0  0  0  0  # atno 17321 bound_to 7965
  140.7075  143.2479  151.4682 LP  0  0  0  0  0  0  0  0  0  0  0  0  # atno 17342 bound_to 10162
  139.5776  144.1782  152.1925 LP  0  0  0  0  0  0  0  0  0  0  0  0  # atno 17343 bound_to 10162
  156.4364  130.3982  149.6726 LP  0  0  0  0  0  0  0  0  0  0  0  0  # atno 17370 bound_to 10713
  156.3925  130.7634  151.2636 LP  0  0  0  0  0  0  0  0  0  0  0  0  # atno 17371 bound_to 10713
  140.7544  134.4009  157.5536 LP  0  0  0  0  0  0  0  0  0  0  0  0  # atno 17394 bound_to 11000
  139.8860  134.8921  156.2608 LP  0  0  0  0  0  0  0  0  0  0  0  0  # atno 17395 bound_to 11000

$$$$
