AV-unprocessed.smi:1433|AV-procd|sdf|5847|dock6
  -GOLD-   22720 5513D 1   1.00000     0.00000
 Structure written by MMmdl.
 45 46  0  0  0  0  0  0  0  0  2 V2000
  146.3382  131.8859  151.3415 C   0  0  0  0  0  0  0  0  0  0  0  0
  146.6204  133.2902  151.8869 C   0  0  2  0  0  0  0  0  0  0  0  0
  147.2590  133.2523  153.2871 C   0  0  0  0  0  0  0  0  0  0  0  0
  147.4683  134.6254  153.8222 N   0  3  2  0  0  0  0  0  0  0  0  0
  148.1759  134.6250  155.1450 C   0  0  1  0  0  0  0  0  0  0  0  0
  147.7227  133.4136  155.9934 C   0  0  0  0  0  0  0  0  0  0  0  0
  149.7270  134.6510  155.0267 C   0  0  0  0  0  0  0  0  0  0  0  0
  150.2356  135.9332  154.5511 N   0  0  0  0  0  0  0  0  0  0  0  0
  151.2499  136.6146  155.1058 C   0  0  0  0  0  0  0  0  0  0  0  0
  151.8329  136.2516  156.1272 O   0  0  0  0  0  0  0  0  0  0  0  0
  151.6862  137.8895  154.3843 C   0  0  0  0  0  0  0  0  0  0  0  0
  151.7365  139.0116  155.3051 N   0  0  0  0  0  0  0  0  0  0  0  0
  152.4832  139.1407  156.4576 C   0  0  0  0  0  0  0  0  0  0  0  0
  152.2137  140.3728  156.9807 C   0  0  0  0  0  0  0  0  0  0  0  0
  151.2783  140.9317  156.0658 C   0  0  0  0  0  0  0  0  0  0  0  0
  150.9963  140.1162  155.0624 N   0  0  0  0  0  0  0  0  0  0  0  0
  146.1813  135.3728  153.7810 C   0  0  0  0  0  0  0  0  0  0  0  0
  145.5593  135.3397  152.3716 C   0  0  2  0  0  0  0  0  0  0  0  0
  144.1909  136.0292  152.3295 C   0  0  0  0  0  0  0  0  0  0  0  0
  145.3862  133.9896  151.9643 O   0  0  0  0  0  0  0  0  0  0  0  0
  147.2572  131.3057  151.2545 H   0  0  0  0  0  0  0  0  0  0  0  0
  145.8835  131.9367  150.3518 H   0  0  0  0  0  0  0  0  0  0  0  0
  145.6566  131.3380  151.9928 H   0  0  0  0  0  0  0  0  0  0  0  0
  147.2860  133.8039  151.1909 H   0  0  0  0  0  0  0  0  0  0  0  0
  146.6207  132.6910  153.9717 H   0  0  0  0  0  0  0  0  0  0  0  0
  148.2010  132.7115  153.2207 H   0  0  0  0  0  0  0  0  0  0  0  0
  147.8808  135.5358  155.6685 H   0  0  0  0  0  0  0  0  0  0  0  0
  148.1964  133.4032  156.9751 H   0  0  0  0  0  0  0  0  0  0  0  0
  147.9717  132.4737  155.4998 H   0  0  0  0  0  0  0  0  0  0  0  0
  146.6512  133.4122  156.1847 H   0  0  0  0  0  0  0  0  0  0  0  0
  150.1821  134.4489  155.9968 H   0  0  0  0  0  0  0  0  0  0  0  0
  150.0903  133.8847  154.3406 H   0  0  0  0  0  0  0  0  0  0  0  0
  149.8186  136.3091  153.7113 H   0  0  0  0  0  0  0  0  0  0  0  0
  152.6662  137.7481  153.9255 H   0  0  0  0  0  0  0  0  0  0  0  0
  150.9853  138.1231  153.5818 H   0  0  0  0  0  0  0  0  0  0  0  0
  153.1379  138.3544  156.8041 H   0  0  0  0  0  0  0  0  0  0  0  0
  152.6223  140.8088  157.8804 H   0  0  0  0  0  0  0  0  0  0  0  0
  150.8004  141.8997  156.1001 H   0  0  0  0  0  0  0  0  0  0  0  0
  145.4908  134.9487  154.5120 H   0  0  0  0  0  0  0  0  0  0  0  0
  146.3358  136.4195  154.0408 H   0  0  0  0  0  0  0  0  0  0  0  0
  146.2218  135.8451  151.6665 H   0  0  0  0  0  0  0  0  0  0  0  0
  144.2686  137.0758  152.6249 H   0  0  0  0  0  0  0  0  0  0  0  0
  143.4825  135.5435  153.0013 H   0  0  0  0  0  0  0  0  0  0  0  0
  143.7701  135.9994  151.3242 H   0  0  0  0  0  0  0  0  0  0  0  0
  148.0814  135.1015  153.1759 H   0  0  0  0  0  0  0  0  0  0  0  0
  1  2  1  0  0  0  0
  1 21  1  0  0  0  0
  1 22  1  0  0  0  0
  1 23  1  0  0  0  0
  2 20  1  0  0  0  0
  2  3  1  0  0  0  0
  2 24  1  0  0  0  0
  3  4  1  0  0  0  0
  3 25  1  0  0  0  0
  3 26  1  0  0  0  0
  4  5  1  0  0  0  0
  4 17  1  0  0  0  0
  4 45  1  0  0  0  0
  5  6  1  0  0  0  0
  5  7  1  0  0  0  0
  5 27  1  0  0  0  0
  6 28  1  0  0  0  0
  6 29  1  0  0  0  0
  6 30  1  0  0  0  0
  7  8  1  0  0  0  0
  7 31  1  0  0  0  0
  7 32  1  0  0  0  0
  8  9  1  0  0  0  0
  8 33  1  0  0  0  0
  9 10  2  0  0  0  0
  9 11  1  0  0  0  0
 11 12  1  0  0  0  0
 11 34  1  0  0  0  0
 11 35  1  0  0  0  0
 12 16  1  0  0  0  0
 12 13  1  0  0  0  0
 13 14  2  0  0  0  0
 13 36  1  0  0  0  0
 14 15  1  0  0  0  0
 14 37  1  0  0  0  0
 15 16  2  0  0  0  0
 15 38  1  0  0  0  0
 17 18  1  0  0  0  0
 17 39  1  0  0  0  0
 17 40  1  0  0  0  0
 18 19  1  0  0  0  0
 18 20  1  0  0  0  0
 18 41  1  0  0  0  0
 19 42  1  0  0  0  0
 19 43  1  0  0  0  0
 19 44  1  0  0  0  0
M  CHG  1   4   1
M  END
> <s_m_source_file>
AV-unprocessed.smi

> <i_m_source_file_index>
1433

> <i_lp_mmshare_version>
43012

> <i_f3d_flags>
0

> <s_epik_input>
W0NIM11bQ0BASF0xW0NIMl1OKFtDSDJdW0NASF0oTzEpW0NIM10pW0NASF0oW0NIM10pW0NIMl1bTkhdQyg9TylbQ0gyXW4yW2NIXVtjSF1bY0hdbjI=

> <s_epik_cmdline>
J2VwaWtfcHl0aG9uJywgJy1waCcsICc3LjAnLCAnLXRuJywgJzgnLCAnLW1hJywgJzIwMCcsICctbWV0YWxfYmluZGluZycsICctaW1hZScsICc8aW5maWxlLm1hZT4nLCAnLW9tYWUnLCAnPG91dGZpbGUubWFlPic=

> <r_lp_tautomer_probability>
1

> <r_epik_Ionization_Penalty>
0.748405

> <r_epik_Ionization_Penalty_Charging>
0.748396

> <r_epik_Ionization_Penalty_Neutral>
8.54426e-06

> <r_epik_State_Penalty>
0.775162

> <r_epik_Charging_Adjusted_Penalty>
1.52356

> <i_epik_Tot_Q>
1

> <i_epik_Tot_abs_Q>
1

> <r_epik_Metal_State_Penalty>
0.775167

> <b_epik_Metal_Only>
0

> <s_lp_Force_Field>
OPLS_2005

> <r_lp_Energy>
17.7412

> <b_lp_Chiralities_Consistent>
1

> <s_lp_Variant>
AV-unprocessed.smi:1433-13

> <Gold.Version>
5.8.1

> <Gold.Id.Protein>
6NUR|6NUR_protein|mol2

> <Gold.PLP.Fitness>
45.3225

> <Gold.PLP.PLP>
-32.1309

> <Gold.PLP.part.hbond>
-5.0000

> <Gold.PLP.part.metal>
0.0000

> <Gold.PLP.part.buried>
-1.1410

> <Gold.PLP.part.nonpolar>
-25.9836

> <Gold.PLP.part.repulsive>
0.2660

> <Gold.PLP.ligand.clash>
0.0000

> <Gold.PLP.ligand.torsion>
0.9454

> <Gold.PLP.Chemscore.Hbond>
5.0000

> <Gold.PLP.Chemscore.CHOScore>
0.0000

> <Gold.PLP.Chemscore.Metal>
0.0000

> <Gold.Chemscore.Hbonds>
donor molecule, donor type, donor heavy atom, donor atom, acceptor molecule, acceptor atom, score
      L1  H     4    45       P1  7948  2.00
      L1  H     8    33       P1  7948  1.00
      P1  H  7989  7998       L1    16  1.00
      P1  H 10752 10765       L1    10  0.60

> <Gold.PLP.Chemscore.Internal.Correction>
0.0826

> <Gold.Rescore>
     Score         DG    S(hbond)    S(metal)    S(lipo)     H(rot)  DE(clash)    DE(int)     intcor
     16.67     -19.15       3.21        0.00      66.04       1.87       0.17       2.31       ----

> <Gold.Chemscore.Fitness>
16.6724

> <Gold.Chemscore.DG>
-19.1493

> <Gold.Chemscore.ZeroCoef>
-5.4800

> <Gold.Chemscore.Hbond>
3.2091

> <Gold.Chemscore.Metal>
0.0000

> <Gold.Chemscore.Lipo>
66.0425

> <Gold.Chemscore.Internal_Hbond>
0.0000

> <Gold.Chemscore.DEClash>
0.1650

> <Gold.Chemscore.DEInternal>
2.3118

> <Gold.Chemscore.Rot>
1.8657

> <Gold.Chemscore.Internal.Correction>
   9.000000E+99

> <Gold.Chemscore.Hbonds>
donor molecule, donor type, donor heavy atom, donor atom, acceptor molecule, acceptor atom, score
      L1  H     4    45       P1  7948  0.98
      L1  H     8    33       P1  7948  0.28
      P1  H  7989  7998       L1    16  0.39
      P1  H 10752 10765       L1    10  0.04

> <Gold.Chemscore.Hbond.Weighted>
-10.7184

> <Gold.Chemscore.Metal.Weighted>
-0.0000

> <Gold.Chemscore.Lipo.Weighted>
-7.7270

> <Gold.Chemscore.Internal_Hbond.Weighted>
0.0000

> <Gold.Chemscore.DEClash.Weighted>
0.1650

> <Gold.Chemscore.DEInternal.Weighted>
2.3118

> <Gold.Chemscore.Rot.Weighted>
4.7761

> <Gold.Chemscore.Internal.Correction.Weighted>
   9.000000E+99

> <Gold.Protein.RotatedTorsions>
[ 6907 6896 6895 6894 ] final  -54.06 input  -60.11 | X-H torsion
[ 7974 7965 7964 7962 ] final  142.60 input  175.53 | X-H torsion
[ 8008 7997 7996 7995 ] final   98.25 input   59.86 | X-H torsion
[ 10167 10162 10161 10158 ] final  151.75 input  -65.29 | X-H torsion
[ 10718 10713 10712 10709 ] final  159.27 input   66.30 | X-H torsion
[ 10763 10752 10751 10750 ] final -143.94 input  -60.55 | X-H torsion
[ 11005 11000 10999 10996 ] final   42.96 input  -57.11 | X-H torsion

> <Gold.Protein.ActiveResidues>
 VAL166  LYS551  ARG553  GLY616  TRP617  ASP618  TYR619  PRO620  LYS621  CYS622 
 ASP623  PHE694  ASN695  SER759  ASP760  ASP761  ALA762  ILE779  LEU786  VAL792 
 PHE793  MET794  SER795  GLU796  ALA797  LYS798  CYS799  TRP800  GLU811  SER814 

> <Gold.Protein.RotatedAtoms>
  150.8371  134.7649  159.6901 H   0  0  0  0  0  0  0  0  0  0  0  0  # atno 6907 bound_to 6896
  152.4466  134.5478  159.9868 H   0  0  0  0  0  0  0  0  0  0  0  0  # atno 6908 bound_to 6896
  151.5626  133.3363  159.3010 H   0  0  0  0  0  0  0  0  0  0  0  0  # atno 6909 bound_to 6896
  144.8994  139.5445  143.5761 H   0  0  0  0  0  0  0  0  0  0  0  0  # atno 7974 bound_to 7965
  156.0985  140.3246  155.7910 H   0  0  0  0  0  0  0  0  0  0  0  0  # atno 8008 bound_to 7997
  155.4877  140.0559  157.2975 H   0  0  0  0  0  0  0  0  0  0  0  0  # atno 8009 bound_to 7997
  154.4681  140.1999  156.0079 H   0  0  0  0  0  0  0  0  0  0  0  0  # atno 8010 bound_to 7997
  139.4838  144.5415  151.7557 H   0  0  0  0  0  0  0  0  0  0  0  0  # atno 10167 bound_to 10162
  157.1665  131.0600  151.2205 H   0  0  0  0  0  0  0  0  0  0  0  0  # atno 10718 bound_to 10713
  154.8449  135.3454  154.6267 H   0  0  0  0  0  0  0  0  0  0  0  0  # atno 10763 bound_to 10752
  153.6876  135.6976  153.5104 H   0  0  0  0  0  0  0  0  0  0  0  0  # atno 10764 bound_to 10752
  153.2620  135.4320  155.0858 H   0  0  0  0  0  0  0  0  0  0  0  0  # atno 10765 bound_to 10752
  140.1690  134.4246  155.8269 H   0  0  0  0  0  0  0  0  0  0  0  0  # atno 11005 bound_to 11000
  146.3099  139.7711  142.9027 LP  0  0  0  0  0  0  0  0  0  0  0  0  # atno 17320 bound_to 7965
  145.3644  141.0331  143.3267 LP  0  0  0  0  0  0  0  0  0  0  0  0  # atno 17321 bound_to 7965
  140.4955  144.1247  150.5959 LP  0  0  0  0  0  0  0  0  0  0  0  0  # atno 17342 bound_to 10162
  140.4122  143.2651  151.9818 LP  0  0  0  0  0  0  0  0  0  0  0  0  # atno 17343 bound_to 10162
  157.4084  130.7371  149.6820 LP  0  0  0  0  0  0  0  0  0  0  0  0  # atno 17370 bound_to 10713
  155.9745  130.4102  150.3918 LP  0  0  0  0  0  0  0  0  0  0  0  0  # atno 17371 bound_to 10713
  141.2216  133.6947  156.7729 LP  0  0  0  0  0  0  0  0  0  0  0  0  # atno 17394 bound_to 11000
  140.2400  134.8621  157.3564 LP  0  0  0  0  0  0  0  0  0  0  0  0  # atno 17395 bound_to 11000

$$$$
