AV-unprocessed.smi:1452|AV-procd|sdf|5908|dock2
  -GOLD-   22720 5593D 1   1.00000     0.00000
 Structure written by MMmdl.
 40 42  0  0  0  0  0  0  0  0  2 V2000
  144.8905  135.8694  153.5722 O   0  0  0  0  0  0  0  0  0  0  0  0
  146.0167  135.9386  153.0830 C   0  0  0  0  0  0  0  0  0  0  0  0
  146.3813  135.1380  152.0584 N   0  0  0  0  0  0  0  0  0  0  0  0
  145.6702  134.1258  151.3478 C   0  0  0  0  0  0  0  0  0  0  0  0
  146.4924  133.2305  150.6267 C   0  0  0  0  0  0  0  0  0  0  0  0
  145.9050  132.1858  149.8875 C   0  0  0  0  0  0  0  0  0  0  0  0
  144.5048  132.0598  149.8881 C   0  0  0  0  0  0  0  0  0  0  0  0
  143.7567  132.9895  150.6325 C   0  0  0  0  0  0  0  0  0  0  0  0
  144.3189  133.9914  151.3417 N   0  0  0  0  0  0  0  0  0  0  0  0
  146.9469  136.8001  153.5258 N   0  0  0  0  0  0  0  0  0  0  0  0
  146.7721  137.7604  154.6102 C   0  0  1  0  0  0  0  0  0  0  0  0
  147.0090  137.1526  155.9874 C   0  0  0  0  0  0  0  0  0  0  0  0
  147.2671  138.3911  156.8465 C   0  0  0  0  0  0  0  0  0  0  0  0
  147.9628  139.3582  155.9669 N   0  3  2  0  0  0  0  0  0  0  0  0
  147.6271  140.7800  156.2251 C   0  0  0  0  0  0  0  0  0  0  0  0
  148.4072  141.7055  155.2734 C   0  0  0  0  0  0  0  0  0  0  0  0
  148.2970  141.2833  153.7932 C   0  0  0  0  0  0  0  0  0  0  0  0
  147.3989  140.0518  153.5993 C   0  0  0  0  0  0  0  0  0  0  0  0
  147.7978  138.9054  154.5562 C   0  0  2  0  0  0  0  0  0  0  0  0
  147.3328  135.2707  151.7473 H   0  0  0  0  0  0  0  0  0  0  0  0
  147.5674  133.3397  150.6359 H   0  0  0  0  0  0  0  0  0  0  0  0
  146.5188  131.4938  149.3301 H   0  0  0  0  0  0  0  0  0  0  0  0
  144.0173  131.2719  149.3332 H   0  0  0  0  0  0  0  0  0  0  0  0
  142.6790  132.9283  150.6598 H   0  0  0  0  0  0  0  0  0  0  0  0
  147.8475  136.7870  153.0673 H   0  0  0  0  0  0  0  0  0  0  0  0
  145.7590  138.1682  154.5961 H   0  0  0  0  0  0  0  0  0  0  0  0
  146.1655  136.5597  156.3426 H   0  0  0  0  0  0  0  0  0  0  0  0
  147.8937  136.5138  155.9771 H   0  0  0  0  0  0  0  0  0  0  0  0
  146.3120  138.8058  157.1731 H   0  0  0  0  0  0  0  0  0  0  0  0
  147.8550  138.1674  157.7372 H   0  0  0  0  0  0  0  0  0  0  0  0
  146.5540  140.9339  156.1016 H   0  0  0  0  0  0  0  0  0  0  0  0
  147.8621  141.0265  157.2613 H   0  0  0  0  0  0  0  0  0  0  0  0
  148.0546  142.7303  155.3948 H   0  0  0  0  0  0  0  0  0  0  0  0
  149.4588  141.7149  155.5631 H   0  0  0  0  0  0  0  0  0  0  0  0
  147.9214  142.1123  153.1925 H   0  0  0  0  0  0  0  0  0  0  0  0
  149.2939  141.0613  153.4100 H   0  0  0  0  0  0  0  0  0  0  0  0
  146.3590  140.3355  153.7675 H   0  0  0  0  0  0  0  0  0  0  0  0
  147.4545  139.7144  152.5640 H   0  0  0  0  0  0  0  0  0  0  0  0
  148.7682  138.5091  154.2523 H   0  0  0  0  0  0  0  0  0  0  0  0
  148.9493  139.2632  156.1620 H   0  0  0  0  0  0  0  0  0  0  0  0
  1  2  2  0  0  0  0
  2  3  1  0  0  0  0
  2 10  1  0  0  0  0
  3  4  1  0  0  0  0
  3 20  1  0  0  0  0
  4  9  1  0  0  0  0
  4  5  2  0  0  0  0
  5  6  1  0  0  0  0
  5 21  1  0  0  0  0
  6  7  2  0  0  0  0
  6 22  1  0  0  0  0
  7  8  1  0  0  0  0
  7 23  1  0  0  0  0
  8  9  2  0  0  0  0
  8 24  1  0  0  0  0
 10 11  1  0  0  0  0
 10 25  1  0  0  0  0
 11 19  1  0  0  0  0
 11 12  1  0  0  0  0
 11 26  1  0  0  0  0
 12 13  1  0  0  0  0
 12 27  1  0  0  0  0
 12 28  1  0  0  0  0
 13 14  1  0  0  0  0
 13 29  1  0  0  0  0
 13 30  1  0  0  0  0
 14 19  1  0  0  0  0
 14 15  1  0  0  0  0
 14 40  1  0  0  0  0
 15 16  1  0  0  0  0
 15 31  1  0  0  0  0
 15 32  1  0  0  0  0
 16 17  1  0  0  0  0
 16 33  1  0  0  0  0
 16 34  1  0  0  0  0
 17 18  1  0  0  0  0
 17 35  1  0  0  0  0
 17 36  1  0  0  0  0
 18 19  1  0  0  0  0
 18 37  1  0  0  0  0
 18 38  1  0  0  0  0
 19 39  1  0  0  0  0
M  CHG  1  14   1
M  END
> <s_m_source_file>
AV-unprocessed.smi

> <i_m_source_file_index>
1452

> <i_lp_mmshare_version>
43012

> <i_f3d_flags>
0

> <s_epik_input>
W0NIMl0xW0NIMl1bQ0gyXVtDSDJdW0NASF0oTjEyKVtDQEBIXShbQ0gyXVtDSDJdMilbTkhdQyg9TylbTkhdYzNbY0hdW2NIXVtjSF1bY0hdbjM=

> <s_epik_cmdline>
J2VwaWtfcHl0aG9uJywgJy1waCcsICc3LjAnLCAnLXRuJywgJzgnLCAnLW1hJywgJzIwMCcsICctbWV0YWxfYmluZGluZycsICctaW1hZScsICc8aW5maWxlLm1hZT4nLCAnLW9tYWUnLCAnPG91dGZpbGUubWFlPic=

> <r_epik_Ionization_Penalty>
0.00100813

> <r_epik_Ionization_Penalty_Charging>
0.000974069

> <r_epik_Ionization_Penalty_Neutral>
3.40643e-05

> <r_epik_State_Penalty>
0.000633842

> <r_epik_Charging_Adjusted_Penalty>
0.00160791

> <i_epik_Tot_Q>
1

> <i_epik_Tot_abs_Q>
1

> <r_epik_Metal_State_Penalty>
-0

> <b_epik_Metal_Only>
0

> <s_lp_Force_Field>
OPLS_2005

> <r_lp_Energy>
44.0476

> <b_lp_Chiralities_Consistent>
1

> <s_lp_Variant>
AV-unprocessed.smi:1452-6

> <Gold.Version>
5.8.1

> <Gold.Id.Protein>
6NUR|6NUR_protein|mol2

> <Gold.PLP.Fitness>
33.9588

> <Gold.PLP.PLP>
-25.7356

> <Gold.PLP.part.hbond>
-2.0000

> <Gold.PLP.part.metal>
0.0000

> <Gold.PLP.part.buried>
-0.7977

> <Gold.PLP.part.nonpolar>
-22.1238

> <Gold.PLP.part.repulsive>
0.2213

> <Gold.PLP.ligand.clash>
0.0000

> <Gold.PLP.ligand.torsion>
0.3872

> <Gold.PLP.Chemscore.Hbond>
2.0000

> <Gold.PLP.Chemscore.CHOScore>
0.9967

> <Gold.PLP.Chemscore.Metal>
0.0000

> <Gold.Chemscore.Hbonds>
donor molecule, donor type, donor heavy atom, donor atom, acceptor molecule, acceptor atom, score
      L1  H     3    20       P1  7948  1.00
      L1  H    10    25       P1  7948  1.00
      L1  C     8    24       P1 10186  0.98

> <Gold.PLP.Chemscore.Internal.Correction>
0.0075

> <Gold.Rescore>
     Score         DG    S(hbond)    S(metal)    S(lipo)     H(rot)  DE(clash)    DE(int)     intcor
     15.54     -16.98       1.89        0.00      66.24       1.00       0.04       1.40       ----

> <Gold.Chemscore.Fitness>
15.5410

> <Gold.Chemscore.DG>
-16.9768

> <Gold.Chemscore.ZeroCoef>
-5.4800

> <Gold.Chemscore.Hbond>
1.8884

> <Gold.Chemscore.Metal>
0.0000

> <Gold.Chemscore.Lipo>
66.2370

> <Gold.Chemscore.Internal_Hbond>
0.0000

> <Gold.Chemscore.DEClash>
0.0359

> <Gold.Chemscore.DEInternal>
1.3999

> <Gold.Chemscore.Rot>
1.0000

> <Gold.Chemscore.Internal.Correction>
   9.000000E+99

> <Gold.Chemscore.Hbonds>
donor molecule, donor type, donor heavy atom, donor atom, acceptor molecule, acceptor atom, score
      L1  H     3    20       P1  7948  0.91
      L1  H    10    25       P1  7948  0.97

> <Gold.Chemscore.Hbond.Weighted>
-6.3071

> <Gold.Chemscore.Metal.Weighted>
-0.0000

> <Gold.Chemscore.Lipo.Weighted>
-7.7497

> <Gold.Chemscore.Internal_Hbond.Weighted>
0.0000

> <Gold.Chemscore.DEClash.Weighted>
0.0359

> <Gold.Chemscore.DEInternal.Weighted>
1.3999

> <Gold.Chemscore.Rot.Weighted>
2.5600

> <Gold.Chemscore.Internal.Correction.Weighted>
   9.000000E+99

> <Gold.Protein.RotatedTorsions>
[ 6907 6896 6895 6894 ] final  -59.26 input  -60.11 | X-H torsion
[ 7974 7965 7964 7962 ] final  127.12 input  175.53 | X-H torsion
[ 8008 7997 7996 7995 ] final  114.80 input   59.86 | X-H torsion
[ 10167 10162 10161 10158 ] final -115.77 input  -65.29 | X-H torsion
[ 10718 10713 10712 10709 ] final -136.78 input   66.30 | X-H torsion
[ 10763 10752 10751 10750 ] final -159.62 input  -60.55 | X-H torsion
[ 11005 11000 10999 10996 ] final  101.56 input  -57.11 | X-H torsion

> <Gold.Protein.ActiveResidues>
 VAL166  LYS551  ARG553  GLY616  TRP617  ASP618  TYR619  PRO620  LYS621  CYS622 
 ASP623  PHE694  ASN695  SER759  ASP760  ASP761  ALA762  ILE779  LEU786  VAL792 
 PHE793  MET794  SER795  GLU796  ALA797  LYS798  CYS799  TRP800  GLU811  SER814 

> <Gold.Protein.RotatedAtoms>
  150.7944  134.6992  159.6540 H   0  0  0  0  0  0  0  0  0  0  0  0  # atno 6907 bound_to 6896
  152.4054  134.6212  160.0061 H   0  0  0  0  0  0  0  0  0  0  0  0  # atno 6908 bound_to 6896
  151.6471  133.3286  159.3179 H   0  0  0  0  0  0  0  0  0  0  0  0  # atno 6909 bound_to 6896
  145.0541  139.3859  143.5039 H   0  0  0  0  0  0  0  0  0  0  0  0  # atno 7974 bound_to 7965
  156.2343  140.2951  156.0271 H   0  0  0  0  0  0  0  0  0  0  0  0  # atno 8008 bound_to 7997
  155.2136  140.0413  157.2954 H   0  0  0  0  0  0  0  0  0  0  0  0  # atno 8009 bound_to 7997
  154.6051  140.2437  155.7749 H   0  0  0  0  0  0  0  0  0  0  0  0  # atno 8010 bound_to 7997
  140.0865  143.4739  152.1895 H   0  0  0  0  0  0  0  0  0  0  0  0  # atno 10167 bound_to 10162
  156.2808  130.7319  151.1316 H   0  0  0  0  0  0  0  0  0  0  0  0  # atno 10718 bound_to 10713
  154.7459  135.3080  154.8645 H   0  0  0  0  0  0  0  0  0  0  0  0  # atno 10763 bound_to 10752
  153.9446  135.6771  153.4748 H   0  0  0  0  0  0  0  0  0  0  0  0  # atno 10764 bound_to 10752
  153.1056  135.4891  154.8871 H   0  0  0  0  0  0  0  0  0  0  0  0  # atno 10765 bound_to 10752
  139.8774  134.9188  156.4925 H   0  0  0  0  0  0  0  0  0  0  0  0  # atno 11005 bound_to 11000
  146.3520  140.0206  142.8659 LP  0  0  0  0  0  0  0  0  0  0  0  0  # atno 17320 bound_to 7965
  145.1491  140.9613  143.4443 LP  0  0  0  0  0  0  0  0  0  0  0  0  # atno 17321 bound_to 7965
  139.5749  144.7482  151.3791 LP  0  0  0  0  0  0  0  0  0  0  0  0  # atno 17342 bound_to 10162
  140.7051  143.7535  150.7468 LP  0  0  0  0  0  0  0  0  0  0  0  0  # atno 17343 bound_to 10162
  157.7314  131.0609  150.5681 LP  0  0  0  0  0  0  0  0  0  0  0  0  # atno 17370 bound_to 10713
  156.5786  130.4298  149.5987 LP  0  0  0  0  0  0  0  0  0  0  0  0  # atno 17371 bound_to 10713
  140.8648  133.8032  155.9303 LP  0  0  0  0  0  0  0  0  0  0  0  0  # atno 17394 bound_to 11000
  140.9012  134.2376  157.5040 LP  0  0  0  0  0  0  0  0  0  0  0  0  # atno 17395 bound_to 11000

$$$$
