AV-unprocessed.smi:3220|AV-procd|sdf|12300|dock2
  -GOLD-   2272018143D 1   1.00000     0.00000
 Structure written by MMmdl.
 33 34  0  0  0  0  0  0  0  0  1 V2000
  152.5770  138.8085  159.4254 C   0  0  0  0  0  0  0  0  0  0  0  0
  152.1304  140.2100  158.9840 C   0  0  1  0  0  0  0  0  0  0  0  0
  153.2356  141.2576  159.2194 C   0  0  0  0  0  0  0  0  0  0  0  0
  153.0510  141.9849  160.4628 N   0  0  0  0  0  0  0  0  0  0  0  0
  153.6981  141.8037  161.6671 C   0  0  0  0  0  0  0  0  0  0  0  0
  153.1962  142.7252  162.5407 C   0  0  0  0  0  0  0  0  0  0  0  0
  152.2347  143.4344  161.7678 C   0  0  0  0  0  0  0  0  0  0  0  0
  152.1501  142.9891  160.5244 N   0  0  0  0  0  0  0  0  0  0  0  0
  151.7603  140.1848  157.5702 N   0  0  0  0  0  0  0  0  0  0  0  0
  152.4237  139.5416  156.5976 C   0  0  0  0  0  0  0  0  0  0  0  0
  153.4552  138.8976  156.7910 O   0  0  0  0  0  0  0  0  0  0  0  0
  151.8136  139.6316  155.1943 C   0  0  1  0  0  0  0  0  0  0  0  0
  151.4107  138.2723  154.5917 C   0  0  0  0  0  0  0  0  0  0  0  0
  149.8953  138.3099  154.6053 C   0  0  0  0  0  0  0  0  0  0  0  0
  149.6208  139.7992  154.4567 C   0  0  0  0  0  0  0  0  0  0  0  0
  150.6099  140.3918  155.2838 O   0  0  0  0  0  0  0  0  0  0  0  0
  152.8428  138.7972  160.4829 H   0  0  0  0  0  0  0  0  0  0  0  0
  153.4466  138.4719  158.8602 H   0  0  0  0  0  0  0  0  0  0  0  0
  151.7809  138.0775  159.2799 H   0  0  0  0  0  0  0  0  0  0  0  0
  151.2656  140.4919  159.5878 H   0  0  0  0  0  0  0  0  0  0  0  0
  154.2130  140.7735  159.2506 H   0  0  0  0  0  0  0  0  0  0  0  0
  153.2698  141.9736  158.3969 H   0  0  0  0  0  0  0  0  0  0  0  0
  154.4557  141.0453  161.7992 H   0  0  0  0  0  0  0  0  0  0  0  0
  153.4744  142.8715  163.5737 H   0  0  0  0  0  0  0  0  0  0  0  0
  151.6001  144.2538  162.0713 H   0  0  0  0  0  0  0  0  0  0  0  0
  150.9209  140.6832  157.3131 H   0  0  0  0  0  0  0  0  0  0  0  0
  152.5044  140.1388  154.5185 H   0  0  0  0  0  0  0  0  0  0  0  0
  151.7718  138.2069  153.5647 H   0  0  0  0  0  0  0  0  0  0  0  0
  151.8046  137.4082  155.1286 H   0  0  0  0  0  0  0  0  0  0  0  0
  149.4439  137.7097  153.8150 H   0  0  0  0  0  0  0  0  0  0  0  0
  149.5193  137.9548  155.5657 H   0  0  0  0  0  0  0  0  0  0  0  0
  149.7658  140.1219  153.4245 H   0  0  0  0  0  0  0  0  0  0  0  0
  148.6146  140.0780  154.7695 H   0  0  0  0  0  0  0  0  0  0  0  0
  1  2  1  0  0  0  0
  1 17  1  0  0  0  0
  1 18  1  0  0  0  0
  1 19  1  0  0  0  0
  2  3  1  0  0  0  0
  2  9  1  0  0  0  0
  2 20  1  0  0  0  0
  3  4  1  0  0  0  0
  3 21  1  0  0  0  0
  3 22  1  0  0  0  0
  4  8  1  0  0  0  0
  4  5  1  0  0  0  0
  5  6  2  0  0  0  0
  5 23  1  0  0  0  0
  6  7  1  0  0  0  0
  6 24  1  0  0  0  0
  7  8  2  0  0  0  0
  7 25  1  0  0  0  0
  9 10  1  0  0  0  0
  9 26  1  0  0  0  0
 10 11  2  0  0  0  0
 10 12  1  0  0  0  0
 12 16  1  0  0  0  0
 12 13  1  0  0  0  0
 12 27  1  0  0  0  0
 13 14  1  0  0  0  0
 13 28  1  0  0  0  0
 13 29  1  0  0  0  0
 14 15  1  0  0  0  0
 14 30  1  0  0  0  0
 14 31  1  0  0  0  0
 15 16  1  0  0  0  0
 15 32  1  0  0  0  0
 15 33  1  0  0  0  0
M  END
> <s_m_source_file>
AV-unprocessed.smi

> <i_m_source_file_index>
3220

> <i_lp_mmshare_version>
43012

> <i_f3d_flags>
0

> <s_epik_input>
bjFbY0hdW2NIXVtjSF1uMVtDSDJdW0NAQEhdKFtDSDNdKVtOSF1DKD1PKVtDQEBIXTJbQ0gyXVtDSDJdW0NIMl1PMg==

> <s_epik_cmdline>
J2VwaWtfcHl0aG9uJywgJy1waCcsICc3LjAnLCAnLXRuJywgJzgnLCAnLW1hJywgJzIwMCcsICctbWV0YWxfYmluZGluZycsICctaW1hZScsICc8aW5maWxlLm1hZT4nLCAnLW9tYWUnLCAnPG91dGZpbGUubWFlPic=

> <r_lp_tautomer_probability>
1

> <r_epik_Ionization_Penalty>
0.00033363

> <r_epik_Ionization_Penalty_Charging>
0

> <r_epik_Ionization_Penalty_Neutral>
0.00033363

> <r_epik_State_Penalty>
-0

> <r_epik_Charging_Adjusted_Penalty>
0

> <i_epik_Tot_Q>
0

> <i_epik_Tot_abs_Q>
0

> <r_epik_Metal_State_Penalty>
-0

> <b_epik_Metal_Only>
0

> <s_lp_Force_Field>
OPLS_2005

> <r_lp_Energy>
17.8243

> <b_lp_Chiralities_Consistent>
1

> <s_lp_Variant>
AV-unprocessed.smi:3220-4

> <Gold.Version>
5.8.1

> <Gold.Id.Protein>
6NUR|6NUR_protein|mol2

> <Gold.PLP.Fitness>
38.6305

> <Gold.PLP.PLP>
-37.7464

> <Gold.PLP.part.hbond>
-2.0000

> <Gold.PLP.part.metal>
0.0000

> <Gold.PLP.part.buried>
-2.6209

> <Gold.PLP.part.nonpolar>
-32.5600

> <Gold.PLP.part.repulsive>
0.1654

> <Gold.PLP.ligand.clash>
0.0000

> <Gold.PLP.ligand.torsion>
1.0707

> <Gold.PLP.Chemscore.Hbond>
1.0000

> <Gold.PLP.Chemscore.CHOScore>
0.0000

> <Gold.PLP.Chemscore.Metal>
0.0000

> <Gold.Chemscore.Hbonds>
donor molecule, donor type, donor heavy atom, donor atom, acceptor molecule, acceptor atom, score
      P1  H  7997  8010       L1    11  0.91

> <Gold.PLP.Chemscore.Internal.Correction>
0.0256

> <Gold.Rescore>
     Score         DG    S(hbond)    S(metal)    S(lipo)     H(rot)  DE(clash)    DE(int)     intcor
     11.79     -14.02       0.85        0.00      84.37       1.62       0.01       2.22       ----

> <Gold.Chemscore.Fitness>
11.7922

> <Gold.Chemscore.DG>
-14.0234

> <Gold.Chemscore.ZeroCoef>
-5.4800

> <Gold.Chemscore.Hbond>
0.8455

> <Gold.Chemscore.Metal>
0.0000

> <Gold.Chemscore.Lipo>
84.3711

> <Gold.Chemscore.Internal_Hbond>
0.0000

> <Gold.Chemscore.DEClash>
0.0077

> <Gold.Chemscore.DEInternal>
2.2235

> <Gold.Chemscore.Rot>
1.6219

> <Gold.Chemscore.Internal.Correction>
   9.000000E+99

> <Gold.Chemscore.Hbonds>
donor molecule, donor type, donor heavy atom, donor atom, acceptor molecule, acceptor atom, score
      P1  H  7997  8010       L1    11  0.29

> <Gold.Chemscore.Hbond.Weighted>
-2.8239

> <Gold.Chemscore.Metal.Weighted>
-0.0000

> <Gold.Chemscore.Lipo.Weighted>
-9.8714

> <Gold.Chemscore.Internal_Hbond.Weighted>
0.0000

> <Gold.Chemscore.DEClash.Weighted>
0.0077

> <Gold.Chemscore.DEInternal.Weighted>
2.2235

> <Gold.Chemscore.Rot.Weighted>
4.1520

> <Gold.Chemscore.Internal.Correction.Weighted>
   9.000000E+99

> <Gold.Protein.RotatedTorsions>
[ 6907 6896 6895 6894 ] final  -88.19 input  -60.11 | X-H torsion
[ 7974 7965 7964 7962 ] final   57.68 input  175.53 | X-H torsion
[ 8008 7997 7996 7995 ] final   42.65 input   59.86 | X-H torsion
[ 10167 10162 10161 10158 ] final  126.56 input  -65.29 | X-H torsion
[ 10718 10713 10712 10709 ] final -134.19 input   66.30 | X-H torsion
[ 10763 10752 10751 10750 ] final  109.00 input  -60.55 | X-H torsion
[ 11005 11000 10999 10996 ] final  -57.80 input  -57.11 | X-H torsion

> <Gold.Protein.ActiveResidues>
 VAL166  LYS551  ARG553  GLY616  TRP617  ASP618  TYR619  PRO620  LYS621  CYS622 
 ASP623  PHE694  ASN695  SER759  ASP760  ASP761  ALA762  ILE779  LEU786  VAL792 
 PHE793  MET794  SER795  GLU796  ALA797  LYS798  CYS799  TRP800  GLU811  SER814 

> <Gold.Protein.RotatedAtoms>
  150.6868  134.2779  159.4614 H   0  0  0  0  0  0  0  0  0  0  0  0  # atno 6907 bound_to 6896
  152.0696  134.9539  160.0584 H   0  0  0  0  0  0  0  0  0  0  0  0  # atno 6908 bound_to 6896
  152.0935  133.4178  159.4591 H   0  0  0  0  0  0  0  0  0  0  0  0  # atno 6909 bound_to 6896
  145.9265  139.3772  143.0447 H   0  0  0  0  0  0  0  0  0  0  0  0  # atno 7974 bound_to 7965
  155.2897  140.3378  155.4253 H   0  0  0  0  0  0  0  0  0  0  0  0  # atno 8008 bound_to 7997
  156.2052  140.1748  156.7855 H   0  0  0  0  0  0  0  0  0  0  0  0  # atno 8009 bound_to 7997
  154.5611  140.0687  156.8804 H   0  0  0  0  0  0  0  0  0  0  0  0  # atno 8010 bound_to 7997
  139.5625  144.6890  151.4003 H   0  0  0  0  0  0  0  0  0  0  0  0  # atno 10167 bound_to 10162
  156.2528  130.7163  151.1069 H   0  0  0  0  0  0  0  0  0  0  0  0  # atno 10718 bound_to 10713
  153.4285  135.3794  155.2156 H   0  0  0  0  0  0  0  0  0  0  0  0  # atno 10763 bound_to 10752
  154.8749  135.3834  154.4297 H   0  0  0  0  0  0  0  0  0  0  0  0  # atno 10764 bound_to 10752
  153.4826  135.7088  153.5992 H   0  0  0  0  0  0  0  0  0  0  0  0  # atno 10765 bound_to 10752
  141.1180  133.6611  156.4825 H   0  0  0  0  0  0  0  0  0  0  0  0  # atno 11005 bound_to 11000
  145.8482  140.9543  143.0763 LP  0  0  0  0  0  0  0  0  0  0  0  0  # atno 17320 bound_to 7965
  144.6759  140.0373  143.7481 LP  0  0  0  0  0  0  0  0  0  0  0  0  # atno 17321 bound_to 7965
  140.6906  143.7871  150.7249 LP  0  0  0  0  0  0  0  0  0  0  0  0  # atno 17342 bound_to 10162
  140.1352  143.4490  152.2229 LP  0  0  0  0  0  0  0  0  0  0  0  0  # atno 17343 bound_to 10162
  157.7221  131.0674  150.6091 LP  0  0  0  0  0  0  0  0  0  0  0  0  # atno 17370 bound_to 10713
  156.6172  130.4396  149.5836 LP  0  0  0  0  0  0  0  0  0  0  0  0  # atno 17371 bound_to 10713
  140.4589  134.6859  157.5076 LP  0  0  0  0  0  0  0  0  0  0  0  0  # atno 17394 bound_to 11000
  140.0116  134.6681  155.9372 LP  0  0  0  0  0  0  0  0  0  0  0  0  # atno 17395 bound_to 11000

$$$$
