AV-unprocessed.smi:2060|AV-procd|sdf|8359|dock5
  -GOLD-   2272011 33D 1   1.00000     0.00000
 Structure written by MMmdl.
 45 46  0  0  0  0  0  0  0  0  3 V2000
  150.7007  137.9691  157.7509 C   0  0  0  0  0  0  0  0  0  0  0  0
  151.4839  137.5189  156.4972 C   0  0  0  0  0  0  0  0  0  0  0  0
  150.8187  137.7402  155.0906 C   0  0  2  0  0  0  0  0  0  0  0  0
  151.9662  137.8646  154.0363 C   0  0  0  0  0  0  0  0  0  0  0  0
  149.9713  139.0674  155.0474 C   0  0  0  0  0  0  0  0  0  0  0  0
  150.8270  140.2491  155.2107 N   0  5  0  0  0  0  0  0  0  0  0  0
  151.3401  140.6762  156.3966 C   0  0  0  0  0  0  0  0  0  0  0  0
  152.3437  140.2497  156.9792 O   0  0  0  0  0  0  0  0  0  0  0  0
  150.6145  141.6741  156.9338 N   0  0  0  0  0  0  0  0  0  0  0  0
  150.8233  142.3675  158.1554 C   0  0  0  0  0  0  0  0  0  0  0  0
  151.1298  143.7546  158.1575 C   0  0  0  0  0  0  0  0  0  0  0  0
  151.2527  144.0423  159.4877 C   0  0  0  0  0  0  0  0  0  0  0  0
  151.5629  145.2964  160.2304 C   0  0  0  0  0  0  0  0  0  0  0  0
  151.0388  142.9261  160.2355 O   0  0  0  0  0  0  0  0  0  0  0  0
  150.7629  141.8562  159.3760 N   0  0  0  0  0  0  0  0  0  0  0  0
  149.8979  136.5751  154.7695 N   0  3  0  0  0  0  0  0  0  0  0  0
  150.4738  135.2043  154.8928 C   0  0  0  0  0  0  0  0  0  0  0  0
  149.5021  134.1524  154.3287 C   0  0  0  0  0  0  0  0  0  0  0  0
  148.2451  134.2389  154.9837 O   0  0  0  0  0  0  0  0  0  0  0  0
  147.6444  135.5111  154.7904 C   0  0  0  0  0  0  0  0  0  0  0  0
  148.5447  136.5899  155.4091 C   0  0  0  0  0  0  0  0  0  0  0  0
  151.2641  137.7285  158.6525 H   0  0  0  0  0  0  0  0  0  0  0  0
  149.7342  137.4729  157.8371 H   0  0  0  0  0  0  0  0  0  0  0  0
  150.5319  139.0454  157.7619 H   0  0  0  0  0  0  0  0  0  0  0  0
  152.4336  138.0551  156.5167 H   0  0  0  0  0  0  0  0  0  0  0  0
  151.7490  136.4699  156.6441 H   0  0  0  0  0  0  0  0  0  0  0  0
  152.5700  138.7660  154.1621 H   0  0  0  0  0  0  0  0  0  0  0  0
  151.5963  137.8856  153.0090 H   0  0  0  0  0  0  0  0  0  0  0  0
  152.6659  137.0314  154.1099 H   0  0  0  0  0  0  0  0  0  0  0  0
  149.4256  139.0968  154.1037 H   0  0  0  0  0  0  0  0  0  0  0  0
  149.2014  139.0304  155.8181 H   0  0  0  0  0  0  0  0  0  0  0  0
  149.8154  141.9733  156.3955 H   0  0  0  0  0  0  0  0  0  0  0  0
  151.2422  144.4292  157.3218 H   0  0  0  0  0  0  0  0  0  0  0  0
  151.5959  146.1513  159.5548 H   0  0  0  0  0  0  0  0  0  0  0  0
  152.5300  145.2206  160.7276 H   0  0  0  0  0  0  0  0  0  0  0  0
  150.8055  145.4942  160.9890 H   0  0  0  0  0  0  0  0  0  0  0  0
  151.3999  135.0973  154.3318 H   0  0  0  0  0  0  0  0  0  0  0  0
  150.6993  134.9909  155.9383 H   0  0  0  0  0  0  0  0  0  0  0  0
  149.3724  134.2836  153.2531 H   0  0  0  0  0  0  0  0  0  0  0  0
  149.9077  133.1515  154.4779 H   0  0  0  0  0  0  0  0  0  0  0  0
  147.4767  135.6996  153.7285 H   0  0  0  0  0  0  0  0  0  0  0  0
  146.6674  135.5148  155.2740 H   0  0  0  0  0  0  0  0  0  0  0  0
  148.6316  136.4039  156.4802 H   0  0  0  0  0  0  0  0  0  0  0  0
  148.0530  137.5552  155.2940 H   0  0  0  0  0  0  0  0  0  0  0  0
  149.7284  136.6932  153.7794 H   0  0  0  0  0  0  0  0  0  0  0  0
  1  2  1  0  0  0  0
  1 22  1  0  0  0  0
  1 23  1  0  0  0  0
  1 24  1  0  0  0  0
  2  3  1  0  0  0  0
  2 25  1  0  0  0  0
  2 26  1  0  0  0  0
  3  4  1  0  0  0  0
  3  5  1  0  0  0  0
  3 16  1  0  0  0  0
  4 27  1  0  0  0  0
  4 28  1  0  0  0  0
  4 29  1  0  0  0  0
  5  6  1  0  0  0  0
  5 30  1  0  0  0  0
  5 31  1  0  0  0  0
  6  7  1  0  0  0  0
  7  8  2  0  0  0  0
  7  9  1  0  0  0  0
  9 10  1  0  0  0  0
  9 32  1  0  0  0  0
 10 15  2  0  0  0  0
 10 11  1  0  0  0  0
 11 12  2  0  0  0  0
 11 33  1  0  0  0  0
 12 13  1  0  0  0  0
 12 14  1  0  0  0  0
 13 34  1  0  0  0  0
 13 35  1  0  0  0  0
 13 36  1  0  0  0  0
 14 15  1  0  0  0  0
 16 21  1  0  0  0  0
 16 17  1  0  0  0  0
 16 45  1  0  0  0  0
 17 18  1  0  0  0  0
 17 37  1  0  0  0  0
 17 38  1  0  0  0  0
 18 19  1  0  0  0  0
 18 39  1  0  0  0  0
 18 40  1  0  0  0  0
 19 20  1  0  0  0  0
 20 21  1  0  0  0  0
 20 41  1  0  0  0  0
 20 42  1  0  0  0  0
 21 43  1  0  0  0  0
 21 44  1  0  0  0  0
M  CHG  1   6  -1
M  CHG  1  16   1
M  END
> <s_m_source_file>
AV-unprocessed.smi

> <i_m_source_file_index>
2060

> <i_lp_mmshare_version>
43012

> <i_f3d_flags>
0

> <s_epik_input>
W0NIMl0xW0NIMl1PW0NIMl1bQ0gyXU4xW0NAQF0oW0NIM10pKFtDSDJdW0NIM10pW0NIMl1bTkhdQyg9TylbTkhdYzJbY0hdYyhbQ0gzXSlvbjI=

> <s_epik_cmdline>
J2VwaWtfcHl0aG9uJywgJy1waCcsICc3LjAnLCAnLXRuJywgJzgnLCAnLW1hJywgJzIwMCcsICctbWV0YWxfYmluZGluZycsICctaW1hZScsICc8aW5maWxlLm1hZT4nLCAnLW9tYWUnLCAnPG91dGZpbGUubWFlPic=

> <r_epik_Ionization_Penalty>
6.79469

> <r_epik_Ionization_Penalty_Charging>
6.79469

> <r_epik_Ionization_Penalty_Neutral>
5.68576e-06

> <r_epik_State_Penalty>
7.33145

> <r_epik_Charging_Adjusted_Penalty>
14.1261

> <i_epik_Tot_Q>
0

> <i_epik_Tot_abs_Q>
2

> <r_epik_Metal_State_Penalty>
3.24803

> <b_epik_Metal_Only>
1

> <s_lp_Force_Field>
OPLS_2005

> <r_lp_Energy>
28.6548

> <b_lp_Chiralities_Consistent>
1

> <s_lp_Variant>
AV-unprocessed.smi:2060-6

> <Gold.Version>
5.8.1

> <Gold.Id.Protein>
6NUR|6NUR_protein|mol2

> <Gold.PLP.Fitness>
42.6300

> <Gold.PLP.PLP>
-34.7370

> <Gold.PLP.part.hbond>
-4.0302

> <Gold.PLP.part.metal>
0.0000

> <Gold.PLP.part.buried>
-2.6014

> <Gold.PLP.part.nonpolar>
-27.4868

> <Gold.PLP.part.repulsive>
0.2563

> <Gold.PLP.ligand.clash>
0.0000

> <Gold.PLP.ligand.torsion>
2.2013

> <Gold.PLP.Chemscore.Hbond>
4.0000

> <Gold.PLP.Chemscore.CHOScore>
0.0000

> <Gold.PLP.Chemscore.Metal>
0.0000

> <Gold.Chemscore.Hbonds>
donor molecule, donor type, donor heavy atom, donor atom, acceptor molecule, acceptor atom, score
      L1  H    16    45       P1  7948  1.72
      P1  H  7989  7998       L1     6  1.00
      P1  H  7997  8010       L1     8  0.86

> <Gold.PLP.Chemscore.Internal.Correction>
0.2956

> <Gold.Rescore>
     Score         DG    S(hbond)    S(metal)    S(lipo)     H(rot)  DE(clash)    DE(int)     intcor
     16.52     -18.79       2.76        0.00      72.72       1.73       0.11       2.16       ----

> <Gold.Chemscore.Fitness>
16.5222

> <Gold.Chemscore.DG>
-18.7889

> <Gold.Chemscore.ZeroCoef>
-5.4800

> <Gold.Chemscore.Hbond>
2.7630

> <Gold.Chemscore.Metal>
0.0000

> <Gold.Chemscore.Lipo>
72.7153

> <Gold.Chemscore.Internal_Hbond>
0.0000

> <Gold.Chemscore.DEClash>
0.1072

> <Gold.Chemscore.DEInternal>
2.1596

> <Gold.Chemscore.Rot>
1.7294

> <Gold.Chemscore.Internal.Correction>
   9.000000E+99

> <Gold.Chemscore.Hbonds>
donor molecule, donor type, donor heavy atom, donor atom, acceptor molecule, acceptor atom, score
      L1  H    16    45       P1  7948  0.50
      P1  H  7989  7998       L1     6  0.80
      P1  H  7997  8010       L1     8  0.80

> <Gold.Chemscore.Hbond.Weighted>
-9.2285

> <Gold.Chemscore.Metal.Weighted>
-0.0000

> <Gold.Chemscore.Lipo.Weighted>
-8.5077

> <Gold.Chemscore.Internal_Hbond.Weighted>
0.0000

> <Gold.Chemscore.DEClash.Weighted>
0.1072

> <Gold.Chemscore.DEInternal.Weighted>
2.1596

> <Gold.Chemscore.Rot.Weighted>
4.4272

> <Gold.Chemscore.Internal.Correction.Weighted>
   9.000000E+99

> <Gold.Protein.RotatedTorsions>
[ 6907 6896 6895 6894 ] final  -45.97 input  -60.11 | X-H torsion
[ 7974 7965 7964 7962 ] final   70.63 input  175.53 | X-H torsion
[ 8008 7997 7996 7995 ] final   75.16 input   59.86 | X-H torsion
[ 10167 10162 10161 10158 ] final -111.44 input  -65.29 | X-H torsion
[ 10718 10713 10712 10709 ] final  104.87 input   66.30 | X-H torsion
[ 10763 10752 10751 10750 ] final   66.79 input  -60.55 | X-H torsion
[ 11005 11000 10999 10996 ] final   66.81 input  -57.11 | X-H torsion

> <Gold.Protein.ActiveResidues>
 VAL166  LYS551  ARG553  GLY616  TRP617  ASP618  TYR619  PRO620  LYS621  CYS622 
 ASP623  PHE694  ASN695  SER759  ASP760  ASP761  ALA762  ILE779  LEU786  VAL792 
 PHE793  MET794  SER795  GLU796  ALA797  LYS798  CYS799  TRP800  GLU811  SER814 

> <Gold.Protein.RotatedAtoms>
  150.9162  134.8580  159.7458 H   0  0  0  0  0  0  0  0  0  0  0  0  # atno 6907 bound_to 6896
  152.4970  134.4285  159.9514 H   0  0  0  0  0  0  0  0  0  0  0  0  # atno 6908 bound_to 6896
  151.4323  133.3627  159.2805 H   0  0  0  0  0  0  0  0  0  0  0  0  # atno 6909 bound_to 6896
  145.7757  139.2864  143.1295 H   0  0  0  0  0  0  0  0  0  0  0  0  # atno 7974 bound_to 7965
  155.8089  140.3474  155.5446 H   0  0  0  0  0  0  0  0  0  0  0  0  # atno 8008 bound_to 7997
  155.8461  140.0949  157.1724 H   0  0  0  0  0  0  0  0  0  0  0  0  # atno 8009 bound_to 7997
  154.4006  140.1385  156.3775 H   0  0  0  0  0  0  0  0  0  0  0  0  # atno 8010 bound_to 7997
  140.1336  143.4339  152.1610 H   0  0  0  0  0  0  0  0  0  0  0  0  # atno 10167 bound_to 10162
  157.6725  131.0814  150.5771 H   0  0  0  0  0  0  0  0  0  0  0  0  # atno 10718 bound_to 10713
  153.0156  135.5307  154.6879 H   0  0  0  0  0  0  0  0  0  0  0  0  # atno 10763 bound_to 10752
  154.6021  135.2869  155.0526 H   0  0  0  0  0  0  0  0  0  0  0  0  # atno 10764 bound_to 10752
  154.1579  135.6552  153.5031 H   0  0  0  0  0  0  0  0  0  0  0  0  # atno 10765 bound_to 10752
  139.9809  134.6746  156.0265 H   0  0  0  0  0  0  0  0  0  0  0  0  # atno 11005 bound_to 11000
  146.0125  140.8423  142.9964 LP  0  0  0  0  0  0  0  0  0  0  0  0  # atno 17320 bound_to 7965
  144.6805  140.2510  143.7331 LP  0  0  0  0  0  0  0  0  0  0  0  0  # atno 17321 bound_to 7965
  139.5507  144.7335  151.4444 LP  0  0  0  0  0  0  0  0  0  0  0  0  # atno 17342 bound_to 10162
  140.6802  143.8098  150.7111 LP  0  0  0  0  0  0  0  0  0  0  0  0  # atno 17343 bound_to 10162
  156.6072  130.4370  149.5873 LP  0  0  0  0  0  0  0  0  0  0  0  0  # atno 17370 bound_to 10713
  156.2459  130.6878  151.1599 LP  0  0  0  0  0  0  0  0  0  0  0  0  # atno 17371 bound_to 10713
  141.1481  133.6552  156.3928 LP  0  0  0  0  0  0  0  0  0  0  0  0  # atno 17394 bound_to 11000
  140.5099  134.6405  157.5280 LP  0  0  0  0  0  0  0  0  0  0  0  0  # atno 17395 bound_to 11000

$$$$
