AV-unprocessed.smi:3042|AV-procd|sdf|11601|dock6
  -GOLD-   2272016583D 1   1.00000     0.00000
 Structure written by MMmdl.
 32 33  0  0  0  0  0  0  0  0  1 V2000
  150.0329  138.4476  158.3508 N   0  0  0  0  0  0  0  0  0  0  0  0
  151.0589  139.4955  158.4814 C   0  0  0  0  0  0  0  0  0  0  0  0
  150.5174  140.9189  158.1935 C   0  0  2  0  0  0  0  0  0  0  0  0
  149.9132  140.9411  156.7902 C   0  0  0  0  0  0  0  0  0  0  0  0
  148.5842  141.3647  156.5692 C   0  0  0  0  0  0  0  0  0  0  0  0
  148.0817  141.3720  155.2540 C   0  0  0  0  0  0  0  0  0  0  0  0
  148.9309  140.9556  154.2097 C   0  0  0  0  0  0  0  0  0  0  0  0
  150.2033  140.5487  154.4064 N   0  0  0  0  0  0  0  0  0  0  0  0
  150.6777  140.5458  155.6708 C   0  0  0  0  0  0  0  0  0  0  0  0
  151.5124  141.9971  158.3717 N   0  0  0  0  0  0  0  0  0  0  0  0
  150.9892  143.2998  157.9437 C   0  0  0  0  0  0  0  0  0  0  0  0
  152.0098  144.4357  158.1276 C   0  0  0  0  0  0  0  0  0  0  0  0
  152.4156  144.4947  159.4889 O   0  0  0  0  0  0  0  0  0  0  0  0
  152.9872  143.2715  159.9341 C   0  0  0  0  0  0  0  0  0  0  0  0
  151.9731  142.1278  159.7566 C   0  0  0  0  0  0  0  0  0  0  0  0
  149.8713  138.2274  157.3692 H   0  0  0  0  0  0  0  0  0  0  0  0
  150.3415  137.5884  158.8030 H   0  0  0  0  0  0  0  0  0  0  0  0
  151.4600  139.4401  159.4919 H   0  0  0  0  0  0  0  0  0  0  0  0
  151.8909  139.2763  157.8115 H   0  0  0  0  0  0  0  0  0  0  0  0
  149.7025  141.0976  158.8973 H   0  0  0  0  0  0  0  0  0  0  0  0
  147.9605  141.6788  157.3932 H   0  0  0  0  0  0  0  0  0  0  0  0
  147.0703  141.6908  155.0504 H   0  0  0  0  0  0  0  0  0  0  0  0
  148.5788  140.9500  153.1888 H   0  0  0  0  0  0  0  0  0  0  0  0
  151.6995  140.2165  155.7914 H   0  0  0  0  0  0  0  0  0  0  0  0
  150.7015  143.2731  156.8929 H   0  0  0  0  0  0  0  0  0  0  0  0
  150.0849  143.5363  158.5065 H   0  0  0  0  0  0  0  0  0  0  0  0
  152.8788  144.2842  157.4853 H   0  0  0  0  0  0  0  0  0  0  0  0
  151.5668  145.3916  157.8479 H   0  0  0  0  0  0  0  0  0  0  0  0
  153.9026  143.0651  159.3775 H   0  0  0  0  0  0  0  0  0  0  0  0
  153.2665  143.3705  160.9831 H   0  0  0  0  0  0  0  0  0  0  0  0
  151.1206  142.2937  160.4168 H   0  0  0  0  0  0  0  0  0  0  0  0
  152.4580  141.2115  160.0884 H   0  0  0  0  0  0  0  0  0  0  0  0
  1  2  1  0  0  0  0
  1 16  1  0  0  0  0
  1 17  1  0  0  0  0
  2  3  1  0  0  0  0
  2 18  1  0  0  0  0
  2 19  1  0  0  0  0
  3  4  1  0  0  0  0
  3 10  1  0  0  0  0
  3 20  1  0  0  0  0
  4  9  1  0  0  0  0
  4  5  2  0  0  0  0
  5  6  1  0  0  0  0
  5 21  1  0  0  0  0
  6  7  2  0  0  0  0
  6 22  1  0  0  0  0
  7  8  1  0  0  0  0
  7 23  1  0  0  0  0
  8  9  2  0  0  0  0
  9 24  1  0  0  0  0
 10 15  1  0  0  0  0
 10 11  1  0  0  0  0
 11 12  1  0  0  0  0
 11 25  1  0  0  0  0
 11 26  1  0  0  0  0
 12 13  1  0  0  0  0
 12 27  1  0  0  0  0
 12 28  1  0  0  0  0
 13 14  1  0  0  0  0
 14 15  1  0  0  0  0
 14 29  1  0  0  0  0
 14 30  1  0  0  0  0
 15 31  1  0  0  0  0
 15 32  1  0  0  0  0
M  END
> <s_m_source_file>
AV-unprocessed.smi

> <i_m_source_file_index>
3042

> <i_lp_mmshare_version>
43012

> <i_f3d_flags>
0

> <s_epik_input>
W0NIMl0xW0NIMl1PW0NIMl1bQ0gyXU4xW0NASF0oW0NIMl1bTkgyXSljMltjSF1bY0hdW2NIXW5bY0hdMg==

> <s_epik_cmdline>
J2VwaWtfcHl0aG9uJywgJy1waCcsICc3LjAnLCAnLXRuJywgJzgnLCAnLW1hJywgJzIwMCcsICctbWV0YWxfYmluZGluZycsICctaW1hZScsICc8aW5maWxlLm1hZT4nLCAnLW9tYWUnLCAnPG91dGZpbGUubWFlPic=

> <r_epik_Ionization_Penalty>
2.62143

> <r_epik_Ionization_Penalty_Charging>
0

> <r_epik_Ionization_Penalty_Neutral>
2.62143

> <r_epik_State_Penalty>
2.72742

> <r_epik_Charging_Adjusted_Penalty>
2.72742

> <i_epik_Tot_Q>
0

> <i_epik_Tot_abs_Q>
0

> <r_epik_Metal_State_Penalty>
2.72081

> <b_epik_Metal_Only>
0

> <s_lp_Force_Field>
OPLS_2005

> <r_lp_Energy>
27.3222

> <b_lp_Chiralities_Consistent>
1

> <s_lp_Variant>
AV-unprocessed.smi:3042-3

> <Gold.Version>
5.8.1

> <Gold.Id.Protein>
6NUR|6NUR_protein|mol2

> <Gold.PLP.Fitness>
34.5697

> <Gold.PLP.PLP>
-29.2437

> <Gold.PLP.part.hbond>
-1.0000

> <Gold.PLP.part.metal>
0.0000

> <Gold.PLP.part.buried>
-4.5691

> <Gold.PLP.part.nonpolar>
-24.9971

> <Gold.PLP.part.repulsive>
0.1457

> <Gold.PLP.ligand.clash>
0.0000

> <Gold.PLP.ligand.torsion>
0.2150

> <Gold.PLP.Chemscore.Hbond>
0.8960

> <Gold.PLP.Chemscore.CHOScore>
1.0000

> <Gold.PLP.Chemscore.Metal>
0.0000

> <Gold.Chemscore.Hbonds>
donor molecule, donor type, donor heavy atom, donor atom, acceptor molecule, acceptor atom, score
      P1  H  7989  7998       L1     8  0.88
      L1  C     7    23       P1  7957  1.00

> <Gold.PLP.Chemscore.Internal.Correction>
0.0681

> <Gold.Rescore>
     Score         DG    S(hbond)    S(metal)    S(lipo)     H(rot)  DE(clash)    DE(int)     intcor
     14.00     -14.24       0.79        0.00      83.91       1.44       0.05       0.19       ----

> <Gold.Chemscore.Fitness>
14.0039

> <Gold.Chemscore.DG>
-14.2448

> <Gold.Chemscore.ZeroCoef>
-5.4800

> <Gold.Chemscore.Hbond>
0.7855

> <Gold.Chemscore.Metal>
0.0000

> <Gold.Chemscore.Lipo>
83.9069

> <Gold.Chemscore.Internal_Hbond>
0.0000

> <Gold.Chemscore.DEClash>
0.0473

> <Gold.Chemscore.DEInternal>
0.1936

> <Gold.Chemscore.Rot>
1.4359

> <Gold.Chemscore.Internal.Correction>
   9.000000E+99

> <Gold.Chemscore.Hbonds>
donor molecule, donor type, donor heavy atom, donor atom, acceptor molecule, acceptor atom, score
      P1  H  7989  7998       L1     8  0.30

> <Gold.Chemscore.Hbond.Weighted>
-2.6237

> <Gold.Chemscore.Metal.Weighted>
-0.0000

> <Gold.Chemscore.Lipo.Weighted>
-9.8171

> <Gold.Chemscore.Internal_Hbond.Weighted>
0.0000

> <Gold.Chemscore.DEClash.Weighted>
0.0473

> <Gold.Chemscore.DEInternal.Weighted>
0.1936

> <Gold.Chemscore.Rot.Weighted>
3.6759

> <Gold.Chemscore.Internal.Correction.Weighted>
   9.000000E+99

> <Gold.Protein.RotatedTorsions>
[ 6907 6896 6895 6894 ] final  -11.61 input  -60.11 | X-H torsion
[ 7974 7965 7964 7962 ] final  -25.75 input  175.53 | X-H torsion
[ 8008 7997 7996 7995 ] final -116.13 input   59.86 | X-H torsion
[ 10167 10162 10161 10158 ] final  -83.32 input  -65.29 | X-H torsion
[ 10718 10713 10712 10709 ] final -100.72 input   66.30 | X-H torsion
[ 10763 10752 10751 10750 ] final  161.20 input  -60.55 | X-H torsion
[ 11005 11000 10999 10996 ] final  104.20 input  -57.11 | X-H torsion

> <Gold.Protein.ActiveResidues>
 VAL166  LYS551  ARG553  GLY616  TRP617  ASP618  TYR619  PRO620  LYS621  CYS622 
 ASP623  PHE694  ASN695  SER759  ASP760  ASP761  ALA762  ILE779  LEU786  VAL792 
 PHE793  MET794  SER795  GLU796  ALA797  LYS798  CYS799  TRP800  GLU811  SER814 

> <Gold.Protein.RotatedAtoms>
  151.3836  135.0944  159.9503 H   0  0  0  0  0  0  0  0  0  0  0  0  # atno 6907 bound_to 6896
  152.5101  133.9048  159.7469 H   0  0  0  0  0  0  0  0  0  0  0  0  # atno 6908 bound_to 6896
  150.9487  133.6519  159.2805 H   0  0  0  0  0  0  0  0  0  0  0  0  # atno 6909 bound_to 6896
  146.1471  140.4928  142.8627 H   0  0  0  0  0  0  0  0  0  0  0  0  # atno 7974 bound_to 7965
  155.0630  140.0393  157.2583 H   0  0  0  0  0  0  0  0  0  0  0  0  # atno 8008 bound_to 7997
  154.7044  140.2680  155.6664 H   0  0  0  0  0  0  0  0  0  0  0  0  # atno 8009 bound_to 7997
  156.2770  140.2734  156.1665 H   0  0  0  0  0  0  0  0  0  0  0  0  # atno 8010 bound_to 7997
  140.4237  143.2574  151.8854 H   0  0  0  0  0  0  0  0  0  0  0  0  # atno 10167 bound_to 10162
  156.0172  130.5340  150.6858 H   0  0  0  0  0  0  0  0  0  0  0  0  # atno 10718 bound_to 10713
  154.2592  135.2769  155.2785 H   0  0  0  0  0  0  0  0  0  0  0  0  # atno 10763 bound_to 10752
  154.5398  135.5706  153.6833 H   0  0  0  0  0  0  0  0  0  0  0  0  # atno 10764 bound_to 10752
  152.9965  135.6248  154.2742 H   0  0  0  0  0  0  0  0  0  0  0  0  # atno 10765 bound_to 10752
  139.8790  134.9292  156.5326 H   0  0  0  0  0  0  0  0  0  0  0  0  # atno 11005 bound_to 11000
  144.7859  140.5935  143.6574 LP  0  0  0  0  0  0  0  0  0  0  0  0  # atno 17320 bound_to 7965
  145.4912  139.1488  143.3708 LP  0  0  0  0  0  0  0  0  0  0  0  0  # atno 17321 bound_to 7965
  139.4783  144.5409  151.8529 LP  0  0  0  0  0  0  0  0  0  0  0  0  # atno 17342 bound_to 10162
  140.4505  144.1862  150.5897 LP  0  0  0  0  0  0  0  0  0  0  0  0  # atno 17343 bound_to 10162
  157.4551  131.0877  151.0805 LP  0  0  0  0  0  0  0  0  0  0  0  0  # atno 17370 bound_to 10713
  157.1310  130.6102  149.5529 LP  0  0  0  0  0  0  0  0  0  0  0  0  # atno 17371 bound_to 10713
  140.8369  133.8235  155.9038 LP  0  0  0  0  0  0  0  0  0  0  0  0  # atno 17394 bound_to 11000
  140.9274  134.2064  157.4886 LP  0  0  0  0  0  0  0  0  0  0  0  0  # atno 17395 bound_to 11000

$$$$
