AV-unprocessed.smi:1621|AV-procd|sdf|6493|dock8
  -GOLD-   22720 7153D 1   1.00000     0.00000
 Structure written by MMmdl.
 39 40  0  0  0  0  0  0  0  0  2 V2000
  150.4204  141.7078  155.5776 C   0  0  0  0  0  0  0  0  0  0  0  0
  149.2655  140.8607  155.2097 N   0  3  2  0  0  0  0  0  0  0  0  0
  149.6820  139.5507  154.6512 C   0  0  0  0  0  0  0  0  0  0  0  0
  148.4652  138.6474  154.3895 C   0  0  0  0  0  0  0  0  0  0  0  0
  147.4463  139.3338  153.4577 C   0  0  1  0  0  0  0  0  0  0  0  0
  146.1937  138.4690  153.2008 C   0  0  0  0  0  0  0  0  0  0  0  0
  146.5066  137.2051  152.5405 N   0  0  0  0  0  0  0  0  0  0  0  0
  145.6007  136.3476  152.0481 C   0  0  0  0  0  0  0  0  0  0  0  0
  144.3876  136.5484  152.0961 O   0  0  0  0  0  0  0  0  0  0  0  0
  146.1974  135.2648  151.5184 N   0  0  0  0  0  0  0  0  0  0  0  0
  145.6142  134.1166  150.9132 C   0  0  0  0  0  0  0  0  0  0  0  0
  146.4883  133.0971  150.4815 C   0  0  0  0  0  0  0  0  0  0  0  0
  145.9471  131.9489  149.8695 C   0  0  0  0  0  0  0  0  0  0  0  0
  144.6253  131.7713  149.6650 N   0  0  0  0  0  0  0  0  0  0  0  0
  143.7901  132.7515  150.0687 C   0  0  0  0  0  0  0  0  0  0  0  0
  144.2267  133.9386  150.6906 C   0  0  0  0  0  0  0  0  0  0  0  0
  147.0648  140.7005  154.0541 C   0  0  0  0  0  0  0  0  0  0  0  0
  148.3089  141.5645  154.3205 C   0  0  0  0  0  0  0  0  0  0  0  0
  151.0134  141.9642  154.6989 H   0  0  0  0  0  0  0  0  0  0  0  0
  151.0662  141.1906  156.2878 H   0  0  0  0  0  0  0  0  0  0  0  0
  150.0853  142.6332  156.0471 H   0  0  0  0  0  0  0  0  0  0  0  0
  150.2391  139.7076  153.7260 H   0  0  0  0  0  0  0  0  0  0  0  0
  150.3584  139.0551  155.3489 H   0  0  0  0  0  0  0  0  0  0  0  0
  148.8054  137.7068  153.9554 H   0  0  0  0  0  0  0  0  0  0  0  0
  147.9878  138.3951  155.3376 H   0  0  0  0  0  0  0  0  0  0  0  0
  147.9343  139.5168  152.4990 H   0  0  0  0  0  0  0  0  0  0  0  0
  145.6974  138.2411  154.1446 H   0  0  0  0  0  0  0  0  0  0  0  0
  145.4682  139.0218  152.6015 H   0  0  0  0  0  0  0  0  0  0  0  0
  147.4834  136.9615  152.4645 H   0  0  0  0  0  0  0  0  0  0  0  0
  147.2029  135.2359  151.6006 H   0  0  0  0  0  0  0  0  0  0  0  0
  147.5562  133.1863  150.6177 H   0  0  0  0  0  0  0  0  0  0  0  0
  146.5946  131.1525  149.5335 H   0  0  0  0  0  0  0  0  0  0  0  0
  142.7385  132.5873  149.8858 H   0  0  0  0  0  0  0  0  0  0  0  0
  143.4930  134.6778  150.9693 H   0  0  0  0  0  0  0  0  0  0  0  0
  146.3926  141.2291  153.3772 H   0  0  0  0  0  0  0  0  0  0  0  0
  146.5141  140.5581  154.9852 H   0  0  0  0  0  0  0  0  0  0  0  0
  148.0057  142.5050  154.7824 H   0  0  0  0  0  0  0  0  0  0  0  0
  148.8003  141.8167  153.3794 H   0  0  0  0  0  0  0  0  0  0  0  0
  148.7696  140.6640  156.0675 H   0  0  0  0  0  0  0  0  0  0  0  0
  1  2  1  0  0  0  0
  1 19  1  0  0  0  0
  1 20  1  0  0  0  0
  1 21  1  0  0  0  0
  2 18  1  0  0  0  0
  2  3  1  0  0  0  0
  2 39  1  0  0  0  0
  3  4  1  0  0  0  0
  3 22  1  0  0  0  0
  3 23  1  0  0  0  0
  4  5  1  0  0  0  0
  4 24  1  0  0  0  0
  4 25  1  0  0  0  0
  5  6  1  0  0  0  0
  5 17  1  0  0  0  0
  5 26  1  0  0  0  0
  6  7  1  0  0  0  0
  6 27  1  0  0  0  0
  6 28  1  0  0  0  0
  7  8  1  0  0  0  0
  7 29  1  0  0  0  0
  8  9  2  0  0  0  0
  8 10  1  0  0  0  0
 10 11  1  0  0  0  0
 10 30  1  0  0  0  0
 11 16  1  0  0  0  0
 11 12  2  0  0  0  0
 12 13  1  0  0  0  0
 12 31  1  0  0  0  0
 13 14  2  0  0  0  0
 13 32  1  0  0  0  0
 14 15  1  0  0  0  0
 15 16  2  0  0  0  0
 15 33  1  0  0  0  0
 16 34  1  0  0  0  0
 17 18  1  0  0  0  0
 17 35  1  0  0  0  0
 17 36  1  0  0  0  0
 18 37  1  0  0  0  0
 18 38  1  0  0  0  0
M  CHG  1   2   1
M  END
> <s_m_source_file>
AV-unprocessed.smi

> <i_m_source_file_index>
1621

> <i_lp_mmshare_version>
43012

> <i_f3d_flags>
0

> <s_epik_input>
W0NIM11OMVtDSDJdW0NIMl1bQ0hdKFtDSDJdW0NIMl0xKVtDSDJdW05IXUMoPU8pW05IXWMyW2NIXVtjSF1uW2NIXVtjSF0y

> <s_epik_cmdline>
J2VwaWtfcHl0aG9uJywgJy1waCcsICc3LjAnLCAnLXRuJywgJzgnLCAnLW1hJywgJzIwMCcsICctbWV0YWxfYmluZGluZycsICctaW1hZScsICc8aW5maWxlLm1hZT4nLCAnLW9tYWUnLCAnPG91dGZpbGUubWFlPic=

> <r_epik_Ionization_Penalty>
0.107254

> <r_epik_Ionization_Penalty_Charging>
0.00106265

> <r_epik_Ionization_Penalty_Neutral>
0.106191

> <r_epik_State_Penalty>
0.0960133

> <r_epik_Charging_Adjusted_Penalty>
0.0970759

> <i_epik_Tot_Q>
1

> <i_epik_Tot_abs_Q>
1

> <r_epik_Metal_State_Penalty>
0.0813061

> <b_epik_Metal_Only>
0

> <s_lp_Force_Field>
OPLS_2005

> <r_lp_Energy>
22.3351

> <b_lp_Chiralities_Consistent>
1

> <s_lp_Variant>
AV-unprocessed.smi:1621-1

> <Gold.Version>
5.8.1

> <Gold.Id.Protein>
6NUR|6NUR_protein|mol2

> <Gold.PLP.Fitness>
45.1389

> <Gold.PLP.PLP>
-33.3959

> <Gold.PLP.part.hbond>
-3.0000

> <Gold.PLP.part.metal>
0.0000

> <Gold.PLP.part.buried>
-4.6326

> <Gold.PLP.part.nonpolar>
-26.8174

> <Gold.PLP.part.repulsive>
1.1765

> <Gold.PLP.ligand.clash>
0.0000

> <Gold.PLP.ligand.torsion>
0.0460

> <Gold.PLP.Chemscore.Hbond>
2.0976

> <Gold.PLP.Chemscore.CHOScore>
1.8464

> <Gold.PLP.Chemscore.Metal>
0.0000

> <Gold.Chemscore.Hbonds>
donor molecule, donor type, donor heavy atom, donor atom, acceptor molecule, acceptor atom, score
      L1  H     7    29       P1  7948  1.00
      L1  H    10    30       P1  7948  0.99
      P1  H 10785 10796       L1    14  0.11
      L1  C    13    32       P1 10747  0.91
      L1  C    15    33       P1 10186  0.89

> <Gold.PLP.Chemscore.Internal.Correction>
0.0030

> <Gold.Rescore>
     Score         DG    S(hbond)    S(metal)    S(lipo)     H(rot)  DE(clash)    DE(int)     intcor
     17.43     -18.72       1.91        0.00      86.08       1.25       0.11       1.19       ----

> <Gold.Chemscore.Fitness>
17.4261

> <Gold.Chemscore.DG>
-18.7204

> <Gold.Chemscore.ZeroCoef>
-5.4800

> <Gold.Chemscore.Hbond>
1.9054

> <Gold.Chemscore.Metal>
0.0000

> <Gold.Chemscore.Lipo>
86.0834

> <Gold.Chemscore.Internal_Hbond>
0.0000

> <Gold.Chemscore.DEClash>
0.1089

> <Gold.Chemscore.DEInternal>
1.1855

> <Gold.Chemscore.Rot>
1.2482

> <Gold.Chemscore.Internal.Correction>
   9.000000E+99

> <Gold.Chemscore.Hbonds>
donor molecule, donor type, donor heavy atom, donor atom, acceptor molecule, acceptor atom, score
      L1  H     7    29       P1  7948  0.99
      L1  H    10    30       P1  7948  0.87
      P1  H 10785 10796       L1    14  0.05

> <Gold.Chemscore.Hbond.Weighted>
-6.3641

> <Gold.Chemscore.Metal.Weighted>
-0.0000

> <Gold.Chemscore.Lipo.Weighted>
-10.0718

> <Gold.Chemscore.Internal_Hbond.Weighted>
0.0000

> <Gold.Chemscore.DEClash.Weighted>
0.1089

> <Gold.Chemscore.DEInternal.Weighted>
1.1855

> <Gold.Chemscore.Rot.Weighted>
3.1954

> <Gold.Chemscore.Internal.Correction.Weighted>
   9.000000E+99

> <Gold.Protein.RotatedTorsions>
[ 6907 6896 6895 6894 ] final   86.15 input  -60.11 | X-H torsion
[ 7974 7965 7964 7962 ] final  -46.29 input  175.53 | X-H torsion
[ 8008 7997 7996 7995 ] final -117.10 input   59.86 | X-H torsion
[ 10167 10162 10161 10158 ] final -139.91 input  -65.29 | X-H torsion
[ 10718 10713 10712 10709 ] final  160.14 input   66.30 | X-H torsion
[ 10763 10752 10751 10750 ] final   14.67 input  -60.55 | X-H torsion
[ 11005 11000 10999 10996 ] final   23.90 input  -57.11 | X-H torsion

> <Gold.Protein.ActiveResidues>
 VAL166  LYS551  ARG553  GLY616  TRP617  ASP618  TYR619  PRO620  LYS621  CYS622 
 ASP623  PHE694  ASN695  SER759  ASP760  ASP761  ALA762  ILE779  LEU786  VAL792 
 PHE793  MET794  SER795  GLU796  ALA797  LYS798  CYS799  TRP800  GLU811  SER814 

> <Gold.Protein.RotatedAtoms>
  152.5389  134.2475  159.8885 H   0  0  0  0  0  0  0  0  0  0  0  0  # atno 6907 bound_to 6896
  151.2440  133.4378  159.2616 H   0  0  0  0  0  0  0  0  0  0  0  0  # atno 6908 bound_to 6896
  151.0600  134.9744  159.8312 H   0  0  0  0  0  0  0  0  0  0  0  0  # atno 6909 bound_to 6896
  145.9734  140.7359  142.9399 H   0  0  0  0  0  0  0  0  0  0  0  0  # atno 7974 bound_to 7965
  155.0784  140.0394  157.2631 H   0  0  0  0  0  0  0  0  0  0  0  0  # atno 8008 bound_to 7997
  154.6927  140.2656  155.6772 H   0  0  0  0  0  0  0  0  0  0  0  0  # atno 8009 bound_to 7997
  156.2734  140.2756  156.1510 H   0  0  0  0  0  0  0  0  0  0  0  0  # atno 8010 bound_to 7997
  139.8334  143.7417  152.2665 H   0  0  0  0  0  0  0  0  0  0  0  0  # atno 10167 bound_to 10162
  157.1545  131.0572  151.2263 H   0  0  0  0  0  0  0  0  0  0  0  0  # atno 10718 bound_to 10713
  153.1599  135.6794  153.8757 H   0  0  0  0  0  0  0  0  0  0  0  0  # atno 10763 bound_to 10752
  153.8156  135.3137  155.3406 H   0  0  0  0  0  0  0  0  0  0  0  0  # atno 10764 bound_to 10752
  154.7925  135.4826  154.0174 H   0  0  0  0  0  0  0  0  0  0  0  0  # atno 10765 bound_to 10752
  140.3646  134.2089  155.7670 H   0  0  0  0  0  0  0  0  0  0  0  0  # atno 11005 bound_to 11000
  144.6842  140.2787  143.7295 LP  0  0  0  0  0  0  0  0  0  0  0  0  # atno 17320 bound_to 7965
  145.7873  139.1914  143.2123 LP  0  0  0  0  0  0  0  0  0  0  0  0  # atno 17321 bound_to 7965
  139.7632  144.7500  151.0333 LP  0  0  0  0  0  0  0  0  0  0  0  0  # atno 17342 bound_to 10162
  140.7805  143.4728  151.0123 LP  0  0  0  0  0  0  0  0  0  0  0  0  # atno 17343 bound_to 10162
  157.4190  130.7427  149.6898 LP  0  0  0  0  0  0  0  0  0  0  0  0  # atno 17370 bound_to 10713
  155.9764  130.4075  150.3779 LP  0  0  0  0  0  0  0  0  0  0  0  0  # atno 17371 bound_to 10713
  141.1974  133.8061  157.0631 LP  0  0  0  0  0  0  0  0  0  0  0  0  # atno 17394 bound_to 11000
  140.0600  134.9760  157.1287 LP  0  0  0  0  0  0  0  0  0  0  0  0  # atno 17395 bound_to 11000

$$$$
