AV-unprocessed.smi:107|AV-procd|sdf|1022|dock3
  -GOLD-   2262018 23D 1   1.00000     0.00000
 Structure written by MMmdl.
 30 31  0  0  0  0  0  0  0  0  2 V2000
  151.0183  143.0285  159.0336 C   0  0  0  0  0  0  0  0  0  0  0  0
  151.2607  141.8857  158.0634 C   0  0  0  0  0  0  0  0  0  0  0  0
  150.5690  141.7605  156.9088 C   0  0  0  0  0  0  0  0  0  0  0  0
  150.7929  140.7154  156.0300 N   0  0  0  0  0  0  0  0  0  0  0  0
  149.9863  140.5907  154.7600 C   0  0  1  0  0  0  0  0  0  0  0  0
  149.2649  139.2506  154.6985 C   0  0  0  0  0  0  0  0  0  0  0  0
  148.0267  139.5917  153.8778 C   0  0  1  0  0  0  0  0  0  0  0  0
  146.8799  139.0026  154.4632 O   0  0  0  0  0  0  0  0  0  0  0  0
  147.9961  141.1393  153.8192 C   0  0  1  0  0  0  0  0  0  0  0  0
  146.6510  141.8081  154.1601 C   0  0  0  0  0  0  0  0  0  0  0  0
  146.7940  143.2128  154.1670 O   0  0  0  0  0  0  0  0  0  0  0  0
  148.9846  141.5521  154.7553 O   0  0  0  0  0  0  0  0  0  0  0  0
  151.7501  139.7188  156.3513 C   0  0  0  0  0  0  0  0  0  0  0  0
  151.8936  138.7782  155.5698 O   0  0  0  0  0  0  0  0  0  0  0  0
  152.4596  139.8417  157.5094 N   0  5  0  0  0  0  0  0  0  0  0  0
  152.2736  140.8723  158.3839 C   0  0  0  0  0  0  0  0  0  0  0  0
  152.9233  140.9721  159.4246 O   0  0  0  0  0  0  0  0  0  0  0  0
  150.2392  143.6991  158.6702 H   0  0  0  0  0  0  0  0  0  0  0  0
  151.9292  143.6117  159.1705 H   0  0  0  0  0  0  0  0  0  0  0  0
  150.7059  142.6429  160.0045 H   0  0  0  0  0  0  0  0  0  0  0  0
  149.8151  142.4967  156.6727 H   0  0  0  0  0  0  0  0  0  0  0  0
  150.6584  140.7731  153.9192 H   0  0  0  0  0  0  0  0  0  0  0  0
  149.8988  138.4855  154.2494 H   0  0  0  0  0  0  0  0  0  0  0  0
  148.9968  138.9423  155.7109 H   0  0  0  0  0  0  0  0  0  0  0  0
  148.1282  139.1954  152.8668 H   0  0  0  0  0  0  0  0  0  0  0  0
  146.1114  139.4173  154.1025 H   0  0  0  0  0  0  0  0  0  0  0  0
  148.3227  141.4442  152.8230 H   0  0  0  0  0  0  0  0  0  0  0  0
  145.9028  141.5730  153.4029 H   0  0  0  0  0  0  0  0  0  0  0  0
  146.2684  141.4596  155.1201 H   0  0  0  0  0  0  0  0  0  0  0  0
  147.4593  143.4438  154.7973 H   0  0  0  0  0  0  0  0  0  0  0  0
  1  2  1  0  0  0  0
  1 18  1  0  0  0  0
  1 19  1  0  0  0  0
  1 20  1  0  0  0  0
  2 16  1  0  0  0  0
  2  3  2  0  0  0  0
  3  4  1  0  0  0  0
  3 21  1  0  0  0  0
  4  5  1  0  0  0  0
  4 13  1  0  0  0  0
  5 12  1  0  0  0  0
  5  6  1  0  0  0  0
  5 22  1  0  0  0  0
  6  7  1  0  0  0  0
  6 23  1  0  0  0  0
  6 24  1  0  0  0  0
  7  8  1  0  0  0  0
  7  9  1  0  0  0  0
  7 25  1  0  0  0  0
  8 26  1  0  0  0  0
  9 10  1  0  0  0  0
  9 12  1  0  0  0  0
  9 27  1  0  0  0  0
 10 11  1  0  0  0  0
 10 28  1  0  0  0  0
 10 29  1  0  0  0  0
 11 30  1  0  0  0  0
 13 14  2  0  0  0  0
 13 15  1  0  0  0  0
 15 16  1  0  0  0  0
 16 17  2  0  0  0  0
M  CHG  1  15  -1
M  END
> <s_m_source_file>
AV-unprocessed.smi

> <i_m_source_file_index>
107

> <i_lp_mmshare_version>
43012

> <i_f3d_flags>
0

> <s_epik_input>
Tz1jMVtuSF1jKD1PKW4oW2NIXWMxW0NIM10pW0NAQEhdMltDSDJdW0NAQEhdKFtPSF0pW0NASF0oTzIpW0NIMl1bT0hd

> <s_epik_cmdline>
J2VwaWtfcHl0aG9uJywgJy1waCcsICc3LjAnLCAnLXRuJywgJzgnLCAnLW1hJywgJzIwMCcsICctbWV0YWxfYmluZGluZycsICctaW1hZScsICc8aW5maWxlLm1hZT4nLCAnLW9tYWUnLCAnPG91dGZpbGUubWFlPic=

> <r_lp_tautomer_probability>
0.999537

> <r_epik_Ionization_Penalty>
3.66603

> <r_epik_Ionization_Penalty_Charging>
1.09773e-07

> <r_epik_Ionization_Penalty_Neutral>
3.66603

> <r_epik_State_Penalty>
3.66562

> <r_epik_Charging_Adjusted_Penalty>
3.66562

> <i_epik_Tot_Q>
-1

> <i_epik_Tot_abs_Q>
1

> <r_epik_Metal_State_Penalty>
0.234536

> <b_epik_Metal_Only>
1

> <s_epik_Chemistry_Notes>
This compound contains an acetal/aminal-like group ( X-CH(R)-Y where X, Y are N, S, or O) that may be acid/base labile, releasing an aldehyde.

> <s_lp_Force_Field>
OPLS_2005

> <r_lp_Energy>
40.7451

> <b_lp_Chiralities_Consistent>
1

> <s_lp_Variant>
AV-unprocessed.smi:107-10

> <Gold.Version>
5.8.1

> <Gold.Id.Protein>
6NUR|6NUR_protein|mol2

> <Gold.PLP.Fitness>
40.3683

> <Gold.PLP.PLP>
-28.5458

> <Gold.PLP.part.hbond>
-3.0901

> <Gold.PLP.part.metal>
0.0000

> <Gold.PLP.part.buried>
-1.8634

> <Gold.PLP.part.nonpolar>
-23.8188

> <Gold.PLP.part.repulsive>
0.1517

> <Gold.PLP.ligand.clash>
0.0000

> <Gold.PLP.ligand.torsion>
0.0816

> <Gold.PLP.Chemscore.Hbond>
2.9913

> <Gold.PLP.Chemscore.CHOScore>
0.9959

> <Gold.PLP.Chemscore.Metal>
0.0000

> <Gold.Chemscore.Hbonds>
donor molecule, donor type, donor heavy atom, donor atom, acceptor molecule, acceptor atom, score
      L1  H    11    30       P1  8028  0.86
      P1  H  7997  8010       L1    15  1.33
      L1  C     3    21       P1  8028  0.79

> <Gold.PLP.Chemscore.Internal.Correction>
0.0242

> <Gold.Rescore>
     Score         DG    S(hbond)    S(metal)    S(lipo)     H(rot)  DE(clash)    DE(int)     intcor
      6.06      -7.25       0.97        0.00      46.20       2.69       0.11       1.08       ----

> <Gold.Chemscore.Fitness>
6.0558

> <Gold.Chemscore.DG>
-7.2505

> <Gold.Chemscore.ZeroCoef>
-5.4800

> <Gold.Chemscore.Hbond>
0.9714

> <Gold.Chemscore.Metal>
0.0000

> <Gold.Chemscore.Lipo>
46.1974

> <Gold.Chemscore.Internal_Hbond>
0.0000

> <Gold.Chemscore.DEClash>
0.1136

> <Gold.Chemscore.DEInternal>
1.0811

> <Gold.Chemscore.Rot>
2.6871

> <Gold.Chemscore.Internal.Correction>
   9.000000E+99

> <Gold.Chemscore.Hbonds>
donor molecule, donor type, donor heavy atom, donor atom, acceptor molecule, acceptor atom, score
      L1  H    11    30       P1  8028  0.16
      P1  H  7997  8010       L1    15  0.07

> <Gold.Chemscore.Hbond.Weighted>
-3.2444

> <Gold.Chemscore.Metal.Weighted>
-0.0000

> <Gold.Chemscore.Lipo.Weighted>
-5.4051

> <Gold.Chemscore.Internal_Hbond.Weighted>
0.0000

> <Gold.Chemscore.DEClash.Weighted>
0.1136

> <Gold.Chemscore.DEInternal.Weighted>
1.0811

> <Gold.Chemscore.Rot.Weighted>
6.8791

> <Gold.Chemscore.Internal.Correction.Weighted>
   9.000000E+99

> <Gold.Protein.RotatedTorsions>
[ 6907 6896 6895 6894 ] final   14.95 input  -60.11 | X-H torsion
[ 7974 7965 7964 7962 ] final   62.63 input  175.53 | X-H torsion
[ 8008 7997 7996 7995 ] final   61.76 input   59.86 | X-H torsion
[ 10167 10162 10161 10158 ] final  164.15 input  -65.29 | X-H torsion
[ 10718 10713 10712 10709 ] final  149.80 input   66.30 | X-H torsion
[ 10763 10752 10751 10750 ] final   26.55 input  -60.55 | X-H torsion
[ 11005 11000 10999 10996 ] final   71.06 input  -57.11 | X-H torsion

> <Gold.Protein.ActiveResidues>
 VAL166  LYS551  ARG553  GLY616  TRP617  ASP618  TYR619  PRO620  LYS621  CYS622 
 ASP623  PHE694  ASN695  SER759  ASP760  ASP761  ALA762  ILE779  LEU786  VAL792 
 PHE793  MET794  SER795  GLU796  ALA797  LYS798  CYS799  TRP800  GLU811  SER814 

> <Gold.Protein.RotatedAtoms>
  151.8104  135.0682  160.0411 H   0  0  0  0  0  0  0  0  0  0  0  0  # atno 6907 bound_to 6896
  152.3024  133.5665  159.5636 H   0  0  0  0  0  0  0  0  0  0  0  0  # atno 6908 bound_to 6896
  150.7280  134.0187  159.3736 H   0  0  0  0  0  0  0  0  0  0  0  0  # atno 6909 bound_to 6896
  145.8712  139.3379  143.0761 H   0  0  0  0  0  0  0  0  0  0  0  0  # atno 7974 bound_to 7965
  155.6035  140.3494  155.4601 H   0  0  0  0  0  0  0  0  0  0  0  0  # atno 8008 bound_to 7997
  156.0210  140.1253  157.0382 H   0  0  0  0  0  0  0  0  0  0  0  0  # atno 8009 bound_to 7997
  154.4315  140.1062  156.5949 H   0  0  0  0  0  0  0  0  0  0  0  0  # atno 8010 bound_to 7997
  139.4884  144.4265  151.9123 H   0  0  0  0  0  0  0  0  0  0  0  0  # atno 10167 bound_to 10162
  157.2915  131.0854  151.1458 H   0  0  0  0  0  0  0  0  0  0  0  0  # atno 10718 bound_to 10713
  153.0615  135.6557  154.0452 H   0  0  0  0  0  0  0  0  0  0  0  0  # atno 10763 bound_to 10752
  154.0119  135.2927  155.3393 H   0  0  0  0  0  0  0  0  0  0  0  0  # atno 10764 bound_to 10752
  154.6955  135.5266  153.8520 H   0  0  0  0  0  0  0  0  0  0  0  0  # atno 10765 bound_to 10752
  139.9564  134.7137  156.0744 H   0  0  0  0  0  0  0  0  0  0  0  0  # atno 11005 bound_to 11000
  145.9135  140.9164  143.0442 LP  0  0  0  0  0  0  0  0  0  0  0  0  # atno 17320 bound_to 7965
  144.6726  140.1192  143.7451 LP  0  0  0  0  0  0  0  0  0  0  0  0  # atno 17321 bound_to 7965
  140.3711  144.2854  150.5920 LP  0  0  0  0  0  0  0  0  0  0  0  0  # atno 17342 bound_to 10162
  140.5318  143.2242  151.8226 LP  0  0  0  0  0  0  0  0  0  0  0  0  # atno 17343 bound_to 10162
  157.2853  130.6769  149.6086 LP  0  0  0  0  0  0  0  0  0  0  0  0  # atno 17370 bound_to 10713
  155.9667  130.4437  150.5433 LP  0  0  0  0  0  0  0  0  0  0  0  0  # atno 17371 bound_to 10713
  141.1236  133.6606  156.3278 LP  0  0  0  0  0  0  0  0  0  0  0  0  # atno 17394 bound_to 11000
  140.5600  134.5944  157.5431 LP  0  0  0  0  0  0  0  0  0  0  0  0  # atno 17395 bound_to 11000

$$$$
