AV-unprocessed.smi:2340|AV-procd|sdf|9349|dock7
  -GOLD-   2272012573D 1   1.00000     0.00000
 Structure written by MMmdl.
 40 41  0  0  0  0  0  0  0  0  1 V2000
  153.6825  142.8335  163.5843 C   0  0  0  0  0  0  0  0  0  0  0  0
  153.4258  142.6382  162.1232 C   0  0  0  0  0  0  0  0  0  0  0  0
  153.8081  141.5691  161.3521 C   0  0  0  0  0  0  0  0  0  0  0  0
  153.2985  141.7482  159.6960 S   0  0  0  0  0  0  0  0  0  0  0  0
  152.5718  143.2967  160.1179 C   0  0  0  0  0  0  0  0  0  0  0  0
  151.8388  144.1641  159.1385 C   0  0  1  0  0  0  0  0  0  0  0  0
  152.7770  144.7310  158.0638 C   0  0  0  0  0  0  0  0  0  0  0  0
  150.6018  143.4690  158.5277 C   0  0  0  0  0  0  0  0  0  0  0  0
  150.9504  142.4864  157.5052 N   0  0  0  0  0  0  0  0  0  0  0  0
  150.0681  141.7873  156.7791 C   0  0  0  0  0  0  0  0  0  0  0  0
  148.8471  141.9174  156.8653 O   0  0  0  0  0  0  0  0  0  0  0  0
  150.6795  140.9283  155.9520 N   0  0  0  0  0  0  0  0  0  0  0  0
  150.0061  140.0037  155.0401 C   0  0  2  0  0  0  0  0  0  0  0  0
  149.0957  140.7680  154.0803 C   0  0  0  0  0  0  0  0  0  0  0  0
  147.7623  140.0329  154.1651 C   0  0  0  0  0  0  0  0  0  0  0  0
  147.7511  139.5304  155.4893 O   0  0  0  0  0  0  0  0  0  0  0  0
  149.0495  139.0189  155.7520 C   0  0  2  0  0  0  0  0  0  0  0  0
  149.2389  138.8099  157.2632 C   0  0  0  0  0  0  0  0  0  0  0  0
  152.7245  143.6119  161.4075 N   0  0  0  0  0  0  0  0  0  0  0  0
  154.2806  142.0206  163.9968 H   0  0  0  0  0  0  0  0  0  0  0  0
  152.7485  142.8730  164.1454 H   0  0  0  0  0  0  0  0  0  0  0  0
  154.2204  143.7637  163.7688 H   0  0  0  0  0  0  0  0  0  0  0  0
  154.3558  140.6894  161.6563 H   0  0  0  0  0  0  0  0  0  0  0  0
  151.4699  145.0232  159.7013 H   0  0  0  0  0  0  0  0  0  0  0  0
  153.5952  145.2931  158.5148 H   0  0  0  0  0  0  0  0  0  0  0  0
  152.2431  145.4055  157.3939 H   0  0  0  0  0  0  0  0  0  0  0  0
  153.2131  143.9375  157.4566 H   0  0  0  0  0  0  0  0  0  0  0  0
  150.0004  143.0007  159.3086 H   0  0  0  0  0  0  0  0  0  0  0  0
  149.9613  144.2130  158.0532 H   0  0  0  0  0  0  0  0  0  0  0  0
  151.9336  142.3081  157.3609 H   0  0  0  0  0  0  0  0  0  0  0  0
  151.6885  140.9035  155.9556 H   0  0  0  0  0  0  0  0  0  0  0  0
  150.7409  139.4358  154.4664 H   0  0  0  0  0  0  0  0  0  0  0  0
  148.9581  141.7994  154.4086 H   0  0  0  0  0  0  0  0  0  0  0  0
  149.4863  140.7961  153.0629 H   0  0  0  0  0  0  0  0  0  0  0  0
  146.9091  140.6837  153.9728 H   0  0  0  0  0  0  0  0  0  0  0  0
  147.7292  139.2021  153.4583 H   0  0  0  0  0  0  0  0  0  0  0  0
  149.1219  138.0494  155.2556 H   0  0  0  0  0  0  0  0  0  0  0  0
  150.2371  138.4322  157.4857 H   0  0  0  0  0  0  0  0  0  0  0  0
  148.5199  138.0852  157.6452 H   0  0  0  0  0  0  0  0  0  0  0  0
  149.0947  139.7367  157.8189 H   0  0  0  0  0  0  0  0  0  0  0  0
  1  2  1  0  0  0  0
  1 20  1  0  0  0  0
  1 21  1  0  0  0  0
  1 22  1  0  0  0  0
  2 19  1  0  0  0  0
  2  3  2  0  0  0  0
  3  4  1  0  0  0  0
  3 23  1  0  0  0  0
  4  5  1  0  0  0  0
  5  6  1  0  0  0  0
  5 19  2  0  0  0  0
  6  7  1  0  0  0  0
  6  8  1  0  0  0  0
  6 24  1  0  0  0  0
  7 25  1  0  0  0  0
  7 26  1  0  0  0  0
  7 27  1  0  0  0  0
  8  9  1  0  0  0  0
  8 28  1  0  0  0  0
  8 29  1  0  0  0  0
  9 10  1  0  0  0  0
  9 30  1  0  0  0  0
 10 11  2  0  0  0  0
 10 12  1  0  0  0  0
 12 13  1  0  0  0  0
 12 31  1  0  0  0  0
 13 17  1  0  0  0  0
 13 14  1  0  0  0  0
 13 32  1  0  0  0  0
 14 15  1  0  0  0  0
 14 33  1  0  0  0  0
 14 34  1  0  0  0  0
 15 16  1  0  0  0  0
 15 35  1  0  0  0  0
 15 36  1  0  0  0  0
 16 17  1  0  0  0  0
 17 18  1  0  0  0  0
 17 37  1  0  0  0  0
 18 38  1  0  0  0  0
 18 39  1  0  0  0  0
 18 40  1  0  0  0  0
M  END
> <s_m_source_file>
AV-unprocessed.smi

> <i_m_source_file_index>
2340

> <i_lp_mmshare_version>
43012

> <i_f3d_flags>
0

> <s_epik_input>
W0NIM11jMVtjSF1zYyhuMSlbQ0BIXShbQ0gzXSlbQ0gyXVtOSF1DKD1PKVtOSF1bQ0BASF0yW0NIMl1bQ0gyXU9bQ0BIXTJbQ0gzXQ==

> <s_epik_cmdline>
J2VwaWtfcHl0aG9uJywgJy1waCcsICc3LjAnLCAnLXRuJywgJzgnLCAnLW1hJywgJzIwMCcsICctbWV0YWxfYmluZGluZycsICctaW1hZScsICc8aW5maWxlLm1hZT4nLCAnLW9tYWUnLCAnPG91dGZpbGUubWFlPic=

> <r_epik_Ionization_Penalty>
0.00156622

> <r_epik_Ionization_Penalty_Charging>
0

> <r_epik_Ionization_Penalty_Neutral>
0.00156622

> <r_epik_State_Penalty>
0.00101902

> <r_epik_Charging_Adjusted_Penalty>
0.00101902

> <i_epik_Tot_Q>
0

> <i_epik_Tot_abs_Q>
0

> <r_epik_Metal_State_Penalty>
-0

> <b_epik_Metal_Only>
0

> <s_lp_Force_Field>
OPLS_2005

> <r_lp_Energy>
5.61614

> <b_lp_Chiralities_Consistent>
1

> <s_lp_Variant>
AV-unprocessed.smi:2340-6

> <Gold.Version>
5.8.1

> <Gold.Id.Protein>
6NUR|6NUR_protein|mol2

> <Gold.PLP.Fitness>
39.3680

> <Gold.PLP.PLP>
-39.5466

> <Gold.PLP.part.hbond>
0.0000

> <Gold.PLP.part.metal>
0.0000

> <Gold.PLP.part.buried>
-3.7158

> <Gold.PLP.part.nonpolar>
-35.6427

> <Gold.PLP.part.repulsive>
0.9961

> <Gold.PLP.ligand.clash>
0.0000

> <Gold.PLP.ligand.torsion>
0.1363

> <Gold.PLP.Chemscore.Hbond>
0.0000

> <Gold.PLP.Chemscore.CHOScore>
0.0000

> <Gold.PLP.Chemscore.Metal>
0.0000

> <Gold.PLP.Chemscore.Internal.Correction>
0.0940

> <Gold.Rescore>
     Score         DG    S(hbond)    S(metal)    S(lipo)     H(rot)  DE(clash)    DE(int)     intcor
     12.81     -15.07       0.00        0.00     115.47       1.53       0.05       2.20       ----

> <Gold.Chemscore.Fitness>
12.8130

> <Gold.Chemscore.DG>
-15.0668

> <Gold.Chemscore.ZeroCoef>
-5.4800

> <Gold.Chemscore.Hbond>
0.0000

> <Gold.Chemscore.Metal>
0.0000

> <Gold.Chemscore.Lipo>
115.4713

> <Gold.Chemscore.Internal_Hbond>
0.0000

> <Gold.Chemscore.DEClash>
0.0526

> <Gold.Chemscore.DEInternal>
2.2012

> <Gold.Chemscore.Rot>
1.5325

> <Gold.Chemscore.Internal.Correction>
   9.000000E+99

> <Gold.Chemscore.Hbond.Weighted>
-0.0000

> <Gold.Chemscore.Metal.Weighted>
-0.0000

> <Gold.Chemscore.Lipo.Weighted>
-13.5101

> <Gold.Chemscore.Internal_Hbond.Weighted>
0.0000

> <Gold.Chemscore.DEClash.Weighted>
0.0526

> <Gold.Chemscore.DEInternal.Weighted>
2.2012

> <Gold.Chemscore.Rot.Weighted>
3.9233

> <Gold.Chemscore.Internal.Correction.Weighted>
   9.000000E+99

> <Gold.Protein.RotatedTorsions>
[ 6907 6896 6895 6894 ] final  -47.37 input  -60.11 | X-H torsion
[ 7974 7965 7964 7962 ] final   77.57 input  175.53 | X-H torsion
[ 8008 7997 7996 7995 ] final  -11.48 input   59.86 | X-H torsion
[ 10167 10162 10161 10158 ] final   70.43 input  -65.29 | X-H torsion
[ 10718 10713 10712 10709 ] final  -73.86 input   66.30 | X-H torsion
[ 10763 10752 10751 10750 ] final  110.66 input  -60.55 | X-H torsion
[ 11005 11000 10999 10996 ] final   92.82 input  -57.11 | X-H torsion

> <Gold.Protein.ActiveResidues>
 VAL166  LYS551  ARG553  GLY616  TRP617  ASP618  TYR619  PRO620  LYS621  CYS622 
 ASP623  PHE694  ASN695  SER759  ASP760  ASP761  ALA762  ILE779  LEU786  VAL792 
 PHE793  MET794  SER795  GLU796  ALA797  LYS798  CYS799  TRP800  GLU811  SER814 

> <Gold.Protein.RotatedAtoms>
  150.9015  134.8427  159.7362 H   0  0  0  0  0  0  0  0  0  0  0  0  # atno 6907 bound_to 6896
  152.4895  134.4496  159.9580 H   0  0  0  0  0  0  0  0  0  0  0  0  # atno 6908 bound_to 6896
  151.4547  133.3569  159.2835 H   0  0  0  0  0  0  0  0  0  0  0  0  # atno 6909 bound_to 6896
  145.6883  139.2544  143.1774 H   0  0  0  0  0  0  0  0  0  0  0  0  # atno 7974 bound_to 7965
  154.5461  140.2301  155.8561 H   0  0  0  0  0  0  0  0  0  0  0  0  # atno 8008 bound_to 7997
  156.1904  140.3078  155.9282 H   0  0  0  0  0  0  0  0  0  0  0  0  # atno 8009 bound_to 7997
  155.3162  140.0438  157.3028 H   0  0  0  0  0  0  0  0  0  0  0  0  # atno 8010 bound_to 7997
  140.0570  144.5264  150.7321 H   0  0  0  0  0  0  0  0  0  0  0  0  # atno 10167 bound_to 10162
  156.0264  130.4404  150.2806 H   0  0  0  0  0  0  0  0  0  0  0  0  # atno 10718 bound_to 10713
  153.4521  135.3741  155.2290 H   0  0  0  0  0  0  0  0  0  0  0  0  # atno 10763 bound_to 10752
  154.8756  135.3888  154.4026 H   0  0  0  0  0  0  0  0  0  0  0  0  # atno 10764 bound_to 10752
  153.4587  135.7086  153.6128 H   0  0  0  0  0  0  0  0  0  0  0  0  # atno 10765 bound_to 10752
  139.8818  134.8755  156.3628 H   0  0  0  0  0  0  0  0  0  0  0  0  # atno 11005 bound_to 11000
  146.0904  140.7662  142.9598 LP  0  0  0  0  0  0  0  0  0  0  0  0  # atno 17320 bound_to 7965
  144.7004  140.3628  143.7160 LP  0  0  0  0  0  0  0  0  0  0  0  0  # atno 17321 bound_to 7965
  140.7190  143.2570  151.4341 LP  0  0  0  0  0  0  0  0  0  0  0  0  # atno 17342 bound_to 10162
  139.5917  144.1484  152.2096 LP  0  0  0  0  0  0  0  0  0  0  0  0  # atno 17343 bound_to 10162
  157.0909  131.0169  151.3122 LP  0  0  0  0  0  0  0  0  0  0  0  0  # atno 17370 bound_to 10713
  157.4854  130.7790  149.7455 LP  0  0  0  0  0  0  0  0  0  0  0  0  # atno 17371 bound_to 10713
  140.9518  133.7446  156.0282 LP  0  0  0  0  0  0  0  0  0  0  0  0  # atno 17394 bound_to 11000
  140.8096  134.3414  157.5415 LP  0  0  0  0  0  0  0  0  0  0  0  0  # atno 17395 bound_to 11000

$$$$
