AV-unprocessed.smi:1184|AV-procd|sdf|4971|dock8
  -GOLD-   22720 3563D 1   1.00000     0.00000
 Structure written by MMmdl.
 43 44  0  0  0  0  0  0  0  0  2 V2000
  147.6509  144.3169  160.3605 C   0  0  0  0  0  0  0  0  0  0  0  0
  149.0302  144.9714  160.5206 C   0  0  0  0  0  0  0  0  0  0  0  0
  149.8550  144.8477  159.2952 N   0  3  1  0  0  0  0  0  0  0  0  0
  151.2254  145.3968  159.4075 C   0  0  0  0  0  0  0  0  0  0  0  0
  152.0856  144.5420  158.4810 C   0  0  0  0  0  0  0  0  0  0  0  0
  151.4679  143.1562  158.6406 C   0  0  2  0  0  0  0  0  0  0  0  0
  151.8410  142.1737  157.5137 C   0  0  0  0  0  0  0  0  0  0  0  0
  151.1052  140.9173  157.6142 N   0  0  0  0  0  0  0  0  0  0  0  0
  150.7869  140.1123  156.5883 C   0  0  0  0  0  0  0  0  0  0  0  0
  151.0705  140.3602  155.4168 O   0  0  0  0  0  0  0  0  0  0  0  0
  150.0321  138.8292  156.9359 C   0  0  0  0  0  0  0  0  0  0  0  0
  151.0045  137.6836  157.0556 C   0  0  0  0  0  0  0  0  0  0  0  0
  151.2989  136.6699  156.0974 C   0  0  0  0  0  0  0  0  0  0  0  0
  150.7242  136.4725  154.7240 C   0  0  0  0  0  0  0  0  0  0  0  0
  152.2108  135.8216  156.5405 N   0  0  0  0  0  0  0  0  0  0  0  0
  152.5494  136.2577  157.8246 O   0  0  0  0  0  0  0  0  0  0  0  0
  151.8190  137.3656  158.1083 C   0  0  0  0  0  0  0  0  0  0  0  0
  152.0411  137.9838  159.4471 C   0  0  0  0  0  0  0  0  0  0  0  0
  149.9678  143.4642  158.7736 C   0  0  0  0  0  0  0  0  0  0  0  0
  147.0880  144.3733  161.2923 H   0  0  0  0  0  0  0  0  0  0  0  0
  147.7431  143.2639  160.0925 H   0  0  0  0  0  0  0  0  0  0  0  0
  147.0572  144.8097  159.5901 H   0  0  0  0  0  0  0  0  0  0  0  0
  148.9248  146.0220  160.7949 H   0  0  0  0  0  0  0  0  0  0  0  0
  149.5529  144.4826  161.3438 H   0  0  0  0  0  0  0  0  0  0  0  0
  151.2559  146.4550  159.1466 H   0  0  0  0  0  0  0  0  0  0  0  0
  151.5868  145.2921  160.4319 H   0  0  0  0  0  0  0  0  0  0  0  0
  151.9838  144.8886  157.4515 H   0  0  0  0  0  0  0  0  0  0  0  0
  153.1435  144.5683  158.7446 H   0  0  0  0  0  0  0  0  0  0  0  0
  151.8161  142.7484  159.5914 H   0  0  0  0  0  0  0  0  0  0  0  0
  151.6936  142.6327  156.5344 H   0  0  0  0  0  0  0  0  0  0  0  0
  152.9028  141.9349  157.5791 H   0  0  0  0  0  0  0  0  0  0  0  0
  150.8344  140.6242  158.5420 H   0  0  0  0  0  0  0  0  0  0  0  0
  149.4681  138.9772  157.8576 H   0  0  0  0  0  0  0  0  0  0  0  0
  149.2897  138.6372  156.1603 H   0  0  0  0  0  0  0  0  0  0  0  0
  149.8269  137.0725  154.5747 H   0  0  0  0  0  0  0  0  0  0  0  0
  150.4523  135.4300  154.5568 H   0  0  0  0  0  0  0  0  0  0  0  0
  151.4441  136.7563  153.9559 H   0  0  0  0  0  0  0  0  0  0  0  0
  151.2165  138.6437  159.7160 H   0  0  0  0  0  0  0  0  0  0  0  0
  152.9594  138.5709  159.4525 H   0  0  0  0  0  0  0  0  0  0  0  0
  152.1231  137.2183  160.2188 H   0  0  0  0  0  0  0  0  0  0  0  0
  149.4672  142.7293  159.4060 H   0  0  0  0  0  0  0  0  0  0  0  0
  149.4798  143.4436  157.7989 H   0  0  0  0  0  0  0  0  0  0  0  0
  149.3883  145.3755  158.5712 H   0  0  0  0  0  0  0  0  0  0  0  0
  1  2  1  0  0  0  0
  1 20  1  0  0  0  0
  1 21  1  0  0  0  0
  1 22  1  0  0  0  0
  2  3  1  0  0  0  0
  2 23  1  0  0  0  0
  2 24  1  0  0  0  0
  3 19  1  0  0  0  0
  3  4  1  0  0  0  0
  3 43  1  0  0  0  0
  4  5  1  0  0  0  0
  4 25  1  0  0  0  0
  4 26  1  0  0  0  0
  5  6  1  0  0  0  0
  5 27  1  0  0  0  0
  5 28  1  0  0  0  0
  6  7  1  0  0  0  0
  6 19  1  0  0  0  0
  6 29  1  0  0  0  0
  7  8  1  0  0  0  0
  7 30  1  0  0  0  0
  7 31  1  0  0  0  0
  8  9  1  0  0  0  0
  8 32  1  0  0  0  0
  9 10  2  0  0  0  0
  9 11  1  0  0  0  0
 11 12  1  0  0  0  0
 11 33  1  0  0  0  0
 11 34  1  0  0  0  0
 12 17  2  0  0  0  0
 12 13  1  0  0  0  0
 13 14  1  0  0  0  0
 13 15  2  0  0  0  0
 14 35  1  0  0  0  0
 14 36  1  0  0  0  0
 14 37  1  0  0  0  0
 15 16  1  0  0  0  0
 16 17  1  0  0  0  0
 17 18  1  0  0  0  0
 18 38  1  0  0  0  0
 18 39  1  0  0  0  0
 18 40  1  0  0  0  0
 19 41  1  0  0  0  0
 19 42  1  0  0  0  0
M  CHG  1   3   1
M  END
> <s_m_source_file>
AV-unprocessed.smi

> <i_m_source_file_index>
1184

> <i_lp_mmshare_version>
43012

> <i_f3d_flags>
0

> <s_epik_input>
W0NIM11bQ0gyXU4xW0NIMl1bQ0gyXVtDQEhdKFtDSDJdMSlbQ0gyXVtOSF1DKD1PKVtDSDJdYzJjKFtDSDNdKW5vYzJbQ0gzXQ==

> <s_epik_cmdline>
J2VwaWtfcHl0aG9uJywgJy1waCcsICc3LjAnLCAnLXRuJywgJzgnLCAnLW1hJywgJzIwMCcsICctbWV0YWxfYmluZGluZycsICctaW1hZScsICc8aW5maWxlLm1hZT4nLCAnLW9tYWUnLCAnPG91dGZpbGUubWFlPic=

> <r_epik_Ionization_Penalty>
0.000590726

> <r_epik_Ionization_Penalty_Charging>
0.000590692

> <r_epik_Ionization_Penalty_Neutral>
3.44741e-08

> <r_epik_State_Penalty>
0.000371644

> <r_epik_Charging_Adjusted_Penalty>
0.000962336

> <i_epik_Tot_Q>
1

> <i_epik_Tot_abs_Q>
1

> <r_epik_Metal_State_Penalty>
-0

> <b_epik_Metal_Only>
0

> <s_lp_Force_Field>
OPLS_2005

> <r_lp_Energy>
22.6293

> <b_lp_Chiralities_Consistent>
1

> <s_lp_Variant>
AV-unprocessed.smi:1184-3

> <Gold.Version>
5.8.1

> <Gold.Id.Protein>
6NUR|6NUR_protein|mol2

> <Gold.PLP.Fitness>
40.0914

> <Gold.PLP.PLP>
-29.7738

> <Gold.PLP.part.hbond>
-3.8244

> <Gold.PLP.part.metal>
0.0000

> <Gold.PLP.part.buried>
-6.1879

> <Gold.PLP.part.nonpolar>
-19.9397

> <Gold.PLP.part.repulsive>
0.2912

> <Gold.PLP.ligand.clash>
0.0000

> <Gold.PLP.ligand.torsion>
0.8344

> <Gold.PLP.Chemscore.Hbond>
3.9833

> <Gold.PLP.Chemscore.CHOScore>
0.0000

> <Gold.PLP.Chemscore.Metal>
0.0000

> <Gold.Chemscore.Hbonds>
donor molecule, donor type, donor heavy atom, donor atom, acceptor molecule, acceptor atom, score
      L1  H     3    43       P1  8029  1.92
      P1  H  7989  7998       L1    10  0.93
      P1  H 10752 10763       L1    15  1.00

> <Gold.PLP.Chemscore.Internal.Correction>
0.0365

> <Gold.Rescore>
     Score         DG    S(hbond)    S(metal)    S(lipo)     H(rot)  DE(clash)    DE(int)     intcor
     19.43     -20.74       2.85        0.00      85.61       1.67       0.48       0.83       ----

> <Gold.Chemscore.Fitness>
19.4283

> <Gold.Chemscore.DG>
-20.7427

> <Gold.Chemscore.ZeroCoef>
-5.4800

> <Gold.Chemscore.Hbond>
2.8497

> <Gold.Chemscore.Metal>
0.0000

> <Gold.Chemscore.Lipo>
85.6064

> <Gold.Chemscore.Internal_Hbond>
0.0000

> <Gold.Chemscore.DEClash>
0.4815

> <Gold.Chemscore.DEInternal>
0.8329

> <Gold.Chemscore.Rot>
1.6684

> <Gold.Chemscore.Internal.Correction>
   9.000000E+99

> <Gold.Chemscore.Hbonds>
donor molecule, donor type, donor heavy atom, donor atom, acceptor molecule, acceptor atom, score
      L1  H     3    43       P1  8029  0.82
      P1  H  7989  7998       L1    10  0.84
      P1  H 10752 10763       L1    15  0.70

> <Gold.Chemscore.Hbond.Weighted>
-9.5180

> <Gold.Chemscore.Metal.Weighted>
-0.0000

> <Gold.Chemscore.Lipo.Weighted>
-10.0159

> <Gold.Chemscore.Internal_Hbond.Weighted>
0.0000

> <Gold.Chemscore.DEClash.Weighted>
0.4815

> <Gold.Chemscore.DEInternal.Weighted>
0.8329

> <Gold.Chemscore.Rot.Weighted>
4.2712

> <Gold.Chemscore.Internal.Correction.Weighted>
   9.000000E+99

> <Gold.Protein.RotatedTorsions>
[ 6907 6896 6895 6894 ] final   21.19 input  -60.11 | X-H torsion
[ 7974 7965 7964 7962 ] final   -0.09 input  175.53 | X-H torsion
[ 8008 7997 7996 7995 ] final  160.14 input   59.86 | X-H torsion
[ 10167 10162 10161 10158 ] final  152.66 input  -65.29 | X-H torsion
[ 10718 10713 10712 10709 ] final  143.30 input   66.30 | X-H torsion
[ 10763 10752 10751 10750 ] final  103.65 input  -60.55 | X-H torsion
[ 11005 11000 10999 10996 ] final  158.74 input  -57.11 | X-H torsion

> <Gold.Protein.ActiveResidues>
 VAL166  LYS551  ARG553  GLY616  TRP617  ASP618  TYR619  PRO620  LYS621  CYS622 
 ASP623  PHE694  ASN695  SER759  ASP760  ASP761  ALA762  ILE779  LEU786  VAL792 
 PHE793  MET794  SER795  GLU796  ALA797  LYS798  CYS799  TRP800  GLU811  SER814 

> <Gold.Protein.RotatedAtoms>
  151.9080  135.0350  160.0511 H   0  0  0  0  0  0  0  0  0  0  0  0  # atno 6907 bound_to 6896
  152.2303  133.5048  159.5220 H   0  0  0  0  0  0  0  0  0  0  0  0  # atno 6908 bound_to 6896
  150.7023  134.1142  159.4054 H   0  0  0  0  0  0  0  0  0  0  0  0  # atno 6909 bound_to 6896
  146.2430  140.1218  142.8340 H   0  0  0  0  0  0  0  0  0  0  0  0  # atno 7974 bound_to 7965
  156.2192  140.1812  156.7516 H   0  0  0  0  0  0  0  0  0  0  0  0  # atno 8008 bound_to 7997
  154.5839  140.0661  156.9172 H   0  0  0  0  0  0  0  0  0  0  0  0  # atno 8009 bound_to 7997
  155.2453  140.3325  155.4290 H   0  0  0  0  0  0  0  0  0  0  0  0  # atno 8010 bound_to 7997
  139.4831  144.5339  151.7677 H   0  0  0  0  0  0  0  0  0  0  0  0  # atno 10167 bound_to 10162
  157.3705  131.0978  151.0833 H   0  0  0  0  0  0  0  0  0  0  0  0  # atno 10718 bound_to 10713
  153.3554  135.3969  155.1678 H   0  0  0  0  0  0  0  0  0  0  0  0  # atno 10763 bound_to 10752
  154.8670  135.3667  154.5167 H   0  0  0  0  0  0  0  0  0  0  0  0  # atno 10764 bound_to 10752
  153.5622  135.7081  153.5602 H   0  0  0  0  0  0  0  0  0  0  0  0  # atno 10765 bound_to 10752
  140.1894  134.8418  157.2894 H   0  0  0  0  0  0  0  0  0  0  0  0  # atno 11005 bound_to 11000
  145.0400  140.8938  143.5058 LP  0  0  0  0  0  0  0  0  0  0  0  0  # atno 17320 bound_to 7965
  145.1297  139.2640  143.5546 LP  0  0  0  0  0  0  0  0  0  0  0  0  # atno 17321 bound_to 7965
  140.4869  144.1367  150.5943 LP  0  0  0  0  0  0  0  0  0  0  0  0  # atno 17342 bound_to 10162
  140.4215  143.2609  151.9710 LP  0  0  0  0  0  0  0  0  0  0  0  0  # atno 17343 bound_to 10162
  157.1939  130.6364  149.5714 LP  0  0  0  0  0  0  0  0  0  0  0  0  # atno 17370 bound_to 10713
  155.9754  130.4713  150.6460 LP  0  0  0  0  0  0  0  0  0  0  0  0  # atno 17371 bound_to 10713
  140.2177  134.4061  155.7581 LP  0  0  0  0  0  0  0  0  0  0  0  0  # atno 17394 bound_to 11000
  141.2226  133.7150  156.8440 LP  0  0  0  0  0  0  0  0  0  0  0  0  # atno 17395 bound_to 11000

$$$$
