AV-unprocessed.smi:290|AV-procd|sdf|2226|dock1
  -GOLD-   2262022 83D 1   1.00000     0.00000
 Structure written by MMmdl.
 59 62  0  0  0  0  0  0  0  0  2 V2000
  149.5072  141.7980  157.1002 C   0  0  0  0  0  0  0  0  0  0  0  0
  150.3526  141.1003  156.0229 C   0  0  1  0  0  0  0  0  0  0  0  0
  151.2907  140.2537  156.6811 O   0  0  0  0  0  0  0  0  0  0  0  0
  151.6082  139.1761  155.8189 C   0  0  0  0  0  0  0  0  0  0  0  0
  150.2504  138.8215  155.2332 C   0  0  0  0  0  0  0  0  0  0  0  0
  149.5983  140.1857  155.0158 C   0  0  2  0  0  0  0  0  0  0  0  0
  149.9316  140.6207  153.7083 O   0  0  0  0  0  0  0  0  0  0  0  0
  148.0516  140.1577  155.1334 C   0  0  0  0  0  0  0  0  0  0  0  0
  147.4372  139.0573  154.4061 N   0  0  0  0  0  0  0  0  0  0  0  0
  147.3286  138.9327  153.0384 C   0  0  0  0  0  0  0  0  0  0  0  0
  146.7302  137.8500  152.6218 N   0  0  0  0  0  0  0  0  0  0  0  0
  146.4120  137.1741  153.7920 C   0  0  0  0  0  0  0  0  0  0  0  0
  145.7677  135.9423  154.0720 C   0  0  0  0  0  0  0  0  0  0  0  0
  145.3097  135.1451  153.0818 N   0  0  0  0  0  0  0  0  0  0  0  0
  144.1288  135.6486  152.3982 C   0  0  0  0  0  0  0  0  0  0  0  0
  143.5736  134.4657  151.5952 C   0  0  0  0  0  0  0  0  0  0  0  0
  144.2100  133.2127  152.2362 C   0  0  1  0  0  0  0  0  0  0  0  0
  145.0115  132.3618  151.3014 N   0  3  2  0  0  0  0  0  0  0  0  0
  146.2263  133.0006  150.7322 C   0  0  0  0  0  0  0  0  0  0  0  0
  144.1943  131.6907  150.2581 C   0  0  0  0  0  0  0  0  0  0  0  0
  143.8047  132.6479  149.1185 C   0  0  0  0  0  0  0  0  0  0  0  0
  142.8412  132.0390  148.2853 O   0  0  0  0  0  0  0  0  0  0  0  0
  145.0117  133.7634  153.4329 C   0  0  1  0  0  0  0  0  0  0  0  0
  146.2369  132.9464  153.8907 C   0  0  0  0  0  0  0  0  0  0  0  0
  145.6268  135.5767  155.3736 N   0  0  0  0  0  0  0  0  0  0  0  0
  146.0915  136.3723  156.3423 C   0  0  0  0  0  0  0  0  0  0  0  0
  146.7137  137.5484  156.2300 N   0  0  0  0  0  0  0  0  0  0  0  0
  146.8531  137.9143  154.9234 C   0  0  0  0  0  0  0  0  0  0  0  0
  143.4178  132.5922  152.6542 H   0  0  0  0  0  0  0  0  0  0  0  0
  144.3198  133.7905  154.2767 H   0  0  0  0  0  0  0  0  0  0  0  0
  148.7706  142.4682  156.6569 H   0  0  0  0  0  0  0  0  0  0  0  0
  150.1406  142.3973  157.7544 H   0  0  0  0  0  0  0  0  0  0  0  0
  148.9820  141.0781  157.7282 H   0  0  0  0  0  0  0  0  0  0  0  0
  150.9222  141.8631  155.4881 H   0  0  0  0  0  0  0  0  0  0  0  0
  152.2986  139.5103  155.0431 H   0  0  0  0  0  0  0  0  0  0  0  0
  152.0653  138.3471  156.3593 H   0  0  0  0  0  0  0  0  0  0  0  0
  150.3175  138.2130  154.3302 H   0  0  0  0  0  0  0  0  0  0  0  0
  149.6909  138.2516  155.9759 H   0  0  0  0  0  0  0  0  0  0  0  0
  149.6987  139.9397  153.0960 H   0  0  0  0  0  0  0  0  0  0  0  0
  147.7501  140.0645  156.1770 H   0  0  0  0  0  0  0  0  0  0  0  0
  147.6225  141.0925  154.7699 H   0  0  0  0  0  0  0  0  0  0  0  0
  147.7066  139.6783  152.3539 H   0  0  0  0  0  0  0  0  0  0  0  0
  143.3872  135.9965  153.1190 H   0  0  0  0  0  0  0  0  0  0  0  0
  144.3841  136.4861  151.7481 H   0  0  0  0  0  0  0  0  0  0  0  0
  142.4858  134.4361  151.6655 H   0  0  0  0  0  0  0  0  0  0  0  0
  143.8103  134.5751  150.5388 H   0  0  0  0  0  0  0  0  0  0  0  0
  145.9852  133.6857  149.9199 H   0  0  0  0  0  0  0  0  0  0  0  0
  146.8870  132.2348  150.3249 H   0  0  0  0  0  0  0  0  0  0  0  0
  146.7941  133.5490  151.4824 H   0  0  0  0  0  0  0  0  0  0  0  0
  144.7385  130.8304  149.8657 H   0  0  0  0  0  0  0  0  0  0  0  0
  143.2780  131.2926  150.6980 H   0  0  0  0  0  0  0  0  0  0  0  0
  143.4194  133.5972  149.4893 H   0  0  0  0  0  0  0  0  0  0  0  0
  144.6822  132.8776  148.5136 H   0  0  0  0  0  0  0  0  0  0  0  0
  141.9969  132.0960  148.7076 H   0  0  0  0  0  0  0  0  0  0  0  0
  145.9625  131.9088  154.0824 H   0  0  0  0  0  0  0  0  0  0  0  0
  146.6497  133.3481  154.8167 H   0  0  0  0  0  0  0  0  0  0  0  0
  147.0380  132.9515  153.1526 H   0  0  0  0  0  0  0  0  0  0  0  0
  145.9445  136.0159  157.3513 H   0  0  0  0  0  0  0  0  0  0  0  0
  145.3631  131.6058  151.8721 H   0  0  0  0  0  0  0  0  0  0  0  0
  1  2  1  0  0  0  0
  1 31  1  0  0  0  0
  1 32  1  0  0  0  0
  1 33  1  0  0  0  0
  2  6  1  0  0  0  0
  2  3  1  0  0  0  0
  2 34  1  0  0  0  0
  3  4  1  0  0  0  0
  4  5  1  0  0  0  0
  4 35  1  0  0  0  0
  4 36  1  0  0  0  0
  5  6  1  0  0  0  0
  5 37  1  0  0  0  0
  5 38  1  0  0  0  0
  6  7  1  0  0  0  0
  6  8  1  0  0  0  0
  7 39  1  0  0  0  0
  8  9  1  0  0  0  0
  8 40  1  0  0  0  0
  8 41  1  0  0  0  0
  9 28  1  0  0  0  0
  9 10  1  0  0  0  0
 10 11  2  0  0  0  0
 10 42  1  0  0  0  0
 11 12  1  0  0  0  0
 12 28  2  0  0  0  0
 12 13  1  0  0  0  0
 13 14  1  0  0  0  0
 13 25  2  0  0  0  0
 14 23  1  0  0  0  0
 14 15  1  0  0  0  0
 15 16  1  0  0  0  0
 15 43  1  0  0  0  0
 15 44  1  0  0  0  0
 16 17  1  0  0  0  0
 16 45  1  0  0  0  0
 16 46  1  0  0  0  0
 17 29  1  0  0  0  0
 17 18  1  0  0  0  0
 17 23  1  0  0  0  0
 18 19  1  0  0  0  0
 18 20  1  0  0  0  0
 18 59  1  0  0  0  0
 19 47  1  0  0  0  0
 19 48  1  0  0  0  0
 19 49  1  0  0  0  0
 20 21  1  0  0  0  0
 20 50  1  0  0  0  0
 20 51  1  0  0  0  0
 21 22  1  0  0  0  0
 21 52  1  0  0  0  0
 21 53  1  0  0  0  0
 22 54  1  0  0  0  0
 23 30  1  0  0  0  0
 23 24  1  0  0  0  0
 24 55  1  0  0  0  0
 24 56  1  0  0  0  0
 24 57  1  0  0  0  0
 25 26  1  0  0  0  0
 26 27  2  0  0  0  0
 26 58  1  0  0  0  0
 27 28  1  0  0  0  0
M  CHG  1  18   1
M  END
> <s_m_source_file>
AV-unprocessed.smi

> <i_m_source_file_index>
290

> <i_lp_mmshare_version>
43012

> <i_f3d_flags>
0

> <s_epik_input>
W0NIMl0xW0NIMl1PW0NAQEhdKFtDSDNdKVtDQEBdMShbT0hdKVtDSDJdbihbY0hdbjIpYyhjMjMpbltjSF1uYzNONFtDSDJdW0NIMl1bQ0BIXShbQ0BIXTRbQ0gzXSlOKFtDSDNdKVtDSDJdW0NIMl1bT0hd

> <s_epik_cmdline>
J2VwaWtfcHl0aG9uJywgJy1waCcsICc3LjAnLCAnLXRuJywgJzgnLCAnLW1hJywgJzIwMCcsICctbWV0YWxfYmluZGluZycsICctaW1hZScsICc8aW5maWxlLm1hZT4nLCAnLW9tYWUnLCAnPG91dGZpbGUubWFlPic=

> <r_lp_tautomer_probability>
1

> <r_epik_Ionization_Penalty>
0.0036983

> <r_epik_Ionization_Penalty_Charging>
0.0032725

> <r_epik_Ionization_Penalty_Neutral>
0.000425798

> <r_epik_State_Penalty>
-0

> <r_epik_Charging_Adjusted_Penalty>
0.0032725

> <i_epik_Tot_Q>
1

> <i_epik_Tot_abs_Q>
1

> <r_epik_Metal_State_Penalty>
-0

> <b_epik_Metal_Only>
0

> <s_lp_Force_Field>
OPLS_2005

> <r_lp_Energy>
69.8612

> <b_lp_Chiralities_Consistent>
1

> <s_lp_Variant>
AV-unprocessed.smi:290-12

> <Gold.Version>
5.8.1

> <Gold.Id.Protein>
6NUR|6NUR_protein|mol2

> <Gold.PLP.Fitness>
49.9622

> <Gold.PLP.PLP>
-38.6566

> <Gold.PLP.part.hbond>
-5.9745

> <Gold.PLP.part.metal>
0.0000

> <Gold.PLP.part.buried>
-4.5381

> <Gold.PLP.part.nonpolar>
-30.8242

> <Gold.PLP.part.repulsive>
1.3940

> <Gold.PLP.ligand.clash>
0.0000

> <Gold.PLP.ligand.torsion>
0.7575

> <Gold.PLP.Chemscore.Hbond>
3.2473

> <Gold.PLP.Chemscore.CHOScore>
0.8841

> <Gold.PLP.Chemscore.Metal>
0.0000

> <Gold.Chemscore.Hbonds>
donor molecule, donor type, donor heavy atom, donor atom, acceptor molecule, acceptor atom, score
      L1  H     7    39       P1  7957  0.56
      L1  H    22    54       P1 10952  0.23
      P1  H  7989  7998       L1     7  0.53
      P1  H  8011  8017       L1     7  0.40
      P1  H 10785 10796       L1    22  0.67
      L1  C    10    42       P1  7957  1.00

> <Gold.PLP.Chemscore.Internal.Correction>
0.4261

> <Gold.Rescore>
     Score         DG    S(hbond)    S(metal)    S(lipo)     H(rot)  DE(clash)    DE(int)     intcor
     11.36     -13.14       2.08        0.00      86.39       3.67       0.61       1.17       ----

> <Gold.Chemscore.Fitness>
11.3594

> <Gold.Chemscore.DG>
-13.1356

> <Gold.Chemscore.ZeroCoef>
-5.4800

> <Gold.Chemscore.Hbond>
2.0754

> <Gold.Chemscore.Metal>
0.0000

> <Gold.Chemscore.Lipo>
86.3936

> <Gold.Chemscore.Internal_Hbond>
0.0000

> <Gold.Chemscore.DEClash>
0.6090

> <Gold.Chemscore.DEInternal>
1.1672

> <Gold.Chemscore.Rot>
3.6658

> <Gold.Chemscore.Internal.Correction>
   9.000000E+99

> <Gold.Chemscore.Hbonds>
donor molecule, donor type, donor heavy atom, donor atom, acceptor molecule, acceptor atom, score
      L1  H     7    39       P1  7957  0.56
      L1  H    22    54       P1 10952  0.23
      P1  H  7989  7998       L1     7  0.24
      P1  H  8011  8017       L1     7  0.09
      P1  H 10785 10796       L1    22  0.03

> <Gold.Chemscore.Hbond.Weighted>
-6.9320

> <Gold.Chemscore.Metal.Weighted>
-0.0000

> <Gold.Chemscore.Lipo.Weighted>
-10.1080

> <Gold.Chemscore.Internal_Hbond.Weighted>
0.0000

> <Gold.Chemscore.DEClash.Weighted>
0.6090

> <Gold.Chemscore.DEInternal.Weighted>
1.1672

> <Gold.Chemscore.Rot.Weighted>
9.3844

> <Gold.Chemscore.Internal.Correction.Weighted>
   9.000000E+99

> <Gold.Protein.RotatedTorsions>
[ 6907 6896 6895 6894 ] final   -0.92 input  -60.11 | X-H torsion
[ 7974 7965 7964 7962 ] final -179.89 input  175.53 | X-H torsion
[ 8008 7997 7996 7995 ] final -149.22 input   59.86 | X-H torsion
[ 10167 10162 10161 10158 ] final   93.01 input  -65.29 | X-H torsion
[ 10718 10713 10712 10709 ] final -104.99 input   66.30 | X-H torsion
[ 10763 10752 10751 10750 ] final -139.77 input  -60.55 | X-H torsion
[ 11005 11000 10999 10996 ] final   69.42 input  -57.11 | X-H torsion

> <Gold.Protein.ActiveResidues>
 VAL166  LYS551  ARG553  GLY616  TRP617  ASP618  TYR619  PRO620  LYS621  CYS622 
 ASP623  PHE694  ASN695  SER759  ASP760  ASP761  ALA762  ILE779  LEU786  VAL792 
 PHE793  MET794  SER795  GLU796  ALA797  LYS798  CYS799  TRP800  GLU811  SER814 

> <Gold.Protein.RotatedAtoms>
  151.5545  135.1067  159.9957 H   0  0  0  0  0  0  0  0  0  0  0  0  # atno 6907 bound_to 6896
  152.4476  133.7562  159.6732 H   0  0  0  0  0  0  0  0  0  0  0  0  # atno 6908 bound_to 6896
  150.8395  133.7891  159.3090 H   0  0  0  0  0  0  0  0  0  0  0  0  # atno 6909 bound_to 6896
  144.7140  140.0649  143.6431 H   0  0  0  0  0  0  0  0  0  0  0  0  # atno 7974 bound_to 7965
  155.6041  140.0665  157.2724 H   0  0  0  0  0  0  0  0  0  0  0  0  # atno 8008 bound_to 7997
  154.4271  140.1813  156.1251 H   0  0  0  0  0  0  0  0  0  0  0  0  # atno 8009 bound_to 7997
  156.0136  140.3324  155.6969 H   0  0  0  0  0  0  0  0  0  0  0  0  # atno 8010 bound_to 7997
  139.8221  144.6726  150.9505 H   0  0  0  0  0  0  0  0  0  0  0  0  # atno 10167 bound_to 10162
  156.0327  130.5542  150.7476 H   0  0  0  0  0  0  0  0  0  0  0  0  # atno 10718 bound_to 10713
  154.8599  135.3573  154.5600 H   0  0  0  0  0  0  0  0  0  0  0  0  # atno 10763 bound_to 10752
  153.6215  135.7006  153.5313 H   0  0  0  0  0  0  0  0  0  0  0  0  # atno 10764 bound_to 10752
  153.3125  135.4174  155.1308 H   0  0  0  0  0  0  0  0  0  0  0  0  # atno 10765 bound_to 10752
  139.9655  134.6988  156.0555 H   0  0  0  0  0  0  0  0  0  0  0  0  # atno 11005 bound_to 11000
  145.9832  139.2957  143.1029 LP  0  0  0  0  0  0  0  0  0  0  0  0  # atno 17320 bound_to 7965
  145.8986  140.9257  143.0514 LP  0  0  0  0  0  0  0  0  0  0  0  0  # atno 17321 bound_to 7965
  140.7812  143.4081  151.1037 LP  0  0  0  0  0  0  0  0  0  0  0  0  # atno 17342 bound_to 10162
  139.7741  143.8451  152.3126 LP  0  0  0  0  0  0  0  0  0  0  0  0  # atno 17343 bound_to 10162
  157.5028  131.0920  151.0293 LP  0  0  0  0  0  0  0  0  0  0  0  0  # atno 17370 bound_to 10713
  157.0669  130.5848  149.5395 LP  0  0  0  0  0  0  0  0  0  0  0  0  # atno 17371 bound_to 10713
  141.1334  133.6581  156.3527 LP  0  0  0  0  0  0  0  0  0  0  0  0  # atno 17394 bound_to 11000
  140.5406  134.6124  157.5379 LP  0  0  0  0  0  0  0  0  0  0  0  0  # atno 17395 bound_to 11000

$$$$
