AV-unprocessed.smi:2660|AV-procd|sdf|10315|dock2
  -GOLD-   2272014333D 1   1.00000     0.00000
 Structure written by MMmdl.
 36 37  0  0  0  0  0  0  0  0  1 V2000
  146.2020  140.8695  153.7572 N   0  0  0  0  0  0  0  0  0  0  0  0
  147.0740  141.2994  154.6777 C   0  0  0  0  0  0  0  0  0  0  0  0
  146.7838  142.2861  155.3541 O   0  0  0  0  0  0  0  0  0  0  0  0
  148.3159  140.4981  154.7593 C   0  0  0  0  0  0  0  0  0  0  0  0
  148.4950  139.3532  154.0624 C   0  0  0  0  0  0  0  0  0  0  0  0
  149.7151  138.6043  154.1876 C   0  0  0  0  0  0  0  0  0  0  0  0
  150.7297  139.0843  154.9307 C   0  0  0  0  0  0  0  0  0  0  0  0
  151.9891  138.2429  155.1743 C   0  0  0  0  0  0  0  0  0  0  0  0
  151.8828  137.0383  154.6119 F   0  0  0  0  0  0  0  0  0  0  0  0
  153.0671  138.8205  154.6473 F   0  0  0  0  0  0  0  0  0  0  0  0
  152.1891  138.0381  156.4771 F   0  0  0  0  0  0  0  0  0  0  0  0
  150.5891  140.3432  155.5944 N   0  0  0  0  0  0  0  0  0  0  0  0
  151.7595  140.9946  156.2379 C   0  0  0  0  0  0  0  0  0  0  0  0
  151.7463  140.8926  157.7860 C   0  0  1  0  0  0  0  0  0  0  0  0
  152.7863  140.0214  158.1840 O   0  0  0  0  0  0  0  0  0  0  0  0
  151.8130  142.2477  158.4819 C   0  0  0  0  0  0  0  0  0  0  0  0
  151.6149  143.4457  157.7592 C   0  0  0  0  0  0  0  0  0  0  0  0
  151.6659  144.6901  158.4166 C   0  0  0  0  0  0  0  0  0  0  0  0
  151.9173  144.7465  159.8004 C   0  0  0  0  0  0  0  0  0  0  0  0
  152.1193  143.5574  160.5264 C   0  0  0  0  0  0  0  0  0  0  0  0
  152.0695  142.3131  159.8691 C   0  0  0  0  0  0  0  0  0  0  0  0
  149.3935  141.0232  155.6360 C   0  0  0  0  0  0  0  0  0  0  0  0
  149.2739  142.0222  156.3516 O   0  0  0  0  0  0  0  0  0  0  0  0
  145.3254  141.3556  153.6349 H   0  0  0  0  0  0  0  0  0  0  0  0
  146.4194  140.0624  153.1916 H   0  0  0  0  0  0  0  0  0  0  0  0
  147.7366  138.9561  153.4043 H   0  0  0  0  0  0  0  0  0  0  0  0
  149.7825  137.6392  153.7084 H   0  0  0  0  0  0  0  0  0  0  0  0
  152.6754  140.5448  155.8492 H   0  0  0  0  0  0  0  0  0  0  0  0
  151.8675  142.0428  155.9833 H   0  0  0  0  0  0  0  0  0  0  0  0
  150.8283  140.4059  158.1154 H   0  0  0  0  0  0  0  0  0  0  0  0
  152.4837  139.1311  158.0920 H   0  0  0  0  0  0  0  0  0  0  0  0
  151.4120  143.4174  156.6988 H   0  0  0  0  0  0  0  0  0  0  0  0
  151.5094  145.6017  157.8588 H   0  0  0  0  0  0  0  0  0  0  0  0
  151.9558  145.7010  160.3043 H   0  0  0  0  0  0  0  0  0  0  0  0
  152.3120  143.5997  161.5882 H   0  0  0  0  0  0  0  0  0  0  0  0
  152.2234  141.4064  160.4357 H   0  0  0  0  0  0  0  0  0  0  0  0
  1  2  1  0  0  0  0
  1 24  1  0  0  0  0
  1 25  1  0  0  0  0
  2  3  2  0  0  0  0
  2  4  1  0  0  0  0
  4 22  1  0  0  0  0
  4  5  2  0  0  0  0
  5  6  1  0  0  0  0
  5 26  1  0  0  0  0
  6  7  2  0  0  0  0
  6 27  1  0  0  0  0
  7  8  1  0  0  0  0
  7 12  1  0  0  0  0
  8  9  1  0  0  0  0
  8 10  1  0  0  0  0
  8 11  1  0  0  0  0
 12 13  1  0  0  0  0
 12 22  1  0  0  0  0
 13 14  1  0  0  0  0
 13 28  1  0  0  0  0
 13 29  1  0  0  0  0
 14 15  1  0  0  0  0
 14 16  1  0  0  0  0
 14 30  1  0  0  0  0
 15 31  1  0  0  0  0
 16 21  1  0  0  0  0
 16 17  2  0  0  0  0
 17 18  1  0  0  0  0
 17 32  1  0  0  0  0
 18 19  2  0  0  0  0
 18 33  1  0  0  0  0
 19 20  1  0  0  0  0
 19 34  1  0  0  0  0
 20 21  2  0  0  0  0
 20 35  1  0  0  0  0
 21 36  1  0  0  0  0
 22 23  2  0  0  0  0
M  END
> <s_m_source_file>
AV-unprocessed.smi

> <i_m_source_file_index>
2660

> <i_lp_mmshare_version>
43012

> <i_f3d_flags>
0

> <s_epik_input>
W05IMl1DKD1PKWMxW2NIXVtjSF1jKEMoRikoRilGKW4oYzE9TylbQ0gyXVtDQEhdKFtPSF0pYzJbY0hdW2NIXVtjSF1bY0hdW2NIXTI=

> <s_epik_cmdline>
J2VwaWtfcHl0aG9uJywgJy1waCcsICc3LjAnLCAnLXRuJywgJzgnLCAnLW1hJywgJzIwMCcsICctbWV0YWxfYmluZGluZycsICctaW1hZScsICc8aW5maWxlLm1hZT4nLCAnLW9tYWUnLCAnPG91dGZpbGUubWFlPic=

> <r_lp_tautomer_probability>
1

> <r_epik_Ionization_Penalty>
1.58596e-06

> <r_epik_Ionization_Penalty_Charging>
5.13453e-09

> <r_epik_Ionization_Penalty_Neutral>
1.58083e-06

> <r_epik_State_Penalty>
-0

> <r_epik_Charging_Adjusted_Penalty>
5.13453e-09

> <i_epik_Tot_Q>
0

> <i_epik_Tot_abs_Q>
0

> <r_epik_Metal_State_Penalty>
-0

> <b_epik_Metal_Only>
0

> <s_lp_Force_Field>
OPLS_2005

> <r_lp_Energy>
32.13

> <b_lp_Chiralities_Consistent>
1

> <s_lp_Variant>
AV-unprocessed.smi:2660-2

> <Gold.Version>
5.8.1

> <Gold.Id.Protein>
6NUR|6NUR_protein|mol2

> <Gold.PLP.Fitness>
44.4007

> <Gold.PLP.PLP>
-43.4909

> <Gold.PLP.part.hbond>
-2.0000

> <Gold.PLP.part.metal>
0.0000

> <Gold.PLP.part.buried>
-3.1570

> <Gold.PLP.part.nonpolar>
-41.7974

> <Gold.PLP.part.repulsive>
2.5681

> <Gold.PLP.ligand.clash>
1.8125

> <Gold.PLP.ligand.torsion>
1.3868

> <Gold.PLP.Chemscore.Hbond>
1.1495

> <Gold.PLP.Chemscore.CHOScore>
0.0000

> <Gold.PLP.Chemscore.Metal>
0.0000

> <Gold.Chemscore.Hbonds>
donor molecule, donor type, donor heavy atom, donor atom, acceptor molecule, acceptor atom, score
      L1  H     1    24       P1 10175  0.28
      P1  H  7997  8008       L1    15  0.73

> <Gold.PLP.Chemscore.Internal.Correction>
2.0474

> <Gold.Rescore>
     Score         DG    S(hbond)    S(metal)    S(lipo)     H(rot)  DE(clash)    DE(int)     intcor
      9.17     -16.93       1.31        0.00     108.68       2.21       1.26       6.50       ----

> <Gold.Chemscore.Fitness>
9.1663

> <Gold.Chemscore.DG>
-16.9281

> <Gold.Chemscore.ZeroCoef>
-5.4800

> <Gold.Chemscore.Hbond>
1.3135

> <Gold.Chemscore.Metal>
0.0000

> <Gold.Chemscore.Lipo>
108.6754

> <Gold.Chemscore.Internal_Hbond>
0.0000

> <Gold.Chemscore.DEClash>
1.2605

> <Gold.Chemscore.DEInternal>
6.5013

> <Gold.Chemscore.Rot>
2.2086

> <Gold.Chemscore.Internal.Correction>
   9.000000E+99

> <Gold.Chemscore.Hbonds>
donor molecule, donor type, donor heavy atom, donor atom, acceptor molecule, acceptor atom, score
      L1  H     1    24       P1 10175  0.09
      P1  H  7997  8008       L1    15  0.26

> <Gold.Chemscore.Hbond.Weighted>
-4.3871

> <Gold.Chemscore.Metal.Weighted>
-0.0000

> <Gold.Chemscore.Lipo.Weighted>
-12.7150

> <Gold.Chemscore.Internal_Hbond.Weighted>
0.0000

> <Gold.Chemscore.DEClash.Weighted>
1.2605

> <Gold.Chemscore.DEInternal.Weighted>
6.5013

> <Gold.Chemscore.Rot.Weighted>
5.6540

> <Gold.Chemscore.Internal.Correction.Weighted>
   9.000000E+99

> <Gold.Protein.RotatedTorsions>
[ 6907 6896 6895 6894 ] final   68.97 input  -60.11 | X-H torsion
[ 7974 7965 7964 7962 ] final  -55.69 input  175.53 | X-H torsion
[ 8008 7997 7996 7995 ] final  -84.88 input   59.86 | X-H torsion
[ 10167 10162 10161 10158 ] final -104.88 input  -65.29 | X-H torsion
[ 10718 10713 10712 10709 ] final  162.56 input   66.30 | X-H torsion
[ 10763 10752 10751 10750 ] final  -18.47 input  -60.55 | X-H torsion
[ 11005 11000 10999 10996 ] final  -86.57 input  -57.11 | X-H torsion

> <Gold.Protein.ActiveResidues>
 VAL166  LYS551  ARG553  GLY616  TRP617  ASP618  TYR619  PRO620  LYS621  CYS622 
 ASP623  PHE694  ASN695  SER759  ASP760  ASP761  ALA762  ILE779  LEU786  VAL792 
 PHE793  MET794  SER795  GLU796  ALA797  LYS798  CYS799  TRP800  GLU811  SER814 

> <Gold.Protein.RotatedAtoms>
  152.4656  134.5083  159.9745 H   0  0  0  0  0  0  0  0  0  0  0  0  # atno 6907 bound_to 6896
  151.5122  133.3477  159.2895 H   0  0  0  0  0  0  0  0  0  0  0  0  # atno 6908 bound_to 6896
  150.8639  134.8026  159.7165 H   0  0  0  0  0  0  0  0  0  0  0  0  # atno 6909 bound_to 6896
  145.8713  140.8214  142.9887 H   0  0  0  0  0  0  0  0  0  0  0  0  # atno 7974 bound_to 7965
  154.6346  140.0599  156.9773 H   0  0  0  0  0  0  0  0  0  0  0  0  # atno 8008 bound_to 7997
  155.1612  140.3283  155.4392 H   0  0  0  0  0  0  0  0  0  0  0  0  # atno 8009 bound_to 7997
  156.2500  140.1930  156.6719 H   0  0  0  0  0  0  0  0  0  0  0  0  # atno 8010 bound_to 7997
  140.2045  143.3793  152.1102 H   0  0  0  0  0  0  0  0  0  0  0  0  # atno 10167 bound_to 10162
  157.1208  131.0492  151.2416 H   0  0  0  0  0  0  0  0  0  0  0  0  # atno 10718 bound_to 10713
  153.5897  135.7002  153.5428 H   0  0  0  0  0  0  0  0  0  0  0  0  # atno 10763 bound_to 10752
  153.3189  135.4080  155.1399 H   0  0  0  0  0  0  0  0  0  0  0  0  # atno 10764 bound_to 10752
  154.8603  135.3690  154.5428 H   0  0  0  0  0  0  0  0  0  0  0  0  # atno 10765 bound_to 10752
  141.1628  133.7462  156.9181 H   0  0  0  0  0  0  0  0  0  0  0  0  # atno 11005 bound_to 11000
  144.6726  140.1243  143.7448 LP  0  0  0  0  0  0  0  0  0  0  0  0  # atno 17320 bound_to 7965
  145.9134  139.2501  143.1424 LP  0  0  0  0  0  0  0  0  0  0  0  0  # atno 17321 bound_to 7965
  139.5204  144.7032  151.5431 LP  0  0  0  0  0  0  0  0  0  0  0  0  # atno 17342 bound_to 10162
  140.6367  143.8970  150.6654 LP  0  0  0  0  0  0  0  0  0  0  0  0  # atno 17343 bound_to 10162
  157.4478  130.7581  149.7125 LP  0  0  0  0  0  0  0  0  0  0  0  0  # atno 17370 bound_to 10713
  155.9829  130.4005  150.3392 LP  0  0  0  0  0  0  0  0  0  0  0  0  # atno 17371 bound_to 10713
  140.1470  134.9255  157.2543 LP  0  0  0  0  0  0  0  0  0  0  0  0  # atno 17394 bound_to 11000
  140.2767  134.3397  155.7356 LP  0  0  0  0  0  0  0  0  0  0  0  0  # atno 17395 bound_to 11000

$$$$
