AV-unprocessed.smi:3284|AV-procd|sdf|12578|dock1
  -GOLD-   2272018503D 1   1.00000     0.00000
 Structure written by MMmdl.
 45 46  0  0  0  0  0  0  0  0  3 V2000
  154.1207  141.1657  162.0055 C   0  0  0  0  0  0  0  0  0  0  0  0
  153.2896  142.3082  161.4453 C   0  0  0  0  0  0  0  0  0  0  0  0
  152.5302  143.0511  162.2731 C   0  0  0  0  0  0  0  0  0  0  0  0
  151.7237  144.2533  161.8399 C   0  0  0  0  0  0  0  0  0  0  0  0
  152.2565  144.8244  160.5238 C   0  0  0  0  0  0  0  0  0  0  0  0
  152.4211  143.7253  159.4615 C   0  0  1  0  0  0  0  0  0  0  0  0
  152.8747  144.3613  158.1331 C   0  0  0  0  0  0  0  0  0  0  0  0
  153.3736  142.5815  159.9292 C   0  0  2  0  0  0  0  0  0  0  0  0
  153.1291  141.3072  159.0786 C   0  0  0  0  0  0  0  0  0  0  0  0
  151.7338  140.8261  159.1501 N   0  3  0  0  0  0  0  0  0  0  0  0
  151.3697  139.8730  158.0836 C   0  0  0  0  0  0  0  0  0  0  0  0
  151.4874  140.5222  156.6978 C   0  0  0  0  0  0  0  0  0  0  0  0
  151.3820  139.5307  155.5796 C   0  0  0  0  0  0  0  0  0  0  0  0
  152.0987  138.4058  155.4646 N   0  3  0  0  0  0  0  0  0  0  0  0
  151.7610  137.7399  154.3174 C   0  0  0  0  0  0  0  0  0  0  0  0
  150.7974  138.4944  153.7011 C   0  0  0  0  0  0  0  0  0  0  0  0
  150.5866  139.5904  154.4982 N   0  0  0  0  0  0  0  0  0  0  0  0
  149.6427  140.6817  154.2471 C   0  0  0  0  0  0  0  0  0  0  0  0
  155.1551  141.2443  161.6699 H   0  0  0  0  0  0  0  0  0  0  0  0
  153.7178  140.2016  161.6965 H   0  0  0  0  0  0  0  0  0  0  0  0
  154.1271  141.1791  163.0960 H   0  0  0  0  0  0  0  0  0  0  0  0
  152.4826  142.8085  163.3250 H   0  0  0  0  0  0  0  0  0  0  0  0
  150.6787  143.9575  161.7416 H   0  0  0  0  0  0  0  0  0  0  0  0
  151.7704  145.0154  162.6182 H   0  0  0  0  0  0  0  0  0  0  0  0
  151.5801  145.6024  160.1675 H   0  0  0  0  0  0  0  0  0  0  0  0
  153.2181  145.3091  160.7001 H   0  0  0  0  0  0  0  0  0  0  0  0
  151.4310  143.2952  159.3007 H   0  0  0  0  0  0  0  0  0  0  0  0
  153.8654  144.8072  158.2269 H   0  0  0  0  0  0  0  0  0  0  0  0
  152.1890  145.1515  157.8255 H   0  0  0  0  0  0  0  0  0  0  0  0
  152.9127  143.6408  157.3174 H   0  0  0  0  0  0  0  0  0  0  0  0
  154.3954  142.9216  159.7526 H   0  0  0  0  0  0  0  0  0  0  0  0
  153.3985  141.5053  158.0400 H   0  0  0  0  0  0  0  0  0  0  0  0
  153.7643  140.4856  159.4064 H   0  0  0  0  0  0  0  0  0  0  0  0
  151.5929  140.3856  160.0482 H   0  0  0  0  0  0  0  0  0  0  0  0
  152.0247  139.0031  158.1471 H   0  0  0  0  0  0  0  0  0  0  0  0
  150.3498  139.5217  158.2464 H   0  0  0  0  0  0  0  0  0  0  0  0
  150.6958  141.2571  156.5460 H   0  0  0  0  0  0  0  0  0  0  0  0
  152.4378  141.0452  156.5860 H   0  0  0  0  0  0  0  0  0  0  0  0
  152.2198  136.8038  154.0328 H   0  0  0  0  0  0  0  0  0  0  0  0
  150.2601  138.3353  152.7770 H   0  0  0  0  0  0  0  0  0  0  0  0
  149.1986  140.5608  153.2585 H   0  0  0  0  0  0  0  0  0  0  0  0
  150.1675  141.6363  154.2902 H   0  0  0  0  0  0  0  0  0  0  0  0
  148.8554  140.6569  155.0012 H   0  0  0  0  0  0  0  0  0  0  0  0
  151.1220  141.6276  159.0849 H   0  0  0  0  0  0  0  0  0  0  0  0
  152.7896  138.0897  156.1336 H   0  0  0  0  0  0  0  0  0  0  0  0
  1  2  1  0  0  0  0
  1 19  1  0  0  0  0
  1 20  1  0  0  0  0
  1 21  1  0  0  0  0
  2  8  1  0  0  0  0
  2  3  2  0  0  0  0
  3  4  1  0  0  0  0
  3 22  1  0  0  0  0
  4  5  1  0  0  0  0
  4 23  1  0  0  0  0
  4 24  1  0  0  0  0
  5  6  1  0  0  0  0
  5 25  1  0  0  0  0
  5 26  1  0  0  0  0
  6  7  1  0  0  0  0
  6  8  1  0  0  0  0
  6 27  1  0  0  0  0
  7 28  1  0  0  0  0
  7 29  1  0  0  0  0
  7 30  1  0  0  0  0
  8  9  1  0  0  0  0
  8 31  1  0  0  0  0
  9 10  1  0  0  0  0
  9 32  1  0  0  0  0
  9 33  1  0  0  0  0
 10 11  1  0  0  0  0
 10 34  1  0  0  0  0
 10 44  1  0  0  0  0
 11 12  1  0  0  0  0
 11 35  1  0  0  0  0
 11 36  1  0  0  0  0
 12 13  1  0  0  0  0
 12 37  1  0  0  0  0
 12 38  1  0  0  0  0
 13 17  1  0  0  0  0
 13 14  2  0  0  0  0
 14 15  1  0  0  0  0
 14 45  1  0  0  0  0
 15 16  2  0  0  0  0
 15 39  1  0  0  0  0
 16 17  1  0  0  0  0
 16 40  1  0  0  0  0
 17 18  1  0  0  0  0
 18 41  1  0  0  0  0
 18 42  1  0  0  0  0
 18 43  1  0  0  0  0
M  CHG  1  10   1
M  CHG  1  14   1
M  END
> <s_m_source_file>
AV-unprocessed.smi

> <i_m_source_file_index>
3284

> <i_lp_mmshare_version>
43012

> <i_f3d_flags>
0

> <s_epik_input>
W0NIM11DMT1bQ0hdW0NIMl1bQ0gyXVtDQEBIXShbQ0gzXSlbQ0BIXTFbQ0gyXVtOSF1bQ0gyXVtDSDJdYzJuW2NIXVtjSF1uMltDSDNd

> <s_epik_cmdline>
J2VwaWtfcHl0aG9uJywgJy1waCcsICc3LjAnLCAnLXRuJywgJzgnLCAnLW1hJywgJzIwMCcsICctbWV0YWxfYmluZGluZycsICctaW1hZScsICc8aW5maWxlLm1hZT4nLCAnLW9tYWUnLCAnPG91dGZpbGUubWFlPic=

> <r_lp_tautomer_probability>
1

> <r_epik_Ionization_Penalty>
0.892846

> <r_epik_Ionization_Penalty_Charging>
0.00275802

> <r_epik_Ionization_Penalty_Neutral>
0.890088

> <r_epik_State_Penalty>
0.485211

> <r_epik_Charging_Adjusted_Penalty>
0.487969

> <i_epik_Tot_Q>
2

> <i_epik_Tot_abs_Q>
2

> <r_epik_Metal_State_Penalty>
4.22898

> <b_epik_Metal_Only>
0

> <s_lp_Force_Field>
OPLS_2005

> <r_lp_Energy>
22.9484

> <b_lp_Chiralities_Consistent>
1

> <s_lp_Variant>
AV-unprocessed.smi:3284-7

> <Gold.Version>
5.8.1

> <Gold.Id.Protein>
6NUR|6NUR_protein|mol2

> <Gold.PLP.Fitness>
50.9377

> <Gold.PLP.PLP>
-45.5997

> <Gold.PLP.part.hbond>
0.0000

> <Gold.PLP.part.metal>
0.0000

> <Gold.PLP.part.buried>
1.5369

> <Gold.PLP.part.nonpolar>
-46.8698

> <Gold.PLP.part.repulsive>
0.3284

> <Gold.PLP.ligand.clash>
0.0000

> <Gold.PLP.ligand.torsion>
0.1916

> <Gold.PLP.Chemscore.Hbond>
0.0000

> <Gold.PLP.Chemscore.CHOScore>
1.8829

> <Gold.PLP.Chemscore.Metal>
0.0000

> <Gold.Chemscore.Hbonds>
donor molecule, donor type, donor heavy atom, donor atom, acceptor molecule, acceptor atom, score
      L1  C    16    40       P1  7948  0.72
      L1  C    16    40       P1  7949  0.05
      L1  C    16    40       P1  7957  0.83

> <Gold.PLP.Chemscore.Internal.Correction>
0.0724

> <Gold.Rescore>
     Score         DG    S(hbond)    S(metal)    S(lipo)     H(rot)  DE(clash)    DE(int)     intcor
     17.12     -17.67       0.00        0.00     141.34       1.70       0.38       0.17       ----

> <Gold.Chemscore.Fitness>
17.1211

> <Gold.Chemscore.DG>
-17.6650

> <Gold.Chemscore.ZeroCoef>
-5.4800

> <Gold.Chemscore.Hbond>
0.0000

> <Gold.Chemscore.Metal>
0.0000

> <Gold.Chemscore.Lipo>
141.3354

> <Gold.Chemscore.Internal_Hbond>
0.0000

> <Gold.Chemscore.DEClash>
0.3774

> <Gold.Chemscore.DEInternal>
0.1665

> <Gold.Chemscore.Rot>
1.6997

> <Gold.Chemscore.Internal.Correction>
   9.000000E+99

> <Gold.Chemscore.Hbond.Weighted>
-0.0000

> <Gold.Chemscore.Metal.Weighted>
-0.0000

> <Gold.Chemscore.Lipo.Weighted>
-16.5362

> <Gold.Chemscore.Internal_Hbond.Weighted>
0.0000

> <Gold.Chemscore.DEClash.Weighted>
0.3774

> <Gold.Chemscore.DEInternal.Weighted>
0.1665

> <Gold.Chemscore.Rot.Weighted>
4.3512

> <Gold.Chemscore.Internal.Correction.Weighted>
   9.000000E+99

> <Gold.Protein.RotatedTorsions>
[ 6907 6896 6895 6894 ] final  -27.34 input  -60.11 | X-H torsion
[ 7974 7965 7964 7962 ] final  -39.56 input  175.53 | X-H torsion
[ 8008 7997 7996 7995 ] final -168.82 input   59.86 | X-H torsion
[ 10167 10162 10161 10158 ] final   11.33 input  -65.29 | X-H torsion
[ 10718 10713 10712 10709 ] final  -46.30 input   66.30 | X-H torsion
[ 10763 10752 10751 10750 ] final  -17.69 input  -60.55 | X-H torsion
[ 11005 11000 10999 10996 ] final    1.13 input  -57.11 | X-H torsion

> <Gold.Protein.ActiveResidues>
 VAL166  LYS551  ARG553  GLY616  TRP617  ASP618  TYR619  PRO620  LYS621  CYS622 
 ASP623  PHE694  ASN695  SER759  ASP760  ASP761  ALA762  ILE779  LEU786  VAL792 
 PHE793  MET794  SER795  GLU796  ALA797  LYS798  CYS799  TRP800  GLU811  SER814 

> <Gold.Protein.RotatedAtoms>
  151.1482  135.0214  159.8656 H   0  0  0  0  0  0  0  0  0  0  0  0  # atno 6907 bound_to 6896
  152.5453  134.1419  159.8493 H   0  0  0  0  0  0  0  0  0  0  0  0  # atno 6908 bound_to 6896
  151.1502  133.4867  159.2628 H   0  0  0  0  0  0  0  0  0  0  0  0  # atno 6909 bound_to 6896
  146.0385  140.6639  142.9098 H   0  0  0  0  0  0  0  0  0  0  0  0  # atno 7974 bound_to 7965
  155.8966  140.1034  157.1380 H   0  0  0  0  0  0  0  0  0  0  0  0  # atno 8008 bound_to 7997
  154.4021  140.1300  156.4447 H   0  0  0  0  0  0  0  0  0  0  0  0  # atno 8009 bound_to 7997
  155.7471  140.3466  155.5134 H   0  0  0  0  0  0  0  0  0  0  0  0  # atno 8010 bound_to 7997
  140.6139  143.8350  150.7096 H   0  0  0  0  0  0  0  0  0  0  0  0  # atno 10167 bound_to 10162
  156.2196  130.4165  149.9009 H   0  0  0  0  0  0  0  0  0  0  0  0  # atno 10718 bound_to 10713
  153.5777  135.7006  153.5477 H   0  0  0  0  0  0  0  0  0  0  0  0  # atno 10763 bound_to 10752
  153.3288  135.4053  155.1478 H   0  0  0  0  0  0  0  0  0  0  0  0  # atno 10764 bound_to 10752
  154.8623  135.3714  154.5303 H   0  0  0  0  0  0  0  0  0  0  0  0  # atno 10765 bound_to 10752
  140.6189  133.9680  155.8214 H   0  0  0  0  0  0  0  0  0  0  0  0  # atno 11005 bound_to 11000
  144.7063  140.3865  143.7115 LP  0  0  0  0  0  0  0  0  0  0  0  0  # atno 17320 bound_to 7965
  145.6923  139.1642  143.2640 LP  0  0  0  0  0  0  0  0  0  0  0  0  # atno 17321 bound_to 7965
  140.1925  143.4025  152.1853 LP  0  0  0  0  0  0  0  0  0  0  0  0  # atno 17342 bound_to 10162
  139.5383  144.7231  151.4820 LP  0  0  0  0  0  0  0  0  0  0  0  0  # atno 17343 bound_to 10162
  156.6660  130.8801  151.3555 LP  0  0  0  0  0  0  0  0  0  0  0  0  # atno 17370 bound_to 10713
  157.7081  130.9408  150.0997 LP  0  0  0  0  0  0  0  0  0  0  0  0  # atno 17371 bound_to 10713
  141.0756  134.0139  157.3462 LP  0  0  0  0  0  0  0  0  0  0  0  0  # atno 17394 bound_to 11000
  139.9161  135.0197  156.7888 LP  0  0  0  0  0  0  0  0  0  0  0  0  # atno 17395 bound_to 11000

$$$$
