#       Name:                AV-unprocessed.smi:2610
#       Creating user name   scv26
#       Creation time:       Fri Mar 27 14:21:38 2020


#       File generated by GOLD software.
#

@<TRIPOS>MOLECULE
AV-unprocessed.smi:2610
    50    52     1
SMALL
NO_CHARGES


@<TRIPOS>ATOM
      1 ****        -4.4680   3.8525   0.9443 C.3            1 S1                 0.0000
      2 ****        -3.8510   2.5619   0.3937 C.3            1 S1                 0.0000
      3 ****        -2.3159   2.5903   0.4037 C.3            1 S1                 0.0000
      4 ****        -1.7026   1.2952  -0.1517 C.3            1 S1                 0.0000
      5 ****        -0.2053   1.3184  -0.1180 C.2            1 S1                 0.0000
      6 ****         0.5799   2.3060  -0.6343 N.pl3          1 S1                 1.0000
      7 ****         1.9243   2.0028  -0.4269 C.ar           1 S1                 0.0000
      8 ****         3.0762   2.7062  -0.7652 C.ar           1 S1                 0.0000
      9 ****         4.3055   2.1181  -0.4040 C.ar           1 S1                 0.0000
     10 ****         4.3564   0.8797   0.2671 C.ar           1 S1                 0.0000
     11 ****         3.1813   0.1761   0.6035 C.ar           1 S1                 0.0000
     12 ****         1.9674   0.7617   0.2404 C.ar           1 S1                 0.0000
     13 ****         0.6310   0.3649   0.3933 N.pl3          1 S1                 0.0000
     14 ****         0.3257  -0.9211   1.0521 C.3            1 S1                 0.0000
     15 ****         0.1096  -2.1085   0.0773 C.3            1 S1                 0.0000
     16 ****        -1.0052  -1.8024  -0.7412 O.3            1 S1                 0.0000
     17 ****         1.3235  -2.3655  -0.8417 C.3            1 S1                 0.0000
     18 ****         1.1693  -3.6615  -1.6575 C.3            1 S1                 0.0000
     19 ****         0.9380  -4.7608  -0.7851 O.3            1 S1                 0.0000
     20 ****        -0.2722  -4.6340  -0.0486 C.3            1 S1                 0.0000
     21 ****        -0.2072  -3.3961   0.8641 C.3            1 S1                 0.0000
     22 ****        -5.5569   3.8038   0.9196 H              1 S1                 0.0000
     23 ****        -4.1609   4.7182   0.3568 H              1 S1                 0.0000
     24 ****        -4.1664   4.0235   1.9781 H              1 S1                 0.0000
     25 ****        -4.2057   1.7148   0.9823 H              1 S1                 0.0000
     26 ****        -4.2073   2.4003  -0.6245 H              1 S1                 0.0000
     27 ****        -1.9692   3.4435  -0.1808 H              1 S1                 0.0000
     28 ****        -1.9642   2.7491   1.4242 H              1 S1                 0.0000
     29 ****        -2.0711   0.4460   0.4228 H              1 S1                 0.0000
     30 ****        -2.0237   1.1377  -1.1818 H              1 S1                 0.0000
     31 ****         3.0386   3.6562  -1.2777 H              1 S1                 0.0000
     32 ****         5.2274   2.6273  -0.6453 H              1 S1                 0.0000
     33 ****         5.3167   0.4598   0.5293 H              1 S1                 0.0000
     34 ****         3.2387  -0.7717   1.1169 H              1 S1                 0.0000
     35 ****         1.1202  -1.1490   1.7623 H              1 S1                 0.0000
     36 ****        -0.5653  -0.7698   1.6626 H              1 S1                 0.0000
     37 ****        -1.1674  -2.5364  -1.3142 H              1 S1                 0.0000
     38 ****         1.4877  -1.5241  -1.5157 H              1 S1                 0.0000
     39 ****         2.2231  -2.4545  -0.2324 H              1 S1                 0.0000
     40 ****         0.3571  -3.5784  -2.3813 H              1 S1                 0.0000
     41 ****         2.0790  -3.8527  -2.2268 H              1 S1                 0.0000
     42 ****        -1.1223  -4.5773  -0.7303 H              1 S1                 0.0000
     43 ****        -0.4114  -5.5323   0.5530 H              1 S1                 0.0000
     44 ****         0.5689  -3.5613   1.6124 H              1 S1                 0.0000
     45 ****        -1.1428  -3.2885   1.4147 H              1 S1                 0.0000
     46 ****         0.2161   3.1329  -1.0899 H              1 S1                 0.0000
     47 ****        -0.8101  -0.9864  -1.2853 LP             1 S1                 0.0000
     48 ****        -1.8085  -1.6373  -0.1690 LP             1 S1                 0.0000
     49 ****         1.6997  -4.8228  -0.1401 LP             1 S1                 0.0000
     50 ****         0.8941  -5.5979  -1.3304 LP             1 S1                 0.0000
@<TRIPOS>BOND
    1    1    2 1     
    2    1   22 1     
    3    1   23 1     
    4    1   24 1     
    5    2    3 1     
    6    2   25 1     
    7    2   26 1     
    8    3    4 1     
    9    3   27 1     
   10    3   28 1     
   11    4    5 1     
   12    4   29 1     
   13    4   30 1     
   14    5   13 1     
   15    5    6 2     
   16    6    7 1     
   17    6   46 1     
   18    7   12 ar    
   19    7    8 ar    
   20    8    9 ar    
   21    8   31 1     
   22    9   10 ar    
   23    9   32 1     
   24   10   11 ar    
   25   10   33 1     
   26   11   12 ar    
   27   11   34 1     
   28   12   13 1     
   29   13   14 1     
   30   14   15 1     
   31   14   35 1     
   32   14   36 1     
   33   15   21 1     
   34   15   16 1     
   35   15   17 1     
   36   16   37 1     
   37   17   18 1     
   38   17   38 1     
   39   17   39 1     
   40   18   19 1     
   41   18   40 1     
   42   18   41 1     
   43   19   20 1     
   44   20   21 1     
   45   20   42 1     
   46   20   43 1     
   47   21   44 1     
   48   21   45 1     
   49   16   47 1     
   50   16   48 1     
   51   19   49 1     
   52   19   50 1     
@<TRIPOS>SUBSTRUCTURE
      1 S1             1
@<TRIPOS>SET
LONE_PAIRS      STATIC     ATOMS    <user>   **** ""
4 47 48 49 50
DONOR_HYDROGENS      STATIC     ATOMS    <user>   **** ""
2 46 37
ATOM$BLUE        STATIC     ATOMS    COLORGROUP SYSTEM
4 47 48 49 50
ATOM$RED        STATIC     ATOMS    COLORGROUP SYSTEM
2 46 37
