#       Name:                AV-unprocessed.smi:3235
#       Creating user name   scv26
#       Creation time:       Fri Mar 27 18:22:08 2020


#       File generated by GOLD software.
#

@<TRIPOS>MOLECULE
AV-unprocessed.smi:3235
    44    45     1
SMALL
NO_CHARGES


@<TRIPOS>ATOM
      1 ****        -6.9702   3.2346   0.7678 C.3            1 S1                 0.0000
      2 ****        -5.7765   2.6493   0.0698 C.2            1 S1                 0.0000
      3 ****        -5.7660   1.7337  -1.0206 C.2            1 S1                 0.0000
      4 ****        -4.5429   1.4086  -1.4070 N.2            1 S1                 0.0000
      5 ****        -3.7325   2.1005  -0.5787 N.pl3          1 S1                 0.0000
      6 ****        -2.2940   1.9808  -0.7158 C.3            1 S1                 0.0000
      7 ****        -1.7889   0.6167  -0.2240 C.3            1 S1                 0.0000
      8 ****        -0.3243   0.5077  -0.3666 N.4            1 S1                 1.0000
      9 ****         0.2250  -0.7836   0.0901 C.3            1 S1                 0.0000
     10 ****         1.7473  -0.8335  -0.0910 C.3            1 S1                 0.0000
     11 ****         2.3439  -2.1794   0.3546 C.3            1 S1                 0.0000
     12 ****         3.7948  -2.2122   0.1894 N.am           1 S1                 0.0000
     13 ****         4.6748  -2.1812   1.3456 C.3            1 S1                 0.0000
     14 ****         6.0908  -2.0510   0.7659 C.3            1 S1                 0.0000
     15 ****         5.9607  -2.3673  -0.7282 C.3            1 S1                 0.0000
     16 ****         4.4605  -2.3346  -0.9653 C.2            1 S1                 0.0000
     17 ****         3.9591  -2.4142  -2.0858 O.2            1 S1                 0.0000
     18 ****        -4.4501   2.8613   0.3200 C.2            1 S1                 0.0000
     19 ****        -7.7521   2.4904   0.9204 H              1 S1                 0.0000
     20 ****        -7.4102   4.0506   0.1945 H              1 S1                 0.0000
     21 ****        -6.7117   3.6331   1.7490 H              1 S1                 0.0000
     22 ****        -6.6072   1.2975  -1.5390 H              1 S1                 0.0000
     23 ****        -2.0325   2.1324  -1.7643 H              1 S1                 0.0000
     24 ****        -1.8233   2.7869  -0.1512 H              1 S1                 0.0000
     25 ****        -2.0603   0.4740   0.8231 H              1 S1                 0.0000
     26 ****        -2.2614  -0.1863  -0.7916 H              1 S1                 0.0000
     27 ****        -0.0877   0.6296  -1.3410 H              1 S1                 0.0000
     28 ****        -0.0310  -0.9320   1.1399 H              1 S1                 0.0000
     29 ****        -0.2437  -1.5910  -0.4742 H              1 S1                 0.0000
     30 ****         1.9899  -0.6515  -1.1389 H              1 S1                 0.0000
     31 ****         2.2094  -0.0260   0.4784 H              1 S1                 0.0000
     32 ****         2.0965  -2.3668   1.4004 H              1 S1                 0.0000
     33 ****         1.9003  -2.9964  -0.2166 H              1 S1                 0.0000
     34 ****         4.4310  -1.3501   2.0087 H              1 S1                 0.0000
     35 ****         4.5664  -3.1106   1.9066 H              1 S1                 0.0000
     36 ****         6.4579  -1.0324   0.8983 H              1 S1                 0.0000
     37 ****         6.7935  -2.7195   1.2645 H              1 S1                 0.0000
     38 ****         6.4793  -1.6376  -1.3509 H              1 S1                 0.0000
     39 ****         6.3431  -3.3618  -0.9594 H              1 S1                 0.0000
     40 ****        -3.9641   3.4826   1.0578 H              1 S1                 0.0000
     41 ****         0.1078   1.2487   0.1665 H              1 S1                 0.0000
     42 ****        -4.2785   0.7895  -2.1465 LP             1 S1                 0.0000
     43 ****         2.9650  -2.3894  -2.1917 LP             1 S1                 0.0000
     44 ****         4.5455  -2.5037  -2.8908 LP             1 S1                 0.0000
@<TRIPOS>BOND
    1    1    2 1     
    2    1   19 1     
    3    1   20 1     
    4    1   21 1     
    5    2   18 2     
    6    2    3 1     
    7    3    4 2     
    8    3   22 1     
    9    4    5 1     
   10    5    6 1     
   11    5   18 1     
   12    6    7 1     
   13    6   23 1     
   14    6   24 1     
   15    7    8 1     
   16    7   25 1     
   17    7   26 1     
   18    8    9 1     
   19    8   27 1     
   20    8   41 1     
   21    9   10 1     
   22    9   28 1     
   23    9   29 1     
   24   10   11 1     
   25   10   30 1     
   26   10   31 1     
   27   11   12 1     
   28   11   32 1     
   29   11   33 1     
   30   12   16 am    
   31   12   13 1     
   32   13   14 1     
   33   13   34 1     
   34   13   35 1     
   35   14   15 1     
   36   14   36 1     
   37   14   37 1     
   38   15   16 1     
   39   15   38 1     
   40   15   39 1     
   41   16   17 2     
   42   18   40 1     
   43    4   42 1     
   44   17   43 1     
   45   17   44 1     
@<TRIPOS>SUBSTRUCTURE
      1 S1             1
@<TRIPOS>SET
LONE_PAIRS      STATIC     ATOMS    <user>   **** ""
3 42 43 44
DONOR_HYDROGENS      STATIC     ATOMS    <user>   **** ""
2 27 41
ATOM$BLUE        STATIC     ATOMS    COLORGROUP SYSTEM
3 42 43 44
ATOM$RED        STATIC     ATOMS    COLORGROUP SYSTEM
2 27 41
