#       Name:                AV-unprocessed.smi:1006
#       Creating user name   scv26
#       Creation time:       Fri Mar 27 02:31:58 2020


#       File generated by GOLD software.
#

@<TRIPOS>MOLECULE
AV-unprocessed.smi:1006
    50    52     1
SMALL
NO_CHARGES


@<TRIPOS>ATOM
      1 ****        -6.0545  -0.6930  -0.6377 C.3            1 S1                 0.0000
      2 ****        -5.4018   0.5089  -1.2870 C.ar           1 S1                 0.0000
      3 ****        -6.1533   1.4332  -2.0441 C.ar           1 S1                 0.0000
      4 ****        -5.4376   2.5180  -2.5924 C.ar           1 S1                 0.0000
      5 ****        -6.0857   3.4852  -3.3560 N.pl3          1 S1                 0.0000
      6 ****        -4.1090   2.6640  -2.4009 N.ar           1 S1                 0.0000
      7 ****        -3.5053   1.7245  -1.6693 C.ar           1 S1                 0.0000
      8 ****        -1.7572   1.9611  -1.4141 S.3            1 S1                 0.0000
      9 ****        -1.1636   0.2489  -1.2510 C.3            1 S1                 0.0000
     10 ****         0.3660   0.1765  -1.1194 C.3            1 S1                 0.0000
     11 ****         0.9658   0.6725  -2.3016 O.3            1 S1                 0.0000
     12 ****         0.8544  -1.2613  -0.8609 C.3            1 S1                 0.0000
     13 ****         2.2858  -1.3244  -0.6285 N.pl3          1 S1                 0.0000
     14 ****         3.2480  -1.6118  -1.5263 C.2            1 S1                 0.0000
     15 ****         4.5052  -1.6129  -1.0918 N.2            1 S1                 0.0000
     16 ****         4.3389  -1.2875   0.2437 C.ar           1 S1                 0.0000
     17 ****         5.2907  -1.1250   1.2742 C.ar           1 S1                 0.0000
     18 ****         4.8882  -0.7861   2.5859 C.ar           1 S1                 0.0000
     19 ****         5.9454  -0.6210   3.6635 C.3            1 S1                 0.0000
     20 ****         3.5136  -0.6035   2.8829 C.ar           1 S1                 0.0000
     21 ****         3.0573  -0.2394   4.2847 C.3            1 S1                 0.0000
     22 ****         2.5498  -0.7621   1.8652 C.ar           1 S1                 0.0000
     23 ****         2.9628  -1.1003   0.5646 C.ar           1 S1                 0.0000
     24 ****        -4.0717   0.6569  -1.0985 N.ar           1 S1                 0.0000
     25 ****        -6.9495  -0.9904  -1.1849 H              1 S1                 0.0000
     26 ****        -6.3415  -0.4559   0.3870 H              1 S1                 0.0000
     27 ****        -5.3722  -1.5435  -0.6166 H              1 S1                 0.0000
     28 ****        -7.2170   1.3165  -2.1921 H              1 S1                 0.0000
     29 ****        -7.0778   3.4389  -3.5380 H              1 S1                 0.0000
     30 ****        -5.5790   4.2578  -3.7635 H              1 S1                 0.0000
     31 ****        -1.6231  -0.1926  -0.3663 H              1 S1                 0.0000
     32 ****        -1.5009  -0.3303  -2.1115 H              1 S1                 0.0000
     33 ****         0.6793   0.8124  -0.2901 H              1 S1                 0.0000
     34 ****         0.6748   0.1471  -3.0311 H              1 S1                 0.0000
     35 ****         0.3521  -1.6776   0.0131 H              1 S1                 0.0000
     36 ****         0.6052  -1.9108  -1.7014 H              1 S1                 0.0000
     37 ****         3.0122  -1.8300  -2.5578 H              1 S1                 0.0000
     38 ****         6.3377  -1.2635   1.0476 H              1 S1                 0.0000
     39 ****         5.7684  -1.3185   4.4826 H              1 S1                 0.0000
     40 ****         5.9289   0.3938   4.0619 H              1 S1                 0.0000
     41 ****         6.9456  -0.8109   3.2730 H              1 S1                 0.0000
     42 ****         1.9760  -0.1064   4.3290 H              1 S1                 0.0000
     43 ****         3.5214   0.6925   4.6085 H              1 S1                 0.0000
     44 ****         3.3276  -1.0254   4.9901 H              1 S1                 0.0000
     45 ****         1.4994  -0.6259   2.0764 H              1 S1                 0.0000
     46 ****        -3.6035   3.4357  -2.7870 LP             1 S1                 0.0000
     47 ****         1.9612   0.6176  -2.2229 LP             1 S1                 0.0000
     48 ****         0.6947   1.6246  -2.4430 LP             1 S1                 0.0000
     49 ****         5.3481  -1.7995  -1.5966 LP             1 S1                 0.0000
     50 ****        -3.5398   0.0027  -0.5608 LP             1 S1                 0.0000
@<TRIPOS>BOND
    1    1    2 1     
    2    1   25 1     
    3    1   26 1     
    4    1   27 1     
    5    2   24 ar    
    6    2    3 ar    
    7    3    4 ar    
    8    3   28 1     
    9    4    5 1     
   10    4    6 ar    
   11    5   29 1     
   12    5   30 1     
   13    6    7 ar    
   14    7    8 1     
   15    7   24 ar    
   16    8    9 1     
   17    9   10 1     
   18    9   31 1     
   19    9   32 1     
   20   10   11 1     
   21   10   12 1     
   22   10   33 1     
   23   11   34 1     
   24   12   13 1     
   25   12   35 1     
   26   12   36 1     
   27   13   23 1     
   28   13   14 1     
   29   14   15 2     
   30   14   37 1     
   31   15   16 1     
   32   16   23 ar    
   33   16   17 ar    
   34   17   18 ar    
   35   17   38 1     
   36   18   19 1     
   37   18   20 ar    
   38   19   39 1     
   39   19   40 1     
   40   19   41 1     
   41   20   21 1     
   42   20   22 ar    
   43   21   42 1     
   44   21   43 1     
   45   21   44 1     
   46   22   23 ar    
   47   22   45 1     
   48    6   46 1     
   49   11   47 1     
   50   11   48 1     
   51   15   49 1     
   52   24   50 1     
@<TRIPOS>SUBSTRUCTURE
      1 S1             1
@<TRIPOS>SET
LONE_PAIRS      STATIC     ATOMS    <user>   **** ""
5 46 47 48 49 50
DONOR_HYDROGENS      STATIC     ATOMS    <user>   **** ""
3 29 30 34
ATOM$BLUE        STATIC     ATOMS    COLORGROUP SYSTEM
5 46 47 48 49 50
ATOM$RED        STATIC     ATOMS    COLORGROUP SYSTEM
3 29 30 34
