AV-unprocessed.smi:157|AV-procd|sdf|1292|dock6
  -GOLD-   2262018573D 1   1.00000     0.00000
 Structure written by MMmdl.
 35 37  0  0  0  0  0  0  0  0  1 V2000
  151.7538  136.8178  155.0689 O   0  0  0  0  0  0  0  0  0  0  0  0
  150.9812  137.8340  154.4660 C   0  0  0  0  0  0  0  0  0  0  0  0
  151.2737  139.1938  155.1240 C   0  0  2  0  0  0  0  0  0  0  0  0
  150.7234  139.2525  156.4365 O   0  0  0  0  0  0  0  0  0  0  0  0
  150.3664  140.5656  156.7562 C   0  0  1  0  0  0  0  0  0  0  0  0
  151.1602  141.0013  157.9492 N   0  0  0  0  0  0  0  0  0  0  0  0
  152.0073  140.2440  158.6590 C   0  0  0  0  0  0  0  0  0  0  0  0
  152.5942  140.8705  159.6647 N   0  0  0  0  0  0  0  0  0  0  0  0
  152.0765  142.1631  159.6030 C   0  0  0  0  0  0  0  0  0  0  0  0
  151.1865  142.2662  158.5432 C   0  0  0  0  0  0  0  0  0  0  0  0
  150.4066  143.2656  157.9937 N   0  0  0  0  0  0  0  0  0  0  0  0
  150.1385  144.2990  158.7279 C   0  0  0  0  0  0  0  0  0  0  0  0
  150.5942  144.6384  159.9938 N   0  0  0  0  0  0  0  0  0  0  0  0
  151.9982  144.6101  160.3665 C   0  0  0  0  0  0  0  0  0  0  0  0
  152.5459  143.1945  160.5887 C   0  0  1  0  0  0  0  0  0  0  0  0
  152.1624  142.7437  161.8719 O   0  0  0  0  0  0  0  0  0  0  0  0
  150.7009  141.4474  155.5485 C   0  0  0  0  0  0  0  0  0  0  0  0
  150.7253  140.4411  154.4166 C   0  0  2  0  0  0  0  0  0  0  0  0
  149.4252  140.2387  153.8952 O   0  0  0  0  0  0  0  0  0  0  0  0
  152.3532  139.3093  155.2372 H   0  0  0  0  0  0  0  0  0  0  0  0
  149.3181  140.5990  157.0539 H   0  0  0  0  0  0  0  0  0  0  0  0
  153.6351  143.2417  160.5843 H   0  0  0  0  0  0  0  0  0  0  0  0
  151.3759  140.7624  153.6026 H   0  0  0  0  0  0  0  0  0  0  0  0
  151.4780  136.7259  155.9682 H   0  0  0  0  0  0  0  0  0  0  0  0
  151.1738  137.8571  153.3932 H   0  0  0  0  0  0  0  0  0  0  0  0
  149.9282  137.5816  154.5923 H   0  0  0  0  0  0  0  0  0  0  0  0
  152.2037  139.2070  158.4304 H   0  0  0  0  0  0  0  0  0  0  0  0
  149.4578  145.0538  158.3317 H   0  0  0  0  0  0  0  0  0  0  0  0
  150.0924  145.3450  160.5119 H   0  0  0  0  0  0  0  0  0  0  0  0
  152.5567  145.0783  159.5547 H   0  0  0  0  0  0  0  0  0  0  0  0
  152.1625  145.2329  161.2464 H   0  0  0  0  0  0  0  0  0  0  0  0
  151.2472  142.9459  161.9936 H   0  0  0  0  0  0  0  0  0  0  0  0
  149.9730  142.2504  155.4259 H   0  0  0  0  0  0  0  0  0  0  0  0
  151.6916  141.8872  155.6754 H   0  0  0  0  0  0  0  0  0  0  0  0
  149.5047  139.9757  152.9909 H   0  0  0  0  0  0  0  0  0  0  0  0
  1  2  1  0  0  0  0
  1 24  1  0  0  0  0
  2  3  1  0  0  0  0
  2 25  1  0  0  0  0
  2 26  1  0  0  0  0
  3 20  1  0  0  0  0
  3 18  1  0  0  0  0
  3  4  1  0  0  0  0
  4  5  1  0  0  0  0
  5 21  1  0  0  0  0
  5  6  1  0  0  0  0
  5 17  1  0  0  0  0
  6 10  1  0  0  0  0
  6  7  1  0  0  0  0
  7  8  2  0  0  0  0
  7 27  1  0  0  0  0
  8  9  1  0  0  0  0
  9 15  1  0  0  0  0
  9 10  2  0  0  0  0
 10 11  1  0  0  0  0
 11 12  2  0  0  0  0
 12 13  1  0  0  0  0
 12 28  1  0  0  0  0
 13 14  1  0  0  0  0
 13 29  1  0  0  0  0
 14 15  1  0  0  0  0
 14 30  1  0  0  0  0
 14 31  1  0  0  0  0
 15 22  1  0  0  0  0
 15 16  1  0  0  0  0
 16 32  1  0  0  0  0
 17 18  1  0  0  0  0
 17 33  1  0  0  0  0
 17 34  1  0  0  0  0
 18 23  1  0  0  0  0
 18 19  1  0  0  0  0
 19 35  1  0  0  0  0
M  END
> <s_m_source_file>
AV-unprocessed.smi

> <i_m_source_file_index>
157

> <i_lp_mmshare_version>
43012

> <i_f3d_flags>
0

> <s_epik_input>
W09IXVtDSDJdW0NASF0xT1tDQEhdKFtDSDJdW0NAQEhdMVtPSF0pbihbY0hdbjIpYyhjMjMpTj1bQ0hdW05IXVtDSDJdW0NASF0zW09IXQ==

> <s_epik_cmdline>
J2VwaWtfcHl0aG9uJywgJy1waCcsICc3LjAnLCAnLXRuJywgJzgnLCAnLW1hJywgJzIwMCcsICctbWV0YWxfYmluZGluZycsICctaW1hZScsICc8aW5maWxlLm1hZT4nLCAnLW9tYWUnLCAnPG91dGZpbGUubWFlPic=

> <r_lp_tautomer_probability>
1

> <r_epik_Ionization_Penalty>
0.0357149

> <r_epik_Ionization_Penalty_Charging>
0.0355056

> <r_epik_Ionization_Penalty_Neutral>
0.000209255

> <r_epik_State_Penalty>
0.0296046

> <r_epik_Charging_Adjusted_Penalty>
0.0651102

> <i_epik_Tot_Q>
0

> <i_epik_Tot_abs_Q>
0

> <r_epik_Metal_State_Penalty>
3.03559e-05

> <b_epik_Metal_Only>
0

> <s_epik_Chemistry_Notes>
This compound has an imine and may undergo hydrolysis. This compound contains an acetal/aminal-like group ( X-CH(R)-Y where X, Y are N, S, or O) that may be acid/base labile, releasing an aldehyde.

> <s_lp_Force_Field>
OPLS_2005

> <r_lp_Energy>
45.9661

> <b_lp_Chiralities_Consistent>
1

> <s_lp_Variant>
AV-unprocessed.smi:157-2

> <Gold.Version>
5.8.1

> <Gold.Id.Protein>
6NUR|6NUR_protein|mol2

> <Gold.PLP.Fitness>
41.5131

> <Gold.PLP.PLP>
-32.7192

> <Gold.PLP.part.hbond>
-2.0000

> <Gold.PLP.part.metal>
0.0000

> <Gold.PLP.part.buried>
-1.5720

> <Gold.PLP.part.nonpolar>
-27.5228

> <Gold.PLP.part.repulsive>
0.3121

> <Gold.PLP.ligand.clash>
0.0000

> <Gold.PLP.ligand.torsion>
0.0927

> <Gold.PLP.Chemscore.Hbond>
1.9913

> <Gold.PLP.Chemscore.CHOScore>
1.0000

> <Gold.PLP.Chemscore.Metal>
0.0000

> <Gold.Chemscore.Hbonds>
donor molecule, donor type, donor heavy atom, donor atom, acceptor molecule, acceptor atom, score
      L1  H    19    35       P1  7957  1.00
      P1  H 10752 10765       L1     1  0.98
      L1  C    12    28       P1  8029  1.00

> <Gold.PLP.Chemscore.Internal.Correction>
0.0055

> <Gold.Rescore>
     Score         DG    S(hbond)    S(metal)    S(lipo)     H(rot)  DE(clash)    DE(int)     intcor
      8.25      -9.97       1.84        0.00      65.49       3.64       1.67       0.05       ----

> <Gold.Chemscore.Fitness>
8.2524

> <Gold.Chemscore.DG>
-9.9676

> <Gold.Chemscore.ZeroCoef>
-5.4800

> <Gold.Chemscore.Hbond>
1.8365

> <Gold.Chemscore.Metal>
0.0000

> <Gold.Chemscore.Lipo>
65.4913

> <Gold.Chemscore.Internal_Hbond>
0.0000

> <Gold.Chemscore.DEClash>
1.6691

> <Gold.Chemscore.DEInternal>
0.0462

> <Gold.Chemscore.Rot>
3.6362

> <Gold.Chemscore.Internal.Correction>
   9.000000E+99

> <Gold.Chemscore.Hbonds>
donor molecule, donor type, donor heavy atom, donor atom, acceptor molecule, acceptor atom, score
      L1  H    19    35       P1  7957  1.00
      P1  H 10752 10765       L1     1  0.92

> <Gold.Chemscore.Hbond.Weighted>
-6.1339

> <Gold.Chemscore.Metal.Weighted>
-0.0000

> <Gold.Chemscore.Lipo.Weighted>
-7.6625

> <Gold.Chemscore.Internal_Hbond.Weighted>
0.0000

> <Gold.Chemscore.DEClash.Weighted>
1.6691

> <Gold.Chemscore.DEInternal.Weighted>
0.0462

> <Gold.Chemscore.Rot.Weighted>
9.3087

> <Gold.Chemscore.Internal.Correction.Weighted>
   9.000000E+99

> <Gold.Protein.RotatedTorsions>
[ 6907 6896 6895 6894 ] final  -57.64 input  -60.11 | X-H torsion
[ 7974 7965 7964 7962 ] final  -53.99 input  175.53 | X-H torsion
[ 8008 7997 7996 7995 ] final   99.14 input   59.86 | X-H torsion
[ 10167 10162 10161 10158 ] final  -83.95 input  -65.29 | X-H torsion
[ 10718 10713 10712 10709 ] final  -56.90 input   66.30 | X-H torsion
[ 10763 10752 10751 10750 ] final  163.11 input  -60.55 | X-H torsion
[ 11005 11000 10999 10996 ] final -121.24 input  -57.11 | X-H torsion

> <Gold.Protein.ActiveResidues>
 VAL166  LYS551  ARG553  GLY616  TRP617  ASP618  TYR619  PRO620  LYS621  CYS622 
 ASP623  PHE694  ASN695  SER759  ASP760  ASP761  ALA762  ILE779  LEU786  VAL792 
 PHE793  MET794  SER795  GLU796  ALA797  LYS798  CYS799  TRP800  GLU811  SER814 

> <Gold.Protein.RotatedAtoms>
  150.8070  134.7201  159.6652 H   0  0  0  0  0  0  0  0  0  0  0  0  # atno 6907 bound_to 6896
  152.4189  134.5987  160.0004 H   0  0  0  0  0  0  0  0  0  0  0  0  # atno 6908 bound_to 6896
  151.6208  133.3302  159.3123 H   0  0  0  0  0  0  0  0  0  0  0  0  # atno 6909 bound_to 6896
  145.8906  140.8073  142.9793 H   0  0  0  0  0  0  0  0  0  0  0  0  # atno 7974 bound_to 7965
  156.1075  140.3233  155.8027 H   0  0  0  0  0  0  0  0  0  0  0  0  # atno 8008 bound_to 7997
  155.4730  140.0548  157.2994 H   0  0  0  0  0  0  0  0  0  0  0  0  # atno 8009 bound_to 7997
  154.4737  140.2023  155.9944 H   0  0  0  0  0  0  0  0  0  0  0  0  # atno 8010 bound_to 7997
  140.4178  143.2596  151.8931 H   0  0  0  0  0  0  0  0  0  0  0  0  # atno 10167 bound_to 10162
  156.1253  130.4163  150.0367 H   0  0  0  0  0  0  0  0  0  0  0  0  # atno 10718 bound_to 10713
  154.2887  135.2761  155.2665 H   0  0  0  0  0  0  0  0  0  0  0  0  # atno 10763 bound_to 10752
  154.5153  135.5771  153.6641 H   0  0  0  0  0  0  0  0  0  0  0  0  # atno 10764 bound_to 10752
  152.9917  135.6191  154.3050 H   0  0  0  0  0  0  0  0  0  0  0  0  # atno 10765 bound_to 10752
  141.0084  134.0300  157.3446 H   0  0  0  0  0  0  0  0  0  0  0  0  # atno 11005 bound_to 11000
  144.6730  140.1524  143.7429 LP  0  0  0  0  0  0  0  0  0  0  0  0  # atno 17320 bound_to 7965
  145.8913  139.2377  143.1548 LP  0  0  0  0  0  0  0  0  0  0  0  0  # atno 17321 bound_to 7965
  139.4782  144.5469  151.8444 LP  0  0  0  0  0  0  0  0  0  0  0  0  # atno 17342 bound_to 10162
  140.4567  144.1780  150.5902 LP  0  0  0  0  0  0  0  0  0  0  0  0  # atno 17343 bound_to 10162
  156.8294  130.9387  151.3638 LP  0  0  0  0  0  0  0  0  0  0  0  0  # atno 17370 bound_to 10713
  157.6434  130.8824  149.9492 LP  0  0  0  0  0  0  0  0  0  0  0  0  # atno 17371 bound_to 10713
  139.9076  135.0183  156.7554 LP  0  0  0  0  0  0  0  0  0  0  0  0  # atno 17394 bound_to 11000
  140.6774  133.9505  155.7891 LP  0  0  0  0  0  0  0  0  0  0  0  0  # atno 17395 bound_to 11000

$$$$
