AV-unprocessed.smi:1791|AV-procd|sdf|7221|dock1
  -GOLD-   22720 8463D 1   1.00000     0.00000
 Structure written by MMmdl.
 38 39  0  0  0  0  0  0  0  0  1 V2000
  146.6690  138.5629  152.3951 C   0  0  0  0  0  0  0  0  0  0  0  0
  147.1831  138.2905  153.6942 O   0  0  0  0  0  0  0  0  0  0  0  0
  147.8273  139.3065  154.3698 C   0  0  0  0  0  0  0  0  0  0  0  0
  148.8201  138.9675  155.3106 C   0  0  0  0  0  0  0  0  0  0  0  0
  149.4826  139.9985  156.0040 C   0  0  0  0  0  0  0  0  0  0  0  0
  149.1244  141.3416  155.7375 C   0  0  0  0  0  0  0  0  0  0  0  0
  149.7343  142.4685  156.3510 N   0  0  0  0  0  0  0  0  0  0  0  0
  150.7387  142.4937  157.2433 C   0  0  0  0  0  0  0  0  0  0  0  0
  151.2813  141.5025  157.7311 O   0  0  0  0  0  0  0  0  0  0  0  0
  151.0665  143.7543  157.5618 N   0  0  0  0  0  0  0  0  0  0  0  0
  152.1092  144.1595  158.5032 C   0  0  1  0  0  0  0  0  0  0  0  0
  151.9972  145.6720  158.7437 C   0  0  0  0  0  0  0  0  0  0  0  0
  151.9851  143.3591  159.8151 C   0  0  1  0  0  0  0  0  0  0  0  0
  153.1691  142.4442  160.1307 C   0  0  0  0  0  0  0  0  0  0  0  0
  153.0859  142.2708  161.6382 C   0  0  0  0  0  0  0  0  0  0  0  0
  152.2080  143.4388  162.0987 C   0  0  0  0  0  0  0  0  0  0  0  0
  151.9854  144.2276  160.9372 O   0  0  0  0  0  0  0  0  0  0  0  0
  148.1278  141.5750  154.7677 C   0  0  0  0  0  0  0  0  0  0  0  0
  147.4875  140.5915  154.1011 N   0  0  0  0  0  0  0  0  0  0  0  0
  146.2011  137.6630  151.9965 H   0  0  0  0  0  0  0  0  0  0  0  0
  147.4608  138.8566  151.7045 H   0  0  0  0  0  0  0  0  0  0  0  0
  145.9097  139.3459  152.4237 H   0  0  0  0  0  0  0  0  0  0  0  0
  149.0738  137.9338  155.4937 H   0  0  0  0  0  0  0  0  0  0  0  0
  150.2574  139.7400  156.7088 H   0  0  0  0  0  0  0  0  0  0  0  0
  149.3288  143.3620  156.1140 H   0  0  0  0  0  0  0  0  0  0  0  0
  150.5540  144.4996  157.1138 H   0  0  0  0  0  0  0  0  0  0  0  0
  153.0945  143.9674  158.0745 H   0  0  0  0  0  0  0  0  0  0  0  0
  152.7856  146.0232  159.4100 H   0  0  0  0  0  0  0  0  0  0  0  0
  151.0397  145.9343  159.1949 H   0  0  0  0  0  0  0  0  0  0  0  0
  152.0887  146.2261  157.8091 H   0  0  0  0  0  0  0  0  0  0  0  0
  151.0599  142.7790  159.8201 H   0  0  0  0  0  0  0  0  0  0  0  0
  153.1300  141.4971  159.5920 H   0  0  0  0  0  0  0  0  0  0  0  0
  154.1056  142.9404  159.8718 H   0  0  0  0  0  0  0  0  0  0  0  0
  152.6192  141.3204  161.8997 H   0  0  0  0  0  0  0  0  0  0  0  0
  154.0757  142.2959  162.0952 H   0  0  0  0  0  0  0  0  0  0  0  0
  151.2512  143.0739  162.4743 H   0  0  0  0  0  0  0  0  0  0  0  0
  152.6780  144.0306  162.8844 H   0  0  0  0  0  0  0  0  0  0  0  0
  147.8300  142.5832  154.5191 H   0  0  0  0  0  0  0  0  0  0  0  0
  1  2  1  0  0  0  0
  1 20  1  0  0  0  0
  1 21  1  0  0  0  0
  1 22  1  0  0  0  0
  2  3  1  0  0  0  0
  3 19  1  0  0  0  0
  3  4  2  0  0  0  0
  4  5  1  0  0  0  0
  4 23  1  0  0  0  0
  5  6  2  0  0  0  0
  5 24  1  0  0  0  0
  6  7  1  0  0  0  0
  6 18  1  0  0  0  0
  7  8  1  0  0  0  0
  7 25  1  0  0  0  0
  8  9  2  0  0  0  0
  8 10  1  0  0  0  0
 10 11  1  0  0  0  0
 10 26  1  0  0  0  0
 11 12  1  0  0  0  0
 11 13  1  0  0  0  0
 11 27  1  0  0  0  0
 12 28  1  0  0  0  0
 12 29  1  0  0  0  0
 12 30  1  0  0  0  0
 13 17  1  0  0  0  0
 13 14  1  0  0  0  0
 13 31  1  0  0  0  0
 14 15  1  0  0  0  0
 14 32  1  0  0  0  0
 14 33  1  0  0  0  0
 15 16  1  0  0  0  0
 15 34  1  0  0  0  0
 15 35  1  0  0  0  0
 16 17  1  0  0  0  0
 16 36  1  0  0  0  0
 16 37  1  0  0  0  0
 18 19  2  0  0  0  0
 18 38  1  0  0  0  0
M  END
> <s_m_source_file>
AV-unprocessed.smi

> <i_m_source_file_index>
1791

> <i_lp_mmshare_version>
43012

> <i_f3d_flags>
0

> <s_epik_input>
W0NIM11PYzFbY0hdW2NIXWMoW2NIXW4xKVtOSF1DKD1PKVtOSF1bQ0BIXShbQ0gzXSlbQ0BASF0yW0NIMl1bQ0gyXVtDSDJdTzI=

> <s_epik_cmdline>
J2VwaWtfcHl0aG9uJywgJy1waCcsICc3LjAnLCAnLXRuJywgJzgnLCAnLW1hJywgJzIwMCcsICctbWV0YWxfYmluZGluZycsICctaW1hZScsICc8aW5maWxlLm1hZT4nLCAnLW9tYWUnLCAnPG91dGZpbGUubWFlPic=

> <r_lp_tautomer_probability>
1

> <r_epik_Ionization_Penalty>
9.18737e-05

> <r_epik_Ionization_Penalty_Charging>
0

> <r_epik_Ionization_Penalty_Neutral>
9.18737e-05

> <r_epik_State_Penalty>
-0

> <r_epik_Charging_Adjusted_Penalty>
0

> <i_epik_Tot_Q>
0

> <i_epik_Tot_abs_Q>
0

> <r_epik_Metal_State_Penalty>
-0

> <b_epik_Metal_Only>
0

> <s_lp_Force_Field>
OPLS_2005

> <r_lp_Energy>
20.4699

> <b_lp_Chiralities_Consistent>
1

> <s_lp_Variant>
AV-unprocessed.smi:1791-4

> <Gold.Version>
5.8.1

> <Gold.Id.Protein>
6NUR|6NUR_protein|mol2

> <Gold.PLP.Fitness>
47.0109

> <Gold.PLP.PLP>
-44.2359

> <Gold.PLP.part.hbond>
-1.7084

> <Gold.PLP.part.metal>
0.0000

> <Gold.PLP.part.buried>
-4.0864

> <Gold.PLP.part.nonpolar>
-39.6753

> <Gold.PLP.part.repulsive>
1.4616

> <Gold.PLP.ligand.clash>
0.0000

> <Gold.PLP.ligand.torsion>
1.9321

> <Gold.PLP.Chemscore.Hbond>
1.2803

> <Gold.PLP.Chemscore.CHOScore>
0.9099

> <Gold.PLP.Chemscore.Metal>
0.0000

> <Gold.Chemscore.Hbonds>
donor molecule, donor type, donor heavy atom, donor atom, acceptor molecule, acceptor atom, score
      L1  H     7    25       P1  8028  0.93
      L1  H    10    26       P1  8028  0.48
      L1  C    18    38       P1  8028  0.71

> <Gold.PLP.Chemscore.Internal.Correction>
0.0687

> <Gold.Rescore>
     Score         DG    S(hbond)    S(metal)    S(lipo)     H(rot)  DE(clash)    DE(int)     intcor
     16.15     -20.16       1.72        0.00     108.45       1.47       1.51       2.50       ----

> <Gold.Chemscore.Fitness>
16.1512

> <Gold.Chemscore.DG>
-20.1649

> <Gold.Chemscore.ZeroCoef>
-5.4800

> <Gold.Chemscore.Hbond>
1.7239

> <Gold.Chemscore.Metal>
0.0000

> <Gold.Chemscore.Lipo>
108.4474

> <Gold.Chemscore.Internal_Hbond>
0.0000

> <Gold.Chemscore.DEClash>
1.5116

> <Gold.Chemscore.DEInternal>
2.5021

> <Gold.Chemscore.Rot>
1.4693

> <Gold.Chemscore.Internal.Correction>
   9.000000E+99

> <Gold.Chemscore.Hbonds>
donor molecule, donor type, donor heavy atom, donor atom, acceptor molecule, acceptor atom, score
      L1  H     7    25       P1  8028  0.89
      L1  H    10    26       P1  8028  0.39

> <Gold.Chemscore.Hbond.Weighted>
-5.7578

> <Gold.Chemscore.Metal.Weighted>
-0.0000

> <Gold.Chemscore.Lipo.Weighted>
-12.6883

> <Gold.Chemscore.Internal_Hbond.Weighted>
0.0000

> <Gold.Chemscore.DEClash.Weighted>
1.5116

> <Gold.Chemscore.DEInternal.Weighted>
2.5021

> <Gold.Chemscore.Rot.Weighted>
3.7613

> <Gold.Chemscore.Internal.Correction.Weighted>
   9.000000E+99

> <Gold.Protein.RotatedTorsions>
[ 6907 6896 6895 6894 ] final   97.24 input  -60.11 | X-H torsion
[ 7974 7965 7964 7962 ] final -138.63 input  175.53 | X-H torsion
[ 8008 7997 7996 7995 ] final   49.24 input   59.86 | X-H torsion
[ 10167 10162 10161 10158 ] final  -24.39 input  -65.29 | X-H torsion
[ 10718 10713 10712 10709 ] final   -6.95 input   66.30 | X-H torsion
[ 10763 10752 10751 10750 ] final  -81.23 input  -60.55 | X-H torsion
[ 11005 11000 10999 10996 ] final  141.48 input  -57.11 | X-H torsion

> <Gold.Protein.ActiveResidues>
 VAL166  LYS551  ARG553  GLY616  TRP617  ASP618  TYR619  PRO620  LYS621  CYS622 
 ASP623  PHE694  ASN695  SER759  ASP760  ASP761  ALA762  ILE779  LEU786  VAL792 
 PHE793  MET794  SER795  GLU796  ALA797  LYS798  CYS799  TRP800  GLU811  SER814 

> <Gold.Protein.RotatedAtoms>
  152.5426  134.0763  159.8215 H   0  0  0  0  0  0  0  0  0  0  0  0  # atno 6907 bound_to 6896
  151.0871  133.5337  159.2624 H   0  0  0  0  0  0  0  0  0  0  0  0  # atno 6908 bound_to 6896
  151.2143  135.0502  159.8978 H   0  0  0  0  0  0  0  0  0  0  0  0  # atno 6909 bound_to 6896
  144.8742  140.6413  143.5247 H   0  0  0  0  0  0  0  0  0  0  0  0  # atno 7974 bound_to 7965
  155.3989  140.3437  155.4256 H   0  0  0  0  0  0  0  0  0  0  0  0  # atno 8008 bound_to 7997
  156.1515  140.1572  156.8794 H   0  0  0  0  0  0  0  0  0  0  0  0  # atno 8009 bound_to 7997
  154.5057  140.0803  156.7870 H   0  0  0  0  0  0  0  0  0  0  0  0  # atno 8010 bound_to 7997
  140.7288  143.4357  151.0733 H   0  0  0  0  0  0  0  0  0  0  0  0  # atno 10167 bound_to 10162
  156.7244  130.5161  149.5860 H   0  0  0  0  0  0  0  0  0  0  0  0  # atno 10718 bound_to 10713
  154.5610  135.5633  153.7007 H   0  0  0  0  0  0  0  0  0  0  0  0  # atno 10763 bound_to 10752
  153.0018  135.6274  154.2245 H   0  0  0  0  0  0  0  0  0  0  0  0  # atno 10764 bound_to 10752
  154.2183  135.2870  155.2914 H   0  0  0  0  0  0  0  0  0  0  0  0  # atno 10765 bound_to 10752
  140.0405  134.9307  157.0834 H   0  0  0  0  0  0  0  0  0  0  0  0  # atno 11005 bound_to 11000
  145.4073  139.1586  143.4145 LP  0  0  0  0  0  0  0  0  0  0  0  0  # atno 17320 bound_to 7965
  146.2951  140.4174  142.8724 LP  0  0  0  0  0  0  0  0  0  0  0  0  # atno 17321 bound_to 7965
  139.8019  143.8072  152.3163 LP  0  0  0  0  0  0  0  0  0  0  0  0  # atno 17342 bound_to 10162
  139.8091  144.7343  150.9721 LP  0  0  0  0  0  0  0  0  0  0  0  0  # atno 17343 bound_to 10162
  156.1572  130.6350  151.0672 LP  0  0  0  0  0  0  0  0  0  0  0  0  # atno 17370 bound_to 10713
  157.6885  131.0817  150.7176 LP  0  0  0  0  0  0  0  0  0  0  0  0  # atno 17371 bound_to 10713
  140.4077  134.2014  155.7163 LP  0  0  0  0  0  0  0  0  0  0  0  0  # atno 17394 bound_to 11000
  141.1880  133.8269  157.1010 LP  0  0  0  0  0  0  0  0  0  0  0  0  # atno 17395 bound_to 11000

$$$$
