AV-unprocessed.smi:893|AV-procd|sdf|4067|dock2
  -GOLD-   22720 1553D 1   1.00000     0.00000
 Structure written by MMmdl.
 27 28  0  0  0  0  0  0  0  0  1 V2000
  146.9397  134.2425  154.0792 C   0  0  0  0  0  0  0  0  0  0  0  0
  145.8368  135.3091  154.1671 C   0  0  0  0  0  0  0  0  0  0  0  0
  145.3550  135.8320  152.7929 C   0  0  2  0  0  0  0  0  0  0  0  0
  144.7227  134.7465  151.9412 C   0  0  0  0  0  0  0  0  0  0  0  0
  143.7076  133.8117  152.3036 C   0  0  0  0  0  0  0  0  0  0  0  0
  143.3769  132.9946  151.3176 N   0  0  0  0  0  0  0  0  0  0  0  0
  144.1638  133.3732  150.2912 N   0  0  0  0  0  0  0  0  0  0  0  0
  144.0688  132.6785  149.0253 C   0  0  0  0  0  0  0  0  0  0  0  0
  144.9822  134.4263  150.6360 C   0  0  0  0  0  0  0  0  0  0  0  0
  146.4207  136.5387  152.0953 N   0  0  0  0  0  0  0  0  0  0  0  0
  146.1217  137.8206  151.8451 C   0  0  0  0  0  0  0  0  0  0  0  0
  146.8372  138.6281  151.2575 O   0  0  0  0  0  0  0  0  0  0  0  0
  144.9110  138.0659  152.3545 N   0  0  0  0  0  0  0  0  0  0  0  0
  144.3805  136.9953  152.9432 C   0  0  0  0  0  0  0  0  0  0  0  0
  143.2932  136.9348  153.5158 O   0  0  0  0  0  0  0  0  0  0  0  0
  147.2395  133.9158  155.0750 H   0  0  0  0  0  0  0  0  0  0  0  0
  147.8278  134.6283  153.5785 H   0  0  0  0  0  0  0  0  0  0  0  0
  146.6019  133.3618  153.5326 H   0  0  0  0  0  0  0  0  0  0  0  0
  144.9924  134.8947  154.7196 H   0  0  0  0  0  0  0  0  0  0  0  0
  146.2061  136.1403  154.7702 H   0  0  0  0  0  0  0  0  0  0  0  0
  143.2022  133.7033  153.2520 H   0  0  0  0  0  0  0  0  0  0  0  0
  144.8027  133.0763  148.3236 H   0  0  0  0  0  0  0  0  0  0  0  0
  143.0705  132.8089  148.6068 H   0  0  0  0  0  0  0  0  0  0  0  0
  144.2601  131.6150  149.1723 H   0  0  0  0  0  0  0  0  0  0  0  0
  145.6791  134.8586  149.9331 H   0  0  0  0  0  0  0  0  0  0  0  0
  147.2834  136.0920  151.8203 H   0  0  0  0  0  0  0  0  0  0  0  0
  144.4552  138.9656  152.3094 H   0  0  0  0  0  0  0  0  0  0  0  0
  1  2  1  0  0  0  0
  1 16  1  0  0  0  0
  1 17  1  0  0  0  0
  1 18  1  0  0  0  0
  2  3  1  0  0  0  0
  2 19  1  0  0  0  0
  2 20  1  0  0  0  0
  3 14  1  0  0  0  0
  3  4  1  0  0  0  0
  3 10  1  0  0  0  0
  4  9  2  0  0  0  0
  4  5  1  0  0  0  0
  5  6  2  0  0  0  0
  5 21  1  0  0  0  0
  6  7  1  0  0  0  0
  7  8  1  0  0  0  0
  7  9  1  0  0  0  0
  8 22  1  0  0  0  0
  8 23  1  0  0  0  0
  8 24  1  0  0  0  0
  9 25  1  0  0  0  0
 10 11  1  0  0  0  0
 10 26  1  0  0  0  0
 11 12  2  0  0  0  0
 11 13  1  0  0  0  0
 13 14  1  0  0  0  0
 13 27  1  0  0  0  0
 14 15  2  0  0  0  0
M  END
> <s_m_source_file>
AV-unprocessed.smi

> <i_m_source_file_index>
893

> <i_lp_mmshare_version>
43012

> <i_f3d_flags>
0

> <s_epik_input>
Tz1DMVtOSF1DKD1PKVtOSF1bQ0BAXTEoW0NIMl1bQ0gzXSljMltjSF1ubihbQ0gzXSlbY0hdMg==

> <s_epik_cmdline>
J2VwaWtfcHl0aG9uJywgJy1waCcsICc3LjAnLCAnLXRuJywgJzgnLCAnLW1hJywgJzIwMCcsICctbWV0YWxfYmluZGluZycsICctaW1hZScsICc8aW5maWxlLm1hZT4nLCAnLW9tYWUnLCAnPG91dGZpbGUubWFlPic=

> <r_lp_tautomer_probability>
1

> <r_epik_Ionization_Penalty>
0.0236181

> <r_epik_Ionization_Penalty_Charging>
0

> <r_epik_Ionization_Penalty_Neutral>
0.0236181

> <r_epik_State_Penalty>
0.0189572

> <r_epik_Charging_Adjusted_Penalty>
0.0189572

> <i_epik_Tot_Q>
0

> <i_epik_Tot_abs_Q>
0

> <r_epik_Metal_State_Penalty>
0.411796

> <b_epik_Metal_Only>
0

> <s_lp_Force_Field>
OPLS_2005

> <r_lp_Energy>
15.567

> <b_lp_Chiralities_Consistent>
1

> <s_lp_Variant>
AV-unprocessed.smi:893-2

> <Gold.Version>
5.8.1

> <Gold.Id.Protein>
6NUR|6NUR_protein|mol2

> <Gold.PLP.Fitness>
37.8734

> <Gold.PLP.PLP>
-23.9388

> <Gold.PLP.part.hbond>
-3.9070

> <Gold.PLP.part.metal>
0.0000

> <Gold.PLP.part.buried>
-3.5038

> <Gold.PLP.part.nonpolar>
-18.2544

> <Gold.PLP.part.repulsive>
1.1378

> <Gold.PLP.ligand.clash>
0.0000

> <Gold.PLP.ligand.torsion>
0.3261

> <Gold.PLP.Chemscore.Hbond>
2.8240

> <Gold.PLP.Chemscore.CHOScore>
1.9810

> <Gold.PLP.Chemscore.Metal>
0.0000

> <Gold.Chemscore.Hbonds>
donor molecule, donor type, donor heavy atom, donor atom, acceptor molecule, acceptor atom, score
      L1  H    10    26       P1  7948  0.91
      L1  H    13    27       P1 10175  1.00
      P1  H  7954  7966       L1    12  0.96
      L1  C     5    21       P1 10957  1.00
      L1  C     9    25       P1  7921  1.00

> <Gold.PLP.Chemscore.Internal.Correction>
0.1718

> <Gold.Rescore>
     Score         DG    S(hbond)    S(metal)    S(lipo)     H(rot)  DE(clash)    DE(int)     intcor
     15.10     -15.42       2.74        0.00      35.20       1.30       0.23       0.10       ----

> <Gold.Chemscore.Fitness>
15.0954

> <Gold.Chemscore.DG>
-15.4233

> <Gold.Chemscore.ZeroCoef>
-5.4800

> <Gold.Chemscore.Hbond>
2.7368

> <Gold.Chemscore.Metal>
0.0000

> <Gold.Chemscore.Lipo>
35.2034

> <Gold.Chemscore.Internal_Hbond>
0.0000

> <Gold.Chemscore.DEClash>
0.2303

> <Gold.Chemscore.DEInternal>
0.0976

> <Gold.Chemscore.Rot>
1.2955

> <Gold.Chemscore.Internal.Correction>
   9.000000E+99

> <Gold.Chemscore.Hbonds>
donor molecule, donor type, donor heavy atom, donor atom, acceptor molecule, acceptor atom, score
      L1  H    10    26       P1  7948  0.88
      L1  H    13    27       P1 10175  1.00
      P1  H  7954  7966       L1    12  0.83

> <Gold.Chemscore.Hbond.Weighted>
-9.1409

> <Gold.Chemscore.Metal.Weighted>
-0.0000

> <Gold.Chemscore.Lipo.Weighted>
-4.1188

> <Gold.Chemscore.Internal_Hbond.Weighted>
0.0000

> <Gold.Chemscore.DEClash.Weighted>
0.2303

> <Gold.Chemscore.DEInternal.Weighted>
0.0976

> <Gold.Chemscore.Rot.Weighted>
3.3164

> <Gold.Chemscore.Internal.Correction.Weighted>
   9.000000E+99

> <Gold.Protein.RotatedTorsions>
[ 6907 6896 6895 6894 ] final -160.71 input  -60.11 | X-H torsion
[ 7974 7965 7964 7962 ] final  -12.77 input  175.53 | X-H torsion
[ 8008 7997 7996 7995 ] final -169.84 input   59.86 | X-H torsion
[ 10167 10162 10161 10158 ] final  -59.37 input  -65.29 | X-H torsion
[ 10718 10713 10712 10709 ] final -125.85 input   66.30 | X-H torsion
[ 10763 10752 10751 10750 ] final  -55.03 input  -60.55 | X-H torsion
[ 11005 11000 10999 10996 ] final  -40.55 input  -57.11 | X-H torsion

> <Gold.Protein.ActiveResidues>
 VAL166  LYS551  ARG553  GLY616  TRP617  ASP618  TYR619  PRO620  LYS621  CYS622 
 ASP623  PHE694  ASN695  SER759  ASP760  ASP761  ALA762  ILE779  LEU786  VAL792 
 PHE793  MET794  SER795  GLU796  ALA797  LYS798  CYS799  TRP800  GLU811  SER814 

> <Gold.Protein.RotatedAtoms>
  151.3533  133.3917  159.2682 H   0  0  0  0  0  0  0  0  0  0  0  0  # atno 6907 bound_to 6896
  150.9784  134.9145  159.7840 H   0  0  0  0  0  0  0  0  0  0  0  0  # atno 6908 bound_to 6896
  152.5209  134.3496  159.9298 H   0  0  0  0  0  0  0  0  0  0  0  0  # atno 6909 bound_to 6896
  146.2139  140.3106  142.8382 H   0  0  0  0  0  0  0  0  0  0  0  0  # atno 7974 bound_to 7965
  155.9103  140.1056  157.1284 H   0  0  0  0  0  0  0  0  0  0  0  0  # atno 8008 bound_to 7997
  154.4038  140.1275  156.4614 H   0  0  0  0  0  0  0  0  0  0  0  0  # atno 8009 bound_to 7997
  155.7318  140.3468  155.5065 H   0  0  0  0  0  0  0  0  0  0  0  0  # atno 8010 bound_to 7997
  140.6139  143.2396  151.5643 H   0  0  0  0  0  0  0  0  0  0  0  0  # atno 10167 bound_to 10162
  156.1712  130.6669  151.0183 H   0  0  0  0  0  0  0  0  0  0  0  0  # atno 10718 bound_to 10713
  154.1843  135.6438  153.5042 H   0  0  0  0  0  0  0  0  0  0  0  0  # atno 10763 bound_to 10752
  153.0051  135.5413  154.6482 H   0  0  0  0  0  0  0  0  0  0  0  0  # atno 10764 bound_to 10752
  154.5854  135.2929  155.0663 H   0  0  0  0  0  0  0  0  0  0  0  0  # atno 10765 bound_to 10752
  141.0182  133.6875  156.2336 H   0  0  0  0  0  0  0  0  0  0  0  0  # atno 11005 bound_to 11000
  144.8991  140.7620  143.5878 LP  0  0  0  0  0  0  0  0  0  0  0  0  # atno 17320 bound_to 7965
  145.3032  139.1843  143.4678 LP  0  0  0  0  0  0  0  0  0  0  0  0  # atno 17321 bound_to 7965
  139.5383  144.2719  152.1298 LP  0  0  0  0  0  0  0  0  0  0  0  0  # atno 17342 bound_to 10162
  140.1924  144.4739  150.6472 LP  0  0  0  0  0  0  0  0  0  0  0  0  # atno 17343 bound_to 10162
  157.6804  131.0839  150.7384 LP  0  0  0  0  0  0  0  0  0  0  0  0  # atno 17370 bound_to 10713
  156.7443  130.4749  149.5470 LP  0  0  0  0  0  0  0  0  0  0  0  0  # atno 17371 bound_to 10713
  140.6618  134.4960  157.5583 LP  0  0  0  0  0  0  0  0  0  0  0  0  # atno 17394 bound_to 11000
  139.9130  134.8305  156.1462 LP  0  0  0  0  0  0  0  0  0  0  0  0  # atno 17395 bound_to 11000

$$$$
