#       Name:                AV-unprocessed.smi:1920
#       Creating user name   scv26
#       Creation time:       Fri Mar 27 09:52:11 2020


#       File generated by GOLD software.
#

@<TRIPOS>MOLECULE
AV-unprocessed.smi:1920
    39    40     1
SMALL
NO_CHARGES


@<TRIPOS>ATOM
      1 ****        -3.0423  -1.4956  -0.9287 C.3            1 S1                 0.0000
      2 ****        -2.2988  -0.5138  -0.0130 C.3            1 S1                 0.0000
      3 ****        -2.8147  -0.6037   1.4391 C.3            1 S1                 0.0000
      4 ****        -2.2825   0.4567   2.3017 N.pl3          1 S1                 0.0000
      5 ****        -2.6163   1.7869   2.2835 C.2            1 S1                 0.0000
      6 ****        -1.8617   2.3924   3.2548 C.2            1 S1                 0.0000
      7 ****        -1.1050   1.4064   3.8289 N.pl3          1 S1                 1.0000
      8 ****        -1.3656   0.2291   3.2512 C.2            1 S1                 0.0000
      9 ****        -0.8656  -0.7963  -0.0849 N.am           1 S1                 0.0000
     10 ****         0.1171   0.1185  -0.0714 C.2            1 S1                 0.0000
     11 ****        -0.0849   1.3272   0.0463 O.2            1 S1                 0.0000
     12 ****         1.5481  -0.4150  -0.1976 C.3            1 S1                 0.0000
     13 ****         2.4139   0.3663  -1.2101 C.3            1 S1                 0.0000
     14 ****         1.8861   0.3205  -2.6241 C.2            1 S1                 0.0000
     15 ****         2.8025  -0.0808  -3.5020 C.2            1 S1                 0.0000
     16 ****         4.1251  -0.3846  -2.8550 C.3            1 S1                 0.0000
     17 ****         3.8518  -0.1970  -1.3459 C.3            1 S1                 0.0000
     18 ****        -4.1139  -1.2942  -0.9329 H              1 S1                 0.0000
     19 ****        -2.8994  -2.5275  -0.6060 H              1 S1                 0.0000
     20 ****        -2.6906  -1.4164  -1.9579 H              1 S1                 0.0000
     21 ****        -2.4944   0.4899  -0.3954 H              1 S1                 0.0000
     22 ****        -3.9014  -0.5118   1.4592 H              1 S1                 0.0000
     23 ****        -2.5725  -1.5721   1.8805 H              1 S1                 0.0000
     24 ****        -3.3406   2.1941   1.5929 H              1 S1                 0.0000
     25 ****        -1.8075   3.4240   3.5713 H              1 S1                 0.0000
     26 ****        -0.9160  -0.7163   3.4975 H              1 S1                 0.0000
     27 ****        -0.6008  -1.7659  -0.1842 H              1 S1                 0.0000
     28 ****         2.0101  -0.3702   0.7891 H              1 S1                 0.0000
     29 ****         1.5200  -1.4698  -0.4765 H              1 S1                 0.0000
     30 ****         2.4678   1.4161  -0.9173 H              1 S1                 0.0000
     31 ****         0.8746   0.6059  -2.8741 H              1 S1                 0.0000
     32 ****         2.6470  -0.1727  -4.5668 H              1 S1                 0.0000
     33 ****         4.4444  -1.4011  -3.0867 H              1 S1                 0.0000
     34 ****         4.8822   0.3113  -3.2173 H              1 S1                 0.0000
     35 ****         4.5832   0.4710  -0.8901 H              1 S1                 0.0000
     36 ****         3.9417  -1.1585  -0.8386 H              1 S1                 0.0000
     37 ****        -0.4419   1.5457   4.5811 H              1 S1                 0.0000
     38 ****        -1.0193   1.6714   0.1382 LP             1 S1                 0.0000
     39 ****         0.6854   1.9649   0.0500 LP             1 S1                 0.0000
@<TRIPOS>BOND
    1    1    2 1     
    2    1   18 1     
    3    1   19 1     
    4    1   20 1     
    5    2    3 1     
    6    2    9 1     
    7    2   21 1     
    8    3    4 1     
    9    3   22 1     
   10    3   23 1     
   11    4    8 1     
   12    4    5 1     
   13    5    6 2     
   14    5   24 1     
   15    6    7 1     
   16    6   25 1     
   17    7    8 2     
   18    7   37 1     
   19    8   26 1     
   20    9   10 am    
   21    9   27 1     
   22   10   11 2     
   23   10   12 1     
   24   12   13 1     
   25   12   28 1     
   26   12   29 1     
   27   13   17 1     
   28   13   14 1     
   29   13   30 1     
   30   14   15 2     
   31   14   31 1     
   32   15   16 1     
   33   15   32 1     
   34   16   17 1     
   35   16   33 1     
   36   16   34 1     
   37   17   35 1     
   38   17   36 1     
   39   11   38 1     
   40   11   39 1     
@<TRIPOS>SUBSTRUCTURE
      1 S1             1
@<TRIPOS>SET
LONE_PAIRS      STATIC     ATOMS    <user>   **** ""
2 38 39
DONOR_HYDROGENS      STATIC     ATOMS    <user>   **** ""
2 37 27
ATOM$BLUE        STATIC     ATOMS    COLORGROUP SYSTEM
2 38 39
ATOM$RED        STATIC     ATOMS    COLORGROUP SYSTEM
2 37 27
