AV-unprocessed.smi:1406|AV-procd|sdf|5709|dock6
  -GOLD-   22720 5343D 1   1.00000     0.00000
 Structure written by MMmdl.
 41 43  0  0  0  0  0  0  0  0  2 V2000
  150.1993  134.2299  154.9317 C   0  0  0  0  0  0  0  0  0  0  0  0
  149.4881  133.2106  154.0187 C   0  0  2  0  0  0  0  0  0  0  0  0
  147.9634  133.3995  153.9937 C   0  0  0  0  0  0  0  0  0  0  0  0
  147.2135  132.5251  154.4287 O   0  0  0  0  0  0  0  0  0  0  0  0
  147.5177  134.5546  153.4743 N   0  0  0  0  0  0  0  0  0  0  0  0
  146.1146  134.9299  153.3291 C   0  0  2  0  0  0  0  0  0  0  0  0
  145.4429  135.2510  154.6591 C   0  0  0  0  0  0  0  0  0  0  0  0
  143.9600  135.1103  154.3134 C   0  0  0  0  0  0  0  0  0  0  0  0
  143.8797  134.0246  153.3102 N   0  3  1  0  0  0  0  0  0  0  0  0
  142.8081  134.1941  152.2986 C   0  0  0  0  0  0  0  0  0  0  0  0
  142.8056  133.0131  151.3114 C   0  0  0  0  0  0  0  0  0  0  0  0
  144.1933  132.7382  150.6955 C   0  0  0  0  0  0  0  0  0  0  0  0
  145.2733  133.6952  151.2241 C   0  0  0  0  0  0  0  0  0  0  0  0
  145.2480  133.7891  152.7670 C   0  0  1  0  0  0  0  0  0  0  0  0
  149.8171  131.8340  154.3671 N   0  0  0  0  0  0  0  0  0  0  0  0
  149.4972  130.6936  153.7512 C   0  0  0  0  0  0  0  0  0  0  0  0
  149.9242  129.6054  154.3760 N   0  0  0  0  0  0  0  0  0  0  0  0
  150.5352  130.1849  155.4517 C   0  0  0  0  0  0  0  0  0  0  0  0
  150.4899  131.5160  155.5013 N   0  0  0  0  0  0  0  0  0  0  0  0
  149.9815  135.2528  154.6230 H   0  0  0  0  0  0  0  0  0  0  0  0
  151.2812  134.1002  154.8878 H   0  0  0  0  0  0  0  0  0  0  0  0
  149.8981  134.1289  155.9751 H   0  0  0  0  0  0  0  0  0  0  0  0
  149.8543  133.3793  153.0043 H   0  0  0  0  0  0  0  0  0  0  0  0
  148.2035  135.2168  153.1413 H   0  0  0  0  0  0  0  0  0  0  0  0
  146.0239  135.8120  152.6912 H   0  0  0  0  0  0  0  0  0  0  0  0
  145.7209  134.5158  155.4161 H   0  0  0  0  0  0  0  0  0  0  0  0
  145.6975  136.2417  155.0373 H   0  0  0  0  0  0  0  0  0  0  0  0
  143.3457  134.8923  155.1874 H   0  0  0  0  0  0  0  0  0  0  0  0
  143.6020  136.0455  153.8791 H   0  0  0  0  0  0  0  0  0  0  0  0
  141.8427  134.2623  152.8013 H   0  0  0  0  0  0  0  0  0  0  0  0
  142.9494  135.1335  151.7615 H   0  0  0  0  0  0  0  0  0  0  0  0
  142.4625  132.1158  151.8285 H   0  0  0  0  0  0  0  0  0  0  0  0
  142.0778  133.1989  150.5207 H   0  0  0  0  0  0  0  0  0  0  0  0
  144.4851  131.7109  150.9168 H   0  0  0  0  0  0  0  0  0  0  0  0
  144.1420  132.8088  149.6085 H   0  0  0  0  0  0  0  0  0  0  0  0
  146.2548  133.3661  150.8828 H   0  0  0  0  0  0  0  0  0  0  0  0
  145.1200  134.6835  150.7879 H   0  0  0  0  0  0  0  0  0  0  0  0
  145.5793  132.8381  153.1879 H   0  0  0  0  0  0  0  0  0  0  0  0
  148.9361  130.6581  152.8291 H   0  0  0  0  0  0  0  0  0  0  0  0
  151.0209  129.6084  156.2251 H   0  0  0  0  0  0  0  0  0  0  0  0
  143.6503  133.1838  153.8208 H   0  0  0  0  0  0  0  0  0  0  0  0
  1  2  1  0  0  0  0
  1 20  1  0  0  0  0
  1 21  1  0  0  0  0
  1 22  1  0  0  0  0
  2  3  1  0  0  0  0
  2 15  1  0  0  0  0
  2 23  1  0  0  0  0
  3  4  2  0  0  0  0
  3  5  1  0  0  0  0
  5  6  1  0  0  0  0
  5 24  1  0  0  0  0
  6 14  1  0  0  0  0
  6  7  1  0  0  0  0
  6 25  1  0  0  0  0
  7  8  1  0  0  0  0
  7 26  1  0  0  0  0
  7 27  1  0  0  0  0
  8  9  1  0  0  0  0
  8 28  1  0  0  0  0
  8 29  1  0  0  0  0
  9 14  1  0  0  0  0
  9 10  1  0  0  0  0
  9 41  1  0  0  0  0
 10 11  1  0  0  0  0
 10 30  1  0  0  0  0
 10 31  1  0  0  0  0
 11 12  1  0  0  0  0
 11 32  1  0  0  0  0
 11 33  1  0  0  0  0
 12 13  1  0  0  0  0
 12 34  1  0  0  0  0
 12 35  1  0  0  0  0
 13 14  1  0  0  0  0
 13 36  1  0  0  0  0
 13 37  1  0  0  0  0
 14 38  1  0  0  0  0
 15 19  1  0  0  0  0
 15 16  1  0  0  0  0
 16 17  2  0  0  0  0
 16 39  1  0  0  0  0
 17 18  1  0  0  0  0
 18 19  2  0  0  0  0
 18 40  1  0  0  0  0
M  CHG  1   9   1
M  END
> <s_m_source_file>
AV-unprocessed.smi

> <i_m_source_file_index>
1406

> <i_lp_mmshare_version>
43012

> <i_f3d_flags>
0

> <s_epik_input>
bjFbY0hdbltjSF1uMVtDQEhdKFtDSDNdKUMoPU8pW05IXVtDQEhdKFtDSDJdW0NIMl0yKVtDQEBIXShOMjMpW0NIMl1bQ0gyXVtDSDJdW0NIMl0z

> <s_epik_cmdline>
J2VwaWtfcHl0aG9uJywgJy1waCcsICc3LjAnLCAnLXRuJywgJzgnLCAnLW1hJywgJzIwMCcsICctbWV0YWxfYmluZGluZycsICctaW1hZScsICc8aW5maWxlLm1hZT4nLCAnLW9tYWUnLCAnPG91dGZpbGUubWFlPic=

> <r_lp_tautomer_probability>
1

> <r_epik_Ionization_Penalty>
0.00197066

> <r_epik_Ionization_Penalty_Charging>
0.00196223

> <r_epik_Ionization_Penalty_Neutral>
8.43107e-06

> <r_epik_State_Penalty>
0.00133866

> <r_epik_Charging_Adjusted_Penalty>
0.00330089

> <i_epik_Tot_Q>
1

> <i_epik_Tot_abs_Q>
1

> <r_epik_Metal_State_Penalty>
-0

> <b_epik_Metal_Only>
0

> <s_lp_Force_Field>
OPLS_2005

> <r_lp_Energy>
45.3265

> <b_lp_Chiralities_Consistent>
1

> <s_lp_Variant>
AV-unprocessed.smi:1406-1

> <Gold.Version>
5.8.1

> <Gold.Id.Protein>
6NUR|6NUR_protein|mol2

> <Gold.PLP.Fitness>
37.8273

> <Gold.PLP.PLP>
-26.5717

> <Gold.PLP.part.hbond>
-2.0000

> <Gold.PLP.part.metal>
0.0000

> <Gold.PLP.part.buried>
-3.0085

> <Gold.PLP.part.nonpolar>
-20.4960

> <Gold.PLP.part.repulsive>
0.1216

> <Gold.PLP.ligand.clash>
0.0000

> <Gold.PLP.ligand.torsion>
0.3551

> <Gold.PLP.Chemscore.Hbond>
3.0000

> <Gold.PLP.Chemscore.CHOScore>
0.9543

> <Gold.PLP.Chemscore.Metal>
0.0000

> <Gold.Chemscore.Hbonds>
donor molecule, donor type, donor heavy atom, donor atom, acceptor molecule, acceptor atom, score
      L1  H     5    24       P1  7948  1.00
      L1  H     9    41       P1 10957  2.00
      L1  C    16    39       P1 10747  1.00

> <Gold.PLP.Chemscore.Internal.Correction>
0.1028

> <Gold.Rescore>
     Score         DG    S(hbond)    S(metal)    S(lipo)     H(rot)  DE(clash)    DE(int)     intcor
     11.40     -13.32       1.95        0.00      52.68       1.89       0.11       1.81       ----

> <Gold.Chemscore.Fitness>
11.4022

> <Gold.Chemscore.DG>
-13.3210

> <Gold.Chemscore.ZeroCoef>
-5.4800

> <Gold.Chemscore.Hbond>
1.9481

> <Gold.Chemscore.Metal>
0.0000

> <Gold.Chemscore.Lipo>
52.6826

> <Gold.Chemscore.Internal_Hbond>
0.0000

> <Gold.Chemscore.DEClash>
0.1120

> <Gold.Chemscore.DEInternal>
1.8068

> <Gold.Chemscore.Rot>
1.8865

> <Gold.Chemscore.Internal.Correction>
   9.000000E+99

> <Gold.Chemscore.Hbonds>
donor molecule, donor type, donor heavy atom, donor atom, acceptor molecule, acceptor atom, score
      L1  H     5    24       P1  7948  0.95
      L1  H     9    41       P1 10957  0.97

> <Gold.Chemscore.Hbond.Weighted>
-6.5067

> <Gold.Chemscore.Metal.Weighted>
-0.0000

> <Gold.Chemscore.Lipo.Weighted>
-6.1639

> <Gold.Chemscore.Internal_Hbond.Weighted>
0.0000

> <Gold.Chemscore.DEClash.Weighted>
0.1120

> <Gold.Chemscore.DEInternal.Weighted>
1.8068

> <Gold.Chemscore.Rot.Weighted>
4.8295

> <Gold.Chemscore.Internal.Correction.Weighted>
   9.000000E+99

> <Gold.Protein.RotatedTorsions>
[ 6907 6896 6895 6894 ] final -146.38 input  -60.11 | X-H torsion
[ 7974 7965 7964 7962 ] final   91.79 input  175.53 | X-H torsion
[ 8008 7997 7996 7995 ] final  141.86 input   59.86 | X-H torsion
[ 10167 10162 10161 10158 ] final -168.12 input  -65.29 | X-H torsion
[ 10718 10713 10712 10709 ] final -123.95 input   66.30 | X-H torsion
[ 10763 10752 10751 10750 ] final   19.68 input  -60.55 | X-H torsion
[ 11005 11000 10999 10996 ] final  -16.83 input  -57.11 | X-H torsion

> <Gold.Protein.ActiveResidues>
 VAL166  LYS551  ARG553  GLY616  TRP617  ASP618  TYR619  PRO620  LYS621  CYS622 
 ASP623  PHE694  ASN695  SER759  ASP760  ASP761  ALA762  ILE779  LEU786  VAL792 
 PHE793  MET794  SER795  GLU796  ALA797  LYS798  CYS799  TRP800  GLU811  SER814 

> <Gold.Protein.RotatedAtoms>
  151.1409  133.4972  159.2596 H   0  0  0  0  0  0  0  0  0  0  0  0  # atno 6907 bound_to 6896
  151.1656  135.0293  159.8739 H   0  0  0  0  0  0  0  0  0  0  0  0  # atno 6908 bound_to 6896
  152.5462  134.1278  159.8479 H   0  0  0  0  0  0  0  0  0  0  0  0  # atno 6909 bound_to 6896
  145.5010  139.2276  143.2777 H   0  0  0  0  0  0  0  0  0  0  0  0  # atno 7974 bound_to 7965
  156.2959  140.2304  156.4634 H   0  0  0  0  0  0  0  0  0  0  0  0  # atno 8008 bound_to 7997
  154.7999  140.0449  157.1285 H   0  0  0  0  0  0  0  0  0  0  0  0  # atno 8009 bound_to 7997
  154.9546  140.3046  155.5062 H   0  0  0  0  0  0  0  0  0  0  0  0  # atno 8010 bound_to 7997
  139.6006  144.1019  152.1738 H   0  0  0  0  0  0  0  0  0  0  0  0  # atno 10167 bound_to 10162
  156.1546  130.6559  150.9963 H   0  0  0  0  0  0  0  0  0  0  0  0  # atno 10718 bound_to 10713
  153.1141  135.6704  153.9448 H   0  0  0  0  0  0  0  0  0  0  0  0  # atno 10763 bound_to 10752
  153.8983  135.3039  155.3449 H   0  0  0  0  0  0  0  0  0  0  0  0  # atno 10764 bound_to 10752
  154.7559  135.5012  153.9451 H   0  0  0  0  0  0  0  0  0  0  0  0  # atno 10765 bound_to 10752
  140.8107  133.8143  155.9560 H   0  0  0  0  0  0  0  0  0  0  0  0  # atno 11005 bound_to 11000
  146.2226  140.5811  142.9010 LP  0  0  0  0  0  0  0  0  0  0  0  0  # atno 17320 bound_to 7965
  144.7780  140.5780  143.6625 LP  0  0  0  0  0  0  0  0  0  0  0  0  # atno 17321 bound_to 7965
  140.0615  144.5853  150.7260 LP  0  0  0  0  0  0  0  0  0  0  0  0  # atno 17342 bound_to 10162
  140.7246  143.2623  151.4163 LP  0  0  0  0  0  0  0  0  0  0  0  0  # atno 17343 bound_to 10162
  157.6684  131.0866  150.7671 LP  0  0  0  0  0  0  0  0  0  0  0  0  # atno 17370 bound_to 10713
  156.7737  130.4837  149.5413 LP  0  0  0  0  0  0  0  0  0  0  0  0  # atno 17371 bound_to 10713
  140.9201  134.2153  157.4932 LP  0  0  0  0  0  0  0  0  0  0  0  0  # atno 17394 bound_to 11000
  139.8714  134.9788  156.5013 LP  0  0  0  0  0  0  0  0  0  0  0  0  # atno 17395 bound_to 11000

$$$$
