AV-unprocessed.smi:2438|AV-procd|sdf|9595|dock5
  -GOLD-   2272013223D 1   1.00000     0.00000
 Structure written by MMmdl.
 43 44  0  0  0  0  0  0  0  0  1 V2000
  150.7738  136.0616  157.2062 C   0  0  0  0  0  0  0  0  0  0  0  0
  150.0605  136.3189  155.9627 N   0  0  0  0  0  0  0  0  0  0  0  0
  150.1574  135.2842  154.9407 C   0  0  0  0  0  0  0  0  0  0  0  0
  150.1829  137.6506  155.5171 C   0  0  0  0  0  0  0  0  0  0  0  0
  151.2018  138.3948  156.0118 N   0  0  0  0  0  0  0  0  0  0  0  0
  151.2999  139.6597  155.6001 C   0  0  0  0  0  0  0  0  0  0  0  0
  150.4966  140.2807  154.7367 N   0  0  0  0  0  0  0  0  0  0  0  0
  149.4760  139.5588  154.2294 C   0  0  0  0  0  0  0  0  0  0  0  0
  149.2563  138.2078  154.5966 C   0  0  0  0  0  0  0  0  0  0  0  0
  148.2206  137.4036  154.0441 N   0  0  0  0  0  0  0  0  0  0  0  0
  147.3205  137.7405  153.1065 C   0  0  0  0  0  0  0  0  0  0  0  0
  147.2596  138.8308  152.5390 O   0  0  0  0  0  0  0  0  0  0  0  0
  146.4654  136.7346  152.8758 N   0  0  0  0  0  0  0  0  0  0  0  0
  145.3420  136.7718  151.9405 C   0  0  2  0  0  0  0  0  0  0  0  0
  143.9913  136.8546  152.6823 C   0  0  0  0  0  0  0  0  0  0  0  0
  143.6536  135.5453  153.4134 C   0  0  0  0  0  0  0  0  0  0  0  0
  143.6820  134.3471  152.4517 C   0  0  0  0  0  0  0  0  0  0  0  0
  145.0420  134.2243  151.7324 C   0  0  1  0  0  0  0  0  0  0  0  0
  145.0830  133.0139  150.7766 C   0  0  0  0  0  0  0  0  0  0  0  0
  146.3051  132.8497  150.2693 F   0  0  0  0  0  0  0  0  0  0  0  0
  144.7348  131.9054  151.4303 F   0  0  0  0  0  0  0  0  0  0  0  0
  144.2211  133.1935  149.7757 F   0  0  0  0  0  0  0  0  0  0  0  0
  145.3830  135.5461  151.0058 C   0  0  0  0  0  0  0  0  0  0  0  0
  150.4295  136.7115  158.0105 H   0  0  0  0  0  0  0  0  0  0  0  0
  151.8443  136.2220  157.0719 H   0  0  0  0  0  0  0  0  0  0  0  0
  150.6231  135.0300  157.5257 H   0  0  0  0  0  0  0  0  0  0  0  0
  149.5697  135.5485  154.0608 H   0  0  0  0  0  0  0  0  0  0  0  0
  149.7762  134.3379  155.3253 H   0  0  0  0  0  0  0  0  0  0  0  0
  151.1937  135.1350  154.6348 H   0  0  0  0  0  0  0  0  0  0  0  0
  152.1163  140.2388  156.0050 H   0  0  0  0  0  0  0  0  0  0  0  0
  148.8593  140.0709  153.5073 H   0  0  0  0  0  0  0  0  0  0  0  0
  148.0947  136.5024  154.4818 H   0  0  0  0  0  0  0  0  0  0  0  0
  146.5939  135.8778  153.3939 H   0  0  0  0  0  0  0  0  0  0  0  0
  145.4515  137.6640  151.3211 H   0  0  0  0  0  0  0  0  0  0  0  0
  143.9890  137.6874  153.3865 H   0  0  0  0  0  0  0  0  0  0  0  0
  143.2025  137.0706  151.9606 H   0  0  0  0  0  0  0  0  0  0  0  0
  144.3628  135.3815  154.2257 H   0  0  0  0  0  0  0  0  0  0  0  0
  142.6699  135.6247  153.8770 H   0  0  0  0  0  0  0  0  0  0  0  0
  143.4673  133.4342  153.0075 H   0  0  0  0  0  0  0  0  0  0  0  0
  142.8833  134.4542  151.7166 H   0  0  0  0  0  0  0  0  0  0  0  0
  145.8034  134.0554  152.4954 H   0  0  0  0  0  0  0  0  0  0  0  0
  144.6724  135.7007  150.1929 H   0  0  0  0  0  0  0  0  0  0  0  0
  146.3648  135.4763  150.5357 H   0  0  0  0  0  0  0  0  0  0  0  0
  1  2  1  0  0  0  0
  1 24  1  0  0  0  0
  1 25  1  0  0  0  0
  1 26  1  0  0  0  0
  2  3  1  0  0  0  0
  2  4  1  0  0  0  0
  3 27  1  0  0  0  0
  3 28  1  0  0  0  0
  3 29  1  0  0  0  0
  4  9  1  0  0  0  0
  4  5  2  0  0  0  0
  5  6  1  0  0  0  0
  6  7  2  0  0  0  0
  6 30  1  0  0  0  0
  7  8  1  0  0  0  0
  8  9  2  0  0  0  0
  8 31  1  0  0  0  0
  9 10  1  0  0  0  0
 10 11  1  0  0  0  0
 10 32  1  0  0  0  0
 11 12  2  0  0  0  0
 11 13  1  0  0  0  0
 13 14  1  0  0  0  0
 13 33  1  0  0  0  0
 14 23  1  0  0  0  0
 14 15  1  0  0  0  0
 14 34  1  0  0  0  0
 15 16  1  0  0  0  0
 15 35  1  0  0  0  0
 15 36  1  0  0  0  0
 16 17  1  0  0  0  0
 16 37  1  0  0  0  0
 16 38  1  0  0  0  0
 17 18  1  0  0  0  0
 17 39  1  0  0  0  0
 17 40  1  0  0  0  0
 18 19  1  0  0  0  0
 18 23  1  0  0  0  0
 18 41  1  0  0  0  0
 19 20  1  0  0  0  0
 19 21  1  0  0  0  0
 19 22  1  0  0  0  0
 23 42  1  0  0  0  0
 23 43  1  0  0  0  0
M  END
> <s_m_source_file>
AV-unprocessed.smi

> <i_m_source_file_index>
2438

> <i_lp_mmshare_version>
43012

> <i_f3d_flags>
0

> <s_epik_input>
W0NIM11OKFtDSDNdKWMxbltjSF1uW2NIXWMxW05IXUMoPU8pW05IXVtDQEBIXTJbQ0gyXVtDSDJdW0NIMl1bQ0BASF0oQyhGKShGKUYpW0NIMl0y

> <s_epik_cmdline>
J2VwaWtfcHl0aG9uJywgJy1waCcsICc3LjAnLCAnLXRuJywgJzgnLCAnLW1hJywgJzIwMCcsICctbWV0YWxfYmluZGluZycsICctaW1hZScsICc8aW5maWxlLm1hZT4nLCAnLW9tYWUnLCAnPG91dGZpbGUubWFlPic=

> <r_lp_tautomer_probability>
1

> <r_epik_Ionization_Penalty>
0.01759

> <r_epik_Ionization_Penalty_Charging>
0

> <r_epik_Ionization_Penalty_Neutral>
0.01759

> <r_epik_State_Penalty>
0.0133536

> <r_epik_Charging_Adjusted_Penalty>
0.0133536

> <i_epik_Tot_Q>
0

> <i_epik_Tot_abs_Q>
0

> <r_epik_Metal_State_Penalty>
0.0129828

> <b_epik_Metal_Only>
0

> <s_lp_Force_Field>
OPLS_2005

> <r_lp_Energy>
11.7103

> <b_lp_Chiralities_Consistent>
1

> <s_lp_Variant>
AV-unprocessed.smi:2438-1

> <Gold.Version>
5.8.1

> <Gold.Id.Protein>
6NUR|6NUR_protein|mol2

> <Gold.PLP.Fitness>
37.8252

> <Gold.PLP.PLP>
-33.2472

> <Gold.PLP.part.hbond>
-3.0000

> <Gold.PLP.part.metal>
0.0000

> <Gold.PLP.part.buried>
-1.6372

> <Gold.PLP.part.nonpolar>
-30.9296

> <Gold.PLP.part.repulsive>
1.2221

> <Gold.PLP.ligand.clash>
0.0000

> <Gold.PLP.ligand.torsion>
0.4241

> <Gold.PLP.Chemscore.Hbond>
1.0000

> <Gold.PLP.Chemscore.CHOScore>
0.6935

> <Gold.PLP.Chemscore.Metal>
0.0000

> <Gold.Chemscore.Hbonds>
donor molecule, donor type, donor heavy atom, donor atom, acceptor molecule, acceptor atom, score
      P1  H  7989  7998       L1     7  1.00
      L1  C     8    31       P1  7957  0.75

> <Gold.PLP.Chemscore.Internal.Correction>
0.3456

> <Gold.Rescore>
     Score         DG    S(hbond)    S(metal)    S(lipo)     H(rot)  DE(clash)    DE(int)     intcor
      6.37     -11.53       0.82        0.00      56.67       1.30       3.25       1.91       ----

> <Gold.Chemscore.Fitness>
6.3658

> <Gold.Chemscore.DG>
-11.5301

> <Gold.Chemscore.ZeroCoef>
-5.4800

> <Gold.Chemscore.Hbond>
0.8216

> <Gold.Chemscore.Metal>
0.0000

> <Gold.Chemscore.Lipo>
56.6708

> <Gold.Chemscore.Internal_Hbond>
0.0000

> <Gold.Chemscore.DEClash>
3.2515

> <Gold.Chemscore.DEInternal>
1.9128

> <Gold.Chemscore.Rot>
1.2987

> <Gold.Chemscore.Internal.Correction>
   9.000000E+99

> <Gold.Chemscore.Hbonds>
donor molecule, donor type, donor heavy atom, donor atom, acceptor molecule, acceptor atom, score
      P1  H  7989  7998       L1     7  0.33

> <Gold.Chemscore.Hbond.Weighted>
-2.7442

> <Gold.Chemscore.Metal.Weighted>
-0.0000

> <Gold.Chemscore.Lipo.Weighted>
-6.6305

> <Gold.Chemscore.Internal_Hbond.Weighted>
0.0000

> <Gold.Chemscore.DEClash.Weighted>
3.2515

> <Gold.Chemscore.DEInternal.Weighted>
1.9128

> <Gold.Chemscore.Rot.Weighted>
3.3246

> <Gold.Chemscore.Internal.Correction.Weighted>
   9.000000E+99

> <Gold.Protein.RotatedTorsions>
[ 6907 6896 6895 6894 ] final  -14.07 input  -60.11 | X-H torsion
[ 7974 7965 7964 7962 ] final   32.23 input  175.53 | X-H torsion
[ 8008 7997 7996 7995 ] final -171.72 input   59.86 | X-H torsion
[ 10167 10162 10161 10158 ] final -126.29 input  -65.29 | X-H torsion
[ 10718 10713 10712 10709 ] final   93.68 input   66.30 | X-H torsion
[ 10763 10752 10751 10750 ] final -108.04 input  -60.55 | X-H torsion
[ 11005 11000 10999 10996 ] final  -65.27 input  -57.11 | X-H torsion

> <Gold.Protein.ActiveResidues>
 VAL166  LYS551  ARG553  GLY616  TRP617  ASP618  TYR619  PRO620  LYS621  CYS622 
 ASP623  PHE694  ASN695  SER759  ASP760  ASP761  ALA762  ILE779  LEU786  VAL792 
 PHE793  MET794  SER795  GLU796  ALA797  LYS798  CYS799  TRP800  GLU811  SER814 

> <Gold.Protein.RotatedAtoms>
  151.3451  135.0872  159.9384 H   0  0  0  0  0  0  0  0  0  0  0  0  # atno 6907 bound_to 6896
  152.5201  133.9408  159.7636 H   0  0  0  0  0  0  0  0  0  0  0  0  # atno 6908 bound_to 6896
  150.9772  133.6229  159.2758 H   0  0  0  0  0  0  0  0  0  0  0  0  # atno 6909 bound_to 6896
  146.1500  139.6553  142.9105 H   0  0  0  0  0  0  0  0  0  0  0  0  # atno 7974 bound_to 7965
  155.9352  140.1098  157.1100 H   0  0  0  0  0  0  0  0  0  0  0  0  # atno 8008 bound_to 7997
  154.4078  140.1230  156.4921 H   0  0  0  0  0  0  0  0  0  0  0  0  # atno 8009 bound_to 7997
  155.7030  140.3471  155.4943 H   0  0  0  0  0  0  0  0  0  0  0  0  # atno 8010 bound_to 7997
  139.9730  143.5825  152.2406 H   0  0  0  0  0  0  0  0  0  0  0  0  # atno 10167 bound_to 10162
  157.6953  131.0486  150.4071 H   0  0  0  0  0  0  0  0  0  0  0  0  # atno 10718 bound_to 10713
  154.8112  135.4652  154.0521 H   0  0  0  0  0  0  0  0  0  0  0  0  # atno 10763 bound_to 10752
  153.1951  135.6861  153.8309 H   0  0  0  0  0  0  0  0  0  0  0  0  # atno 10764 bound_to 10752
  153.7814  135.3256  155.3343 H   0  0  0  0  0  0  0  0  0  0  0  0  # atno 10765 bound_to 10752
  141.1449  133.6679  156.5960 H   0  0  0  0  0  0  0  0  0  0  0  0  # atno 11005 bound_to 11000
  145.4847  141.0438  143.2626 LP  0  0  0  0  0  0  0  0  0  0  0  0  # atno 17320 bound_to 7965
  144.7892  139.6363  143.7121 LP  0  0  0  0  0  0  0  0  0  0  0  0  # atno 17321 bound_to 7965
  139.6467  144.7658  151.2230 LP  0  0  0  0  0  0  0  0  0  0  0  0  # atno 17342 bound_to 10162
  140.7515  143.6228  150.8497 LP  0  0  0  0  0  0  0  0  0  0  0  0  # atno 17343 bound_to 10162
  156.4458  130.4001  149.6667 LP  0  0  0  0  0  0  0  0  0  0  0  0  # atno 17370 bound_to 10713
  156.3834  130.7591  151.2586 LP  0  0  0  0  0  0  0  0  0  0  0  0  # atno 17371 bound_to 10713
  140.3725  134.7593  157.4608 LP  0  0  0  0  0  0  0  0  0  0  0  0  # atno 17394 bound_to 11000
  140.0699  134.5877  155.8653 LP  0  0  0  0  0  0  0  0  0  0  0  0  # atno 17395 bound_to 11000

$$$$
