#       Name:                AV-unprocessed.smi:109
#       Creating user name   scv26
#       Creation time:       Thu Mar 26 18:11:26 2020


#       File generated by GOLD software.
#

@<TRIPOS>MOLECULE
AV-unprocessed.smi:109
    71    74     1
SMALL
NO_CHARGES


@<TRIPOS>ATOM
      1 ****        -3.2616   1.9156   3.8698 O.3            1 S1                 0.0000
      2 ****        -2.4624   1.7866   2.7140 C.3            1 S1                 0.0000
      3 ****        -3.3579   1.6294   1.4751 C.3            1 S1                 0.0000
      4 ****        -2.5733   1.5613   0.1465 C.3            1 S1                 0.0000
      5 ****        -1.8196   0.3104   0.0426 N.pl3          1 S1                 0.0000
      6 ****        -0.4968   0.2361   0.3101 C.ar           1 S1                 0.0000
      7 ****         0.2077   1.3200   0.7276 N.ar           1 S1                 0.0000
      8 ****         1.5147   1.2114   0.9824 C.ar           1 S1                 0.0000
      9 ****         2.2962   0.1339   0.8858 N.ar           1 S1                 0.0000
     10 ****         1.5944  -0.9585   0.4662 C.ar           1 S1                 0.0000
     11 ****         0.2052  -0.9877   0.1609 C.ar           1 S1                 0.0000
     12 ****        -0.1632  -2.2671  -0.2343 N.2            1 S1                 0.0000
     13 ****         0.9483  -2.9498  -0.1692 C.2            1 S1                 0.0000
     14 ****         2.0539  -2.2409   0.2455 N.pl3          1 S1                 0.0000
     15 ****         3.4500  -2.7448   0.4101 C.3            1 S1                 0.0000
     16 ****         4.3129  -1.8237  -0.1754 O.3            1 S1                 0.0000
     17 ****         5.5315  -1.8139   0.5533 C.3            1 S1                 0.0000
     18 ****         6.3500  -0.5466   0.2488 C.3            1 S1                 0.0000
     19 ****         7.0822  -0.7172  -0.9460 O.3            1 S1                 0.0000
     20 ****         5.0639  -1.9709   2.0085 C.3            1 S1                 0.0000
     21 ****         4.7214  -0.7213   2.5784 O.3            1 S1                 0.0000
     22 ****         3.8295  -2.8646   1.8970 C.3            1 S1                 0.0000
     23 ****         4.1813  -4.1940   2.2249 O.3            1 S1                 0.0000
     24 ****        -3.4852   1.7557  -1.0912 C.3            1 S1                 0.0000
     25 ****        -4.5177   0.6218  -1.2986 C.3            1 S1                 0.0000
     26 ****        -5.4117   0.8852  -2.5218 C.3            1 S1                 0.0000
     27 ****        -4.5742   1.1013  -3.7913 C.3            1 S1                 0.0000
     28 ****        -3.5592   2.2372  -3.5956 C.3            1 S1                 0.0000
     29 ****        -2.6585   1.9739  -2.3784 C.3            1 S1                 0.0000
     30 ****         3.4789  -3.6923  -0.1305 H              1 S1                 0.0000
     31 ****         6.1028  -2.7045   0.2823 H              1 S1                 0.0000
     32 ****         5.8457  -2.4094   2.6306 H              1 S1                 0.0000
     33 ****         3.0152  -2.5365   2.5460 H              1 S1                 0.0000
     34 ****        -2.6927   2.0173   4.6176 H              1 S1                 0.0000
     35 ****        -1.8273   2.6680   2.6212 H              1 S1                 0.0000
     36 ****        -1.8096   0.9223   2.8365 H              1 S1                 0.0000
     37 ****        -3.9818   0.7423   1.5894 H              1 S1                 0.0000
     38 ****        -4.0410   2.4791   1.4393 H              1 S1                 0.0000
     39 ****        -1.8920   2.4117   0.1393 H              1 S1                 0.0000
     40 ****        -2.3541  -0.4886  -0.2668 H              1 S1                 0.0000
     41 ****         2.0040   2.1171   1.3090 H              1 S1                 0.0000
     42 ****         0.9917  -3.9988  -0.4237 H              1 S1                 0.0000
     43 ****         5.7095   0.3332   0.1771 H              1 S1                 0.0000
     44 ****         7.0691  -0.3631   1.0475 H              1 S1                 0.0000
     45 ****         7.5800   0.0697  -1.1080 H              1 S1                 0.0000
     46 ****         4.0406  -0.3296   2.0510 H              1 S1                 0.0000
     47 ****         3.4139  -4.7384   2.1347 H              1 S1                 0.0000
     48 ****        -4.0481   2.6759  -0.9269 H              1 S1                 0.0000
     49 ****        -4.0077  -0.3331  -1.4306 H              1 S1                 0.0000
     50 ****        -5.1491   0.5152  -0.4166 H              1 S1                 0.0000
     51 ****        -6.0968   0.0495  -2.6676 H              1 S1                 0.0000
     52 ****        -6.0316   1.7638  -2.3389 H              1 S1                 0.0000
     53 ****        -4.0478   0.1800  -4.0444 H              1 S1                 0.0000
     54 ****        -5.2274   1.3267  -4.6346 H              1 S1                 0.0000
     55 ****        -2.9486   2.3483  -4.4921 H              1 S1                 0.0000
     56 ****        -4.0879   3.1819  -3.4623 H              1 S1                 0.0000
     57 ****        -1.9751   2.8132  -2.2451 H              1 S1                 0.0000
     58 ****        -2.0358   1.1005  -2.5769 H              1 S1                 0.0000
     59 ****        -3.8251   1.0973   3.9833 LP             1 S1                 0.0000
     60 ****        -3.8523   2.7178   3.7837 LP             1 S1                 0.0000
     61 ****        -0.2525   2.2001   0.8443 LP             1 S1                 0.0000
     62 ****         3.2741   0.1278   1.0948 LP             1 S1                 0.0000
     63 ****        -1.0696  -2.5907  -0.5059 LP             1 S1                 0.0000
     64 ****         3.8996  -0.9134  -0.1520 LP             1 S1                 0.0000
     65 ****         4.4904  -2.0849  -1.1243 LP             1 S1                 0.0000
     66 ****         6.4536  -0.8811  -1.7063 LP             1 S1                 0.0000
     67 ****         7.7029  -1.4957  -0.8530 LP             1 S1                 0.0000
     68 ****         5.5239  -0.1247   2.5916 LP             1 S1                 0.0000
     69 ****         4.3902  -0.8553   3.5124 LP             1 S1                 0.0000
     70 ****         4.5132  -4.2324   3.1674 LP             1 S1                 0.0000
     71 ****         4.8978  -4.5158   1.6059 LP             1 S1                 0.0000
@<TRIPOS>BOND
    1    1    2 1     
    2    1   34 1     
    3    2    3 1     
    4    2   35 1     
    5    2   36 1     
    6    3    4 1     
    7    3   37 1     
    8    3   38 1     
    9    4    5 1     
   10    4   24 1     
   11    4   39 1     
   12    5    6 1     
   13    5   40 1     
   14    6   11 ar    
   15    6    7 ar    
   16    7    8 ar    
   17    8    9 ar    
   18    8   41 1     
   19    9   10 ar    
   20   10   14 1     
   21   10   11 ar    
   22   11   12 1     
   23   12   13 2     
   24   13   14 1     
   25   13   42 1     
   26   14   15 1     
   27   15   30 1     
   28   15   22 1     
   29   15   16 1     
   30   16   17 1     
   31   17   31 1     
   32   17   18 1     
   33   17   20 1     
   34   18   19 1     
   35   18   43 1     
   36   18   44 1     
   37   19   45 1     
   38   20   32 1     
   39   20   21 1     
   40   20   22 1     
   41   21   46 1     
   42   22   33 1     
   43   22   23 1     
   44   23   47 1     
   45   24   29 1     
   46   24   25 1     
   47   24   48 1     
   48   25   26 1     
   49   25   49 1     
   50   25   50 1     
   51   26   27 1     
   52   26   51 1     
   53   26   52 1     
   54   27   28 1     
   55   27   53 1     
   56   27   54 1     
   57   28   29 1     
   58   28   55 1     
   59   28   56 1     
   60   29   57 1     
   61   29   58 1     
   62    1   59 1     
   63    1   60 1     
   64    7   61 1     
   65    9   62 1     
   66   12   63 1     
   67   16   64 1     
   68   16   65 1     
   69   19   66 1     
   70   19   67 1     
   71   21   68 1     
   72   21   69 1     
   73   23   70 1     
   74   23   71 1     
@<TRIPOS>SUBSTRUCTURE
      1 S1             1
@<TRIPOS>SET
LONE_PAIRS      STATIC     ATOMS    <user>   **** ""
13 59 60 61 62 63 64 65 66 67 68 69 70 71
DONOR_HYDROGENS      STATIC     ATOMS    <user>   **** ""
5 34 40 45 46 47
ATOM$BLUE        STATIC     ATOMS    COLORGROUP SYSTEM
13 59 60 61 62 63 64 65 66 67 68 69 70 71
ATOM$RED        STATIC     ATOMS    COLORGROUP SYSTEM
5 34 40 45 46 47
