#       Name:                AV-unprocessed.smi:222
#       Creating user name   scv26
#       Creation time:       Thu Mar 26 20:15:55 2020


#       File generated by GOLD software.
#

@<TRIPOS>MOLECULE
AV-unprocessed.smi:222
    70    72     1
SMALL
NO_CHARGES


@<TRIPOS>ATOM
      1 ****        -5.4176   0.0309  -3.9443 C.3            1 S1                 0.0000
      2 ****        -4.0179   0.2591  -3.9779 O.3            1 S1                 0.0000
      3 ****        -3.2254  -0.9199  -3.9148 C.3            1 S1                 0.0000
      4 ****        -3.1304  -1.5058  -2.4909 C.3            1 S1                 0.0000
      5 ****        -2.3485  -0.6645  -1.5763 N.pl3          1 S1                 0.0000
      6 ****        -3.0164   0.4889  -0.9509 C.3            1 S1                 0.0000
      7 ****        -2.5386   1.8659  -1.4630 C.2            1 S1                 0.0000
      8 ****        -1.8312   1.9257  -2.4708 O.2            1 S1                 0.0000
      9 ****        -2.9182   2.9752  -0.7884 N.am           1 S1                 0.0000
     10 ****        -3.7828   2.9386   0.3939 C.3            1 S1                 0.0000
     11 ****        -2.4714   4.3009  -1.2226 C.3            1 S1                 0.0000
     12 ****        -1.0014  -0.8628  -1.4364 C.ar           1 S1                 0.0000
     13 ****        -0.3523  -1.5919  -2.3846 N.ar           1 S1                 0.0000
     14 ****         0.9647  -1.7970  -2.3162 C.ar           1 S1                 0.0000
     15 ****         1.8255  -1.3730  -1.3922 N.ar           1 S1                 0.0000
     16 ****         1.1930  -0.6490  -0.4264 C.ar           1 S1                 0.0000
     17 ****        -0.2001  -0.3469  -0.3689 C.ar           1 S1                 0.0000
     18 ****        -0.4543   0.4124   0.7694 N.2            1 S1                 0.0000
     19 ****         0.7100   0.5611   1.3357 C.2            1 S1                 0.0000
     20 ****         1.7554  -0.0596   0.6937 N.pl3          1 S1                 0.0000
     21 ****         3.1542  -0.0536   1.0997 C.3            1 S1                 0.0000
     22 ****         3.5646  -1.1900   2.0894 C.3            1 S1                 0.0000
     23 ****         3.3149  -2.5597   1.3991 C.3            1 S1                 0.0000
     24 ****         3.7366  -3.6659   2.1729 O.3            1 S1                 0.0000
     25 ****         5.0671  -1.0333   2.4403 C.3            1 S1                 0.0000
     26 ****         5.3420   0.1786   3.3519 C.3            1 S1                 0.0000
     27 ****         4.5484   0.0977   4.5298 O.3            1 S1                 0.0000
     28 ****         3.1512   0.1103   4.2635 C.3            1 S1                 0.0000
     29 ****         2.7702  -1.1189   3.4194 C.3            1 S1                 0.0000
     30 ****        -5.9392   0.9819  -4.0512 H              1 S1                 0.0000
     31 ****        -5.7367  -0.4141  -3.0025 H              1 S1                 0.0000
     32 ****        -5.7329  -0.6165  -4.7633 H              1 S1                 0.0000
     33 ****        -3.6204  -1.6668  -4.6047 H              1 S1                 0.0000
     34 ****        -2.2274  -0.6741  -4.2778 H              1 S1                 0.0000
     35 ****        -4.1233  -1.6656  -2.0723 H              1 S1                 0.0000
     36 ****        -2.7040  -2.5085  -2.5398 H              1 S1                 0.0000
     37 ****        -4.0868   0.4295  -1.1494 H              1 S1                 0.0000
     38 ****        -2.9254   0.4123   0.1311 H              1 S1                 0.0000
     39 ****        -4.6695   2.3283   0.2182 H              1 S1                 0.0000
     40 ****        -4.1390   3.9286   0.6795 H              1 S1                 0.0000
     41 ****        -3.2426   2.5251   1.2463 H              1 S1                 0.0000
     42 ****        -1.3934   4.3146  -1.3913 H              1 S1                 0.0000
     43 ****        -2.6857   5.0782  -0.4890 H              1 S1                 0.0000
     44 ****        -2.9642   4.5776  -2.1554 H              1 S1                 0.0000
     45 ****         1.3887  -2.3832  -3.1178 H              1 S1                 0.0000
     46 ****         0.8362   1.1262   2.2475 H              1 S1                 0.0000
     47 ****         3.7636  -0.1150   0.1970 H              1 S1                 0.0000
     48 ****         3.3609   0.9307   1.5161 H              1 S1                 0.0000
     49 ****         2.2545  -2.7003   1.1900 H              1 S1                 0.0000
     50 ****         3.8351  -2.6018   0.4416 H              1 S1                 0.0000
     51 ****         3.5562  -4.4572   1.6887 H              1 S1                 0.0000
     52 ****         5.4268  -1.9193   2.9640 H              1 S1                 0.0000
     53 ****         5.6656  -0.9600   1.5316 H              1 S1                 0.0000
     54 ****         6.3921   0.1878   3.6443 H              1 S1                 0.0000
     55 ****         5.1583   1.1225   2.8386 H              1 S1                 0.0000
     56 ****         2.6176   0.0860   5.2137 H              1 S1                 0.0000
     57 ****         2.8686   1.0414   3.7719 H              1 S1                 0.0000
     58 ****         1.6959  -1.1389   3.2405 H              1 S1                 0.0000
     59 ****         2.9787  -2.0035   4.0219 H              1 S1                 0.0000
     60 ****        -3.7774   0.8389  -3.1995 LP             1 S1                 0.0000
     61 ****        -3.7998   0.7366  -4.8291 LP             1 S1                 0.0000
     62 ****        -1.5712   1.0872  -2.9497 LP             1 S1                 0.0000
     63 ****        -1.5173   2.8127  -2.8095 LP             1 S1                 0.0000
     64 ****        -0.8712  -1.9808  -3.1459 LP             1 S1                 0.0000
     65 ****         2.8075  -1.5614  -1.4056 LP             1 S1                 0.0000
     66 ****        -1.3355   0.7658   1.0833 LP             1 S1                 0.0000
     67 ****         3.2388  -3.6802   3.0400 LP             1 S1                 0.0000
     68 ****         4.7178  -3.5970   2.3529 LP             1 S1                 0.0000
     69 ****         4.7678   0.8780   5.1155 LP             1 S1                 0.0000
     70 ****         4.7736  -0.7514   5.0075 LP             1 S1                 0.0000
@<TRIPOS>BOND
    1    1    2 1     
    2    1   30 1     
    3    1   31 1     
    4    1   32 1     
    5    2    3 1     
    6    3    4 1     
    7    3   33 1     
    8    3   34 1     
    9    4    5 1     
   10    4   35 1     
   11    4   36 1     
   12    5    6 1     
   13    5   12 1     
   14    6    7 1     
   15    6   37 1     
   16    6   38 1     
   17    7    8 2     
   18    7    9 am    
   19    9   10 1     
   20    9   11 1     
   21   10   39 1     
   22   10   40 1     
   23   10   41 1     
   24   11   42 1     
   25   11   43 1     
   26   11   44 1     
   27   12   17 ar    
   28   12   13 ar    
   29   13   14 ar    
   30   14   15 ar    
   31   14   45 1     
   32   15   16 ar    
   33   16   20 1     
   34   16   17 ar    
   35   17   18 1     
   36   18   19 2     
   37   19   20 1     
   38   19   46 1     
   39   20   21 1     
   40   21   22 1     
   41   21   47 1     
   42   21   48 1     
   43   22   29 1     
   44   22   23 1     
   45   22   25 1     
   46   23   24 1     
   47   23   49 1     
   48   23   50 1     
   49   24   51 1     
   50   25   26 1     
   51   25   52 1     
   52   25   53 1     
   53   26   27 1     
   54   26   54 1     
   55   26   55 1     
   56   27   28 1     
   57   28   29 1     
   58   28   56 1     
   59   28   57 1     
   60   29   58 1     
   61   29   59 1     
   62    2   60 1     
   63    2   61 1     
   64    8   62 1     
   65    8   63 1     
   66   13   64 1     
   67   15   65 1     
   68   18   66 1     
   69   24   67 1     
   70   24   68 1     
   71   27   69 1     
   72   27   70 1     
@<TRIPOS>SUBSTRUCTURE
      1 S1             1
@<TRIPOS>SET
LONE_PAIRS      STATIC     ATOMS    <user>   **** ""
11 60 61 62 63 64 65 66 67 68 69 70
DONOR_HYDROGENS      STATIC     ATOMS    <user>   **** ""
1 51
ATOM$BLUE        STATIC     ATOMS    COLORGROUP SYSTEM
11 60 61 62 63 64 65 66 67 68 69 70
ATOM$RED        STATIC     ATOMS    COLORGROUP SYSTEM
1 51
