AV-unprocessed.smi:867|AV-procd|sdf|4000|dock3
  -GOLD-   22720 1483D 1   1.00000     0.00000
 Structure written by MMmdl.
 54 57  0  0  0  0  0  0  0  0  3 V2000
  151.2793  136.8215  159.0789 O   0  0  0  0  0  0  0  0  0  0  0  0
  150.7569  137.5331  158.2203 C   0  0  0  0  0  0  0  0  0  0  0  0
  149.5753  137.2251  157.6588 N   0  0  0  0  0  0  0  0  0  0  0  0
  148.7701  136.0549  157.9881 C   0  0  0  0  0  0  0  0  0  0  0  0
  147.3378  136.4476  158.3852 C   0  0  0  0  0  0  0  0  0  0  0  0
  146.9410  135.8721  159.7304 C   0  0  0  0  0  0  0  0  0  0  0  0
  146.9813  136.6740  160.8927 C   0  0  0  0  0  0  0  0  0  0  0  0
  146.6114  136.1130  162.1329 C   0  0  0  0  0  0  0  0  0  0  0  0
  146.2102  134.7622  162.1829 C   0  0  0  0  0  0  0  0  0  0  0  0
  146.1851  134.0258  161.0501 N   0  3  0  0  0  0  0  0  0  0  0  0
  146.5314  134.5257  159.8434 C   0  0  0  0  0  0  0  0  0  0  0  0
  151.3492  138.6450  157.7180 N   0  0  0  0  0  0  0  0  0  0  0  0
  150.7106  139.6566  156.8683 C   0  0  0  0  0  0  0  0  0  0  0  0
  150.4306  140.9096  157.7170 C   0  0  0  0  0  0  0  0  0  0  0  0
  151.6704  141.4456  158.3560 N   0  3  0  0  0  0  0  0  0  0  0  0
  151.3926  142.6658  159.1757 C   0  0  2  0  0  0  0  0  0  0  0  0
  150.8620  143.8436  158.3142 C   0  0  0  0  0  0  0  0  0  0  0  0
  151.8028  145.0070  158.6668 C   0  0  1  0  0  0  0  0  0  0  0  0
  151.5465  145.4592  160.1139 C   0  0  0  0  0  0  0  0  0  0  0  0
  152.1461  144.3037  160.9337 C   0  0  0  0  0  0  0  0  0  0  0  0
  152.6326  143.3231  159.8478 C   0  0  2  0  0  0  0  0  0  0  0  0
  153.1395  144.2870  158.7809 C   0  0  0  0  0  0  0  0  0  0  0  0
  152.4228  140.3797  159.0821 C   0  0  0  0  0  0  0  0  0  0  0  0
  152.6393  139.1289  158.2103 C   0  0  0  0  0  0  0  0  0  0  0  0
  149.2183  137.8371  156.9393 H   0  0  0  0  0  0  0  0  0  0  0  0
  148.7489  135.4018  157.1152 H   0  0  0  0  0  0  0  0  0  0  0  0
  149.2488  135.4870  158.7879 H   0  0  0  0  0  0  0  0  0  0  0  0
  147.2393  137.5334  158.4263 H   0  0  0  0  0  0  0  0  0  0  0  0
  146.6321  136.1041  157.6279 H   0  0  0  0  0  0  0  0  0  0  0  0
  147.2938  137.7069  160.8365 H   0  0  0  0  0  0  0  0  0  0  0  0
  146.6364  136.7104  163.0326 H   0  0  0  0  0  0  0  0  0  0  0  0
  145.9122  134.2525  163.0874 H   0  0  0  0  0  0  0  0  0  0  0  0
  146.4725  133.8373  159.0126 H   0  0  0  0  0  0  0  0  0  0  0  0
  151.3792  139.9059  156.0428 H   0  0  0  0  0  0  0  0  0  0  0  0
  149.7854  139.3194  156.4010 H   0  0  0  0  0  0  0  0  0  0  0  0
  149.9638  141.6603  157.0809 H   0  0  0  0  0  0  0  0  0  0  0  0
  149.7035  140.6668  158.4938 H   0  0  0  0  0  0  0  0  0  0  0  0
  150.6645  142.3937  159.9420 H   0  0  0  0  0  0  0  0  0  0  0  0
  150.9470  143.6414  157.2460 H   0  0  0  0  0  0  0  0  0  0  0  0
  149.8171  144.0741  158.5253 H   0  0  0  0  0  0  0  0  0  0  0  0
  151.7792  145.8225  157.9432 H   0  0  0  0  0  0  0  0  0  0  0  0
  152.0669  146.3932  160.3297 H   0  0  0  0  0  0  0  0  0  0  0  0
  150.4857  145.6106  160.3181 H   0  0  0  0  0  0  0  0  0  0  0  0
  152.9843  144.6597  161.5345 H   0  0  0  0  0  0  0  0  0  0  0  0
  151.4214  143.8524  161.6123 H   0  0  0  0  0  0  0  0  0  0  0  0
  153.3854  142.6464  160.2450 H   0  0  0  0  0  0  0  0  0  0  0  0
  153.4478  143.7911  157.8589 H   0  0  0  0  0  0  0  0  0  0  0  0
  153.9486  144.9324  159.1281 H   0  0  0  0  0  0  0  0  0  0  0  0
  153.4067  140.7330  159.3820 H   0  0  0  0  0  0  0  0  0  0  0  0
  151.8838  140.1108  159.9920 H   0  0  0  0  0  0  0  0  0  0  0  0
  153.1845  138.3701  158.7742 H   0  0  0  0  0  0  0  0  0  0  0  0
  153.2772  139.3735  157.3595 H   0  0  0  0  0  0  0  0  0  0  0  0
  152.2726  141.7406  157.6008 H   0  0  0  0  0  0  0  0  0  0  0  0
  145.8928  133.0498  161.1089 H   0  0  0  0  0  0  0  0  0  0  0  0
  1  2  2  0  0  0  0
  2  3  1  0  0  0  0
  2 12  1  0  0  0  0
  3  4  1  0  0  0  0
  3 25  1  0  0  0  0
  4  5  1  0  0  0  0
  4 26  1  0  0  0  0
  4 27  1  0  0  0  0
  5  6  1  0  0  0  0
  5 28  1  0  0  0  0
  5 29  1  0  0  0  0
  6 11  1  0  0  0  0
  6  7  2  0  0  0  0
  7  8  1  0  0  0  0
  7 30  1  0  0  0  0
  8  9  2  0  0  0  0
  8 31  1  0  0  0  0
  9 10  1  0  0  0  0
  9 32  1  0  0  0  0
 10 11  2  0  0  0  0
 10 54  1  0  0  0  0
 11 33  1  0  0  0  0
 12 24  1  0  0  0  0
 12 13  1  0  0  0  0
 13 14  1  0  0  0  0
 13 34  1  0  0  0  0
 13 35  1  0  0  0  0
 14 15  1  0  0  0  0
 14 36  1  0  0  0  0
 14 37  1  0  0  0  0
 15 16  1  0  0  0  0
 15 23  1  0  0  0  0
 15 53  1  0  0  0  0
 16 21  1  0  0  0  0
 16 17  1  0  0  0  0
 16 38  1  0  0  0  0
 17 18  1  0  0  0  0
 17 39  1  0  0  0  0
 17 40  1  0  0  0  0
 18 22  1  0  0  0  0
 18 19  1  0  0  0  0
 18 41  1  0  0  0  0
 19 20  1  0  0  0  0
 19 42  1  0  0  0  0
 19 43  1  0  0  0  0
 20 21  1  0  0  0  0
 20 44  1  0  0  0  0
 20 45  1  0  0  0  0
 21 22  1  0  0  0  0
 21 46  1  0  0  0  0
 22 47  1  0  0  0  0
 22 48  1  0  0  0  0
 23 24  1  0  0  0  0
 23 49  1  0  0  0  0
 23 50  1  0  0  0  0
 24 51  1  0  0  0  0
 24 52  1  0  0  0  0
M  CHG  1  10   1
M  CHG  1  15   1
M  END
> <s_m_source_file>
AV-unprocessed.smi

> <i_m_source_file_index>
867

> <i_lp_mmshare_version>
43012

> <i_f3d_flags>
0

> <s_epik_input>
W0NIMl0xW0NIMl1bQ0BASF0oW0NIMl0yKVtDQEBIXShbQ0gyXVtDQEhdMTIpTihbQ0gyXVtDSDJdMylbQ0gyXVtDSDJdTjNDKD1PKVtOSF1bQ0gyXVtDSDJdYzRbY0hdW2NIXVtjSF1uW2NIXTQ=

> <s_epik_cmdline>
J2VwaWtfcHl0aG9uJywgJy1waCcsICc3LjAnLCAnLXRuJywgJzgnLCAnLW1hJywgJzIwMCcsICctbWV0YWxfYmluZGluZycsICctaW1hZScsICc8aW5maWxlLm1hZT4nLCAnLW9tYWUnLCAnPG91dGZpbGUubWFlPic=

> <r_epik_Ionization_Penalty>
2.25108

> <r_epik_Ionization_Penalty_Charging>
2.25105

> <r_epik_Ionization_Penalty_Neutral>
2.64641e-05

> <r_epik_State_Penalty>
2.39519

> <r_epik_Charging_Adjusted_Penalty>
4.64625

> <i_epik_Tot_Q>
2

> <i_epik_Tot_abs_Q>
2

> <r_epik_Metal_State_Penalty>
2.40865

> <b_epik_Metal_Only>
0

> <s_lp_Force_Field>
OPLS_2005

> <r_lp_Energy>
104.696

> <b_lp_Chiralities_Consistent>
1

> <s_lp_Variant>
AV-unprocessed.smi:867-7

> <Gold.Version>
5.8.1

> <Gold.Id.Protein>
6NUR|6NUR_protein|mol2

> <Gold.PLP.Fitness>
51.5475

> <Gold.PLP.PLP>
-49.9117

> <Gold.PLP.part.hbond>
-1.0000

> <Gold.PLP.part.metal>
0.0000

> <Gold.PLP.part.buried>
-7.1226

> <Gold.PLP.part.nonpolar>
-42.1453

> <Gold.PLP.part.repulsive>
0.2375

> <Gold.PLP.ligand.clash>
0.0000

> <Gold.PLP.ligand.torsion>
0.7377

> <Gold.PLP.Chemscore.Hbond>
1.0000

> <Gold.PLP.Chemscore.CHOScore>
0.0000

> <Gold.PLP.Chemscore.Metal>
0.0000

> <Gold.Chemscore.Hbonds>
donor molecule, donor type, donor heavy atom, donor atom, acceptor molecule, acceptor atom, score
      P1  H  6896  6909       L1     1  0.85

> <Gold.PLP.Chemscore.Internal.Correction>
0.1112

> <Gold.Rescore>
     Score         DG    S(hbond)    S(metal)    S(lipo)     H(rot)  DE(clash)    DE(int)     intcor
     21.81     -22.75       0.99        0.00     151.23       1.46       0.18       0.76       ----

> <Gold.Chemscore.Fitness>
21.8094

> <Gold.Chemscore.DG>
-22.7543

> <Gold.Chemscore.ZeroCoef>
-5.4800

> <Gold.Chemscore.Hbond>
0.9914

> <Gold.Chemscore.Metal>
0.0000

> <Gold.Chemscore.Lipo>
151.2253

> <Gold.Chemscore.Internal_Hbond>
0.0000

> <Gold.Chemscore.DEClash>
0.1801

> <Gold.Chemscore.DEInternal>
0.7648

> <Gold.Chemscore.Rot>
1.4572

> <Gold.Chemscore.Internal.Correction>
   9.000000E+99

> <Gold.Chemscore.Hbonds>
donor molecule, donor type, donor heavy atom, donor atom, acceptor molecule, acceptor atom, score
      P1  H  6896  6909       L1     1  0.82

> <Gold.Chemscore.Hbond.Weighted>
-3.3114

> <Gold.Chemscore.Metal.Weighted>
-0.0000

> <Gold.Chemscore.Lipo.Weighted>
-17.6934

> <Gold.Chemscore.Internal_Hbond.Weighted>
0.0000

> <Gold.Chemscore.DEClash.Weighted>
0.1801

> <Gold.Chemscore.DEInternal.Weighted>
0.7648

> <Gold.Chemscore.Rot.Weighted>
3.7305

> <Gold.Chemscore.Internal.Correction.Weighted>
   9.000000E+99

> <Gold.Protein.RotatedTorsions>
[ 6907 6896 6895 6894 ] final  127.05 input  -60.11 | X-H torsion
[ 7974 7965 7964 7962 ] final  165.94 input  175.53 | X-H torsion
[ 8008 7997 7996 7995 ] final  157.66 input   59.86 | X-H torsion
[ 10167 10162 10161 10158 ] final    8.51 input  -65.29 | X-H torsion
[ 10718 10713 10712 10709 ] final  177.68 input   66.30 | X-H torsion
[ 10763 10752 10751 10750 ] final  -61.49 input  -60.55 | X-H torsion
[ 11005 11000 10999 10996 ] final  -39.20 input  -57.11 | X-H torsion

> <Gold.Protein.ActiveResidues>
 VAL166  LYS551  ARG553  GLY616  TRP617  ASP618  TYR619  PRO620  LYS621  CYS622 
 ASP623  PHE694  ASN695  SER759  ASP760  ASP761  ALA762  ILE779  LEU786  VAL792 
 PHE793  MET794  SER795  GLU796  ALA797  LYS798  CYS799  TRP800  GLU811  SER814 

> <Gold.Protein.RotatedAtoms>
  152.3848  133.6596  159.6189 H   0  0  0  0  0  0  0  0  0  0  0  0  # atno 6907 bound_to 6896
  150.7770  133.9053  159.3362 H   0  0  0  0  0  0  0  0  0  0  0  0  # atno 6908 bound_to 6896
  151.6852  135.0957  160.0275 H   0  0  0  0  0  0  0  0  0  0  0  0  # atno 6909 bound_to 6896
  144.7482  139.8543  143.6375 H   0  0  0  0  0  0  0  0  0  0  0  0  # atno 7974 bound_to 7965
  156.2350  140.1879  156.7143 H   0  0  0  0  0  0  0  0  0  0  0  0  # atno 8008 bound_to 7997
  154.6090  140.0624  156.9496 H   0  0  0  0  0  0  0  0  0  0  0  0  # atno 8009 bound_to 7997
  155.2047  140.3295  155.4340 H   0  0  0  0  0  0  0  0  0  0  0  0  # atno 8010 bound_to 7997
  140.6310  143.7993  150.7295 H   0  0  0  0  0  0  0  0  0  0  0  0  # atno 10167 bound_to 10162
  156.9018  130.9881  151.3034 H   0  0  0  0  0  0  0  0  0  0  0  0  # atno 10718 bound_to 10713
  154.2854  135.6264  153.5364 H   0  0  0  0  0  0  0  0  0  0  0  0  # atno 10763 bound_to 10752
  152.9860  135.5643  154.5449 H   0  0  0  0  0  0  0  0  0  0  0  0  # atno 10764 bound_to 10752
  154.5048  135.2874  155.1367 H   0  0  0  0  0  0  0  0  0  0  0  0  # atno 10765 bound_to 10752
  141.0084  133.6920  156.2155 H   0  0  0  0  0  0  0  0  0  0  0  0  # atno 11005 bound_to 11000
  146.1393  139.4446  143.0119 LP  0  0  0  0  0  0  0  0  0  0  0  0  # atno 17320 bound_to 7965
  145.7042  141.0126  143.1488 LP  0  0  0  0  0  0  0  0  0  0  0  0  # atno 17321 bound_to 7965
  140.1605  143.4280  152.2070 LP  0  0  0  0  0  0  0  0  0  0  0  0  # atno 17342 bound_to 10162
  139.5524  144.7348  151.4394 LP  0  0  0  0  0  0  0  0  0  0  0  0  # atno 17343 bound_to 10162
  157.6022  130.8520  149.8819 LP  0  0  0  0  0  0  0  0  0  0  0  0  # atno 17370 bound_to 10713
  156.0578  130.3705  150.1050 LP  0  0  0  0  0  0  0  0  0  0  0  0  # atno 17371 bound_to 10713
  140.6774  134.4803  157.5588 LP  0  0  0  0  0  0  0  0  0  0  0  0  # atno 17394 bound_to 11000
  139.9076  134.8415  156.1647 LP  0  0  0  0  0  0  0  0  0  0  0  0  # atno 17395 bound_to 11000

$$$$
