AV-unprocessed.smi:3158|AV-procd|sdf|12048|dock3
  -GOLD-   2272017473D 1   1.00000     0.00000
 Structure written by MMmdl.
 39 39  0  0  0  0  0  0  0  0  1 V2000
  147.5083  141.7561  153.6776 C   0  0  0  0  0  0  0  0  0  0  0  0
  148.6690  141.3189  154.5828 C   0  0  0  0  0  0  0  0  0  0  0  0
  148.5084  139.9014  155.1667 C   0  0  1  0  0  0  0  0  0  0  0  0
  148.9087  138.8215  154.1522 C   0  0  0  0  0  0  0  0  0  0  0  0
  149.3171  139.7418  156.3736 N   0  0  0  0  0  0  0  0  0  0  0  0
  150.6520  139.8660  156.4524 C   0  0  0  0  0  0  0  0  0  0  0  0
  151.3682  140.1262  155.4851 O   0  0  0  0  0  0  0  0  0  0  0  0
  151.2719  139.6982  157.8499 C   0  0  1  0  0  0  0  0  0  0  0  0
  152.4381  138.6967  157.8146 C   0  0  0  0  0  0  0  0  0  0  0  0
  151.7246  140.9701  158.4420 N   0  0  0  0  0  0  0  0  0  0  0  0
  152.4428  140.8234  159.7033 C   0  0  0  0  0  0  0  0  0  0  0  0
  153.2100  142.1174  160.0074 C   0  0  0  0  0  0  0  0  0  0  0  0
  152.4485  143.2891  159.6207 N   0  0  0  0  0  0  0  0  0  0  0  0
  152.0357  144.3418  160.4098 C   0  0  0  0  0  0  0  0  0  0  0  0
  151.3562  145.2104  159.6045 C   0  0  0  0  0  0  0  0  0  0  0  0
  151.4078  144.5941  158.3229 C   0  0  0  0  0  0  0  0  0  0  0  0
  152.0633  143.4447  158.3356 N   0  0  0  0  0  0  0  0  0  0  0  0
  147.7049  142.7365  153.2435 H   0  0  0  0  0  0  0  0  0  0  0  0
  146.5714  141.8248  154.2306 H   0  0  0  0  0  0  0  0  0  0  0  0
  147.3629  141.0523  152.8575 H   0  0  0  0  0  0  0  0  0  0  0  0
  149.5919  141.3617  154.0033 H   0  0  0  0  0  0  0  0  0  0  0  0
  148.7867  142.0414  155.3915 H   0  0  0  0  0  0  0  0  0  0  0  0
  147.4532  139.7477  155.3996 H   0  0  0  0  0  0  0  0  0  0  0  0
  148.3042  138.8900  153.2473 H   0  0  0  0  0  0  0  0  0  0  0  0
  148.7673  137.8224  154.5664 H   0  0  0  0  0  0  0  0  0  0  0  0
  149.9554  138.9166  153.8612 H   0  0  0  0  0  0  0  0  0  0  0  0
  148.8177  139.5336  157.2261 H   0  0  0  0  0  0  0  0  0  0  0  0
  150.5087  139.2787  158.5082 H   0  0  0  0  0  0  0  0  0  0  0  0
  152.1240  137.7379  157.4000 H   0  0  0  0  0  0  0  0  0  0  0  0
  152.8193  138.5070  158.8185 H   0  0  0  0  0  0  0  0  0  0  0  0
  153.2694  139.0643  157.2112 H   0  0  0  0  0  0  0  0  0  0  0  0
  150.9605  141.6210  158.5542 H   0  0  0  0  0  0  0  0  0  0  0  0
  151.7506  140.6138  160.5196 H   0  0  0  0  0  0  0  0  0  0  0  0
  153.1365  139.9841  159.6352 H   0  0  0  0  0  0  0  0  0  0  0  0
  153.4423  142.1875  161.0714 H   0  0  0  0  0  0  0  0  0  0  0  0
  154.1610  142.1322  159.4729 H   0  0  0  0  0  0  0  0  0  0  0  0
  152.2588  144.3853  161.4658 H   0  0  0  0  0  0  0  0  0  0  0  0
  150.8933  146.1439  159.8875 H   0  0  0  0  0  0  0  0  0  0  0  0
  150.9917  144.9454  157.3902 H   0  0  0  0  0  0  0  0  0  0  0  0
  1  2  1  0  0  0  0
  1 18  1  0  0  0  0
  1 19  1  0  0  0  0
  1 20  1  0  0  0  0
  2  3  1  0  0  0  0
  2 21  1  0  0  0  0
  2 22  1  0  0  0  0
  3  4  1  0  0  0  0
  3  5  1  0  0  0  0
  3 23  1  0  0  0  0
  4 24  1  0  0  0  0
  4 25  1  0  0  0  0
  4 26  1  0  0  0  0
  5  6  1  0  0  0  0
  5 27  1  0  0  0  0
  6  7  2  0  0  0  0
  6  8  1  0  0  0  0
  8  9  1  0  0  0  0
  8 10  1  0  0  0  0
  8 28  1  0  0  0  0
  9 29  1  0  0  0  0
  9 30  1  0  0  0  0
  9 31  1  0  0  0  0
 10 11  1  0  0  0  0
 10 32  1  0  0  0  0
 11 12  1  0  0  0  0
 11 33  1  0  0  0  0
 11 34  1  0  0  0  0
 12 13  1  0  0  0  0
 12 35  1  0  0  0  0
 12 36  1  0  0  0  0
 13 17  1  0  0  0  0
 13 14  1  0  0  0  0
 14 15  2  0  0  0  0
 14 37  1  0  0  0  0
 15 16  1  0  0  0  0
 15 38  1  0  0  0  0
 16 17  2  0  0  0  0
 16 39  1  0  0  0  0
M  END
> <s_m_source_file>
AV-unprocessed.smi

> <i_m_source_file_index>
3158

> <i_lp_mmshare_version>
43012

> <i_f3d_flags>
0

> <s_epik_input>
W0NIM11bQ0gyXVtDQEhdKFtDSDNdKVtOSF1DKD1PKVtDQEhdKFtDSDNdKVtOSF1bQ0gyXVtDSDJdbjFbY0hdW2NIXVtjSF1uMQ==

> <s_epik_cmdline>
J2VwaWtfcHl0aG9uJywgJy1waCcsICc3LjAnLCAnLXRuJywgJzgnLCAnLW1hJywgJzIwMCcsICctbWV0YWxfYmluZGluZycsICctaW1hZScsICc8aW5maWxlLm1hZT4nLCAnLW9tYWUnLCAnPG91dGZpbGUubWFlPic=

> <r_lp_tautomer_probability>
1

> <r_epik_Ionization_Penalty>
0.724013

> <r_epik_Ionization_Penalty_Charging>
0

> <r_epik_Ionization_Penalty_Neutral>
0.724013

> <r_epik_State_Penalty>
0.74758

> <r_epik_Charging_Adjusted_Penalty>
0.74758

> <i_epik_Tot_Q>
0

> <i_epik_Tot_abs_Q>
0

> <r_epik_Metal_State_Penalty>
0.746846

> <b_epik_Metal_Only>
0

> <s_lp_Force_Field>
OPLS_2005

> <r_lp_Energy>
5.19136

> <b_lp_Chiralities_Consistent>
1

> <s_lp_Variant>
AV-unprocessed.smi:3158-8

> <Gold.Version>
5.8.1

> <Gold.Id.Protein>
6NUR|6NUR_protein|mol2

> <Gold.PLP.Fitness>
41.9523

> <Gold.PLP.PLP>
-37.4139

> <Gold.PLP.part.hbond>
-1.0000

> <Gold.PLP.part.metal>
0.0000

> <Gold.PLP.part.buried>
-6.2916

> <Gold.PLP.part.nonpolar>
-30.5562

> <Gold.PLP.part.repulsive>
0.0862

> <Gold.PLP.ligand.clash>
0.0000

> <Gold.PLP.ligand.torsion>
0.6569

> <Gold.PLP.Chemscore.Hbond>
0.9760

> <Gold.PLP.Chemscore.CHOScore>
0.9300

> <Gold.PLP.Chemscore.Metal>
0.0000

> <Gold.Chemscore.Hbonds>
donor molecule, donor type, donor heavy atom, donor atom, acceptor molecule, acceptor atom, score
      P1  H  7989  7998       L1     7  0.75
      L1  C    16    39       P1  8028  0.60

> <Gold.PLP.Chemscore.Internal.Correction>
0.1341

> <Gold.Rescore>
     Score         DG    S(hbond)    S(metal)    S(lipo)     H(rot)  DE(clash)    DE(int)     intcor
     11.23     -13.82       0.95        0.00      90.54       2.12       0.10       2.50       ----

> <Gold.Chemscore.Fitness>
11.2261

> <Gold.Chemscore.DG>
-13.8224

> <Gold.Chemscore.ZeroCoef>
-5.4800

> <Gold.Chemscore.Hbond>
0.9537

> <Gold.Chemscore.Metal>
0.0000

> <Gold.Chemscore.Lipo>
90.5366

> <Gold.Chemscore.Internal_Hbond>
0.0000

> <Gold.Chemscore.DEClash>
0.0959

> <Gold.Chemscore.DEInternal>
2.5003

> <Gold.Chemscore.Rot>
2.1234

> <Gold.Chemscore.Internal.Correction>
   9.000000E+99

> <Gold.Chemscore.Hbonds>
donor molecule, donor type, donor heavy atom, donor atom, acceptor molecule, acceptor atom, score
      P1  H  7989  7998       L1     7  0.71

> <Gold.Chemscore.Hbond.Weighted>
-3.1854

> <Gold.Chemscore.Metal.Weighted>
-0.0000

> <Gold.Chemscore.Lipo.Weighted>
-10.5928

> <Gold.Chemscore.Internal_Hbond.Weighted>
0.0000

> <Gold.Chemscore.DEClash.Weighted>
0.0959

> <Gold.Chemscore.DEInternal.Weighted>
2.5003

> <Gold.Chemscore.Rot.Weighted>
5.4359

> <Gold.Chemscore.Internal.Correction.Weighted>
   9.000000E+99

> <Gold.Protein.RotatedTorsions>
[ 6907 6896 6895 6894 ] final  -14.37 input  -60.11 | X-H torsion
[ 7974 7965 7964 7962 ] final  159.86 input  175.53 | X-H torsion
[ 8008 7997 7996 7995 ] final  -59.52 input   59.86 | X-H torsion
[ 10167 10162 10161 10158 ] final -170.98 input  -65.29 | X-H torsion
[ 10718 10713 10712 10709 ] final  -11.73 input   66.30 | X-H torsion
[ 10763 10752 10751 10750 ] final   73.55 input  -60.55 | X-H torsion
[ 11005 11000 10999 10996 ] final -100.29 input  -57.11 | X-H torsion

> <Gold.Protein.ActiveResidues>
 VAL166  LYS551  ARG553  GLY616  TRP617  ASP618  TYR619  PRO620  LYS621  CYS622 
 ASP623  PHE694  ASN695  SER759  ASP760  ASP761  ALA762  ILE779  LEU786  VAL792 
 PHE793  MET794  SER795  GLU796  ALA797  LYS798  CYS799  TRP800  GLU811  SER814 

> <Gold.Protein.RotatedAtoms>
  151.3404  135.0862  159.9368 H   0  0  0  0  0  0  0  0  0  0  0  0  # atno 6907 bound_to 6896
  152.5213  133.9453  159.7656 H   0  0  0  0  0  0  0  0  0  0  0  0  # atno 6908 bound_to 6896
  150.9809  133.6193  159.2752 H   0  0  0  0  0  0  0  0  0  0  0  0  # atno 6909 bound_to 6896
  144.7768  139.7676  143.6276 H   0  0  0  0  0  0  0  0  0  0  0  0  # atno 7974 bound_to 7965
  154.4356  140.1060  156.6128 H   0  0  0  0  0  0  0  0  0  0  0  0  # atno 8008 bound_to 7997
  155.5791  140.3490  155.4517 H   0  0  0  0  0  0  0  0  0  0  0  0  # atno 8009 bound_to 7997
  156.0332  140.1265  157.0225 H   0  0  0  0  0  0  0  0  0  0  0  0  # atno 8010 bound_to 7997
  139.5829  144.1382  152.1539 H   0  0  0  0  0  0  0  0  0  0  0  0  # atno 10167 bound_to 10162
  156.6547  130.4965  149.6050 H   0  0  0  0  0  0  0  0  0  0  0  0  # atno 10718 bound_to 10713
  153.0529  135.5058  154.7911 H   0  0  0  0  0  0  0  0  0  0  0  0  # atno 10763 bound_to 10752
  154.6759  135.2960  154.9681 H   0  0  0  0  0  0  0  0  0  0  0  0  # atno 10764 bound_to 10752
  154.0484  135.6707  153.4850 H   0  0  0  0  0  0  0  0  0  0  0  0  # atno 10765 bound_to 10752
  141.1276  133.8387  157.1083 H   0  0  0  0  0  0  0  0  0  0  0  0  # atno 11005 bound_to 11000
  146.1952  139.5214  142.9779 LP  0  0  0  0  0  0  0  0  0  0  0  0  # atno 17320 bound_to 7965
  145.6164  141.0330  143.1938 LP  0  0  0  0  0  0  0  0  0  0  0  0  # atno 17321 bound_to 7965
  140.0939  144.5597  150.7035 LP  0  0  0  0  0  0  0  0  0  0  0  0  # atno 17342 bound_to 10162
  140.7105  143.2501  151.4595 LP  0  0  0  0  0  0  0  0  0  0  0  0  # atno 17343 bound_to 10162
  156.2057  130.6647  151.1215 LP  0  0  0  0  0  0  0  0  0  0  0  0  # atno 17370 bound_to 10713
  157.7129  131.0725  150.6434 LP  0  0  0  0  0  0  0  0  0  0  0  0  # atno 17371 bound_to 10713
  140.0291  134.9910  157.0744 LP  0  0  0  0  0  0  0  0  0  0  0  0  # atno 17394 bound_to 11000
  140.4315  134.1776  155.7168 LP  0  0  0  0  0  0  0  0  0  0  0  0  # atno 17395 bound_to 11000

$$$$
