AV-unprocessed.smi:243|AV-procd|sdf|1861|dock2
  -GOLD-   2262020493D 1   1.00000     0.00000
 Structure written by MMmdl.
 58 61  0  0  0  0  0  0  0  0  2 V2000
  147.3158  141.8460  157.7358 C   0  0  0  0  0  0  0  0  0  0  0  0
  148.8207  141.6058  157.5492 C   0  0  0  0  0  0  0  0  0  0  0  0
  149.2998  142.0162  156.2023 N   0  3  1  0  0  0  0  0  0  0  0  0
  150.7700  141.8931  156.0342 C   0  0  0  0  0  0  0  0  0  0  0  0
  151.2007  140.4276  155.8622 C   0  0  0  0  0  0  0  0  0  0  0  0
  150.4723  139.7726  154.6730 C   0  0  1  0  0  0  0  0  0  0  0  0
  150.9060  138.3785  154.5005 N   0  0  0  0  0  0  0  0  0  0  0  0
  151.4142  137.9017  153.2172 C   0  0  0  0  0  0  0  0  0  0  0  0
  150.7972  137.4921  155.5282 C   0  0  0  0  0  0  0  0  0  0  0  0
  151.3689  136.2655  155.3954 N   0  0  0  0  0  0  0  0  0  0  0  0
  151.2802  135.3617  156.3745 C   0  0  0  0  0  0  0  0  0  0  0  0
  150.6774  135.4726  157.5580 N   0  0  0  0  0  0  0  0  0  0  0  0
  150.0994  136.6984  157.7051 C   0  0  0  0  0  0  0  0  0  0  0  0
  150.1116  137.7582  156.7519 C   0  0  0  0  0  0  0  0  0  0  0  0
  149.4378  138.8580  157.2729 N   0  0  0  0  0  0  0  0  0  0  0  0
  149.0479  138.4701  158.4555 C   0  0  0  0  0  0  0  0  0  0  0  0
  149.3914  137.1812  158.7925 N   0  0  0  0  0  0  0  0  0  0  0  0
  149.0926  136.4973  160.0422 C   0  0  0  0  0  0  0  0  0  0  0  0
  147.6026  136.1046  160.2147 C   0  0  2  0  0  0  0  0  0  0  0  0
  146.7901  137.2458  160.0119 O   0  0  0  0  0  0  0  0  0  0  0  0
  147.2684  135.4895  161.5751 C   0  0  0  0  0  0  0  0  0  0  0  0
  147.3136  133.9955  161.2922 C   0  0  0  0  0  0  0  0  0  0  0  0
  146.7081  133.9132  160.0145 O   0  0  0  0  0  0  0  0  0  0  0  0
  147.1948  134.9929  159.2256 C   0  0  0  0  0  0  0  0  0  0  0  0
  148.9370  139.9199  154.8292 C   0  0  2  0  0  0  0  0  0  0  0  0
  148.1708  139.3711  153.6135 C   0  0  0  0  0  0  0  0  0  0  0  0
  148.5665  141.4038  155.0608 C   0  0  0  0  0  0  0  0  0  0  0  0
  147.0192  141.6323  158.7629 H   0  0  0  0  0  0  0  0  0  0  0  0
  146.7146  141.2084  157.0884 H   0  0  0  0  0  0  0  0  0  0  0  0
  147.0534  142.8836  157.5269 H   0  0  0  0  0  0  0  0  0  0  0  0
  149.3431  142.1950  158.3042 H   0  0  0  0  0  0  0  0  0  0  0  0
  149.0685  140.5643  157.7534 H   0  0  0  0  0  0  0  0  0  0  0  0
  151.0662  142.4643  155.1533 H   0  0  0  0  0  0  0  0  0  0  0  0
  151.2886  142.3492  156.8784 H   0  0  0  0  0  0  0  0  0  0  0  0
  152.2789  140.3829  155.7036 H   0  0  0  0  0  0  0  0  0  0  0  0
  151.0046  139.8784  156.7835 H   0  0  0  0  0  0  0  0  0  0  0  0
  150.7623  140.3536  153.7971 H   0  0  0  0  0  0  0  0  0  0  0  0
  152.2099  137.1695  153.3595 H   0  0  0  0  0  0  0  0  0  0  0  0
  151.8229  138.7156  152.6201 H   0  0  0  0  0  0  0  0  0  0  0  0
  150.6133  137.4385  152.6409 H   0  0  0  0  0  0  0  0  0  0  0  0
  151.7601  134.4133  156.1819 H   0  0  0  0  0  0  0  0  0  0  0  0
  148.4923  139.1178  159.1181 H   0  0  0  0  0  0  0  0  0  0  0  0
  149.7224  135.6083  160.1004 H   0  0  0  0  0  0  0  0  0  0  0  0
  149.4066  137.1436  160.8630 H   0  0  0  0  0  0  0  0  0  0  0  0
  145.8923  137.0092  160.1876 H   0  0  0  0  0  0  0  0  0  0  0  0
  147.9338  135.7848  162.3844 H   0  0  0  0  0  0  0  0  0  0  0  0
  146.2540  135.7536  161.8786 H   0  0  0  0  0  0  0  0  0  0  0  0
  148.3421  133.6338  161.2419 H   0  0  0  0  0  0  0  0  0  0  0  0
  146.7729  133.4074  162.0341 H   0  0  0  0  0  0  0  0  0  0  0  0
  146.4307  135.3090  158.5142 H   0  0  0  0  0  0  0  0  0  0  0  0
  148.0506  134.6418  158.6475 H   0  0  0  0  0  0  0  0  0  0  0  0
  148.6079  139.3511  155.6980 H   0  0  0  0  0  0  0  0  0  0  0  0
  148.4653  139.8809  152.6958 H   0  0  0  0  0  0  0  0  0  0  0  0
  147.0954  139.5017  153.7357 H   0  0  0  0  0  0  0  0  0  0  0  0
  148.3524  138.3051  153.4742 H   0  0  0  0  0  0  0  0  0  0  0  0
  147.4909  141.5122  155.1964 H   0  0  0  0  0  0  0  0  0  0  0  0
  148.8091  141.9774  154.1651 H   0  0  0  0  0  0  0  0  0  0  0  0
  149.1105  143.0073  156.1543 H   0  0  0  0  0  0  0  0  0  0  0  0
  1  2  1  0  0  0  0
  1 28  1  0  0  0  0
  1 29  1  0  0  0  0
  1 30  1  0  0  0  0
  2  3  1  0  0  0  0
  2 31  1  0  0  0  0
  2 32  1  0  0  0  0
  3 27  1  0  0  0  0
  3  4  1  0  0  0  0
  3 58  1  0  0  0  0
  4  5  1  0  0  0  0
  4 33  1  0  0  0  0
  4 34  1  0  0  0  0
  5  6  1  0  0  0  0
  5 35  1  0  0  0  0
  5 36  1  0  0  0  0
  6  7  1  0  0  0  0
  6 25  1  0  0  0  0
  6 37  1  0  0  0  0
  7  8  1  0  0  0  0
  7  9  1  0  0  0  0
  8 38  1  0  0  0  0
  8 39  1  0  0  0  0
  8 40  1  0  0  0  0
  9 14  1  0  0  0  0
  9 10  2  0  0  0  0
 10 11  1  0  0  0  0
 11 12  2  0  0  0  0
 11 41  1  0  0  0  0
 12 13  1  0  0  0  0
 13 17  1  0  0  0  0
 13 14  2  0  0  0  0
 14 15  1  0  0  0  0
 15 16  2  0  0  0  0
 16 17  1  0  0  0  0
 16 42  1  0  0  0  0
 17 18  1  0  0  0  0
 18 19  1  0  0  0  0
 18 43  1  0  0  0  0
 18 44  1  0  0  0  0
 19 24  1  0  0  0  0
 19 20  1  0  0  0  0
 19 21  1  0  0  0  0
 20 45  1  0  0  0  0
 21 22  1  0  0  0  0
 21 46  1  0  0  0  0
 21 47  1  0  0  0  0
 22 23  1  0  0  0  0
 22 48  1  0  0  0  0
 22 49  1  0  0  0  0
 23 24  1  0  0  0  0
 24 50  1  0  0  0  0
 24 51  1  0  0  0  0
 25 26  1  0  0  0  0
 25 27  1  0  0  0  0
 25 52  1  0  0  0  0
 26 53  1  0  0  0  0
 26 54  1  0  0  0  0
 26 55  1  0  0  0  0
 27 56  1  0  0  0  0
 27 57  1  0  0  0  0
M  CHG  1   3   1
M  END
> <s_m_source_file>
AV-unprocessed.smi

> <i_m_source_file_index>
243

> <i_lp_mmshare_version>
43012

> <i_f3d_flags>
0

> <s_epik_input>
W0NIM11bQ0gyXU4xW0NIMl1bQ0gyXVtDQEhdKFtDQEBIXShbQ0gzXSlbQ0gyXTEpTihbQ0gzXSljKG5bY0hdbjIpYyhjMjMpbltjSF1uM1tDSDJdW0NAQF00KFtPSF0pW0NIMl1bQ0gyXU9bQ0gyXTQ=

> <s_epik_cmdline>
J2VwaWtfcHl0aG9uJywgJy1waCcsICc3LjAnLCAnLXRuJywgJzgnLCAnLW1hJywgJzIwMCcsICctbWV0YWxfYmluZGluZycsICctaW1hZScsICc8aW5maWxlLm1hZT4nLCAnLW9tYWUnLCAnPG91dGZpbGUubWFlPic=

> <r_lp_tautomer_probability>
1

> <r_epik_Ionization_Penalty>
0.00253099

> <r_epik_Ionization_Penalty_Charging>
0.00137877

> <r_epik_Ionization_Penalty_Neutral>
0.00115221

> <r_epik_State_Penalty>
-0

> <r_epik_Charging_Adjusted_Penalty>
0.00137877

> <i_epik_Tot_Q>
1

> <i_epik_Tot_abs_Q>
1

> <r_epik_Metal_State_Penalty>
-0

> <b_epik_Metal_Only>
0

> <s_lp_Force_Field>
OPLS_2005

> <r_lp_Energy>
46.8505

> <b_lp_Chiralities_Consistent>
1

> <s_lp_Variant>
AV-unprocessed.smi:243-14

> <Gold.Version>
5.8.1

> <Gold.Id.Protein>
6NUR|6NUR_protein|mol2

> <Gold.PLP.Fitness>
44.5000

> <Gold.PLP.PLP>
-32.8936

> <Gold.PLP.part.hbond>
-4.0000

> <Gold.PLP.part.metal>
0.0000

> <Gold.PLP.part.buried>
1.1089

> <Gold.PLP.part.nonpolar>
-30.2203

> <Gold.PLP.part.repulsive>
0.1188

> <Gold.PLP.ligand.clash>
1.4099

> <Gold.PLP.ligand.torsion>
0.3244

> <Gold.PLP.Chemscore.Hbond>
4.5120

> <Gold.PLP.Chemscore.CHOScore>
0.0000

> <Gold.PLP.Chemscore.Metal>
0.0000

> <Gold.Chemscore.Hbonds>
donor molecule, donor type, donor heavy atom, donor atom, acceptor molecule, acceptor atom, score
      L1  H     3    58       P1  8028  2.00
      P1  H  6896  6907       L1    12  0.32
      P1  H  6934  6947       L1    20  1.00
      P1  H 10752 10763       L1    10  0.55

> <Gold.PLP.Chemscore.Internal.Correction>
0.1290

> <Gold.Rescore>
     Score         DG    S(hbond)    S(metal)    S(lipo)     H(rot)  DE(clash)    DE(int)     intcor
     12.34     -20.81       3.37        0.00      83.87       2.24       1.73       6.74       ----

> <Gold.Chemscore.Fitness>
12.3376

> <Gold.Chemscore.DG>
-20.8077

> <Gold.Chemscore.ZeroCoef>
-5.4800

> <Gold.Chemscore.Hbond>
3.3665

> <Gold.Chemscore.Metal>
0.0000

> <Gold.Chemscore.Lipo>
83.8692

> <Gold.Chemscore.Internal_Hbond>
0.0000

> <Gold.Chemscore.DEClash>
1.7301

> <Gold.Chemscore.DEInternal>
6.7399

> <Gold.Chemscore.Rot>
2.2379

> <Gold.Chemscore.Internal.Correction>
   9.000000E+99

> <Gold.Chemscore.Hbonds>
donor molecule, donor type, donor heavy atom, donor atom, acceptor molecule, acceptor atom, score
      L1  H     3    58       P1  8028  1.00
      P1  H  6896  6907       L1    12  0.18
      P1  H  6934  6947       L1    20  0.60
      P1  H 10752 10763       L1    10  0.03

> <Gold.Chemscore.Hbond.Weighted>
-11.2441

> <Gold.Chemscore.Metal.Weighted>
-0.0000

> <Gold.Chemscore.Lipo.Weighted>
-9.8127

> <Gold.Chemscore.Internal_Hbond.Weighted>
0.0000

> <Gold.Chemscore.DEClash.Weighted>
1.7301

> <Gold.Chemscore.DEInternal.Weighted>
6.7399

> <Gold.Chemscore.Rot.Weighted>
5.7291

> <Gold.Chemscore.Internal.Correction.Weighted>
   9.000000E+99

> <Gold.Protein.RotatedTorsions>
[ 6907 6896 6895 6894 ] final  -69.71 input  -60.11 | X-H torsion
[ 7974 7965 7964 7962 ] final  -67.88 input  175.53 | X-H torsion
[ 8008 7997 7996 7995 ] final  -88.37 input   59.86 | X-H torsion
[ 10167 10162 10161 10158 ] final   -2.11 input  -65.29 | X-H torsion
[ 10718 10713 10712 10709 ] final  163.73 input   66.30 | X-H torsion
[ 10763 10752 10751 10750 ] final   73.90 input  -60.55 | X-H torsion
[ 11005 11000 10999 10996 ] final   62.80 input  -57.11 | X-H torsion

> <Gold.Protein.ActiveResidues>
 VAL166  LYS551  ARG553  GLY616  TRP617  ASP618  TYR619  PRO620  LYS621  CYS622 
 ASP623  PHE694  ASN695  SER759  ASP760  ASP761  ALA762  ILE779  LEU786  VAL792 
 PHE793  MET794  SER795  GLU796  ALA797  LYS798  CYS799  TRP800  GLU811  SER814 

> <Gold.Protein.RotatedAtoms>
  150.7292  134.5558  159.5817 H   0  0  0  0  0  0  0  0  0  0  0  0  # atno 6907 bound_to 6896
  152.3034  134.7581  160.0362 H   0  0  0  0  0  0  0  0  0  0  0  0  # atno 6908 bound_to 6896
  151.8154  133.3352  159.3604 H   0  0  0  0  0  0  0  0  0  0  0  0  # atno 6909 bound_to 6896
  145.7236  140.9028  143.0617 H   0  0  0  0  0  0  0  0  0  0  0  0  # atno 7974 bound_to 7965
  154.6741  140.0554  157.0196 H   0  0  0  0  0  0  0  0  0  0  0  0  # atno 8008 bound_to 7997
  155.1046  140.3232  155.4519 H   0  0  0  0  0  0  0  0  0  0  0  0  # atno 8009 bound_to 7997
  156.2669  140.2025  156.6172 H   0  0  0  0  0  0  0  0  0  0  0  0  # atno 8010 bound_to 7997
  140.6837  143.6696  150.8196 H   0  0  0  0  0  0  0  0  0  0  0  0  # atno 10167 bound_to 10162
  157.1044  131.0451  151.2484 H   0  0  0  0  0  0  0  0  0  0  0  0  # atno 10718 bound_to 10713
  153.0551  135.5046  154.7962 H   0  0  0  0  0  0  0  0  0  0  0  0  # atno 10763 bound_to 10752
  154.6794  135.2966  154.9636 H   0  0  0  0  0  0  0  0  0  0  0  0  # atno 10764 bound_to 10752
  154.0427  135.6714  153.4844 H   0  0  0  0  0  0  0  0  0  0  0  0  # atno 10765 bound_to 10752
  140.0068  134.6358  155.9843 H   0  0  0  0  0  0  0  0  0  0  0  0  # atno 11005 bound_to 11000
  144.6910  139.9235  143.7469 LP  0  0  0  0  0  0  0  0  0  0  0  0  # atno 17320 bound_to 7965
  146.0603  139.3597  143.0585 LP  0  0  0  0  0  0  0  0  0  0  0  0  # atno 17321 bound_to 7965
  140.0400  143.5356  152.2722 LP  0  0  0  0  0  0  0  0  0  0  0  0  # atno 17342 bound_to 10162
  139.6179  144.7623  151.2804 LP  0  0  0  0  0  0  0  0  0  0  0  0  # atno 17343 bound_to 10162
  157.4613  130.7655  149.7239 LP  0  0  0  0  0  0  0  0  0  0  0  0  # atno 17370 bound_to 10713
  155.9866  130.3974  150.3207 LP  0  0  0  0  0  0  0  0  0  0  0  0  # atno 17371 bound_to 10713
  141.1682  133.6537  156.4556 LP  0  0  0  0  0  0  0  0  0  0  0  0  # atno 17394 bound_to 11000
  140.4627  134.6826  157.5093 LP  0  0  0  0  0  0  0  0  0  0  0  0  # atno 17395 bound_to 11000

$$$$
