#       Name:                AV-unprocessed.smi:951
#       Creating user name   scv26
#       Creation time:       Fri Mar 27 02:15:46 2020


#       File generated by GOLD software.
#

@<TRIPOS>MOLECULE
AV-unprocessed.smi:951
    56    58     1
SMALL
NO_CHARGES


@<TRIPOS>ATOM
      1 ****        -0.1491   3.2639   1.9256 O.2            1 S1                 0.0000
      2 ****        -0.5456   2.1688   1.5279 C.2            1 S1                 0.0000
      3 ****         0.2940   1.1769   1.1884 N.am           1 S1                 0.0000
      4 ****         1.7456   1.2584   1.2316 C.3            1 S1                 0.0000
      5 ****         2.3669  -0.0291   0.6729 C.3            1 S1                 0.0000
      6 ****         3.8829   0.0017   0.7085 C.ar           1 S1                 0.0000
      7 ****         4.6261   0.2983  -0.4542 C.ar           1 S1                 0.0000
      8 ****         6.0314   0.3216  -0.3642 C.ar           1 S1                 0.0000
      9 ****         6.6361   0.0494   0.8780 C.ar           1 S1                 0.0000
     10 ****         5.8051  -0.2346   1.9803 C.ar           1 S1                 0.0000
     11 ****         4.4569  -0.2601   1.9046 N.ar           1 S1                 0.0000
     12 ****        -2.0659   1.9175   1.3959 C.3            1 S1                 0.0000
     13 ****        -2.7199   1.8196   2.7824 C.3            1 S1                 0.0000
     14 ****        -2.6804   0.3353   3.1083 C.3            1 S1                 0.0000
     15 ****        -2.8454  -0.3435   1.7479 C.3            1 S1                 0.0000
     16 ****        -2.4064   0.6373   0.7495 N.am           1 S1                 0.0000
     17 ****        -2.3345   0.4299  -0.5876 C.2            1 S1                 0.0000
     18 ****        -2.0053   1.3330  -1.3568 O.2            1 S1                 0.0000
     19 ****        -2.6487  -0.9758  -1.1528 C.3            1 S1                 0.0000
     20 ****        -1.3930  -1.8797  -1.1479 C.3            1 S1                 0.0000
     21 ****        -0.4018  -1.5382  -2.2738 C.3            1 S1                 0.0000
     22 ****        -1.0870  -1.6147  -3.6457 C.3            1 S1                 0.0000
     23 ****        -2.3033  -0.6797  -3.7118 C.3            1 S1                 0.0000
     24 ****        -3.2961  -0.9518  -2.5620 C.3            1 S1                 0.0000
     25 ****        -0.1061   0.3071   0.8677 H              1 S1                 0.0000
     26 ****         2.0807   2.1183   0.6492 H              1 S1                 0.0000
     27 ****         2.0655   1.4185   2.2624 H              1 S1                 0.0000
     28 ****         2.0181  -0.8913   1.2436 H              1 S1                 0.0000
     29 ****         2.0352  -0.1880  -0.3543 H              1 S1                 0.0000
     30 ****         4.1328   0.5058  -1.3925 H              1 S1                 0.0000
     31 ****         6.6346   0.5454  -1.2316 H              1 S1                 0.0000
     32 ****         7.7107   0.0588   0.9845 H              1 S1                 0.0000
     33 ****         6.2343  -0.4469   2.9484 H              1 S1                 0.0000
     34 ****        -2.5029   2.7532   0.8462 H              1 S1                 0.0000
     35 ****        -2.2352   2.4284   3.5473 H              1 S1                 0.0000
     36 ****        -3.7577   2.1495   2.7174 H              1 S1                 0.0000
     37 ****        -1.7076   0.0801   3.5309 H              1 S1                 0.0000
     38 ****        -3.4445   0.0366   3.8265 H              1 S1                 0.0000
     39 ****        -2.2716  -1.2694   1.6993 H              1 S1                 0.0000
     40 ****        -3.8965  -0.5807   1.5785 H              1 S1                 0.0000
     41 ****        -3.3917  -1.4364  -0.5034 H              1 S1                 0.0000
     42 ****        -0.8806  -1.8190  -0.1870 H              1 S1                 0.0000
     43 ****        -1.7044  -2.9199  -1.2515 H              1 S1                 0.0000
     44 ****         0.0132  -0.5411  -2.1211 H              1 S1                 0.0000
     45 ****         0.4417  -2.2282  -2.2437 H              1 S1                 0.0000
     46 ****        -0.3770  -1.3566  -4.4319 H              1 S1                 0.0000
     47 ****        -1.4036  -2.6405  -3.8392 H              1 S1                 0.0000
     48 ****        -1.9662   0.3559  -3.6906 H              1 S1                 0.0000
     49 ****        -2.8104  -0.8059  -4.6688 H              1 S1                 0.0000
     50 ****        -3.7706  -1.9177  -2.7391 H              1 S1                 0.0000
     51 ****        -4.1033  -0.2187  -2.5941 H              1 S1                 0.0000
     52 ****         0.8317   3.4415   2.0060 LP             1 S1                 0.0000
     53 ****        -0.8077   3.9761   2.1684 LP             1 S1                 0.0000
     54 ****         3.8998  -0.4664   2.7090 LP             1 S1                 0.0000
     55 ****        -1.7849   2.2399  -0.9978 LP             1 S1                 0.0000
     56 ****        -1.9583   1.1596  -2.3405 LP             1 S1                 0.0000
@<TRIPOS>BOND
    1    1    2 2     
    2    2    3 am    
    3    2   12 1     
    4    3    4 1     
    5    3   25 1     
    6    4    5 1     
    7    4   26 1     
    8    4   27 1     
    9    5    6 1     
   10    5   28 1     
   11    5   29 1     
   12    6   11 ar    
   13    6    7 ar    
   14    7    8 ar    
   15    7   30 1     
   16    8    9 ar    
   17    8   31 1     
   18    9   10 ar    
   19    9   32 1     
   20   10   11 ar    
   21   10   33 1     
   22   12   16 1     
   23   12   13 1     
   24   12   34 1     
   25   13   14 1     
   26   13   35 1     
   27   13   36 1     
   28   14   15 1     
   29   14   37 1     
   30   14   38 1     
   31   15   16 1     
   32   15   39 1     
   33   15   40 1     
   34   16   17 am    
   35   17   18 2     
   36   17   19 1     
   37   19   24 1     
   38   19   20 1     
   39   19   41 1     
   40   20   21 1     
   41   20   42 1     
   42   20   43 1     
   43   21   22 1     
   44   21   44 1     
   45   21   45 1     
   46   22   23 1     
   47   22   46 1     
   48   22   47 1     
   49   23   24 1     
   50   23   48 1     
   51   23   49 1     
   52   24   50 1     
   53   24   51 1     
   54    1   52 1     
   55    1   53 1     
   56   11   54 1     
   57   18   55 1     
   58   18   56 1     
@<TRIPOS>SUBSTRUCTURE
      1 S1             1
@<TRIPOS>SET
LONE_PAIRS      STATIC     ATOMS    <user>   **** ""
5 52 53 54 55 56
DONOR_HYDROGENS      STATIC     ATOMS    <user>   **** ""
1 25
ATOM$BLUE        STATIC     ATOMS    COLORGROUP SYSTEM
5 52 53 54 55 56
ATOM$RED        STATIC     ATOMS    COLORGROUP SYSTEM
1 25
