AV-unprocessed.smi:170|AV-procd|sdf|1411|dock7
  -GOLD-   2262019173D 1   1.00000     0.00000
 Structure written by MMmdl.
 57 61  0  0  0  0  0  0  0  0  1 V2000
  147.8906  134.1458  158.4689 O   0  0  0  0  0  0  0  0  0  0  0  0
  148.4373  135.2228  159.2067 C   0  0  1  0  0  0  0  0  0  0  0  0
  148.7017  136.4053  158.2541 C   0  0  0  0  0  0  0  0  0  0  0  0
  149.8348  137.2117  158.6709 N   0  0  0  0  0  0  0  0  0  0  0  0
  150.3710  137.2937  159.9365 C   0  0  0  0  0  0  0  0  0  0  0  0
  151.4001  138.0884  160.0548 N   0  0  0  0  0  0  0  0  0  0  0  0
  151.5830  138.5910  158.7731 C   0  0  0  0  0  0  0  0  0  0  0  0
  152.5147  139.4879  158.1902 C   0  0  0  0  0  0  0  0  0  0  0  0
  153.5115  140.0470  158.9130 N   0  0  0  0  0  0  0  0  0  0  0  0
  154.3246  139.0360  159.5807 C   0  0  0  0  0  0  0  0  0  0  0  0
  155.5397  139.6911  160.2497 C   0  0  0  0  0  0  0  0  0  0  0  0
  155.0814  140.6815  161.1598 O   0  0  0  0  0  0  0  0  0  0  0  0
  154.3624  141.7181  160.5006 C   0  0  0  0  0  0  0  0  0  0  0  0
  153.1078  141.1512  159.7929 C   0  0  1  0  0  0  0  0  0  0  0  0
  152.3337  142.2606  159.0312 C   0  0  0  0  0  0  0  0  0  0  0  0
  152.6105  143.6784  159.5270 C   0  0  0  0  0  0  0  0  0  0  0  0
  151.9164  144.1963  160.7958 C   0  0  0  0  0  0  0  0  0  0  0  0
  151.8559  145.5796  160.1428 C   0  0  0  0  0  0  0  0  0  0  0  0
  151.9881  144.8740  158.7904 C   0  0  0  0  0  0  0  0  0  0  0  0
  152.3991  139.7553  156.8622 N   0  0  0  0  0  0  0  0  0  0  0  0
  151.4260  139.1783  156.1499 C   0  0  0  0  0  0  0  0  0  0  0  0
  150.4884  138.3193  156.5576 N   0  0  0  0  0  0  0  0  0  0  0  0
  150.6080  138.0513  157.8899 C   0  0  0  0  0  0  0  0  0  0  0  0
  147.4654  135.5949  160.3417 C   0  0  1  0  0  0  0  0  0  0  0  0
  147.0696  134.4268  161.2445 C   0  0  0  0  0  0  0  0  0  0  0  0
  146.6113  135.1478  162.4916 C   0  0  0  0  0  0  0  0  0  0  0  0
  147.5831  136.3240  162.5631 C   0  0  0  0  0  0  0  0  0  0  0  0
  148.0737  136.5198  161.2385 O   0  0  0  0  0  0  0  0  0  0  0  0
  147.4124  133.5872  159.0624 H   0  0  0  0  0  0  0  0  0  0  0  0
  149.3822  134.8897  159.6380 H   0  0  0  0  0  0  0  0  0  0  0  0
  148.8810  136.0476  157.2396 H   0  0  0  0  0  0  0  0  0  0  0  0
  147.8273  137.0551  158.2043 H   0  0  0  0  0  0  0  0  0  0  0  0
  149.9720  136.7418  160.7752 H   0  0  0  0  0  0  0  0  0  0  0  0
  153.7285  138.5150  160.3319 H   0  0  0  0  0  0  0  0  0  0  0  0
  154.6575  138.2903  158.8571 H   0  0  0  0  0  0  0  0  0  0  0  0
  156.1180  138.9456  160.7956 H   0  0  0  0  0  0  0  0  0  0  0  0
  156.2052  140.1353  159.5076 H   0  0  0  0  0  0  0  0  0  0  0  0
  154.0831  142.4524  161.2555 H   0  0  0  0  0  0  0  0  0  0  0  0
  155.0154  142.2259  159.7887 H   0  0  0  0  0  0  0  0  0  0  0  0
  152.4503  140.7373  160.5591 H   0  0  0  0  0  0  0  0  0  0  0  0
  152.5666  142.1955  157.9676 H   0  0  0  0  0  0  0  0  0  0  0  0
  151.2610  142.0801  159.1057 H   0  0  0  0  0  0  0  0  0  0  0  0
  153.6834  143.8593  159.6162 H   0  0  0  0  0  0  0  0  0  0  0  0
  150.9279  143.7588  160.9468 H   0  0  0  0  0  0  0  0  0  0  0  0
  152.5223  144.1421  161.7008 H   0  0  0  0  0  0  0  0  0  0  0  0
  150.9170  146.1139  160.2896 H   0  0  0  0  0  0  0  0  0  0  0  0
  152.7203  146.2006  160.3833 H   0  0  0  0  0  0  0  0  0  0  0  0
  152.6514  145.3683  158.0801 H   0  0  0  0  0  0  0  0  0  0  0  0
  151.0204  144.6423  158.3421 H   0  0  0  0  0  0  0  0  0  0  0  0
  151.3959  139.4403  155.1025 H   0  0  0  0  0  0  0  0  0  0  0  0
  146.5652  136.0606  159.9365 H   0  0  0  0  0  0  0  0  0  0  0  0
  146.2957  133.7937  160.8095 H   0  0  0  0  0  0  0  0  0  0  0  0
  147.9358  133.8033  161.4706 H   0  0  0  0  0  0  0  0  0  0  0  0
  145.5918  135.5117  162.3566 H   0  0  0  0  0  0  0  0  0  0  0  0
  146.6339  134.5203  163.3830 H   0  0  0  0  0  0  0  0  0  0  0  0
  147.1021  137.2265  162.9412 H   0  0  0  0  0  0  0  0  0  0  0  0
  148.4262  136.0916  163.2146 H   0  0  0  0  0  0  0  0  0  0  0  0
  1  2  1  0  0  0  0
  1 29  1  0  0  0  0
  2  3  1  0  0  0  0
  2 24  1  0  0  0  0
  2 30  1  0  0  0  0
  3  4  1  0  0  0  0
  3 31  1  0  0  0  0
  3 32  1  0  0  0  0
  4 23  1  0  0  0  0
  4  5  1  0  0  0  0
  5  6  2  0  0  0  0
  5 33  1  0  0  0  0
  6  7  1  0  0  0  0
  7 23  2  0  0  0  0
  7  8  1  0  0  0  0
  8  9  1  0  0  0  0
  8 20  2  0  0  0  0
  9 14  1  0  0  0  0
  9 10  1  0  0  0  0
 10 11  1  0  0  0  0
 10 34  1  0  0  0  0
 10 35  1  0  0  0  0
 11 12  1  0  0  0  0
 11 36  1  0  0  0  0
 11 37  1  0  0  0  0
 12 13  1  0  0  0  0
 13 14  1  0  0  0  0
 13 38  1  0  0  0  0
 13 39  1  0  0  0  0
 14 15  1  0  0  0  0
 14 40  1  0  0  0  0
 15 16  1  0  0  0  0
 15 41  1  0  0  0  0
 15 42  1  0  0  0  0
 16 19  1  0  0  0  0
 16 17  1  0  0  0  0
 16 43  1  0  0  0  0
 17 18  1  0  0  0  0
 17 44  1  0  0  0  0
 17 45  1  0  0  0  0
 18 19  1  0  0  0  0
 18 46  1  0  0  0  0
 18 47  1  0  0  0  0
 19 48  1  0  0  0  0
 19 49  1  0  0  0  0
 20 21  1  0  0  0  0
 21 22  2  0  0  0  0
 21 50  1  0  0  0  0
 22 23  1  0  0  0  0
 24 28  1  0  0  0  0
 24 25  1  0  0  0  0
 24 51  1  0  0  0  0
 25 26  1  0  0  0  0
 25 52  1  0  0  0  0
 25 53  1  0  0  0  0
 26 27  1  0  0  0  0
 26 54  1  0  0  0  0
 26 55  1  0  0  0  0
 27 28  1  0  0  0  0
 27 56  1  0  0  0  0
 27 57  1  0  0  0  0
M  END
> <s_m_source_file>
AV-unprocessed.smi

> <i_m_source_file_index>
170

> <i_lp_mmshare_version>
43012

> <i_f3d_flags>
0

> <s_epik_input>
TzFbQ0gyXVtDSDJdW0NIMl1bQ0BIXTFbQ0BIXShbT0hdKVtDSDJdbihbY0hdbjIpYyhjMjMpbltjSF1uYzNONFtDSDJdW0NIMl1PW0NIMl1bQ0BIXTRbQ0gyXVtDSF01W0NIMl1bQ0gyXVtDSDJdNQ==

> <s_epik_cmdline>
J2VwaWtfcHl0aG9uJywgJy1waCcsICc3LjAnLCAnLXRuJywgJzgnLCAnLW1hJywgJzIwMCcsICctbWV0YWxfYmluZGluZycsICctaW1hZScsICc8aW5maWxlLm1hZT4nLCAnLW9tYWUnLCAnPG91dGZpbGUubWFlPic=

> <r_lp_tautomer_probability>
1

> <r_epik_Ionization_Penalty>
4.98275e-05

> <r_epik_Ionization_Penalty_Charging>
0

> <r_epik_Ionization_Penalty_Neutral>
4.98275e-05

> <r_epik_State_Penalty>
-0

> <r_epik_Charging_Adjusted_Penalty>
0

> <i_epik_Tot_Q>
0

> <i_epik_Tot_abs_Q>
0

> <r_epik_Metal_State_Penalty>
-0

> <b_epik_Metal_Only>
0

> <s_lp_Force_Field>
OPLS_2005

> <r_lp_Energy>
51.0174

> <b_lp_Chiralities_Consistent>
1

> <s_lp_Variant>
AV-unprocessed.smi:170-6

> <Gold.Version>
5.8.1

> <Gold.Id.Protein>
6NUR|6NUR_protein|mol2

> <Gold.PLP.Fitness>
50.8315

> <Gold.PLP.PLP>
-49.5829

> <Gold.PLP.part.hbond>
-4.8743

> <Gold.PLP.part.metal>
0.0000

> <Gold.PLP.part.buried>
-1.9689

> <Gold.PLP.part.nonpolar>
-44.3147

> <Gold.PLP.part.repulsive>
0.0000

> <Gold.PLP.ligand.clash>
0.0000

> <Gold.PLP.ligand.torsion>
1.5882

> <Gold.PLP.Chemscore.Hbond>
1.3770

> <Gold.PLP.Chemscore.CHOScore>
0.0000

> <Gold.PLP.Chemscore.Metal>
0.0000

> <Gold.Chemscore.Hbonds>
donor molecule, donor type, donor heavy atom, donor atom, acceptor molecule, acceptor atom, score
      P1  H  6931  6943       L1    28  0.39
      P1  H  7997  8008       L1    20  0.98

> <Gold.PLP.Chemscore.Internal.Correction>
0.2941

> <Gold.Rescore>
     Score         DG    S(hbond)    S(metal)    S(lipo)     H(rot)  DE(clash)    DE(int)     intcor
     13.08     -15.98       0.82        0.00     123.59       2.61       0.03       2.87       ----

> <Gold.Chemscore.Fitness>
13.0831

> <Gold.Chemscore.DG>
-15.9777

> <Gold.Chemscore.ZeroCoef>
-5.4800

> <Gold.Chemscore.Hbond>
0.8176

> <Gold.Chemscore.Metal>
0.0000

> <Gold.Chemscore.Lipo>
123.5893

> <Gold.Chemscore.Internal_Hbond>
0.0000

> <Gold.Chemscore.DEClash>
0.0270

> <Gold.Chemscore.DEInternal>
2.8676

> <Gold.Chemscore.Rot>
2.6144

> <Gold.Chemscore.Internal.Correction>
   9.000000E+99

> <Gold.Chemscore.Hbonds>
donor molecule, donor type, donor heavy atom, donor atom, acceptor molecule, acceptor atom, score
      P1  H  6931  6943       L1    28  0.01
      P1  H  7997  8008       L1    20  0.31

> <Gold.Chemscore.Hbond.Weighted>
-2.7307

> <Gold.Chemscore.Metal.Weighted>
-0.0000

> <Gold.Chemscore.Lipo.Weighted>
-14.4600

> <Gold.Chemscore.Internal_Hbond.Weighted>
0.0000

> <Gold.Chemscore.DEClash.Weighted>
0.0270

> <Gold.Chemscore.DEInternal.Weighted>
2.8676

> <Gold.Chemscore.Rot.Weighted>
6.6929

> <Gold.Chemscore.Internal.Correction.Weighted>
   9.000000E+99

> <Gold.Protein.RotatedTorsions>
[ 6907 6896 6895 6894 ] final  101.98 input  -60.11 | X-H torsion
[ 7974 7965 7964 7962 ] final -166.59 input  175.53 | X-H torsion
[ 8008 7997 7996 7995 ] final  -41.62 input   59.86 | X-H torsion
[ 10167 10162 10161 10158 ] final  -14.05 input  -65.29 | X-H torsion
[ 10718 10713 10712 10709 ] final -148.97 input   66.30 | X-H torsion
[ 10763 10752 10751 10750 ] final  121.06 input  -60.55 | X-H torsion
[ 11005 11000 10999 10996 ] final  -99.71 input  -57.11 | X-H torsion

> <Gold.Protein.ActiveResidues>
 VAL166  LYS551  ARG553  GLY616  TRP617  ASP618  TYR619  PRO620  LYS621  CYS622 
 ASP623  PHE694  ASN695  SER759  ASP760  ASP761  ALA762  ILE779  LEU786  VAL792 
 PHE793  MET794  SER795  GLU796  ALA797  LYS798  CYS799  TRP800  GLU811  SER814 

> <Gold.Protein.RotatedAtoms>
  152.5335  134.0044  159.7909 H   0  0  0  0  0  0  0  0  0  0  0  0  # atno 6907 bound_to 6896
  151.0257  133.5828  159.2673 H   0  0  0  0  0  0  0  0  0  0  0  0  # atno 6908 bound_to 6896
  151.2851  135.0732  159.9237 H   0  0  0  0  0  0  0  0  0  0  0  0  # atno 6909 bound_to 6896
  144.7242  140.2644  143.6260 H   0  0  0  0  0  0  0  0  0  0  0  0  # atno 7974 bound_to 7965
  154.4003  140.1495  156.3220 H   0  0  0  0  0  0  0  0  0  0  0  0  # atno 8008 bound_to 7997
  155.8521  140.3457  155.5679 H   0  0  0  0  0  0  0  0  0  0  0  0  # atno 8009 bound_to 7997
  155.7973  140.0865  157.1967 H   0  0  0  0  0  0  0  0  0  0  0  0  # atno 8010 bound_to 7997
  140.7194  143.5362  150.9462 H   0  0  0  0  0  0  0  0  0  0  0  0  # atno 10167 bound_to 10162
  156.4271  130.8057  151.2283 H   0  0  0  0  0  0  0  0  0  0  0  0  # atno 10718 bound_to 10713
  153.6081  135.3435  155.2969 H   0  0  0  0  0  0  0  0  0  0  0  0  # atno 10763 bound_to 10752
  154.8624  135.4243  154.2339 H   0  0  0  0  0  0  0  0  0  0  0  0  # atno 10764 bound_to 10752
  153.3183  135.7036  153.7125 H   0  0  0  0  0  0  0  0  0  0  0  0  # atno 10765 bound_to 10752
  141.1298  133.8342  157.1007 H   0  0  0  0  0  0  0  0  0  0  0  0  # atno 11005 bound_to 11000
  145.8104  139.2001  143.1996 LP  0  0  0  0  0  0  0  0  0  0  0  0  # atno 17320 bound_to 7965
  146.0601  140.7980  142.9739 LP  0  0  0  0  0  0  0  0  0  0  0  0  # atno 17321 bound_to 7965
  139.9084  143.6750  152.3119 LP  0  0  0  0  0  0  0  0  0  0  0  0  # atno 17342 bound_to 10162
  139.7124  144.7618  151.1089 LP  0  0  0  0  0  0  0  0  0  0  0  0  # atno 17343 bound_to 10162
  157.7508  131.0210  150.3731 LP  0  0  0  0  0  0  0  0  0  0  0  0  # atno 17370 bound_to 10713
  156.4060  130.3925  149.6925 LP  0  0  0  0  0  0  0  0  0  0  0  0  # atno 17371 bound_to 10713
  140.0335  134.9889  157.0827 LP  0  0  0  0  0  0  0  0  0  0  0  0  # atno 17394 bound_to 11000
  140.4247  134.1843  155.7165 LP  0  0  0  0  0  0  0  0  0  0  0  0  # atno 17395 bound_to 11000

$$$$
