AV-unprocessed.smi:370|AV-procd|sdf|2440|dock3
  -GOLD-   2262022383D 1   1.00000     0.00000
 Structure written by MMmdl.
 42 43  0  0  0  0  0  0  0  0  3 V2000
  151.9322  144.6895  160.4406 C   0  0  0  0  0  0  0  0  0  0  0  0
  151.7927  143.4791  159.5832 C   0  0  0  0  0  0  0  0  0  0  0  0
  151.3118  143.2851  158.3191 C   0  0  0  0  0  0  0  0  0  0  0  0
  151.4734  141.8874  158.1248 C   0  0  0  0  0  0  0  0  0  0  0  0
  151.0831  141.2780  156.9033 N   0  0  0  0  0  0  0  0  0  0  0  0
  151.3728  140.0468  156.4443 C   0  0  0  0  0  0  0  0  0  0  0  0
  152.0547  139.2705  157.1235 O   0  0  0  0  0  0  0  0  0  0  0  0
  150.8318  139.8177  155.2170 N   0  5  0  0  0  0  0  0  0  0  0  0
  150.4733  138.4926  154.7008 C   0  0  0  0  0  0  0  0  0  0  0  0
  148.9319  138.2329  154.8441 C   0  0  0  0  0  0  0  0  0  0  0  0
  148.4804  138.7200  156.2568 C   0  0  0  0  0  0  0  0  0  0  0  0
  148.1421  139.1023  153.8258 C   0  0  0  0  0  0  0  0  0  0  0  0
  148.6544  136.7581  154.6270 N   0  3  0  0  0  0  0  0  0  0  0  0
  149.5877  135.7929  155.2747 C   0  0  0  0  0  0  0  0  0  0  0  0
  149.3055  134.3577  154.7957 C   0  0  0  0  0  0  0  0  0  0  0  0
  147.9509  134.0103  155.0446 O   0  0  0  0  0  0  0  0  0  0  0  0
  147.0564  134.8677  154.3505 C   0  0  0  0  0  0  0  0  0  0  0  0
  147.2475  136.3054  154.8544 C   0  0  0  0  0  0  0  0  0  0  0  0
  152.0065  141.2835  159.1765 N   0  0  0  0  0  0  0  0  0  0  0  0
  152.2142  142.3003  160.1160 O   0  0  0  0  0  0  0  0  0  0  0  0
  151.4937  145.5624  159.9566 H   0  0  0  0  0  0  0  0  0  0  0  0
  152.9824  144.9041  160.6376 H   0  0  0  0  0  0  0  0  0  0  0  0
  151.4298  144.5453  161.3971 H   0  0  0  0  0  0  0  0  0  0  0  0
  150.9089  144.0252  157.6438 H   0  0  0  0  0  0  0  0  0  0  0  0
  150.5142  141.8484  156.2960 H   0  0  0  0  0  0  0  0  0  0  0  0
  150.7611  138.3732  153.6555 H   0  0  0  0  0  0  0  0  0  0  0  0
  151.0124  137.7109  155.2369 H   0  0  0  0  0  0  0  0  0  0  0  0
  148.7283  139.7686  156.4381 H   0  0  0  0  0  0  0  0  0  0  0  0
  148.9254  138.1426  157.0702 H   0  0  0  0  0  0  0  0  0  0  0  0
  147.3980  138.6583  156.3737 H   0  0  0  0  0  0  0  0  0  0  0  0
  148.2585  140.1700  154.0229 H   0  0  0  0  0  0  0  0  0  0  0  0
  147.0736  138.8919  153.8848 H   0  0  0  0  0  0  0  0  0  0  0  0
  148.4413  138.9419  152.7881 H   0  0  0  0  0  0  0  0  0  0  0  0
  150.6255  136.0055  155.0240 H   0  0  0  0  0  0  0  0  0  0  0  0
  149.4914  135.8586  156.3593 H   0  0  0  0  0  0  0  0  0  0  0  0
  149.5275  134.2556  153.7320 H   0  0  0  0  0  0  0  0  0  0  0  0
  149.9508  133.6545  155.3222 H   0  0  0  0  0  0  0  0  0  0  0  0
  147.2209  134.8032  153.2735 H   0  0  0  0  0  0  0  0  0  0  0  0
  146.0350  134.5362  154.5385 H   0  0  0  0  0  0  0  0  0  0  0  0
  147.0080  136.3443  155.9178 H   0  0  0  0  0  0  0  0  0  0  0  0
  146.5321  136.9493  154.3436 H   0  0  0  0  0  0  0  0  0  0  0  0
  148.8183  136.6441  153.6353 H   0  0  0  0  0  0  0  0  0  0  0  0
  1  2  1  0  0  0  0
  1 21  1  0  0  0  0
  1 22  1  0  0  0  0
  1 23  1  0  0  0  0
  2 20  1  0  0  0  0
  2  3  2  0  0  0  0
  3  4  1  0  0  0  0
  3 24  1  0  0  0  0
  4  5  1  0  0  0  0
  4 19  2  0  0  0  0
  5  6  1  0  0  0  0
  5 25  1  0  0  0  0
  6  7  2  0  0  0  0
  6  8  1  0  0  0  0
  8  9  1  0  0  0  0
  9 10  1  0  0  0  0
  9 26  1  0  0  0  0
  9 27  1  0  0  0  0
 10 11  1  0  0  0  0
 10 12  1  0  0  0  0
 10 13  1  0  0  0  0
 11 28  1  0  0  0  0
 11 29  1  0  0  0  0
 11 30  1  0  0  0  0
 12 31  1  0  0  0  0
 12 32  1  0  0  0  0
 12 33  1  0  0  0  0
 13 18  1  0  0  0  0
 13 14  1  0  0  0  0
 13 42  1  0  0  0  0
 14 15  1  0  0  0  0
 14 34  1  0  0  0  0
 14 35  1  0  0  0  0
 15 16  1  0  0  0  0
 15 36  1  0  0  0  0
 15 37  1  0  0  0  0
 16 17  1  0  0  0  0
 17 18  1  0  0  0  0
 17 38  1  0  0  0  0
 17 39  1  0  0  0  0
 18 40  1  0  0  0  0
 18 41  1  0  0  0  0
 19 20  1  0  0  0  0
M  CHG  1   8  -1
M  CHG  1  13   1
M  END
> <s_m_source_file>
AV-unprocessed.smi

> <i_m_source_file_index>
370

> <i_lp_mmshare_version>
43012

> <i_f3d_flags>
0

> <s_epik_input>
W0NIM11jMVtjSF1jKG5vMSlbTkhdQyg9TylbTkhdW0NIMl1DKFtDSDNdKShbQ0gzXSlOMltDSDJdW0NIMl1PW0NIMl1bQ0gyXTI=

> <s_epik_cmdline>
J2VwaWtfcHl0aG9uJywgJy1waCcsICc3LjAnLCAnLXRuJywgJzgnLCAnLW1hJywgJzIwMCcsICctbWV0YWxfYmluZGluZycsICctaW1hZScsICc8aW5maWxlLm1hZT4nLCAnLW9tYWUnLCAnPG91dGZpbGUubWFlPic=

> <r_epik_Ionization_Penalty>
6.79272

> <r_epik_Ionization_Penalty_Charging>
6.79272

> <r_epik_Ionization_Penalty_Neutral>
5.6208e-06

> <r_epik_State_Penalty>
7.45901

> <r_epik_Charging_Adjusted_Penalty>
14.2517

> <i_epik_Tot_Q>
0

> <i_epik_Tot_abs_Q>
2

> <r_epik_Metal_State_Penalty>
3.38639

> <b_epik_Metal_Only>
1

> <s_lp_Force_Field>
OPLS_2005

> <r_lp_Energy>
23.8333

> <b_lp_Chiralities_Consistent>
1

> <s_lp_Variant>
AV-unprocessed.smi:370-5

> <Gold.Version>
5.8.1

> <Gold.Id.Protein>
6NUR|6NUR_protein|mol2

> <Gold.PLP.Fitness>
43.6469

> <Gold.PLP.PLP>
-32.9376

> <Gold.PLP.part.hbond>
-3.0000

> <Gold.PLP.part.metal>
0.0000

> <Gold.PLP.part.buried>
-5.0661

> <Gold.PLP.part.nonpolar>
-24.6451

> <Gold.PLP.part.repulsive>
0.2445

> <Gold.PLP.ligand.clash>
0.0000

> <Gold.PLP.ligand.torsion>
0.7003

> <Gold.PLP.Chemscore.Hbond>
4.0000

> <Gold.PLP.Chemscore.CHOScore>
0.0000

> <Gold.PLP.Chemscore.Metal>
0.0000

> <Gold.Chemscore.Hbonds>
donor molecule, donor type, donor heavy atom, donor atom, acceptor molecule, acceptor atom, score
      L1  H    13    42       P1  7948  2.00
      P1  H  7989  7998       L1     8  0.65

> <Gold.PLP.Chemscore.Internal.Correction>
0.1099

> <Gold.Rescore>
     Score         DG    S(hbond)    S(metal)    S(lipo)     H(rot)  DE(clash)    DE(int)     intcor
     15.61     -17.64       2.47        0.00      67.70       1.57       0.04       1.99       ----

> <Gold.Chemscore.Fitness>
15.6080

> <Gold.Chemscore.DG>
-17.6425

> <Gold.Chemscore.ZeroCoef>
-5.4800

> <Gold.Chemscore.Hbond>
2.4733

> <Gold.Chemscore.Metal>
0.0000

> <Gold.Chemscore.Lipo>
67.7019

> <Gold.Chemscore.Internal_Hbond>
0.0000

> <Gold.Chemscore.DEClash>
0.0419

> <Gold.Chemscore.DEInternal>
1.9926

> <Gold.Chemscore.Rot>
1.5701

> <Gold.Chemscore.Internal.Correction>
   9.000000E+99

> <Gold.Chemscore.Hbonds>
donor molecule, donor type, donor heavy atom, donor atom, acceptor molecule, acceptor atom, score
      L1  H    13    42       P1  7948  1.00
      P1  H  7989  7998       L1     8  0.31

> <Gold.Chemscore.Hbond.Weighted>
-8.2608

> <Gold.Chemscore.Metal.Weighted>
-0.0000

> <Gold.Chemscore.Lipo.Weighted>
-7.9211

> <Gold.Chemscore.Internal_Hbond.Weighted>
0.0000

> <Gold.Chemscore.DEClash.Weighted>
0.0419

> <Gold.Chemscore.DEInternal.Weighted>
1.9926

> <Gold.Chemscore.Rot.Weighted>
4.0194

> <Gold.Chemscore.Internal.Correction.Weighted>
   9.000000E+99

> <Gold.Protein.RotatedTorsions>
[ 6907 6896 6895 6894 ] final   14.52 input  -60.11 | X-H torsion
[ 7974 7965 7964 7962 ] final  153.57 input  175.53 | X-H torsion
[ 8008 7997 7996 7995 ] final  -35.35 input   59.86 | X-H torsion
[ 10167 10162 10161 10158 ] final  -28.24 input  -65.29 | X-H torsion
[ 10718 10713 10712 10709 ] final   25.29 input   66.30 | X-H torsion
[ 10763 10752 10751 10750 ] final   79.65 input  -60.55 | X-H torsion
[ 11005 11000 10999 10996 ] final   75.60 input  -57.11 | X-H torsion

> <Gold.Protein.ActiveResidues>
 VAL166  LYS551  ARG553  GLY616  TRP617  ASP618  TYR619  PRO620  LYS621  CYS622 
 ASP623  PHE694  ASN695  SER759  ASP760  ASP761  ALA762  ILE779  LEU786  VAL792 
 PHE793  MET794  SER795  GLU796  ALA797  LYS798  CYS799  TRP800  GLU811  SER814 

> <Gold.Protein.RotatedAtoms>
  151.8035  135.0702  160.0403 H   0  0  0  0  0  0  0  0  0  0  0  0  # atno 6907 bound_to 6896
  152.3072  133.5710  159.5665 H   0  0  0  0  0  0  0  0  0  0  0  0  # atno 6908 bound_to 6896
  150.7302  134.0122  159.3715 H   0  0  0  0  0  0  0  0  0  0  0  0  # atno 6909 bound_to 6896
  144.8146  139.6817  143.6127 H   0  0  0  0  0  0  0  0  0  0  0  0  # atno 7974 bound_to 7965
  154.4098  140.1659  156.2197 H   0  0  0  0  0  0  0  0  0  0  0  0  # atno 8008 bound_to 7997
  155.9374  140.3410  155.6275 H   0  0  0  0  0  0  0  0  0  0  0  0  # atno 8009 bound_to 7997
  155.7032  140.0747  157.2392 H   0  0  0  0  0  0  0  0  0  0  0  0  # atno 8010 bound_to 7997
  140.7271  143.4026  151.1239 H   0  0  0  0  0  0  0  0  0  0  0  0  # atno 10167 bound_to 10162
  157.1913  130.6847  149.6151 H   0  0  0  0  0  0  0  0  0  0  0  0  # atno 10718 bound_to 10713
  153.0970  135.4832  154.8796 H   0  0  0  0  0  0  0  0  0  0  0  0  # atno 10763 bound_to 10752
  154.7335  135.3065  154.8853 H   0  0  0  0  0  0  0  0  0  0  0  0  # atno 10764 bound_to 10752
  153.9481  135.6826  153.4797 H   0  0  0  0  0  0  0  0  0  0  0  0  # atno 10765 bound_to 10752
  139.9336  134.7531  156.1291 H   0  0  0  0  0  0  0  0  0  0  0  0  # atno 11005 bound_to 11000
  146.2448  139.6075  142.9467 LP  0  0  0  0  0  0  0  0  0  0  0  0  # atno 17320 bound_to 7965
  145.5244  141.0430  143.2417 LP  0  0  0  0  0  0  0  0  0  0  0  0  # atno 17321 bound_to 7965
  139.7648  143.8581  152.3108 LP  0  0  0  0  0  0  0  0  0  0  0  0  # atno 17342 bound_to 10162
  139.8479  144.7178  150.9250 LP  0  0  0  0  0  0  0  0  0  0  0  0  # atno 17343 bound_to 10162
  155.9711  130.4613  150.6106 LP  0  0  0  0  0  0  0  0  0  0  0  0  # atno 17370 bound_to 10713
  157.3858  131.0788  151.1437 LP  0  0  0  0  0  0  0  0  0  0  0  0  # atno 17371 bound_to 10713
  141.0938  133.6703  156.2600 LP  0  0  0  0  0  0  0  0  0  0  0  0  # atno 17394 bound_to 11000
  140.6135  134.5434  157.5537 LP  0  0  0  0  0  0  0  0  0  0  0  0  # atno 17395 bound_to 11000

$$$$
