AV-unprocessed.smi:610|AV-procd|sdf|3054|dock2
  -GOLD-   2262023573D 1   1.00000     0.00000
 Structure written by MMmdl.
 39 40  0  0  0  0  0  0  0  0  3 V2000
  148.4506  132.2224  153.6501 C   0  0  0  0  0  0  0  0  0  0  0  0
  147.5100  132.7316  152.5495 C   0  0  1  0  0  0  0  0  0  0  0  0
  146.2156  131.8919  152.4933 C   0  0  0  0  0  0  0  0  0  0  0  0
  145.2920  132.3277  151.4399 N   0  0  0  0  0  0  0  0  0  0  0  0
  145.5172  132.3312  150.0871 C   0  0  0  0  0  0  0  0  0  0  0  0
  144.3791  132.8238  149.5025 C   0  0  0  0  0  0  0  0  0  0  0  0
  143.5048  133.0923  150.5213 N   0  3  0  0  0  0  0  0  0  0  0  0
  144.0589  132.7831  151.6980 C   0  0  0  0  0  0  0  0  0  0  0  0
  147.2132  134.1415  152.8007 N   0  0  0  0  0  0  0  0  0  0  0  0
  146.2867  134.6174  153.6511 C   0  0  0  0  0  0  0  0  0  0  0  0
  145.5676  133.8774  154.3231 O   0  0  0  0  0  0  0  0  0  0  0  0
  146.1167  136.1509  153.7697 C   0  0  0  0  0  0  0  0  0  0  0  0
  147.4087  136.6992  154.2218 N   0  3  0  0  0  0  0  0  0  0  0  0
  145.6896  136.7661  152.4235 C   0  0  0  0  0  0  0  0  0  0  0  0
  144.1593  136.6386  152.3758 C   0  0  0  0  0  0  0  0  0  0  0  0
  143.6952  136.4887  153.8332 C   0  0  0  0  0  0  0  0  0  0  0  0
  144.9634  136.6039  154.6889 C   0  0  0  0  0  0  0  0  0  0  0  0
  148.7244  131.1805  153.4811 H   0  0  0  0  0  0  0  0  0  0  0  0
  147.9837  132.2871  154.6337 H   0  0  0  0  0  0  0  0  0  0  0  0
  149.3733  132.8028  153.6799 H   0  0  0  0  0  0  0  0  0  0  0  0
  148.0408  132.6287  151.6011 H   0  0  0  0  0  0  0  0  0  0  0  0
  146.4528  130.8464  152.2929 H   0  0  0  0  0  0  0  0  0  0  0  0
  145.6935  131.9178  153.4515 H   0  0  0  0  0  0  0  0  0  0  0  0
  146.4487  131.9976  149.6527 H   0  0  0  0  0  0  0  0  0  0  0  0
  144.1321  132.9971  148.4650 H   0  0  0  0  0  0  0  0  0  0  0  0
  143.6018  132.8881  152.6658 H   0  0  0  0  0  0  0  0  0  0  0  0
  147.7596  134.8129  152.2803 H   0  0  0  0  0  0  0  0  0  0  0  0
  147.2659  137.6093  154.6358 H   0  0  0  0  0  0  0  0  0  0  0  0
  148.0298  136.7826  153.4293 H   0  0  0  0  0  0  0  0  0  0  0  0
  145.9578  137.8236  152.3992 H   0  0  0  0  0  0  0  0  0  0  0  0
  146.1618  136.3048  151.5550 H   0  0  0  0  0  0  0  0  0  0  0  0
  143.7078  137.5065  151.8939 H   0  0  0  0  0  0  0  0  0  0  0  0
  143.8678  135.7603  151.7996 H   0  0  0  0  0  0  0  0  0  0  0  0
  142.9560  137.2414  154.1094 H   0  0  0  0  0  0  0  0  0  0  0  0
  143.2327  135.5109  153.9738 H   0  0  0  0  0  0  0  0  0  0  0  0
  144.8876  136.0537  155.6276 H   0  0  0  0  0  0  0  0  0  0  0  0
  145.1062  137.6513  154.9606 H   0  0  0  0  0  0  0  0  0  0  0  0
  147.8194  136.0779  154.9038 H   0  0  0  0  0  0  0  0  0  0  0  0
  142.5707  133.4648  150.4025 H   0  0  0  0  0  0  0  0  0  0  0  0
  1  2  1  0  0  0  0
  1 18  1  0  0  0  0
  1 19  1  0  0  0  0
  1 20  1  0  0  0  0
  2  3  1  0  0  0  0
  2  9  1  0  0  0  0
  2 21  1  0  0  0  0
  3  4  1  0  0  0  0
  3 22  1  0  0  0  0
  3 23  1  0  0  0  0
  4  8  1  0  0  0  0
  4  5  1  0  0  0  0
  5  6  2  0  0  0  0
  5 24  1  0  0  0  0
  6  7  1  0  0  0  0
  6 25  1  0  0  0  0
  7  8  2  0  0  0  0
  7 39  1  0  0  0  0
  8 26  1  0  0  0  0
  9 10  1  0  0  0  0
  9 27  1  0  0  0  0
 10 11  2  0  0  0  0
 10 12  1  0  0  0  0
 12 17  1  0  0  0  0
 12 13  1  0  0  0  0
 12 14  1  0  0  0  0
 13 28  1  0  0  0  0
 13 29  1  0  0  0  0
 13 38  1  0  0  0  0
 14 15  1  0  0  0  0
 14 30  1  0  0  0  0
 14 31  1  0  0  0  0
 15 16  1  0  0  0  0
 15 32  1  0  0  0  0
 15 33  1  0  0  0  0
 16 17  1  0  0  0  0
 16 34  1  0  0  0  0
 16 35  1  0  0  0  0
 17 36  1  0  0  0  0
 17 37  1  0  0  0  0
M  CHG  1   7   1
M  CHG  1  13   1
M  END
> <s_m_source_file>
AV-unprocessed.smi

> <i_m_source_file_index>
610

> <i_lp_mmshare_version>
43012

> <i_f3d_flags>
0

> <s_epik_input>
W2NIXTFuW2NIXVtjSF1uMVtDSDJdW0NAQEhdKFtDSDNdKVtOSF1DKD1PKUMyKFtOSDJdKVtDSDJdW0NIMl1bQ0gyXVtDSDJdMg==

> <s_epik_cmdline>
J2VwaWtfcHl0aG9uJywgJy1waCcsICc3LjAnLCAnLXRuJywgJzgnLCAnLW1hJywgJzIwMCcsICctbWV0YWxfYmluZGluZycsICctaW1hZScsICc8aW5maWxlLm1hZT4nLCAnLW9tYWUnLCAnPG91dGZpbGUubWFlPic=

> <r_lp_tautomer_probability>
1

> <r_epik_Ionization_Penalty>
0.349719

> <r_epik_Ionization_Penalty_Charging>
0.0753376

> <r_epik_Ionization_Penalty_Neutral>
0.274381

> <r_epik_State_Penalty>
0.326418

> <r_epik_Charging_Adjusted_Penalty>
0.401755

> <i_epik_Tot_Q>
2

> <i_epik_Tot_abs_Q>
2

> <r_epik_Metal_State_Penalty>
0.608513

> <b_epik_Metal_Only>
0

> <s_lp_Force_Field>
OPLS_2005

> <r_lp_Energy>
30.9651

> <b_lp_Chiralities_Consistent>
1

> <s_lp_Variant>
AV-unprocessed.smi:610-2

> <Gold.Version>
5.8.1

> <Gold.Id.Protein>
6NUR|6NUR_protein|mol2

> <Gold.PLP.Fitness>
45.5236

> <Gold.PLP.PLP>
-27.9586

> <Gold.PLP.part.hbond>
-3.0000

> <Gold.PLP.part.metal>
0.0000

> <Gold.PLP.part.buried>
-2.7135

> <Gold.PLP.part.nonpolar>
-22.7356

> <Gold.PLP.part.repulsive>
0.1282

> <Gold.PLP.ligand.clash>
0.0000

> <Gold.PLP.ligand.torsion>
0.3190

> <Gold.PLP.Chemscore.Hbond>
5.0000

> <Gold.PLP.Chemscore.CHOScore>
1.0468

> <Gold.PLP.Chemscore.Metal>
0.0000

> <Gold.Chemscore.Hbonds>
donor molecule, donor type, donor heavy atom, donor atom, acceptor molecule, acceptor atom, score
      L1  H     7    39       P1 10186  2.00
      L1  H     9    27       P1  7948  1.00
      L1  H    13    29       P1  7948  2.00
      L1  C     5    24       P1 10747  0.26
      L1  C     8    26       P1 10957  0.90

> <Gold.PLP.Chemscore.Internal.Correction>
0.0626

> <Gold.Rescore>
     Score         DG    S(hbond)    S(metal)    S(lipo)     H(rot)  DE(clash)    DE(int)     intcor
     13.10     -16.50       2.84        0.00      58.37       2.06       1.60       1.79       ----

> <Gold.Chemscore.Fitness>
13.1008

> <Gold.Chemscore.DG>
-16.4993

> <Gold.Chemscore.ZeroCoef>
-5.4800

> <Gold.Chemscore.Hbond>
2.8369

> <Gold.Chemscore.Metal>
0.0000

> <Gold.Chemscore.Lipo>
58.3654

> <Gold.Chemscore.Internal_Hbond>
0.0000

> <Gold.Chemscore.DEClash>
1.6041

> <Gold.Chemscore.DEInternal>
1.7945

> <Gold.Chemscore.Rot>
2.0644

> <Gold.Chemscore.Internal.Correction>
   9.000000E+99

> <Gold.Chemscore.Hbonds>
donor molecule, donor type, donor heavy atom, donor atom, acceptor molecule, acceptor atom, score
      L1  H     7    39       P1 10186  0.94
      L1  H     9    27       P1  7948  0.78
      L1  H    13    29       P1  7948  0.99

> <Gold.Chemscore.Hbond.Weighted>
-9.4753

> <Gold.Chemscore.Metal.Weighted>
-0.0000

> <Gold.Chemscore.Lipo.Weighted>
-6.8287

> <Gold.Chemscore.Internal_Hbond.Weighted>
0.0000

> <Gold.Chemscore.DEClash.Weighted>
1.6041

> <Gold.Chemscore.DEInternal.Weighted>
1.7945

> <Gold.Chemscore.Rot.Weighted>
5.2848

> <Gold.Chemscore.Internal.Correction.Weighted>
   9.000000E+99

> <Gold.Protein.RotatedTorsions>
[ 6907 6896 6895 6894 ] final  -80.99 input  -60.11 | X-H torsion
[ 7974 7965 7964 7962 ] final   52.59 input  175.53 | X-H torsion
[ 8008 7997 7996 7995 ] final   67.10 input   59.86 | X-H torsion
[ 10167 10162 10161 10158 ] final   44.19 input  -65.29 | X-H torsion
[ 10718 10713 10712 10709 ] final  119.78 input   66.30 | X-H torsion
[ 10763 10752 10751 10750 ] final   22.13 input  -60.55 | X-H torsion
[ 11005 11000 10999 10996 ] final   29.91 input  -57.11 | X-H torsion

> <Gold.Protein.ActiveResidues>
 VAL166  LYS551  ARG553  GLY616  TRP617  ASP618  TYR619  PRO620  LYS621  CYS622 
 ASP623  PHE694  ASN695  SER759  ASP760  ASP761  ALA762  ILE779  LEU786  VAL792 
 PHE793  MET794  SER795  GLU796  ALA797  LYS798  CYS799  TRP800  GLU811  SER814 

> <Gold.Protein.RotatedAtoms>
  150.6919  134.3885  159.5065 H   0  0  0  0  0  0  0  0  0  0  0  0  # atno 6907 bound_to 6896
  152.1677  134.8857  160.0546 H   0  0  0  0  0  0  0  0  0  0  0  0  # atno 6908 bound_to 6896
  151.9895  133.3751  159.4176 H   0  0  0  0  0  0  0  0  0  0  0  0  # atno 6909 bound_to 6896
  145.9798  139.4231  143.0139 H   0  0  0  0  0  0  0  0  0  0  0  0  # atno 7974 bound_to 7965
  155.6877  140.3496  155.4881 H   0  0  0  0  0  0  0  0  0  0  0  0  # atno 8008 bound_to 7997
  155.9552  140.1127  157.0966 H   0  0  0  0  0  0  0  0  0  0  0  0  # atno 8009 bound_to 7997
  154.4130  140.1186  156.5091 H   0  0  0  0  0  0  0  0  0  0  0  0  # atno 8010 bound_to 7997
  140.3368  144.2520  150.6160 H   0  0  0  0  0  0  0  0  0  0  0  0  # atno 10167 bound_to 10162
  157.5937  131.1061  150.7944 H   0  0  0  0  0  0  0  0  0  0  0  0  # atno 10718 bound_to 10713
  153.0940  135.6654  153.9799 H   0  0  0  0  0  0  0  0  0  0  0  0  # atno 10763 bound_to 10752
  153.9388  135.2996  155.3445 H   0  0  0  0  0  0  0  0  0  0  0  0  # atno 10764 bound_to 10752
  154.7357  135.5103  153.9111 H   0  0  0  0  0  0  0  0  0  0  0  0  # atno 10765 bound_to 10752
  140.2999  134.2768  155.7756 H   0  0  0  0  0  0  0  0  0  0  0  0  # atno 11005 bound_to 11000
  145.7786  140.9866  143.1111 LP  0  0  0  0  0  0  0  0  0  0  0  0  # atno 17320 bound_to 7965
  144.6858  139.9536  143.7478 LP  0  0  0  0  0  0  0  0  0  0  0  0  # atno 17321 bound_to 7965
  140.5346  143.2236  151.8183 LP  0  0  0  0  0  0  0  0  0  0  0  0  # atno 17342 bound_to 10162
  139.4847  144.4677  151.9464 LP  0  0  0  0  0  0  0  0  0  0  0  0  # atno 17343 bound_to 10162
  156.8360  130.5032  149.5326 LP  0  0  0  0  0  0  0  0  0  0  0  0  # atno 17370 bound_to 10713
  156.0996  130.5959  150.9872 LP  0  0  0  0  0  0  0  0  0  0  0  0  # atno 17371 bound_to 10713
  141.2130  133.7639  156.9751 LP  0  0  0  0  0  0  0  0  0  0  0  0  # atno 17394 bound_to 11000
  140.1118  134.9472  157.2077 LP  0  0  0  0  0  0  0  0  0  0  0  0  # atno 17395 bound_to 11000

$$$$
