AV-unprocessed.smi:3162|AV-procd|sdf|12066|dock3
  -GOLD-   2272017493D 1   1.00000     0.00000
 Structure written by MMmdl.
 37 37  0  0  0  0  0  0  0  0  2 V2000
  147.0017  139.9726  153.1267 C   0  0  0  0  0  0  0  0  0  0  0  0
  146.7716  138.9837  151.9734 C   0  0  0  0  0  0  0  0  0  0  0  0
  145.9823  137.7146  152.3641 C   0  0  1  0  0  0  0  0  0  0  0  0
  146.3092  136.6164  151.4246 N   0  3  0  0  0  0  0  0  0  0  0  0
  145.5131  135.3765  151.5667 C   0  0  1  0  0  0  0  0  0  0  0  0
  144.0271  135.6298  151.2455 C   0  0  0  0  0  0  0  0  0  0  0  0
  146.1287  134.2745  150.6799 C   0  0  0  0  0  0  0  0  0  0  0  0
  145.5480  132.9645  150.9134 N   0  0  0  0  0  0  0  0  0  0  0  0
  146.1568  131.8300  151.4067 C   0  0  0  0  0  0  0  0  0  0  0  0
  145.2111  130.8455  151.4580 C   0  0  0  0  0  0  0  0  0  0  0  0
  145.3621  129.4225  151.9133 C   0  0  0  0  0  0  0  0  0  0  0  0
  144.0365  131.4894  150.9751 C   0  0  0  0  0  0  0  0  0  0  0  0
  144.2401  132.7566  150.6532 N   0  0  0  0  0  0  0  0  0  0  0  0
  146.2939  137.2711  153.8008 C   0  0  0  0  0  0  0  0  0  0  0  0
  147.5515  136.9122  154.0724 N   0  0  0  0  0  0  0  0  0  0  0  0
  145.4095  137.2449  154.6549 O   0  0  0  0  0  0  0  0  0  0  0  0
  147.4987  140.8736  152.7670 H   0  0  0  0  0  0  0  0  0  0  0  0
  147.6306  139.5454  153.9079 H   0  0  0  0  0  0  0  0  0  0  0  0
  146.0575  140.2743  153.5807 H   0  0  0  0  0  0  0  0  0  0  0  0
  146.2323  139.5091  151.1843 H   0  0  0  0  0  0  0  0  0  0  0  0
  147.7339  138.7064  151.5401 H   0  0  0  0  0  0  0  0  0  0  0  0
  144.9148  137.9354  152.3041 H   0  0  0  0  0  0  0  0  0  0  0  0
  146.2302  136.9567  150.4772 H   0  0  0  0  0  0  0  0  0  0  0  0
  145.5941  135.0497  152.6047 H   0  0  0  0  0  0  0  0  0  0  0  0
  143.4294  134.7289  151.3862 H   0  0  0  0  0  0  0  0  0  0  0  0
  143.8954  135.9560  150.2134 H   0  0  0  0  0  0  0  0  0  0  0  0
  143.5995  136.3948  151.8933 H   0  0  0  0  0  0  0  0  0  0  0  0
  146.0023  134.5239  149.6252 H   0  0  0  0  0  0  0  0  0  0  0  0
  147.2033  134.2037  150.8559 H   0  0  0  0  0  0  0  0  0  0  0  0
  147.2030  131.8152  151.6756 H   0  0  0  0  0  0  0  0  0  0  0  0
  144.4018  128.9758  152.1721 H   0  0  0  0  0  0  0  0  0  0  0  0
  145.9987  129.3462  152.7950 H   0  0  0  0  0  0  0  0  0  0  0  0
  145.8085  128.7986  151.1389 H   0  0  0  0  0  0  0  0  0  0  0  0
  143.0468  131.0753  150.8503 H   0  0  0  0  0  0  0  0  0  0  0  0
  147.8070  136.6191  155.0046 H   0  0  0  0  0  0  0  0  0  0  0  0
  148.2491  136.9412  153.3422 H   0  0  0  0  0  0  0  0  0  0  0  0
  147.2761  136.3753  151.5915 H   0  0  0  0  0  0  0  0  0  0  0  0
  1  2  1  0  0  0  0
  1 17  1  0  0  0  0
  1 18  1  0  0  0  0
  1 19  1  0  0  0  0
  2  3  1  0  0  0  0
  2 20  1  0  0  0  0
  2 21  1  0  0  0  0
  3  4  1  0  0  0  0
  3 14  1  0  0  0  0
  3 22  1  0  0  0  0
  4  5  1  0  0  0  0
  4 23  1  0  0  0  0
  4 37  1  0  0  0  0
  5  6  1  0  0  0  0
  5  7  1  0  0  0  0
  5 24  1  0  0  0  0
  6 25  1  0  0  0  0
  6 26  1  0  0  0  0
  6 27  1  0  0  0  0
  7  8  1  0  0  0  0
  7 28  1  0  0  0  0
  7 29  1  0  0  0  0
  8 13  1  0  0  0  0
  8  9  1  0  0  0  0
  9 10  2  0  0  0  0
  9 30  1  0  0  0  0
 10 11  1  0  0  0  0
 10 12  1  0  0  0  0
 11 31  1  0  0  0  0
 11 32  1  0  0  0  0
 11 33  1  0  0  0  0
 12 13  2  0  0  0  0
 12 34  1  0  0  0  0
 14 15  1  0  0  0  0
 14 16  2  0  0  0  0
 15 35  1  0  0  0  0
 15 36  1  0  0  0  0
M  CHG  1   4   1
M  END
> <s_m_source_file>
AV-unprocessed.smi

> <i_m_source_file_index>
3162

> <i_lp_mmshare_version>
43012

> <i_f3d_flags>
0

> <s_epik_input>
W0NIM11bQ0gyXVtDQEBIXShDKD1PKVtOSDJdKVtOSF1bQ0BIXShbQ0gzXSlbQ0gyXW4xW2NIXWMoW0NIM10pW2NIXW4x

> <s_epik_cmdline>
J2VwaWtfcHl0aG9uJywgJy1waCcsICc3LjAnLCAnLXRuJywgJzgnLCAnLW1hJywgJzIwMCcsICctbWV0YWxfYmluZGluZycsICctaW1hZScsICc8aW5maWxlLm1hZT4nLCAnLW9tYWUnLCAnPG91dGZpbGUubWFlPic=

> <r_lp_tautomer_probability>
1

> <r_epik_Ionization_Penalty>
0.112112

> <r_epik_Ionization_Penalty_Charging>
0.112102

> <r_epik_Ionization_Penalty_Neutral>
9.73799e-06

> <r_epik_State_Penalty>
0.101811

> <r_epik_Charging_Adjusted_Penalty>
0.213914

> <i_epik_Tot_Q>
1

> <i_epik_Tot_abs_Q>
1

> <r_epik_Metal_State_Penalty>
0.101821

> <b_epik_Metal_Only>
0

> <s_lp_Force_Field>
OPLS_2005

> <r_lp_Energy>
5.38077

> <b_lp_Chiralities_Consistent>
1

> <s_lp_Variant>
AV-unprocessed.smi:3162-4

> <Gold.Version>
5.8.1

> <Gold.Id.Protein>
6NUR|6NUR_protein|mol2

> <Gold.PLP.Fitness>
42.8127

> <Gold.PLP.PLP>
-29.2145

> <Gold.PLP.part.hbond>
-2.0000

> <Gold.PLP.part.metal>
0.0000

> <Gold.PLP.part.buried>
-1.4447

> <Gold.PLP.part.nonpolar>
-25.4181

> <Gold.PLP.part.repulsive>
0.3211

> <Gold.PLP.ligand.clash>
0.0000

> <Gold.PLP.ligand.torsion>
0.3760

> <Gold.PLP.Chemscore.Hbond>
3.0000

> <Gold.PLP.Chemscore.CHOScore>
1.7687

> <Gold.PLP.Chemscore.Metal>
0.0000

> <Gold.Chemscore.Hbonds>
donor molecule, donor type, donor heavy atom, donor atom, acceptor molecule, acceptor atom, score
      L1  H     4    37       P1  7948  2.00
      L1  H    15    36       P1  7948  0.99
      L1  C     9    30       P1 10747  0.89
      L1  C    12    34       P1 10952  0.61

> <Gold.PLP.Chemscore.Internal.Correction>
0.0441

> <Gold.Rescore>
     Score         DG    S(hbond)    S(metal)    S(lipo)     H(rot)  DE(clash)    DE(int)     intcor
     13.55     -15.15       2.00        0.00      80.57       2.51       0.01       1.60       ----

> <Gold.Chemscore.Fitness>
13.5501

> <Gold.Chemscore.DG>
-15.1549

> <Gold.Chemscore.ZeroCoef>
-5.4800

> <Gold.Chemscore.Hbond>
1.9951

> <Gold.Chemscore.Metal>
0.0000

> <Gold.Chemscore.Lipo>
80.5738

> <Gold.Chemscore.Internal_Hbond>
0.0000

> <Gold.Chemscore.DEClash>
0.0073

> <Gold.Chemscore.DEInternal>
1.5974

> <Gold.Chemscore.Rot>
2.5062

> <Gold.Chemscore.Internal.Correction>
   9.000000E+99

> <Gold.Chemscore.Hbonds>
donor molecule, donor type, donor heavy atom, donor atom, acceptor molecule, acceptor atom, score
      L1  H     4    37       P1  7948  1.00
      L1  H    15    36       P1  7948  0.94

> <Gold.Chemscore.Hbond.Weighted>
-6.6636

> <Gold.Chemscore.Metal.Weighted>
-0.0000

> <Gold.Chemscore.Lipo.Weighted>
-9.4271

> <Gold.Chemscore.Internal_Hbond.Weighted>
0.0000

> <Gold.Chemscore.DEClash.Weighted>
0.0073

> <Gold.Chemscore.DEInternal.Weighted>
1.5974

> <Gold.Chemscore.Rot.Weighted>
6.4159

> <Gold.Chemscore.Internal.Correction.Weighted>
   9.000000E+99

> <Gold.Protein.RotatedTorsions>
[ 6907 6896 6895 6894 ] final   28.43 input  -60.11 | X-H torsion
[ 7974 7965 7964 7962 ] final -159.08 input  175.53 | X-H torsion
[ 8008 7997 7996 7995 ] final  -19.26 input   59.86 | X-H torsion
[ 10167 10162 10161 10158 ] final -130.60 input  -65.29 | X-H torsion
[ 10718 10713 10712 10709 ] final -104.79 input   66.30 | X-H torsion
[ 10763 10752 10751 10750 ] final   31.77 input  -60.55 | X-H torsion
[ 11005 11000 10999 10996 ] final  161.55 input  -57.11 | X-H torsion

> <Gold.Protein.ActiveResidues>
 VAL166  LYS551  ARG553  GLY616  TRP617  ASP618  TYR619  PRO620  LYS621  CYS622 
 ASP623  PHE694  ASN695  SER759  ASP760  ASP761  ALA762  ILE779  LEU786  VAL792 
 PHE793  MET794  SER795  GLU796  ALA797  LYS798  CYS799  TRP800  GLU811  SER814 

> <Gold.Protein.RotatedAtoms>
  152.0169  134.9845  160.0569 H   0  0  0  0  0  0  0  0  0  0  0  0  # atno 6907 bound_to 6896
  152.1375  133.4439  159.4759 H   0  0  0  0  0  0  0  0  0  0  0  0  # atno 6908 bound_to 6896
  150.6862  134.2264  159.4460 H   0  0  0  0  0  0  0  0  0  0  0  0  # atno 6909 bound_to 6896
  144.7479  140.3736  143.6070 H   0  0  0  0  0  0  0  0  0  0  0  0  # atno 7974 bound_to 7965
  154.4849  140.2094  155.9678 H   0  0  0  0  0  0  0  0  0  0  0  0  # atno 8008 bound_to 7997
  156.1221  140.3211  155.8193 H   0  0  0  0  0  0  0  0  0  0  0  0  # atno 8009 bound_to 7997
  155.4449  140.0513  157.2997 H   0  0  0  0  0  0  0  0  0  0  0  0  # atno 8010 bound_to 7997
  139.9276  143.6309  152.2538 H   0  0  0  0  0  0  0  0  0  0  0  0  # atno 10167 bound_to 10162
  156.0319  130.5532  150.7446 H   0  0  0  0  0  0  0  0  0  0  0  0  # atno 10718 bound_to 10713
  153.0298  135.6430  154.1251 H   0  0  0  0  0  0  0  0  0  0  0  0  # atno 10763 bound_to 10752
  154.0975  135.2862  155.3260 H   0  0  0  0  0  0  0  0  0  0  0  0  # atno 10764 bound_to 10752
  154.6422  135.5455  153.7866 H   0  0  0  0  0  0  0  0  0  0  0  0  # atno 10765 bound_to 10752
  140.2169  134.8225  157.3180 H   0  0  0  0  0  0  0  0  0  0  0  0  # atno 11005 bound_to 11000
  145.7052  139.1671  143.2570 LP  0  0  0  0  0  0  0  0  0  0  0  0  # atno 17320 bound_to 7965
  146.1387  140.7087  142.9377 LP  0  0  0  0  0  0  0  0  0  0  0  0  # atno 17321 bound_to 7965
  139.6809  144.7655  151.1611 LP  0  0  0  0  0  0  0  0  0  0  0  0  # atno 17342 bound_to 10162
  140.7646  143.5727  150.8979 LP  0  0  0  0  0  0  0  0  0  0  0  0  # atno 17343 bound_to 10162
  157.5006  131.0918  151.0318 LP  0  0  0  0  0  0  0  0  0  0  0  0  # atno 17370 bound_to 10713
  157.0700  130.5860  149.5401 LP  0  0  0  0  0  0  0  0  0  0  0  0  # atno 17371 bound_to 10713
  140.1891  134.4394  155.7726 LP  0  0  0  0  0  0  0  0  0  0  0  0  # atno 17394 bound_to 11000
  141.2224  133.7019  156.7997 LP  0  0  0  0  0  0  0  0  0  0  0  0  # atno 17395 bound_to 11000

$$$$
