AV-unprocessed.smi:343|AV-procd|sdf|2388|dock7
  -GOLD-   2262022313D 1   1.00000     0.00000
 Structure written by MMmdl.
 42 44  0  0  0  0  0  0  0  0  1 V2000
  151.0672  145.6127  160.0192 C   0  0  0  0  0  0  0  0  0  0  0  0
  151.8356  144.4031  160.4694 C   0  0  0  0  0  0  0  0  0  0  0  0
  152.1018  144.2453  161.7554 N   0  0  0  0  0  0  0  0  0  0  0  0
  152.7836  143.0845  161.8262 N   0  0  0  0  0  0  0  0  0  0  0  0
  153.2344  142.6011  163.1168 C   0  0  0  0  0  0  0  0  0  0  0  0
  152.9521  142.5096  160.5819 C   0  0  0  0  0  0  0  0  0  0  0  0
  153.6709  141.2128  160.3926 C   0  0  0  0  0  0  0  0  0  0  0  0
  152.3485  143.3371  159.6729 C   0  0  0  0  0  0  0  0  0  0  0  0
  152.2342  143.1698  158.1783 C   0  0  0  0  0  0  0  0  0  0  0  0
  151.2847  142.0147  157.8610 C   0  0  0  0  0  0  0  0  0  0  0  0
  150.3730  141.7371  158.6396 O   0  0  0  0  0  0  0  0  0  0  0  0
  151.5049  141.3618  156.7087 N   0  0  0  0  0  0  0  0  0  0  0  0
  150.6859  140.2825  156.1703 C   0  0  0  0  0  0  0  0  0  0  0  0
  151.4999  139.0203  155.9546 C   0  0  0  0  0  0  0  0  0  0  0  0
  152.5972  138.9578  154.9186 C   0  0  0  0  0  0  0  0  0  0  0  0
  151.3176  138.1783  154.7149 C   0  0  0  0  0  0  0  0  0  0  0  0
  149.9816  140.6823  154.8842 C   0  0  0  0  0  0  0  0  0  0  0  0
  148.6222  141.3396  154.9022 C   0  0  0  0  0  0  0  0  0  0  0  0
  148.7732  139.9283  154.3811 C   0  0  0  0  0  0  0  0  0  0  0  0
  150.2832  145.3380  159.3135 H   0  0  0  0  0  0  0  0  0  0  0  0
  151.7246  146.3275  159.5241 H   0  0  0  0  0  0  0  0  0  0  0  0
  150.5902  146.1240  160.8563 H   0  0  0  0  0  0  0  0  0  0  0  0
  152.8751  141.5834  163.2733 H   0  0  0  0  0  0  0  0  0  0  0  0
  152.8562  143.2351  163.9200 H   0  0  0  0  0  0  0  0  0  0  0  0
  154.3243  142.6035  163.1476 H   0  0  0  0  0  0  0  0  0  0  0  0
  153.8291  140.9994  159.3355 H   0  0  0  0  0  0  0  0  0  0  0  0
  153.0970  140.3890  160.8170 H   0  0  0  0  0  0  0  0  0  0  0  0
  154.6470  141.2330  160.8778 H   0  0  0  0  0  0  0  0  0  0  0  0
  151.8611  144.0756  157.6990 H   0  0  0  0  0  0  0  0  0  0  0  0
  153.2066  142.9696  157.7271 H   0  0  0  0  0  0  0  0  0  0  0  0
  152.2819  141.6650  156.1399 H   0  0  0  0  0  0  0  0  0  0  0  0
  149.9157  140.0386  156.9050 H   0  0  0  0  0  0  0  0  0  0  0  0
  151.6925  138.4686  156.8732 H   0  0  0  0  0  0  0  0  0  0  0  0
  152.7553  139.8296  154.2869 H   0  0  0  0  0  0  0  0  0  0  0  0
  153.4944  138.3970  155.1721 H   0  0  0  0  0  0  0  0  0  0  0  0
  151.3609  137.0973  154.8316 H   0  0  0  0  0  0  0  0  0  0  0  0
  150.6262  138.5380  153.9551 H   0  0  0  0  0  0  0  0  0  0  0  0
  150.6634  141.0389  154.1138 H   0  0  0  0  0  0  0  0  0  0  0  0
  148.1308  141.4676  155.8645 H   0  0  0  0  0  0  0  0  0  0  0  0
  148.4393  142.1296  154.1768 H   0  0  0  0  0  0  0  0  0  0  0  0
  148.6875  139.7760  153.3072 H   0  0  0  0  0  0  0  0  0  0  0  0
  148.3783  139.1246  154.9991 H   0  0  0  0  0  0  0  0  0  0  0  0
  1  2  1  0  0  0  0
  1 20  1  0  0  0  0
  1 21  1  0  0  0  0
  1 22  1  0  0  0  0
  2  8  1  0  0  0  0
  2  3  2  0  0  0  0
  3  4  1  0  0  0  0
  4  5  1  0  0  0  0
  4  6  1  0  0  0  0
  5 23  1  0  0  0  0
  5 24  1  0  0  0  0
  5 25  1  0  0  0  0
  6  7  1  0  0  0  0
  6  8  2  0  0  0  0
  7 26  1  0  0  0  0
  7 27  1  0  0  0  0
  7 28  1  0  0  0  0
  8  9  1  0  0  0  0
  9 10  1  0  0  0  0
  9 29  1  0  0  0  0
  9 30  1  0  0  0  0
 10 11  2  0  0  0  0
 10 12  1  0  0  0  0
 12 13  1  0  0  0  0
 12 31  1  0  0  0  0
 13 14  1  0  0  0  0
 13 17  1  0  0  0  0
 13 32  1  0  0  0  0
 14 16  1  0  0  0  0
 14 15  1  0  0  0  0
 14 33  1  0  0  0  0
 15 16  1  0  0  0  0
 15 34  1  0  0  0  0
 15 35  1  0  0  0  0
 16 36  1  0  0  0  0
 16 37  1  0  0  0  0
 17 19  1  0  0  0  0
 17 18  1  0  0  0  0
 17 38  1  0  0  0  0
 18 19  1  0  0  0  0
 18 39  1  0  0  0  0
 18 40  1  0  0  0  0
 19 41  1  0  0  0  0
 19 42  1  0  0  0  0
M  END
> <s_m_source_file>
AV-unprocessed.smi

> <i_m_source_file_index>
343

> <i_lp_mmshare_version>
43012

> <i_f3d_flags>
0

> <s_epik_input>
W0NIM11jMW5uKFtDSDNdKWMoW0NIM10pYzFbQ0gyXUMoPU8pW05IXVtDSF0oW0NIXTJbQ0gyXVtDSDJdMilbQ0hdM1tDSDJdW0NIMl0z

> <s_epik_cmdline>
J2VwaWtfcHl0aG9uJywgJy1waCcsICc3LjAnLCAnLXRuJywgJzgnLCAnLW1hJywgJzIwMCcsICctbWV0YWxfYmluZGluZycsICctaW1hZScsICc8aW5maWxlLm1hZT4nLCAnLW9tYWUnLCAnPG91dGZpbGUubWFlPic=

> <r_lp_tautomer_probability>
1

> <r_epik_Ionization_Penalty>
0.00332543

> <r_epik_Ionization_Penalty_Charging>
0

> <r_epik_Ionization_Penalty_Neutral>
0.00332543

> <r_epik_State_Penalty>
0.00235125

> <r_epik_Charging_Adjusted_Penalty>
0.00235125

> <i_epik_Tot_Q>
0

> <i_epik_Tot_abs_Q>
0

> <r_epik_Metal_State_Penalty>
-0

> <b_epik_Metal_Only>
0

> <s_lp_Force_Field>
OPLS_2005

> <r_lp_Energy>
17.7033

> <b_lp_Chiralities_Consistent>
1

> <s_lp_Variant>
AV-unprocessed.smi:343-1

> <Gold.Version>
5.8.1

> <Gold.Id.Protein>
6NUR|6NUR_protein|mol2

> <Gold.PLP.Fitness>
47.7910

> <Gold.PLP.PLP>
-48.9983

> <Gold.PLP.part.hbond>
-0.0408

> <Gold.PLP.part.metal>
0.0000

> <Gold.PLP.part.buried>
-3.8443

> <Gold.PLP.part.nonpolar>
-45.8737

> <Gold.PLP.part.repulsive>
0.3216

> <Gold.PLP.ligand.clash>
0.0000

> <Gold.PLP.ligand.torsion>
1.6697

> <Gold.PLP.Chemscore.Hbond>
0.0000

> <Gold.PLP.Chemscore.CHOScore>
0.0000

> <Gold.PLP.Chemscore.Metal>
0.0000

> <Gold.PLP.Chemscore.Internal.Correction>
2.1321

> <Gold.Rescore>
     Score         DG    S(hbond)    S(metal)    S(lipo)     H(rot)  DE(clash)    DE(int)     intcor
     14.91     -16.52       0.00        0.00     126.38       1.46       0.08       1.52       ----

> <Gold.Chemscore.Fitness>
14.9131

> <Gold.Chemscore.DG>
-16.5161

> <Gold.Chemscore.ZeroCoef>
-5.4800

> <Gold.Chemscore.Hbond>
0.0000

> <Gold.Chemscore.Metal>
0.0000

> <Gold.Chemscore.Lipo>
126.3798

> <Gold.Chemscore.Internal_Hbond>
0.0000

> <Gold.Chemscore.DEClash>
0.0788

> <Gold.Chemscore.DEInternal>
1.5242

> <Gold.Chemscore.Rot>
1.4650

> <Gold.Chemscore.Internal.Correction>
   9.000000E+99

> <Gold.Chemscore.Hbond.Weighted>
-0.0000

> <Gold.Chemscore.Metal.Weighted>
-0.0000

> <Gold.Chemscore.Lipo.Weighted>
-14.7864

> <Gold.Chemscore.Internal_Hbond.Weighted>
0.0000

> <Gold.Chemscore.DEClash.Weighted>
0.0788

> <Gold.Chemscore.DEInternal.Weighted>
1.5242

> <Gold.Chemscore.Rot.Weighted>
3.7503

> <Gold.Chemscore.Internal.Correction.Weighted>
   9.000000E+99

> <Gold.Protein.RotatedTorsions>
[ 6907 6896 6895 6894 ] final -167.87 input  -60.11 | X-H torsion
[ 7974 7965 7964 7962 ] final  -43.25 input  175.53 | X-H torsion
[ 8008 7997 7996 7995 ] final  -80.33 input   59.86 | X-H torsion
[ 10167 10162 10161 10158 ] final -171.60 input  -65.29 | X-H torsion
[ 10718 10713 10712 10709 ] final -115.27 input   66.30 | X-H torsion
[ 10763 10752 10751 10750 ] final   67.61 input  -60.55 | X-H torsion
[ 11005 11000 10999 10996 ] final  -45.90 input  -57.11 | X-H torsion

> <Gold.Protein.ActiveResidues>
 VAL166  LYS551  ARG553  GLY616  TRP617  ASP618  TYR619  PRO620  LYS621  CYS622 
 ASP623  PHE694  ASN695  SER759  ASP760  ASP761  ALA762  ILE779  LEU786  VAL792 
 PHE793  MET794  SER795  GLU796  ALA797  LYS798  CYS799  TRP800  GLU811  SER814 

> <Gold.Protein.RotatedAtoms>
  151.4665  133.3579  159.2816 H   0  0  0  0  0  0  0  0  0  0  0  0  # atno 6907 bound_to 6896
  150.8990  134.8402  159.7357 H   0  0  0  0  0  0  0  0  0  0  0  0  # atno 6908 bound_to 6896
  152.4868  134.4583  159.9649 H   0  0  0  0  0  0  0  0  0  0  0  0  # atno 6909 bound_to 6896
  146.0037  140.7044  142.9258 H   0  0  0  0  0  0  0  0  0  0  0  0  # atno 7974 bound_to 7965
  154.5873  140.0664  156.9189 H   0  0  0  0  0  0  0  0  0  0  0  0  # atno 8008 bound_to 7997
  155.2357  140.3341  155.4280 H   0  0  0  0  0  0  0  0  0  0  0  0  # atno 8009 bound_to 7997
  156.2231  140.1807  156.7413 H   0  0  0  0  0  0  0  0  0  0  0  0  # atno 8010 bound_to 7997
  139.5793  144.1460  152.1493 H   0  0  0  0  0  0  0  0  0  0  0  0  # atno 10167 bound_to 10162
  156.0885  130.6072  150.8884 H   0  0  0  0  0  0  0  0  0  0  0  0  # atno 10718 bound_to 10713
  153.0194  135.5277  154.7006 H   0  0  0  0  0  0  0  0  0  0  0  0  # atno 10763 bound_to 10752
  154.6116  135.2879  155.0428 H   0  0  0  0  0  0  0  0  0  0  0  0  # atno 10764 bound_to 10752
  154.1448  135.6572  153.5002 H   0  0  0  0  0  0  0  0  0  0  0  0  # atno 10765 bound_to 10752
  141.0545  133.6731  156.3079 H   0  0  0  0  0  0  0  0  0  0  0  0  # atno 11005 bound_to 11000
  144.6928  140.3278  143.7221 LP  0  0  0  0  0  0  0  0  0  0  0  0  # atno 17320 bound_to 7965
  145.7448  139.1775  143.2355 LP  0  0  0  0  0  0  0  0  0  0  0  0  # atno 17321 bound_to 7965
  140.1010  144.5540  150.6989 LP  0  0  0  0  0  0  0  0  0  0  0  0  # atno 17342 bound_to 10162
  140.7073  143.2477  151.4688 LP  0  0  0  0  0  0  0  0  0  0  0  0  # atno 17343 bound_to 10162
  157.6027  131.0940  150.8933 LP  0  0  0  0  0  0  0  0  0  0  0  0  # atno 17370 bound_to 10713
  156.9087  130.5273  149.5281 LP  0  0  0  0  0  0  0  0  0  0  0  0  # atno 17371 bound_to 10713
  140.5991  134.5573  157.5514 LP  0  0  0  0  0  0  0  0  0  0  0  0  # atno 17394 bound_to 11000
  139.9378  134.7843  156.0757 LP  0  0  0  0  0  0  0  0  0  0  0  0  # atno 17395 bound_to 11000

$$$$
