AV-unprocessed.smi:2211|AV-procd|sdf|8950|dock1
  -GOLD-   2272012163D 1   1.00000     0.00000
 Structure written by MMmdl.
 25 26  0  0  0  0  0  0  0  0  1 V2000
  151.6942  141.4752  157.4316 O   0  0  0  0  0  0  0  0  0  0  0  0
  151.0022  142.1747  156.6903 C   0  0  0  0  0  0  0  0  0  0  0  0
  150.0720  141.5385  155.6482 C   0  0  0  0  0  0  0  0  0  0  0  0
  150.3774  140.1318  155.3826 N   0  0  0  0  0  0  0  0  0  0  0  0
  150.5692  139.7477  154.0919 N   0  0  0  0  0  0  0  0  0  0  0  0
  150.8366  138.4973  154.0093 C   0  0  0  0  0  0  0  0  0  0  0  0
  150.8854  137.6069  155.5364 S   0  0  0  0  0  0  0  0  0  0  0  0
  150.4916  139.1433  156.3560 C   0  0  0  0  0  0  0  0  0  0  0  0
  150.3570  139.2483  157.5738 O   0  0  0  0  0  0  0  0  0  0  0  0
  151.0200  143.5158  156.7195 N   0  0  0  0  0  0  0  0  0  0  0  0
  151.8392  144.3207  157.6160 C   0  0  0  0  0  0  0  0  0  0  0  0
  151.3051  144.4472  159.0298 C   0  0  0  0  0  0  0  0  0  0  0  0
  151.8312  145.5038  159.9745 C   0  0  0  0  0  0  0  0  0  0  0  0
  152.1648  144.0509  160.2075 C   0  0  0  0  0  0  0  0  0  0  0  0
  149.0382  141.6182  155.9883 H   0  0  0  0  0  0  0  0  0  0  0  0
  150.1375  142.1177  154.7257 H   0  0  0  0  0  0  0  0  0  0  0  0
  151.0343  137.9406  153.0934 H   0  0  0  0  0  0  0  0  0  0  0  0
  150.4245  144.0140  156.0737 H   0  0  0  0  0  0  0  0  0  0  0  0
  152.8233  143.8547  157.6668 H   0  0  0  0  0  0  0  0  0  0  0  0
  151.9943  145.3136  157.1903 H   0  0  0  0  0  0  0  0  0  0  0  0
  150.2490  144.2005  159.1222 H   0  0  0  0  0  0  0  0  0  0  0  0
  152.6297  146.1517  159.6183 H   0  0  0  0  0  0  0  0  0  0  0  0
  151.1174  145.9719  160.6491 H   0  0  0  0  0  0  0  0  0  0  0  0
  151.6755  143.5500  161.0404 H   0  0  0  0  0  0  0  0  0  0  0  0
  153.1858  143.7326  160.0065 H   0  0  0  0  0  0  0  0  0  0  0  0
  1  2  2  0  0  0  0
  2  3  1  0  0  0  0
  2 10  1  0  0  0  0
  3  4  1  0  0  0  0
  3 15  1  0  0  0  0
  3 16  1  0  0  0  0
  4  8  1  0  0  0  0
  4  5  1  0  0  0  0
  5  6  2  0  0  0  0
  6  7  1  0  0  0  0
  6 17  1  0  0  0  0
  7  8  1  0  0  0  0
  8  9  2  0  0  0  0
 10 11  1  0  0  0  0
 10 18  1  0  0  0  0
 11 12  1  0  0  0  0
 11 19  1  0  0  0  0
 11 20  1  0  0  0  0
 12 14  1  0  0  0  0
 12 13  1  0  0  0  0
 12 21  1  0  0  0  0
 13 14  1  0  0  0  0
 13 22  1  0  0  0  0
 13 23  1  0  0  0  0
 14 24  1  0  0  0  0
 14 25  1  0  0  0  0
M  END
> <s_m_source_file>
AV-unprocessed.smi

> <i_m_source_file_index>
2211

> <i_lp_mmshare_version>
43012

> <i_f3d_flags>
0

> <s_epik_input>
W0NIMl0xW0NIMl1bQ0hdMVtDSDJdW05IXUMoPU8pW0NIMl1uMm5bY0hdc2MyPU8=

> <s_epik_cmdline>
J2VwaWtfcHl0aG9uJywgJy1waCcsICc3LjAnLCAnLXRuJywgJzgnLCAnLW1hJywgJzIwMCcsICctbWV0YWxfYmluZGluZycsICctaW1hZScsICc8aW5maWxlLm1hZT4nLCAnLW9tYWUnLCAnPG91dGZpbGUubWFlPic=

> <r_lp_tautomer_probability>
1

> <r_epik_Ionization_Penalty>
1.04444e-07

> <r_epik_Ionization_Penalty_Charging>
1.36178e-08

> <r_epik_Ionization_Penalty_Neutral>
9.08257e-08

> <r_epik_State_Penalty>
-0

> <r_epik_Charging_Adjusted_Penalty>
1.36178e-08

> <i_epik_Tot_Q>
0

> <i_epik_Tot_abs_Q>
0

> <r_epik_Metal_State_Penalty>
-0

> <b_epik_Metal_Only>
0

> <s_lp_Force_Field>
OPLS_2005

> <r_lp_Energy>
12.8792

> <b_lp_Chiralities_Consistent>
1

> <s_lp_Variant>
AV-unprocessed.smi:2211-1

> <Gold.Version>
5.8.1

> <Gold.Id.Protein>
6NUR|6NUR_protein|mol2

> <Gold.PLP.Fitness>
40.0673

> <Gold.PLP.PLP>
-31.9588

> <Gold.PLP.part.hbond>
-2.0000

> <Gold.PLP.part.metal>
0.0000

> <Gold.PLP.part.buried>
-5.0556

> <Gold.PLP.part.nonpolar>
-25.4176

> <Gold.PLP.part.repulsive>
0.2174

> <Gold.PLP.ligand.clash>
0.0000

> <Gold.PLP.ligand.torsion>
0.8352

> <Gold.PLP.Chemscore.Hbond>
2.0000

> <Gold.PLP.Chemscore.CHOScore>
1.0774

> <Gold.PLP.Chemscore.Metal>
0.0000

> <Gold.Chemscore.Hbonds>
donor molecule, donor type, donor heavy atom, donor atom, acceptor molecule, acceptor atom, score
      L1  H    10    18       P1  8028  1.00
      P1  H  7989  7998       L1     5  1.00
      L1  C     6    17       P1  7948  0.02
      L1  C     6    17       P1  7949  1.00

> <Gold.PLP.Chemscore.Internal.Correction>
0.5468

> <Gold.Rescore>
     Score         DG    S(hbond)    S(metal)    S(lipo)     H(rot)  DE(clash)    DE(int)     intcor
     14.35     -15.23       1.97        0.00      69.47       1.94       0.07       0.81       ----

> <Gold.Chemscore.Fitness>
14.3502

> <Gold.Chemscore.DG>
-15.2312

> <Gold.Chemscore.ZeroCoef>
-5.4800

> <Gold.Chemscore.Hbond>
1.9716

> <Gold.Chemscore.Metal>
0.0000

> <Gold.Chemscore.Lipo>
69.4717

> <Gold.Chemscore.Internal_Hbond>
0.0000

> <Gold.Chemscore.DEClash>
0.0727

> <Gold.Chemscore.DEInternal>
0.8083

> <Gold.Chemscore.Rot>
1.9384

> <Gold.Chemscore.Internal.Correction>
   9.000000E+99

> <Gold.Chemscore.Hbonds>
donor molecule, donor type, donor heavy atom, donor atom, acceptor molecule, acceptor atom, score
      L1  H    10    18       P1  8028  0.95
      P1  H  7989  7998       L1     5  0.48

> <Gold.Chemscore.Hbond.Weighted>
-6.5852

> <Gold.Chemscore.Metal.Weighted>
-0.0000

> <Gold.Chemscore.Lipo.Weighted>
-8.1282

> <Gold.Chemscore.Internal_Hbond.Weighted>
0.0000

> <Gold.Chemscore.DEClash.Weighted>
0.0727

> <Gold.Chemscore.DEInternal.Weighted>
0.8083

> <Gold.Chemscore.Rot.Weighted>
4.9622

> <Gold.Chemscore.Internal.Correction.Weighted>
   9.000000E+99

> <Gold.Protein.RotatedTorsions>
[ 6907 6896 6895 6894 ] final  153.91 input  -60.11 | X-H torsion
[ 7974 7965 7964 7962 ] final   71.31 input  175.53 | X-H torsion
[ 8008 7997 7996 7995 ] final   31.83 input   59.86 | X-H torsion
[ 10167 10162 10161 10158 ] final   14.27 input  -65.29 | X-H torsion
[ 10718 10713 10712 10709 ] final -170.49 input   66.30 | X-H torsion
[ 10763 10752 10751 10750 ] final  -51.40 input  -60.55 | X-H torsion
[ 11005 11000 10999 10996 ] final  -33.38 input  -57.11 | X-H torsion

> <Gold.Protein.ActiveResidues>
 VAL166  LYS551  ARG553  GLY616  TRP617  ASP618  TYR619  PRO620  LYS621  CYS622 
 ASP623  PHE694  ASN695  SER759  ASP760  ASP761  ALA762  ILE779  LEU786  VAL792 
 PHE793  MET794  SER795  GLU796  ALA797  LYS798  CYS799  TRP800  GLU811  SER814 

> <Gold.Protein.RotatedAtoms>
  152.0660  133.4084  159.4438 H   0  0  0  0  0  0  0  0  0  0  0  0  # atno 6907 bound_to 6896
  150.6865  134.3146  159.4770 H   0  0  0  0  0  0  0  0  0  0  0  0  # atno 6908 bound_to 6896
  152.0973  134.9366  160.0621 H   0  0  0  0  0  0  0  0  0  0  0  0  # atno 6909 bound_to 6896
  145.7674  139.2827  143.1341 H   0  0  0  0  0  0  0  0  0  0  0  0  # atno 7974 bound_to 7965
  155.1127  140.3240  155.4517 H   0  0  0  0  0  0  0  0  0  0  0  0  # atno 8008 bound_to 7997
  156.2686  140.2041  156.6198 H   0  0  0  0  0  0  0  0  0  0  0  0  # atno 8009 bound_to 7997
  154.6744  140.0533  157.0186 H   0  0  0  0  0  0  0  0  0  0  0  0  # atno 8010 bound_to 7997
  140.5947  143.8725  150.6906 H   0  0  0  0  0  0  0  0  0  0  0  0  # atno 10167 bound_to 10162
  156.7270  130.9292  151.3102 H   0  0  0  0  0  0  0  0  0  0  0  0  # atno 10718 bound_to 10713
  154.1259  135.6527  153.4912 H   0  0  0  0  0  0  0  0  0  0  0  0  # atno 10763 bound_to 10752
  153.0210  135.5281  154.7049 H   0  0  0  0  0  0  0  0  0  0  0  0  # atno 10764 bound_to 10752
  154.6270  135.2971  155.0230 H   0  0  0  0  0  0  0  0  0  0  0  0  # atno 10765 bound_to 10752
  140.9630  133.7153  156.1400 H   0  0  0  0  0  0  0  0  0  0  0  0  # atno 11005 bound_to 11000
  146.0204  140.8353  142.9926 LP  0  0  0  0  0  0  0  0  0  0  0  0  # atno 17320 bound_to 7965
  144.6819  140.2620  143.7317 LP  0  0  0  0  0  0  0  0  0  0  0  0  # atno 17321 bound_to 7965
  140.2257  143.3774  152.1607 LP  0  0  0  0  0  0  0  0  0  0  0  0  # atno 17342 bound_to 10162
  139.5250  144.7091  151.5263 LP  0  0  0  0  0  0  0  0  0  0  0  0  # atno 17343 bound_to 10162
  157.6874  130.9199  150.0424 LP  0  0  0  0  0  0  0  0  0  0  0  0  # atno 17370 bound_to 10713
  156.1555  130.3643  149.9375 LP  0  0  0  0  0  0  0  0  0  0  0  0  # atno 17371 bound_to 10713
  140.7440  134.4119  157.5551 LP  0  0  0  0  0  0  0  0  0  0  0  0  # atno 17394 bound_to 11000
  139.8884  134.8856  156.2473 LP  0  0  0  0  0  0  0  0  0  0  0  0  # atno 17395 bound_to 11000

$$$$
