AV-unprocessed.smi:2061|AV-procd|sdf|8366|dock1
  -GOLD-   2272011 43D 1   1.00000     0.00000
 Structure written by MMmdl.
 46 47  0  0  0  0  0  0  0  0  2 V2000
  151.9744  141.3126  157.6570 C   0  0  0  0  0  0  0  0  0  0  0  0
  151.5354  140.5172  156.4758 C   0  0  0  0  0  0  0  0  0  0  0  0
  150.3214  140.3354  155.8760 C   0  0  0  0  0  0  0  0  0  0  0  0
  150.6259  139.4494  154.8016 C   0  0  0  0  0  0  0  0  0  0  0  0
  149.7045  138.9247  153.8589 N   0  0  0  0  0  0  0  0  0  0  0  0
  148.4157  139.2586  153.6797 C   0  0  0  0  0  0  0  0  0  0  0  0
  147.8110  140.1332  154.3004 O   0  0  0  0  0  0  0  0  0  0  0  0
  147.8465  138.5120  152.7223 N   0  0  0  0  0  0  0  0  0  0  0  0
  146.4539  138.6267  152.2992 C   0  0  0  0  0  0  0  0  0  0  0  0
  145.5889  137.4070  152.7161 C   0  0  2  0  0  0  0  0  0  0  0  0
  145.5091  136.3911  151.5505 C   0  0  0  0  0  0  0  0  0  0  0  0
  144.2479  137.8654  153.2058 N   0  3  1  0  0  0  0  0  0  0  0  0
  143.1506  136.8632  153.1179 C   0  0  0  0  0  0  0  0  0  0  0  0
  141.8148  137.4609  153.6007 C   0  0  1  0  0  0  0  0  0  0  0  0
  140.6828  136.4275  153.5929 C   0  0  0  0  0  0  0  0  0  0  0  0
  141.9664  137.9412  154.9299 O   0  0  0  0  0  0  0  0  0  0  0  0
  142.9387  138.9737  155.0215 C   0  0  1  0  0  0  0  0  0  0  0  0
  142.9564  139.4846  156.4664 C   0  0  0  0  0  0  0  0  0  0  0  0
  144.3048  138.4111  154.5892 C   0  0  0  0  0  0  0  0  0  0  0  0
  151.9042  139.1225  154.7580 N   0  0  0  0  0  0  0  0  0  0  0  0
  152.4963  139.8056  155.8268 O   0  0  0  0  0  0  0  0  0  0  0  0
  151.1275  141.8139  158.1260 H   0  0  0  0  0  0  0  0  0  0  0  0
  152.6980  142.0734  157.3636 H   0  0  0  0  0  0  0  0  0  0  0  0
  152.4417  140.6697  158.4031 H   0  0  0  0  0  0  0  0  0  0  0  0
  149.3796  140.7708  156.1740 H   0  0  0  0  0  0  0  0  0  0  0  0
  150.0717  138.2046  153.2542 H   0  0  0  0  0  0  0  0  0  0  0  0
  148.4121  137.8173  152.2562 H   0  0  0  0  0  0  0  0  0  0  0  0
  146.0615  139.5634  152.6929 H   0  0  0  0  0  0  0  0  0  0  0  0
  146.4421  138.7308  151.2138 H   0  0  0  0  0  0  0  0  0  0  0  0
  146.0770  136.8915  153.5448 H   0  0  0  0  0  0  0  0  0  0  0  0
  146.4992  136.1028  151.1977 H   0  0  0  0  0  0  0  0  0  0  0  0
  144.9674  136.8030  150.6984 H   0  0  0  0  0  0  0  0  0  0  0  0
  145.0232  135.4622  151.8499 H   0  0  0  0  0  0  0  0  0  0  0  0
  143.0084  136.5350  152.0887 H   0  0  0  0  0  0  0  0  0  0  0  0
  143.4109  135.9846  153.7109 H   0  0  0  0  0  0  0  0  0  0  0  0
  141.5287  138.2895  152.9503 H   0  0  0  0  0  0  0  0  0  0  0  0
  140.5225  136.0279  152.5912 H   0  0  0  0  0  0  0  0  0  0  0  0
  139.7456  136.8746  153.9251 H   0  0  0  0  0  0  0  0  0  0  0  0
  140.9057  135.5909  154.2558 H   0  0  0  0  0  0  0  0  0  0  0  0
  142.6547  139.7989  154.3659 H   0  0  0  0  0  0  0  0  0  0  0  0
  143.6822  140.2889  156.5904 H   0  0  0  0  0  0  0  0  0  0  0  0
  143.2174  138.6881  157.1639 H   0  0  0  0  0  0  0  0  0  0  0  0
  141.9792  139.8729  156.7547 H   0  0  0  0  0  0  0  0  0  0  0  0
  144.6154  137.6219  155.2762 H   0  0  0  0  0  0  0  0  0  0  0  0
  145.0472  139.2030  154.6687 H   0  0  0  0  0  0  0  0  0  0  0  0
  143.9724  138.6252  152.6000 H   0  0  0  0  0  0  0  0  0  0  0  0
  1  2  1  0  0  0  0
  1 22  1  0  0  0  0
  1 23  1  0  0  0  0
  1 24  1  0  0  0  0
  2 21  1  0  0  0  0
  2  3  2  0  0  0  0
  3  4  1  0  0  0  0
  3 25  1  0  0  0  0
  4  5  1  0  0  0  0
  4 20  2  0  0  0  0
  5  6  1  0  0  0  0
  5 26  1  0  0  0  0
  6  7  2  0  0  0  0
  6  8  1  0  0  0  0
  8  9  1  0  0  0  0
  8 27  1  0  0  0  0
  9 10  1  0  0  0  0
  9 28  1  0  0  0  0
  9 29  1  0  0  0  0
 10 11  1  0  0  0  0
 10 12  1  0  0  0  0
 10 30  1  0  0  0  0
 11 31  1  0  0  0  0
 11 32  1  0  0  0  0
 11 33  1  0  0  0  0
 12 19  1  0  0  0  0
 12 13  1  0  0  0  0
 12 46  1  0  0  0  0
 13 14  1  0  0  0  0
 13 34  1  0  0  0  0
 13 35  1  0  0  0  0
 14 15  1  0  0  0  0
 14 16  1  0  0  0  0
 14 36  1  0  0  0  0
 15 37  1  0  0  0  0
 15 38  1  0  0  0  0
 15 39  1  0  0  0  0
 16 17  1  0  0  0  0
 17 18  1  0  0  0  0
 17 19  1  0  0  0  0
 17 40  1  0  0  0  0
 18 41  1  0  0  0  0
 18 42  1  0  0  0  0
 18 43  1  0  0  0  0
 19 44  1  0  0  0  0
 19 45  1  0  0  0  0
 20 21  1  0  0  0  0
M  CHG  1  12   1
M  END
> <s_m_source_file>
AV-unprocessed.smi

> <i_m_source_file_index>
2061

> <i_lp_mmshare_version>
43012

> <i_f3d_flags>
0

> <s_epik_input>
W0NIM11jMVtjSF1jKG5vMSlbTkhdQyg9TylbTkhdW0NIMl1bQ0BIXShbQ0gzXSlOMltDSDJdW0NAQEhdKFtDSDNdKU9bQ0BASF0oW0NIM10pW0NIMl0y

> <s_epik_cmdline>
J2VwaWtfcHl0aG9uJywgJy1waCcsICc3LjAnLCAnLXRuJywgJzgnLCAnLW1hJywgJzIwMCcsICctbWV0YWxfYmluZGluZycsICctaW1hZScsICc8aW5maWxlLm1hZT4nLCAnLW9tYWUnLCAnPG91dGZpbGUubWFlPic=

> <r_epik_Ionization_Penalty>
0.707076

> <r_epik_Ionization_Penalty_Charging>
0.707039

> <r_epik_Ionization_Penalty_Neutral>
3.6548e-05

> <r_epik_State_Penalty>
0.730276

> <r_epik_Charging_Adjusted_Penalty>
1.43732

> <i_epik_Tot_Q>
1

> <i_epik_Tot_abs_Q>
1

> <r_epik_Metal_State_Penalty>
0.743132

> <b_epik_Metal_Only>
0

> <s_lp_Force_Field>
OPLS_2005

> <r_lp_Energy>
18.102

> <b_lp_Chiralities_Consistent>
1

> <s_lp_Variant>
AV-unprocessed.smi:2061-7

> <Gold.Version>
5.8.1

> <Gold.Id.Protein>
6NUR|6NUR_protein|mol2

> <Gold.PLP.Fitness>
41.3645

> <Gold.PLP.PLP>
-31.4525

> <Gold.PLP.part.hbond>
-6.0000

> <Gold.PLP.part.metal>
0.0000

> <Gold.PLP.part.buried>
-1.5067

> <Gold.PLP.part.nonpolar>
-23.6409

> <Gold.PLP.part.repulsive>
0.3636

> <Gold.PLP.ligand.clash>
0.0000

> <Gold.PLP.ligand.torsion>
1.0635

> <Gold.PLP.Chemscore.Hbond>
3.9760

> <Gold.PLP.Chemscore.CHOScore>
0.0000

> <Gold.PLP.Chemscore.Metal>
0.0000

> <Gold.Chemscore.Hbonds>
donor molecule, donor type, donor heavy atom, donor atom, acceptor molecule, acceptor atom, score
      L1  H     8    27       P1  7948  1.00
      L1  H    12    46       P1 10175  1.86
      P1  H  7997  8010       L1    21  1.00

> <Gold.PLP.Chemscore.Internal.Correction>
0.1110

> <Gold.Rescore>
     Score         DG    S(hbond)    S(metal)    S(lipo)     H(rot)  DE(clash)    DE(int)     intcor
     15.38     -17.62       2.93        0.00      54.80       1.58       0.02       2.22       ----

> <Gold.Chemscore.Fitness>
15.3793

> <Gold.Chemscore.DG>
-17.6195

> <Gold.Chemscore.ZeroCoef>
-5.4800

> <Gold.Chemscore.Hbond>
2.9285

> <Gold.Chemscore.Metal>
0.0000

> <Gold.Chemscore.Lipo>
54.8015

> <Gold.Chemscore.Internal_Hbond>
0.0000

> <Gold.Chemscore.DEClash>
0.0199

> <Gold.Chemscore.DEInternal>
2.2203

> <Gold.Chemscore.Rot>
1.5834

> <Gold.Chemscore.Internal.Correction>
   9.000000E+99

> <Gold.Chemscore.Hbonds>
donor molecule, donor type, donor heavy atom, donor atom, acceptor molecule, acceptor atom, score
      L1  H     8    27       P1  7948  0.99
      L1  H    12    46       P1 10175  0.91
      P1  H  7997  8010       L1    21  0.98

> <Gold.Chemscore.Hbond.Weighted>
-9.7812

> <Gold.Chemscore.Metal.Weighted>
-0.0000

> <Gold.Chemscore.Lipo.Weighted>
-6.4118

> <Gold.Chemscore.Internal_Hbond.Weighted>
0.0000

> <Gold.Chemscore.DEClash.Weighted>
0.0199

> <Gold.Chemscore.DEInternal.Weighted>
2.2203

> <Gold.Chemscore.Rot.Weighted>
4.0535

> <Gold.Chemscore.Internal.Correction.Weighted>
   9.000000E+99

> <Gold.Protein.RotatedTorsions>
[ 6907 6896 6895 6894 ] final  -97.75 input  -60.11 | X-H torsion
[ 7974 7965 7964 7962 ] final -178.45 input  175.53 | X-H torsion
[ 8008 7997 7996 7995 ] final   91.85 input   59.86 | X-H torsion
[ 10167 10162 10161 10158 ] final -148.63 input  -65.29 | X-H torsion
[ 10718 10713 10712 10709 ] final -111.42 input   66.30 | X-H torsion
[ 10763 10752 10751 10750 ] final -101.94 input  -60.55 | X-H torsion
[ 11005 11000 10999 10996 ] final  113.37 input  -57.11 | X-H torsion

> <Gold.Protein.ActiveResidues>
 VAL166  LYS551  ARG553  GLY616  TRP617  ASP618  TYR619  PRO620  LYS621  CYS622 
 ASP623  PHE694  ASN695  SER759  ASP760  ASP761  ALA762  ILE779  LEU786  VAL792 
 PHE793  MET794  SER795  GLU796  ALA797  LYS798  CYS799  TRP800  GLU811  SER814 

> <Gold.Protein.RotatedAtoms>
  150.7026  134.1300  159.4065 H   0  0  0  0  0  0  0  0  0  0  0  0  # atno 6907 bound_to 6896
  151.9286  135.0264  160.0537 H   0  0  0  0  0  0  0  0  0  0  0  0  # atno 6908 bound_to 6896
  152.2195  133.4937  159.5191 H   0  0  0  0  0  0  0  0  0  0  0  0  # atno 6909 bound_to 6896
  144.7131  140.0867  143.6423 H   0  0  0  0  0  0  0  0  0  0  0  0  # atno 7974 bound_to 7965
  156.0285  140.3332  155.7114 H   0  0  0  0  0  0  0  0  0  0  0  0  # atno 8008 bound_to 7997
  155.5919  140.0647  157.2774 H   0  0  0  0  0  0  0  0  0  0  0  0  # atno 8009 bound_to 7997
  154.4344  140.1825  156.1071 H   0  0  0  0  0  0  0  0  0  0  0  0  # atno 8010 bound_to 7997
  139.7514  143.8513  152.2587 H   0  0  0  0  0  0  0  0  0  0  0  0  # atno 10167 bound_to 10162
  156.0646  130.5866  150.8371 H   0  0  0  0  0  0  0  0  0  0  0  0  # atno 10718 bound_to 10713
  154.7696  135.4879  153.9623 H   0  0  0  0  0  0  0  0  0  0  0  0  # atno 10763 bound_to 10752
  153.1351  135.6761  153.9123 H   0  0  0  0  0  0  0  0  0  0  0  0  # atno 10764 bound_to 10752
  153.8815  135.3131  155.3424 H   0  0  0  0  0  0  0  0  0  0  0  0  # atno 10765 bound_to 10752
  139.8951  134.9548  156.6729 H   0  0  0  0  0  0  0  0  0  0  0  0  # atno 11005 bound_to 11000
  145.9655  139.2831  143.1130 LP  0  0  0  0  0  0  0  0  0  0  0  0  # atno 17320 bound_to 7965
  145.9174  140.9139  143.0423 LP  0  0  0  0  0  0  0  0  0  0  0  0  # atno 17321 bound_to 7965
  139.8492  144.7173  150.9235 LP  0  0  0  0  0  0  0  0  0  0  0  0  # atno 17342 bound_to 10162
  140.7798  143.3914  151.1303 LP  0  0  0  0  0  0  0  0  0  0  0  0  # atno 17343 bound_to 10162
  157.5679  131.0946  150.9462 LP  0  0  0  0  0  0  0  0  0  0  0  0  # atno 17370 bound_to 10713
  156.9685  130.5482  149.5289 LP  0  0  0  0  0  0  0  0  0  0  0  0  # atno 17371 bound_to 10713
  140.7359  133.9019  155.8244 LP  0  0  0  0  0  0  0  0  0  0  0  0  # atno 17394 bound_to 11000
  141.0116  134.1012  157.4215 LP  0  0  0  0  0  0  0  0  0  0  0  0  # atno 17395 bound_to 11000

$$$$
