AV-unprocessed.smi:2886|AV-procd|sdf|11089|dock3
  -GOLD-   2272015563D 1   1.00000     0.00000
 Structure written by MMmdl.
 28 30  0  0  0  0  0  0  0  0  1 V2000
  151.0670  139.2529  154.2380 O   0  0  0  0  0  0  0  0  0  0  0  0
  151.3782  139.6787  155.3487 C   0  0  0  0  0  0  0  0  0  0  0  0
  152.4134  139.1509  156.0433 N   0  0  0  0  0  0  0  0  0  0  0  0
  152.8562  139.5491  157.2810 N   0  0  0  0  0  0  0  0  0  0  0  0
  152.2397  140.5152  157.8716 C   0  0  0  0  0  0  0  0  0  0  0  0
  151.0909  141.1970  157.2845 C   0  0  0  0  0  0  0  0  0  0  0  0
  150.4280  142.2380  157.9216 N   0  0  0  0  0  0  0  0  0  0  0  0
  150.7089  142.8374  159.2193 C   0  0  2  0  0  0  0  0  0  0  0  0
  150.1075  144.2344  159.3776 C   0  0  0  0  0  0  0  0  0  0  0  0
  151.3381  145.0553  159.7900 C   0  0  2  0  0  0  0  0  0  0  0  0
  152.2664  145.3150  158.5965 C   0  0  0  0  0  0  0  0  0  0  0  0
  152.8822  143.9345  158.3756 C   0  0  0  0  0  0  0  0  0  0  0  0
  152.2021  143.1026  159.4762 C   0  0  1  0  0  0  0  0  0  0  0  0
  152.0925  144.0825  160.4950 O   0  0  0  0  0  0  0  0  0  0  0  0
  150.6974  140.7757  156.0505 C   0  0  0  0  0  0  0  0  0  0  0  0
  149.3549  141.5247  155.2528 Cl  0  0  0  0  0  0  0  0  0  0  0  0
  152.9406  138.3896  155.6401 H   0  0  0  0  0  0  0  0  0  0  0  0
  152.5620  140.8710  158.8495 H   0  0  0  0  0  0  0  0  0  0  0  0
  149.5587  142.5378  157.5027 H   0  0  0  0  0  0  0  0  0  0  0  0
  150.3107  142.2093  160.0162 H   0  0  0  0  0  0  0  0  0  0  0  0
  149.6456  144.6197  158.4675 H   0  0  0  0  0  0  0  0  0  0  0  0
  149.3542  144.2357  160.1659 H   0  0  0  0  0  0  0  0  0  0  0  0
  151.1012  145.9488  160.3683 H   0  0  0  0  0  0  0  0  0  0  0  0
  151.7282  145.6845  157.7230 H   0  0  0  0  0  0  0  0  0  0  0  0
  153.0385  146.0405  158.8550 H   0  0  0  0  0  0  0  0  0  0  0  0
  152.7057  143.5444  157.3730 H   0  0  0  0  0  0  0  0  0  0  0  0
  153.9601  143.9720  158.5356 H   0  0  0  0  0  0  0  0  0  0  0  0
  152.7626  142.2136  159.7672 H   0  0  0  0  0  0  0  0  0  0  0  0
  1  2  2  0  0  0  0
  2 15  1  0  0  0  0
  2  3  1  0  0  0  0
  3 17  1  0  0  0  0
  3  4  1  0  0  0  0
  4  5  2  0  0  0  0
  5  6  1  0  0  0  0
  5 18  1  0  0  0  0
  6  7  1  0  0  0  0
  6 15  2  0  0  0  0
  7  8  1  0  0  0  0
  7 19  1  0  0  0  0
  8 13  1  0  0  0  0
  8  9  1  0  0  0  0
  8 20  1  0  0  0  0
  9 10  1  0  0  0  0
  9 21  1  0  0  0  0
  9 22  1  0  0  0  0
 10 14  1  0  0  0  0
 10 11  1  0  0  0  0
 10 23  1  0  0  0  0
 11 12  1  0  0  0  0
 11 24  1  0  0  0  0
 11 25  1  0  0  0  0
 12 13  1  0  0  0  0
 12 26  1  0  0  0  0
 12 27  1  0  0  0  0
 13 14  1  0  0  0  0
 13 28  1  0  0  0  0
 15 16  1  0  0  0  0
M  END
> <s_m_source_file>
AV-unprocessed.smi

> <i_m_source_file_index>
2886

> <i_lp_mmshare_version>
43012

> <i_f3d_flags>
0

> <s_epik_input>
Tz1jMVtuSF1uW2NIXWMoYzFDbClbTkhdW0NASF0oW0NIMl1bQ0BASF0yMylbQ0BASF0oTzMpW0NIMl1bQ0gyXTI=

> <s_epik_cmdline>
J2VwaWtfcHl0aG9uJywgJy1waCcsICc3LjAnLCAnLXRuJywgJzgnLCAnLW1hJywgJzIwMCcsICctbWV0YWxfYmluZGluZycsICctaW1hZScsICc8aW5maWxlLm1hZT4nLCAnLW9tYWUnLCAnPG91dGZpbGUubWFlPic=

> <r_lp_tautomer_probability>
0.986175

> <r_epik_Ionization_Penalty>
0.000975594

> <r_epik_Ionization_Penalty_Charging>
0.000940184

> <r_epik_Ionization_Penalty_Neutral>
3.54099e-05

> <r_epik_State_Penalty>
0.00620319

> <r_epik_Charging_Adjusted_Penalty>
0.00714337

> <i_epik_Tot_Q>
0

> <i_epik_Tot_abs_Q>
0

> <r_epik_Metal_State_Penalty>
0.287699

> <b_epik_Metal_Only>
0

> <s_lp_Force_Field>
OPLS_2005

> <r_lp_Energy>
55.2825

> <b_lp_Chiralities_Consistent>
1

> <s_lp_Variant>
AV-unprocessed.smi:2886-3

> <Gold.Version>
5.8.1

> <Gold.Id.Protein>
6NUR|6NUR_protein|mol2

> <Gold.PLP.Fitness>
36.3035

> <Gold.PLP.PLP>
-31.9776

> <Gold.PLP.part.hbond>
-2.0000

> <Gold.PLP.part.metal>
0.0000

> <Gold.PLP.part.buried>
-4.5600

> <Gold.PLP.part.nonpolar>
-26.9273

> <Gold.PLP.part.repulsive>
0.4652

> <Gold.PLP.ligand.clash>
0.0000

> <Gold.PLP.ligand.torsion>
0.2416

> <Gold.PLP.Chemscore.Hbond>
1.6000

> <Gold.PLP.Chemscore.CHOScore>
0.0000

> <Gold.PLP.Chemscore.Metal>
0.0000

> <Gold.Chemscore.Hbonds>
donor molecule, donor type, donor heavy atom, donor atom, acceptor molecule, acceptor atom, score
      P1  H  7989  7998       L1     1  0.50
      P1  H  7997  8009       L1     4  1.00

> <Gold.PLP.Chemscore.Internal.Correction>
0.0090

> <Gold.Rescore>
     Score         DG    S(hbond)    S(metal)    S(lipo)     H(rot)  DE(clash)    DE(int)     intcor
     13.76     -15.08       0.41        0.00      92.19       1.00       0.10       1.23       ----

> <Gold.Chemscore.Fitness>
13.7566

> <Gold.Chemscore.DG>
-15.0792

> <Gold.Chemscore.ZeroCoef>
-5.4800

> <Gold.Chemscore.Hbond>
0.4110

> <Gold.Chemscore.Metal>
0.0000

> <Gold.Chemscore.Lipo>
92.1915

> <Gold.Chemscore.Internal_Hbond>
0.0000

> <Gold.Chemscore.DEClash>
0.0966

> <Gold.Chemscore.DEInternal>
1.2261

> <Gold.Chemscore.Rot>
1.0000

> <Gold.Chemscore.Internal.Correction>
   9.000000E+99

> <Gold.Chemscore.Hbonds>
donor molecule, donor type, donor heavy atom, donor atom, acceptor molecule, acceptor atom, score
      P1  H  7989  7998       L1     1  0.02
      P1  H  7997  8009       L1     4  0.27

> <Gold.Chemscore.Hbond.Weighted>
-1.3728

> <Gold.Chemscore.Metal.Weighted>
-0.0000

> <Gold.Chemscore.Lipo.Weighted>
-10.7864

> <Gold.Chemscore.Internal_Hbond.Weighted>
0.0000

> <Gold.Chemscore.DEClash.Weighted>
0.0966

> <Gold.Chemscore.DEInternal.Weighted>
1.2261

> <Gold.Chemscore.Rot.Weighted>
2.5600

> <Gold.Chemscore.Internal.Correction.Weighted>
   9.000000E+99

> <Gold.Protein.RotatedTorsions>
[ 6907 6896 6895 6894 ] final   22.62 input  -60.11 | X-H torsion
[ 7974 7965 7964 7962 ] final  -49.80 input  175.53 | X-H torsion
[ 8008 7997 7996 7995 ] final  156.80 input   59.86 | X-H torsion
[ 10167 10162 10161 10158 ] final  -33.66 input  -65.29 | X-H torsion
[ 10718 10713 10712 10709 ] final  -62.96 input   66.30 | X-H torsion
[ 10763 10752 10751 10750 ] final -151.05 input  -60.55 | X-H torsion
[ 11005 11000 10999 10996 ] final -112.42 input  -57.11 | X-H torsion

> <Gold.Protein.ActiveResidues>
 VAL166  LYS551  ARG553  GLY616  TRP617  ASP618  TYR619  PRO620  LYS621  CYS622 
 ASP623  PHE694  ASN695  SER759  ASP760  ASP761  ALA762  ILE779  LEU786  VAL792 
 PHE793  MET794  SER795  GLU796  ALA797  LYS798  CYS799  TRP800  GLU811  SER814 

> <Gold.Protein.RotatedAtoms>
  151.9298  135.0261  160.0528 H   0  0  0  0  0  0  0  0  0  0  0  0  # atno 6907 bound_to 6896
  152.2128  133.4919  159.5127 H   0  0  0  0  0  0  0  0  0  0  0  0  # atno 6908 bound_to 6896
  150.6980  134.1362  159.4130 H   0  0  0  0  0  0  0  0  0  0  0  0  # atno 6909 bound_to 6896
  145.9367  140.7700  142.9572 H   0  0  0  0  0  0  0  0  0  0  0  0  # atno 7974 bound_to 7965
  156.2401  140.1902  156.7011 H   0  0  0  0  0  0  0  0  0  0  0  0  # atno 8008 bound_to 7997
  154.6181  140.0612  156.9607 H   0  0  0  0  0  0  0  0  0  0  0  0  # atno 8009 bound_to 7997
  155.1906  140.3284  155.4362 H   0  0  0  0  0  0  0  0  0  0  0  0  # atno 8010 bound_to 7997
  140.7200  143.3604  151.1975 H   0  0  0  0  0  0  0  0  0  0  0  0  # atno 10167 bound_to 10162
  156.0821  130.4215  150.1210 H   0  0  0  0  0  0  0  0  0  0  0  0  # atno 10718 bound_to 10713
  154.8082  135.3269  154.7376 H   0  0  0  0  0  0  0  0  0  0  0  0  # atno 10763 bound_to 10752
  153.8030  135.6902  153.4857 H   0  0  0  0  0  0  0  0  0  0  0  0  # atno 10764 bound_to 10752
  153.1842  135.4575  155.0012 H   0  0  0  0  0  0  0  0  0  0  0  0  # atno 10765 bound_to 10752
  141.0676  133.9433  157.2549 H   0  0  0  0  0  0  0  0  0  0  0  0  # atno 11005 bound_to 11000
  144.6772  140.2214  143.7366 LP  0  0  0  0  0  0  0  0  0  0  0  0  # atno 17320 bound_to 7965
  145.8355  139.2105  143.1858 LP  0  0  0  0  0  0  0  0  0  0  0  0  # atno 17321 bound_to 7965
  139.7154  143.9308  152.2965 LP  0  0  0  0  0  0  0  0  0  0  0  0  # atno 17342 bound_to 10162
  139.9047  144.6891  150.8626 LP  0  0  0  0  0  0  0  0  0  0  0  0  # atno 17343 bound_to 10162
  156.9239  130.9692  151.3544 LP  0  0  0  0  0  0  0  0  0  0  0  0  # atno 17370 bound_to 10713
  157.5942  130.8465  149.8704 LP  0  0  0  0  0  0  0  0  0  0  0  0  # atno 17371 bound_to 10713
  139.9491  135.0179  156.8941 LP  0  0  0  0  0  0  0  0  0  0  0  0  # atno 17394 bound_to 11000
  140.5741  134.0415  155.7441 LP  0  0  0  0  0  0  0  0  0  0  0  0  # atno 17395 bound_to 11000

$$$$
