AV-unprocessed.smi:2078|AV-procd|sdf|8470|dock8
  -GOLD-   2272011173D 1   1.00000     0.00000
 Structure written by MMmdl.
 41 42  0  0  0  0  0  0  0  0  3 V2000
  150.9466  141.1753  155.8710 C   0  0  0  0  0  0  0  0  0  0  0  0
  151.3297  139.8181  155.3887 C   0  0  0  0  0  0  0  0  0  0  0  0
  150.6809  138.6160  155.3895 C   0  0  0  0  0  0  0  0  0  0  0  0
  151.6171  137.7410  154.7744 C   0  0  0  0  0  0  0  0  0  0  0  0
  151.4419  136.4279  154.5595 N   0  5  0  0  0  0  0  0  0  0  0  0
  150.4293  135.7675  155.1661 C   0  0  0  0  0  0  0  0  0  0  0  0
  150.4375  135.3011  156.3074 O   0  0  0  0  0  0  0  0  0  0  0  0
  149.3388  135.6360  154.3992 N   0  0  0  0  0  0  0  0  0  0  0  0
  148.1085  134.9599  154.7884 C   0  0  0  0  0  0  0  0  0  0  0  0
  147.8638  133.7418  153.8845 C   0  0  0  0  0  0  0  0  0  0  0  0
  146.9886  134.0618  152.7289 N   0  3  2  0  0  0  0  0  0  0  0  0
  145.7854  134.8331  153.1348 C   0  0  0  0  0  0  0  0  0  0  0  0
  144.9701  135.2743  151.9092 C   0  0  0  0  0  0  0  0  0  0  0  0
  144.5768  134.0671  151.0490 C   0  0  0  0  0  0  0  0  0  0  0  0
  145.8267  133.2601  150.6593 C   0  0  2  0  0  0  0  0  0  0  0  0
  145.4591  132.0284  149.8198 C   0  0  0  0  0  0  0  0  0  0  0  0
  146.6251  132.8675  151.9193 C   0  0  0  0  0  0  0  0  0  0  0  0
  152.7410  138.3547  154.4425 N   0  0  0  0  0  0  0  0  0  0  0  0
  152.5614  139.6892  154.8261 O   0  0  0  0  0  0  0  0  0  0  0  0
  150.4025  141.1107  156.8133 H   0  0  0  0  0  0  0  0  0  0  0  0
  150.3070  141.6759  155.1441 H   0  0  0  0  0  0  0  0  0  0  0  0
  151.8275  141.7971  156.0324 H   0  0  0  0  0  0  0  0  0  0  0  0
  149.6938  138.3971  155.7686 H   0  0  0  0  0  0  0  0  0  0  0  0
  149.3731  136.0365  153.4730 H   0  0  0  0  0  0  0  0  0  0  0  0
  148.1689  134.6374  155.8293 H   0  0  0  0  0  0  0  0  0  0  0  0
  147.2923  135.6786  154.7190 H   0  0  0  0  0  0  0  0  0  0  0  0
  148.8067  133.3209  153.5317 H   0  0  0  0  0  0  0  0  0  0  0  0
  147.3886  132.9679  154.4895 H   0  0  0  0  0  0  0  0  0  0  0  0
  145.1691  134.2256  153.7999 H   0  0  0  0  0  0  0  0  0  0  0  0
  146.0854  135.7172  153.6987 H   0  0  0  0  0  0  0  0  0  0  0  0
  144.0761  135.8103  152.2290 H   0  0  0  0  0  0  0  0  0  0  0  0
  145.5549  135.9755  151.3124 H   0  0  0  0  0  0  0  0  0  0  0  0
  143.8811  133.4341  151.6020 H   0  0  0  0  0  0  0  0  0  0  0  0
  144.0493  134.4044  150.1561 H   0  0  0  0  0  0  0  0  0  0  0  0
  146.4628  133.8983  150.0439 H   0  0  0  0  0  0  0  0  0  0  0  0
  144.8208  131.3429  150.3782 H   0  0  0  0  0  0  0  0  0  0  0  0
  146.3507  131.4794  149.5154 H   0  0  0  0  0  0  0  0  0  0  0  0
  144.9250  132.3158  148.9134 H   0  0  0  0  0  0  0  0  0  0  0  0
  147.5256  132.3356  151.6142 H   0  0  0  0  0  0  0  0  0  0  0  0
  146.0452  132.1762  152.5334 H   0  0  0  0  0  0  0  0  0  0  0  0
  147.5246  134.6732  152.1296 H   0  0  0  0  0  0  0  0  0  0  0  0
  1  2  1  0  0  0  0
  1 20  1  0  0  0  0
  1 21  1  0  0  0  0
  1 22  1  0  0  0  0
  2 19  1  0  0  0  0
  2  3  2  0  0  0  0
  3  4  1  0  0  0  0
  3 23  1  0  0  0  0
  4  5  1  0  0  0  0
  4 18  2  0  0  0  0
  5  6  1  0  0  0  0
  6  7  2  0  0  0  0
  6  8  1  0  0  0  0
  8  9  1  0  0  0  0
  8 24  1  0  0  0  0
  9 10  1  0  0  0  0
  9 25  1  0  0  0  0
  9 26  1  0  0  0  0
 10 11  1  0  0  0  0
 10 27  1  0  0  0  0
 10 28  1  0  0  0  0
 11 17  1  0  0  0  0
 11 12  1  0  0  0  0
 11 41  1  0  0  0  0
 12 13  1  0  0  0  0
 12 29  1  0  0  0  0
 12 30  1  0  0  0  0
 13 14  1  0  0  0  0
 13 31  1  0  0  0  0
 13 32  1  0  0  0  0
 14 15  1  0  0  0  0
 14 33  1  0  0  0  0
 14 34  1  0  0  0  0
 15 16  1  0  0  0  0
 15 17  1  0  0  0  0
 15 35  1  0  0  0  0
 16 36  1  0  0  0  0
 16 37  1  0  0  0  0
 16 38  1  0  0  0  0
 17 39  1  0  0  0  0
 17 40  1  0  0  0  0
 18 19  1  0  0  0  0
M  CHG  1   5  -1
M  CHG  1  11   1
M  END
> <s_m_source_file>
AV-unprocessed.smi

> <i_m_source_file_index>
2078

> <i_lp_mmshare_version>
43012

> <i_f3d_flags>
0

> <s_epik_input>
W0NIM11jMVtjSF1jKG5vMSlbTkhdQyg9TylbTkhdW0NIMl1bQ0gyXU4yW0NIMl1bQ0gyXVtDSDJdW0NAQEhdKFtDSDNdKVtDSDJdMg==

> <s_epik_cmdline>
J2VwaWtfcHl0aG9uJywgJy1waCcsICc3LjAnLCAnLXRuJywgJzgnLCAnLW1hJywgJzIwMCcsICctbWV0YWxfYmluZGluZycsICctaW1hZScsICc8aW5maWxlLm1hZT4nLCAnLW9tYWUnLCAnPG91dGZpbGUubWFlPic=

> <r_epik_Ionization_Penalty>
6.22434

> <r_epik_Ionization_Penalty_Charging>
6.22425

> <r_epik_Ionization_Penalty_Neutral>
9.37855e-05

> <r_epik_State_Penalty>
6.22423

> <r_epik_Charging_Adjusted_Penalty>
12.4485

> <i_epik_Tot_Q>
0

> <i_epik_Tot_abs_Q>
2

> <r_epik_Metal_State_Penalty>
2.16764

> <b_epik_Metal_Only>
1

> <s_lp_Force_Field>
OPLS_2005

> <r_lp_Energy>
6.03682

> <b_lp_Chiralities_Consistent>
1

> <s_lp_Variant>
AV-unprocessed.smi:2078-8

> <Gold.Version>
5.8.1

> <Gold.Id.Protein>
6NUR|6NUR_protein|mol2

> <Gold.PLP.Fitness>
50.5784

> <Gold.PLP.PLP>
-34.6971

> <Gold.PLP.part.hbond>
-5.2253

> <Gold.PLP.part.metal>
0.0000

> <Gold.PLP.part.buried>
-3.6796

> <Gold.PLP.part.nonpolar>
-25.0884

> <Gold.PLP.part.repulsive>
0.2228

> <Gold.PLP.ligand.clash>
0.0000

> <Gold.PLP.ligand.torsion>
1.0679

> <Gold.PLP.Chemscore.Hbond>
5.9913

> <Gold.PLP.Chemscore.CHOScore>
0.0000

> <Gold.PLP.Chemscore.Metal>
0.0000

> <Gold.Chemscore.Hbonds>
donor molecule, donor type, donor heavy atom, donor atom, acceptor molecule, acceptor atom, score
      L1  H     8    24       P1  7948  1.00
      L1  H    11    41       P1  7948  1.72
      P1  H  7997  8010       L1    19  0.44
      P1  H 10752 10764       L1     5  1.79

> <Gold.PLP.Chemscore.Internal.Correction>
0.0434

> <Gold.Rescore>
     Score         DG    S(hbond)    S(metal)    S(lipo)     H(rot)  DE(clash)    DE(int)     intcor
     17.83     -18.99       3.20        0.00      57.78       1.54       0.05       1.12       ----

> <Gold.Chemscore.Fitness>
17.8286

> <Gold.Chemscore.DG>
-18.9906

> <Gold.Chemscore.ZeroCoef>
-5.4800

> <Gold.Chemscore.Hbond>
3.2023

> <Gold.Chemscore.Metal>
0.0000

> <Gold.Chemscore.Lipo>
57.7752

> <Gold.Chemscore.Internal_Hbond>
0.0000

> <Gold.Chemscore.DEClash>
0.0465

> <Gold.Chemscore.DEInternal>
1.1155

> <Gold.Chemscore.Rot>
1.5409

> <Gold.Chemscore.Internal.Correction>
   9.000000E+99

> <Gold.Chemscore.Hbonds>
donor molecule, donor type, donor heavy atom, donor atom, acceptor molecule, acceptor atom, score
      L1  H     8    24       P1  7948  0.59
      L1  H    11    41       P1  7948  0.60
      P1  H  7997  8010       L1    19  0.21
      P1  H 10752 10764       L1     5  0.49

> <Gold.Chemscore.Hbond.Weighted>
-10.6956

> <Gold.Chemscore.Metal.Weighted>
-0.0000

> <Gold.Chemscore.Lipo.Weighted>
-6.7597

> <Gold.Chemscore.Internal_Hbond.Weighted>
0.0000

> <Gold.Chemscore.DEClash.Weighted>
0.0465

> <Gold.Chemscore.DEInternal.Weighted>
1.1155

> <Gold.Chemscore.Rot.Weighted>
3.9446

> <Gold.Chemscore.Internal.Correction.Weighted>
   9.000000E+99

> <Gold.Protein.RotatedTorsions>
[ 6907 6896 6895 6894 ] final   49.37 input  -60.11 | X-H torsion
[ 7974 7965 7964 7962 ] final  136.73 input  175.53 | X-H torsion
[ 8008 7997 7996 7995 ] final   91.07 input   59.86 | X-H torsion
[ 10167 10162 10161 10158 ] final  111.28 input  -65.29 | X-H torsion
[ 10718 10713 10712 10709 ] final  -74.50 input   66.30 | X-H torsion
[ 10763 10752 10751 10750 ] final  -44.79 input  -60.55 | X-H torsion
[ 11005 11000 10999 10996 ] final  128.92 input  -57.11 | X-H torsion

> <Gold.Protein.ActiveResidues>
 VAL166  LYS551  ARG553  GLY616  TRP617  ASP618  TYR619  PRO620  LYS621  CYS622 
 ASP623  PHE694  ASN695  SER759  ASP760  ASP761  ALA762  ILE779  LEU786  VAL792 
 PHE793  MET794  SER795  GLU796  ALA797  LYS798  CYS799  TRP800  GLU811  SER814 

> <Gold.Protein.RotatedAtoms>
  152.2899  134.7733  160.0379 H   0  0  0  0  0  0  0  0  0  0  0  0  # atno 6907 bound_to 6896
  151.8282  133.3399  159.3613 H   0  0  0  0  0  0  0  0  0  0  0  0  # atno 6908 bound_to 6896
  150.7226  134.5437  159.5804 H   0  0  0  0  0  0  0  0  0  0  0  0  # atno 6909 bound_to 6896
  144.9536  139.4790  143.5514 H   0  0  0  0  0  0  0  0  0  0  0  0  # atno 7974 bound_to 7965
  156.0194  140.3342  155.7023 H   0  0  0  0  0  0  0  0  0  0  0  0  # atno 8008 bound_to 7997
  155.6044  140.0659  157.2742 H   0  0  0  0  0  0  0  0  0  0  0  0  # atno 8009 bound_to 7997
  154.4310  140.1804  156.1194 H   0  0  0  0  0  0  0  0  0  0  0  0  # atno 8010 bound_to 7997
  139.6623  144.7128  151.1842 H   0  0  0  0  0  0  0  0  0  0  0  0  # atno 10167 bound_to 10162
  156.0240  130.4418  150.2901 H   0  0  0  0  0  0  0  0  0  0  0  0  # atno 10718 bound_to 10713
  154.0179  135.6673  153.4770 H   0  0  0  0  0  0  0  0  0  0  0  0  # atno 10763 bound_to 10752
  153.0593  135.5037  154.8051 H   0  0  0  0  0  0  0  0  0  0  0  0  # atno 10764 bound_to 10752
  154.6955  135.3069  154.9381 H   0  0  0  0  0  0  0  0  0  0  0  0  # atno 10765 bound_to 10752
  139.9587  134.9607  156.9073 H   0  0  0  0  0  0  0  0  0  0  0  0  # atno 11005 bound_to 11000
  146.3329  139.8638  142.8851 LP  0  0  0  0  0  0  0  0  0  0  0  0  # atno 17320 bound_to 7965
  145.2806  141.0137  143.3719 LP  0  0  0  0  0  0  0  0  0  0  0  0  # atno 17321 bound_to 7965
  140.7585  143.5975  150.8734 LP  0  0  0  0  0  0  0  0  0  0  0  0  # atno 17342 bound_to 10162
  139.9633  143.6139  152.2996 LP  0  0  0  0  0  0  0  0  0  0  0  0  # atno 17343 bound_to 10162
  157.1005  131.0194  151.3087 LP  0  0  0  0  0  0  0  0  0  0  0  0  # atno 17370 bound_to 10713
  157.4784  130.7750  149.7390 LP  0  0  0  0  0  0  0  0  0  0  0  0  # atno 17371 bound_to 10713
  140.5550  134.0591  155.7381 LP  0  0  0  0  0  0  0  0  0  0  0  0  # atno 17394 bound_to 11000
  141.1262  133.9379  157.2631 LP  0  0  0  0  0  0  0  0  0  0  0  0  # atno 17395 bound_to 11000

$$$$
