AV-unprocessed.smi:1919|AV-procd|sdf|7776|dock3
  -GOLD-   22720 9523D 1   1.00000     0.00000
 Structure written by MMmdl.
 37 39  0  0  0  0  0  0  0  0  2 V2000
  152.3015  137.1600  153.6167 O   0  0  0  0  0  0  0  0  0  0  0  0
  151.6389  137.5758  154.7928 C   0  0  0  0  0  0  0  0  0  0  0  0
  150.5419  138.5603  154.5375 C   0  0  0  0  0  0  0  0  0  0  0  0
  149.4430  138.3633  153.7536 N   0  3  0  0  0  0  0  0  0  0  0  0
  148.6445  139.5073  153.7592 C   0  0  0  0  0  0  0  0  0  0  0  0
  147.4397  139.7823  153.1199 C   0  0  0  0  0  0  0  0  0  0  0  0
  146.8843  141.0601  153.3397 C   0  0  0  0  0  0  0  0  0  0  0  0
  147.5238  142.0067  154.1669 C   0  0  0  0  0  0  0  0  0  0  0  0
  148.7457  141.7165  154.8089 C   0  0  0  0  0  0  0  0  0  0  0  0
  149.2870  140.4506  154.5864 C   0  0  0  0  0  0  0  0  0  0  0  0
  150.4506  139.8235  155.0444 N   0  0  0  0  0  0  0  0  0  0  0  0
  151.3518  140.5564  155.9465 C   0  0  0  0  0  0  0  0  0  0  0  0
  150.7868  140.6998  157.3737 C   0  0  1  0  0  0  0  0  0  0  0  0
  150.9402  139.4808  158.0747 O   0  0  0  0  0  0  0  0  0  0  0  0
  151.4263  141.8702  158.1030 C   0  0  0  0  0  0  0  0  0  0  0  0
  151.4229  143.1631  157.5338 C   0  0  0  0  0  0  0  0  0  0  0  0
  152.0097  144.2429  158.2220 C   0  0  0  0  0  0  0  0  0  0  0  0
  152.6004  144.0372  159.4838 C   0  0  0  0  0  0  0  0  0  0  0  0
  152.6024  142.7515  160.0577 C   0  0  0  0  0  0  0  0  0  0  0  0
  153.1662  142.5527  161.2726 F   0  0  0  0  0  0  0  0  0  0  0  0
  152.0161  141.6714  159.3698 C   0  0  0  0  0  0  0  0  0  0  0  0
  151.6507  136.9158  152.9763 H   0  0  0  0  0  0  0  0  0  0  0  0
  151.2258  136.6993  155.2921 H   0  0  0  0  0  0  0  0  0  0  0  0
  152.3681  138.0215  155.4695 H   0  0  0  0  0  0  0  0  0  0  0  0
  146.9483  139.0588  152.4860 H   0  0  0  0  0  0  0  0  0  0  0  0
  145.9496  141.3192  152.8641 H   0  0  0  0  0  0  0  0  0  0  0  0
  147.0677  142.9754  154.3121 H   0  0  0  0  0  0  0  0  0  0  0  0
  149.2280  142.4478  155.4405 H   0  0  0  0  0  0  0  0  0  0  0  0
  152.3055  140.0274  155.9663 H   0  0  0  0  0  0  0  0  0  0  0  0
  151.5542  141.5346  155.5084 H   0  0  0  0  0  0  0  0  0  0  0  0
  149.7137  140.8853  157.3134 H   0  0  0  0  0  0  0  0  0  0  0  0
  151.7339  139.0624  157.7769 H   0  0  0  0  0  0  0  0  0  0  0  0
  150.9681  143.3316  156.5683 H   0  0  0  0  0  0  0  0  0  0  0  0
  152.0056  145.2292  157.7819 H   0  0  0  0  0  0  0  0  0  0  0  0
  153.0498  144.8655  160.0117 H   0  0  0  0  0  0  0  0  0  0  0  0
  152.0201  140.6898  159.8204 H   0  0  0  0  0  0  0  0  0  0  0  0
  149.2590  137.5027  153.2538 H   0  0  0  0  0  0  0  0  0  0  0  0
  1  2  1  0  0  0  0
  1 22  1  0  0  0  0
  2  3  1  0  0  0  0
  2 23  1  0  0  0  0
  2 24  1  0  0  0  0
  3 11  1  0  0  0  0
  3  4  2  0  0  0  0
  4  5  1  0  0  0  0
  4 37  1  0  0  0  0
  5 10  2  0  0  0  0
  5  6  1  0  0  0  0
  6  7  2  0  0  0  0
  6 25  1  0  0  0  0
  7  8  1  0  0  0  0
  7 26  1  0  0  0  0
  8  9  2  0  0  0  0
  8 27  1  0  0  0  0
  9 10  1  0  0  0  0
  9 28  1  0  0  0  0
 10 11  1  0  0  0  0
 11 12  1  0  0  0  0
 12 13  1  0  0  0  0
 12 29  1  0  0  0  0
 12 30  1  0  0  0  0
 13 14  1  0  0  0  0
 13 15  1  0  0  0  0
 13 31  1  0  0  0  0
 14 32  1  0  0  0  0
 15 21  1  0  0  0  0
 15 16  2  0  0  0  0
 16 17  1  0  0  0  0
 16 33  1  0  0  0  0
 17 18  2  0  0  0  0
 17 34  1  0  0  0  0
 18 19  1  0  0  0  0
 18 35  1  0  0  0  0
 19 20  1  0  0  0  0
 19 21  2  0  0  0  0
 21 36  1  0  0  0  0
M  CHG  1   4   1
M  END
> <s_m_source_file>
AV-unprocessed.smi

> <i_m_source_file_index>
1919

> <i_lp_mmshare_version>
43012

> <i_f3d_flags>
0

> <s_epik_input>
W2NIXTFbY0hdW2NIXVtjSF1jKGMxMiluKGMobjIpW0NIMl1bT0hdKVtDSDJdW0NASF0oW09IXSljM1tjSF1bY0hdW2NIXWMoRilbY0hdMw==

> <s_epik_cmdline>
J2VwaWtfcHl0aG9uJywgJy1waCcsICc3LjAnLCAnLXRuJywgJzgnLCAnLW1hJywgJzIwMCcsICctbWV0YWxfYmluZGluZycsICctaW1hZScsICc8aW5maWxlLm1hZT4nLCAnLW9tYWUnLCAnPG91dGZpbGUubWFlPic=

> <r_epik_Ionization_Penalty>
1.35643

> <r_epik_Ionization_Penalty_Charging>
1.35557

> <r_epik_Ionization_Penalty_Neutral>
0.000859316

> <r_epik_State_Penalty>
1.43401

> <r_epik_Charging_Adjusted_Penalty>
2.78958

> <i_epik_Tot_Q>
1

> <i_epik_Tot_abs_Q>
1

> <r_epik_Metal_State_Penalty>
5.47166

> <b_epik_Metal_Only>
0

> <s_lp_Force_Field>
OPLS_2005

> <r_lp_Energy>
12.6386

> <b_lp_Chiralities_Consistent>
1

> <s_lp_Variant>
AV-unprocessed.smi:1919-4

> <Gold.Version>
5.8.1

> <Gold.Id.Protein>
6NUR|6NUR_protein|mol2

> <Gold.PLP.Fitness>
64.8183

> <Gold.PLP.PLP>
-53.6486

> <Gold.PLP.part.hbond>
-3.7744

> <Gold.PLP.part.metal>
0.0000

> <Gold.PLP.part.buried>
0.8514

> <Gold.PLP.part.nonpolar>
-49.6204

> <Gold.PLP.part.repulsive>
0.0515

> <Gold.PLP.ligand.clash>
0.0000

> <Gold.PLP.ligand.torsion>
0.3857

> <Gold.PLP.Chemscore.Hbond>
3.9680

> <Gold.PLP.Chemscore.CHOScore>
0.0000

> <Gold.PLP.Chemscore.Metal>
0.0000

> <Gold.Chemscore.Hbonds>
donor molecule, donor type, donor heavy atom, donor atom, acceptor molecule, acceptor atom, score
      L1  H     1    22       P1  7949  0.99
      L1  H     4    37       P1  7948  2.00
      P1  H 10752 10763       L1     1  0.99

> <Gold.PLP.Chemscore.Internal.Correction>
0.0370

> <Gold.Rescore>
     Score         DG    S(hbond)    S(metal)    S(lipo)     H(rot)  DE(clash)    DE(int)     intcor
     19.40     -20.00       2.03        0.00     127.86       2.82       0.19       0.41       ----

> <Gold.Chemscore.Fitness>
19.4021

> <Gold.Chemscore.DG>
-19.9959

> <Gold.Chemscore.ZeroCoef>
-5.4800

> <Gold.Chemscore.Hbond>
2.0301

> <Gold.Chemscore.Metal>
0.0000

> <Gold.Chemscore.Lipo>
127.8567

> <Gold.Chemscore.Internal_Hbond>
0.0000

> <Gold.Chemscore.DEClash>
0.1875

> <Gold.Chemscore.DEInternal>
0.4063

> <Gold.Chemscore.Rot>
2.8219

> <Gold.Chemscore.Internal.Correction>
   9.000000E+99

> <Gold.Chemscore.Hbonds>
donor molecule, donor type, donor heavy atom, donor atom, acceptor molecule, acceptor atom, score
      L1  H     1    22       P1  7949  0.92
      L1  H     4    37       P1  7948  0.98
      P1  H 10752 10763       L1     1  0.25

> <Gold.Chemscore.Hbond.Weighted>
-6.7807

> <Gold.Chemscore.Metal.Weighted>
-0.0000

> <Gold.Chemscore.Lipo.Weighted>
-14.9592

> <Gold.Chemscore.Internal_Hbond.Weighted>
0.0000

> <Gold.Chemscore.DEClash.Weighted>
0.1875

> <Gold.Chemscore.DEInternal.Weighted>
0.4063

> <Gold.Chemscore.Rot.Weighted>
7.2240

> <Gold.Chemscore.Internal.Correction.Weighted>
   9.000000E+99

> <Gold.Protein.RotatedTorsions>
[ 6907 6896 6895 6894 ] final   63.08 input  -60.11 | X-H torsion
[ 7974 7965 7964 7962 ] final  124.69 input  175.53 | X-H torsion
[ 8008 7997 7996 7995 ] final  102.44 input   59.86 | X-H torsion
[ 10167 10162 10161 10158 ] final   13.72 input  -65.29 | X-H torsion
[ 10718 10713 10712 10709 ] final   17.02 input   66.30 | X-H torsion
[ 10763 10752 10751 10750 ] final   22.37 input  -60.55 | X-H torsion
[ 11005 11000 10999 10996 ] final  -67.53 input  -57.11 | X-H torsion

> <Gold.Protein.ActiveResidues>
 VAL166  LYS551  ARG553  GLY616  TRP617  ASP618  TYR619  PRO620  LYS621  CYS622 
 ASP623  PHE694  ASN695  SER759  ASP760  ASP761  ALA762  ILE779  LEU786  VAL792 
 PHE793  MET794  SER795  GLU796  ALA797  LYS798  CYS799  TRP800  GLU811  SER814 

> <Gold.Protein.RotatedAtoms>
  152.4224  134.5930  159.9979 H   0  0  0  0  0  0  0  0  0  0  0  0  # atno 6907 bound_to 6896
  151.6077  133.3344  159.3068 H   0  0  0  0  0  0  0  0  0  0  0  0  # atno 6908 bound_to 6896
  150.8112  134.7306  159.6755 H   0  0  0  0  0  0  0  0  0  0  0  0  # atno 6909 bound_to 6896
  145.0816  139.3653  143.4906 H   0  0  0  0  0  0  0  0  0  0  0  0  # atno 7974 bound_to 7965
  156.1393  140.3181  155.8470 H   0  0  0  0  0  0  0  0  0  0  0  0  # atno 8008 bound_to 7997
  155.4185  140.0510  157.3044 H   0  0  0  0  0  0  0  0  0  0  0  0  # atno 8009 bound_to 7997
  154.4963  140.2112  155.9453 H   0  0  0  0  0  0  0  0  0  0  0  0  # atno 8010 bound_to 7997
  140.5984  143.8655  150.6940 H   0  0  0  0  0  0  0  0  0  0  0  0  # atno 10167 bound_to 10162
  157.0761  130.6368  149.5816 H   0  0  0  0  0  0  0  0  0  0  0  0  # atno 10718 bound_to 10713
  153.0921  135.6649  153.9834 H   0  0  0  0  0  0  0  0  0  0  0  0  # atno 10763 bound_to 10752
  153.9428  135.2992  155.3443 H   0  0  0  0  0  0  0  0  0  0  0  0  # atno 10764 bound_to 10752
  154.7336  135.5111  153.9078 H   0  0  0  0  0  0  0  0  0  0  0  0  # atno 10765 bound_to 10752
  141.1510  133.6721  156.6306 H   0  0  0  0  0  0  0  0  0  0  0  0  # atno 11005 bound_to 11000
  146.3531  140.0608  142.8629 LP  0  0  0  0  0  0  0  0  0  0  0  0  # atno 17320 bound_to 7965
  145.1172  140.9441  143.4622 LP  0  0  0  0  0  0  0  0  0  0  0  0  # atno 17321 bound_to 7965
  140.2195  143.3820  152.1654 LP  0  0  0  0  0  0  0  0  0  0  0  0  # atno 17342 bound_to 10162
  139.5274  144.7119  151.5180 LP  0  0  0  0  0  0  0  0  0  0  0  0  # atno 17343 bound_to 10162
  155.9936  130.4998  150.7389 LP  0  0  0  0  0  0  0  0  0  0  0  0  # atno 17370 bound_to 10713
  157.4838  131.0905  151.0506 LP  0  0  0  0  0  0  0  0  0  0  0  0  # atno 17371 bound_to 10713
  140.3469  134.7801  157.4439 LP  0  0  0  0  0  0  0  0  0  0  0  0  # atno 17394 bound_to 11000
  140.0892  134.5624  155.8461 LP  0  0  0  0  0  0  0  0  0  0  0  0  # atno 17395 bound_to 11000

$$$$
