AV-unprocessed.smi:2260|AV-procd|sdf|9134|dock5
  -GOLD-   2272012343D 1   1.00000     0.00000
 Structure written by MMmdl.
 42 43  0  0  0  0  0  0  0  0  1 V2000
  148.6290  140.7960  154.1961 C   0  0  0  0  0  0  0  0  0  0  0  0
  149.8561  139.9505  154.4905 C   0  0  0  0  0  0  0  0  0  0  0  0
  150.1972  138.8238  153.8562 C   0  0  0  0  0  0  0  0  0  0  0  0
  151.6940  138.1420  154.4466 S   0  0  0  0  0  0  0  0  0  0  0  0
  151.8549  139.4917  155.6274 C   0  0  0  0  0  0  0  0  0  0  0  0
  152.8029  139.5894  156.4052 O   0  0  0  0  0  0  0  0  0  0  0  0
  150.7598  140.3421  155.4866 N   0  0  0  0  0  0  0  0  0  0  0  0
  150.5964  141.5358  156.3198 C   0  0  0  0  0  0  0  0  0  0  0  0
  150.2361  141.1550  157.7635 C   0  0  0  0  0  0  0  0  0  0  0  0
  151.3599  141.4616  158.6348 N   0  0  0  0  0  0  0  0  0  0  0  0
  151.1350  142.6483  159.4564 C   0  0  2  0  0  0  0  0  0  0  0  0
  150.5129  143.7808  158.6047 C   0  0  0  0  0  0  0  0  0  0  0  0
  150.2877  145.0510  159.4358 C   0  0  0  0  0  0  0  0  0  0  0  0
  151.5861  145.5132  160.1071 C   0  0  0  0  0  0  0  0  0  0  0  0
  152.2009  144.3866  160.9544 C   0  0  0  0  0  0  0  0  0  0  0  0
  152.4618  143.0826  160.1566 C   0  0  0  0  0  0  0  0  0  0  0  0
  152.8972  141.9975  161.1654 C   0  0  0  0  0  0  0  0  0  0  0  0
  153.6200  143.3063  159.1530 C   0  0  0  0  0  0  0  0  0  0  0  0
  148.2457  140.5719  153.2001 H   0  0  0  0  0  0  0  0  0  0  0  0
  148.8520  141.8624  154.2261 H   0  0  0  0  0  0  0  0  0  0  0  0
  147.8407  140.5819  154.9179 H   0  0  0  0  0  0  0  0  0  0  0  0
  149.6506  138.3500  153.0542 H   0  0  0  0  0  0  0  0  0  0  0  0
  151.4997  142.1455  156.2959 H   0  0  0  0  0  0  0  0  0  0  0  0
  149.8134  142.1695  155.8995 H   0  0  0  0  0  0  0  0  0  0  0  0
  149.3488  141.7021  158.0813 H   0  0  0  0  0  0  0  0  0  0  0  0
  150.0044  140.0912  157.8242 H   0  0  0  0  0  0  0  0  0  0  0  0
  152.2106  141.5628  158.0996 H   0  0  0  0  0  0  0  0  0  0  0  0
  150.4250  142.3878  160.2433 H   0  0  0  0  0  0  0  0  0  0  0  0
  151.1503  144.0104  157.7504 H   0  0  0  0  0  0  0  0  0  0  0  0
  149.5550  143.4688  158.1896 H   0  0  0  0  0  0  0  0  0  0  0  0
  149.8924  145.8460  158.8028 H   0  0  0  0  0  0  0  0  0  0  0  0
  149.5320  144.8577  160.1983 H   0  0  0  0  0  0  0  0  0  0  0  0
  152.2956  145.8489  159.3507 H   0  0  0  0  0  0  0  0  0  0  0  0
  151.3845  146.3795  160.7378 H   0  0  0  0  0  0  0  0  0  0  0  0
  153.1259  144.7406  161.4113 H   0  0  0  0  0  0  0  0  0  0  0  0
  151.5236  144.1746  161.7832 H   0  0  0  0  0  0  0  0  0  0  0  0
  153.7817  142.3072  161.7232 H   0  0  0  0  0  0  0  0  0  0  0  0
  153.1427  141.0577  160.6695 H   0  0  0  0  0  0  0  0  0  0  0  0
  152.1104  141.7873  161.8906 H   0  0  0  0  0  0  0  0  0  0  0  0
  154.5144  143.6668  159.6619 H   0  0  0  0  0  0  0  0  0  0  0  0
  153.3718  144.0367  158.3842 H   0  0  0  0  0  0  0  0  0  0  0  0
  153.8973  142.3836  158.6426 H   0  0  0  0  0  0  0  0  0  0  0  0
  1  2  1  0  0  0  0
  1 19  1  0  0  0  0
  1 20  1  0  0  0  0
  1 21  1  0  0  0  0
  2  7  1  0  0  0  0
  2  3  2  0  0  0  0
  3  4  1  0  0  0  0
  3 22  1  0  0  0  0
  4  5  1  0  0  0  0
  5  6  2  0  0  0  0
  5  7  1  0  0  0  0
  7  8  1  0  0  0  0
  8  9  1  0  0  0  0
  8 23  1  0  0  0  0
  8 24  1  0  0  0  0
  9 10  1  0  0  0  0
  9 25  1  0  0  0  0
  9 26  1  0  0  0  0
 10 11  1  0  0  0  0
 10 27  1  0  0  0  0
 11 16  1  0  0  0  0
 11 12  1  0  0  0  0
 11 28  1  0  0  0  0
 12 13  1  0  0  0  0
 12 29  1  0  0  0  0
 12 30  1  0  0  0  0
 13 14  1  0  0  0  0
 13 31  1  0  0  0  0
 13 32  1  0  0  0  0
 14 15  1  0  0  0  0
 14 33  1  0  0  0  0
 14 34  1  0  0  0  0
 15 16  1  0  0  0  0
 15 35  1  0  0  0  0
 15 36  1  0  0  0  0
 16 17  1  0  0  0  0
 16 18  1  0  0  0  0
 17 37  1  0  0  0  0
 17 38  1  0  0  0  0
 17 39  1  0  0  0  0
 18 40  1  0  0  0  0
 18 41  1  0  0  0  0
 18 42  1  0  0  0  0
M  END
> <s_m_source_file>
AV-unprocessed.smi

> <i_m_source_file_index>
2260

> <i_lp_mmshare_version>
43012

> <i_f3d_flags>
0

> <s_epik_input>
W0NIM11jMVtjSF1zYyg9TyluMVtDSDJdW0NIMl1bTkhdW0NAQEhdKEMyKFtDSDNdKVtDSDNdKVtDSDJdW0NIMl1bQ0gyXVtDSDJdMg==

> <s_epik_cmdline>
J2VwaWtfcHl0aG9uJywgJy1waCcsICc3LjAnLCAnLXRuJywgJzgnLCAnLW1hJywgJzIwMCcsICctbWV0YWxfYmluZGluZycsICctaW1hZScsICc8aW5maWxlLm1hZT4nLCAnLW9tYWUnLCAnPG91dGZpbGUubWFlPic=

> <r_epik_Ionization_Penalty>
2.34504

> <r_epik_Ionization_Penalty_Charging>
4.7617e-06

> <r_epik_Ionization_Penalty_Neutral>
2.34504

> <r_epik_State_Penalty>
2.49894

> <r_epik_Charging_Adjusted_Penalty>
2.49895

> <i_epik_Tot_Q>
0

> <i_epik_Tot_abs_Q>
0

> <r_epik_Metal_State_Penalty>
2.49894

> <b_epik_Metal_Only>
0

> <s_lp_Force_Field>
OPLS_2005

> <r_lp_Energy>
25.4326

> <b_lp_Chiralities_Consistent>
1

> <s_lp_Variant>
AV-unprocessed.smi:2260-3

> <Gold.Version>
5.8.1

> <Gold.Id.Protein>
6NUR|6NUR_protein|mol2

> <Gold.PLP.Fitness>
49.9562

> <Gold.PLP.PLP>
-44.1322

> <Gold.PLP.part.hbond>
-1.0000

> <Gold.PLP.part.metal>
0.0000

> <Gold.PLP.part.buried>
-2.3709

> <Gold.PLP.part.nonpolar>
-40.4687

> <Gold.PLP.part.repulsive>
0.0000

> <Gold.PLP.ligand.clash>
0.0000

> <Gold.PLP.ligand.torsion>
0.8877

> <Gold.PLP.Chemscore.Hbond>
1.0000

> <Gold.PLP.Chemscore.CHOScore>
1.5270

> <Gold.PLP.Chemscore.Metal>
0.0000

> <Gold.Chemscore.Hbonds>
donor molecule, donor type, donor heavy atom, donor atom, acceptor molecule, acceptor atom, score
      P1  H  7997  8010       L1     6  1.00
      L1  C     3    22       P1  7948  1.00
      L1  C     3    22       P1  7957  0.53

> <Gold.PLP.Chemscore.Internal.Correction>
0.0183

> <Gold.Rescore>
     Score         DG    S(hbond)    S(metal)    S(lipo)     H(rot)  DE(clash)    DE(int)     intcor
     18.53     -19.43       0.99        0.00     122.13       1.43       0.20       0.70       ----

> <Gold.Chemscore.Fitness>
18.5322

> <Gold.Chemscore.DG>
-19.4309

> <Gold.Chemscore.ZeroCoef>
-5.4800

> <Gold.Chemscore.Hbond>
0.9937

> <Gold.Chemscore.Metal>
0.0000

> <Gold.Chemscore.Lipo>
122.1260

> <Gold.Chemscore.Internal_Hbond>
0.0000

> <Gold.Chemscore.DEClash>
0.1989

> <Gold.Chemscore.DEInternal>
0.6998

> <Gold.Chemscore.Rot>
1.4285

> <Gold.Chemscore.Internal.Correction>
   9.000000E+99

> <Gold.Chemscore.Hbonds>
donor molecule, donor type, donor heavy atom, donor atom, acceptor molecule, acceptor atom, score
      P1  H  7997  8010       L1     6  1.00

> <Gold.Chemscore.Hbond.Weighted>
-3.3190

> <Gold.Chemscore.Metal.Weighted>
-0.0000

> <Gold.Chemscore.Lipo.Weighted>
-14.2887

> <Gold.Chemscore.Internal_Hbond.Weighted>
0.0000

> <Gold.Chemscore.DEClash.Weighted>
0.1989

> <Gold.Chemscore.DEInternal.Weighted>
0.6998

> <Gold.Chemscore.Rot.Weighted>
3.6569

> <Gold.Chemscore.Internal.Correction.Weighted>
   9.000000E+99

> <Gold.Protein.RotatedTorsions>
[ 6907 6896 6895 6894 ] final  -22.03 input  -60.11 | X-H torsion
[ 7974 7965 7964 7962 ] final   37.03 input  175.53 | X-H torsion
[ 8008 7997 7996 7995 ] final   81.44 input   59.86 | X-H torsion
[ 10167 10162 10161 10158 ] final -112.38 input  -65.29 | X-H torsion
[ 10718 10713 10712 10709 ] final   45.01 input   66.30 | X-H torsion
[ 10763 10752 10751 10750 ] final  -41.71 input  -60.55 | X-H torsion
[ 11005 11000 10999 10996 ] final  -59.27 input  -57.11 | X-H torsion

> <Gold.Protein.ActiveResidues>
 VAL166  LYS551  ARG553  GLY616  TRP617  ASP618  TYR619  PRO620  LYS621  CYS622 
 ASP623  PHE694  ASN695  SER759  ASP760  ASP761  ALA762  ILE779  LEU786  VAL792 
 PHE793  MET794  SER795  GLU796  ALA797  LYS798  CYS799  TRP800  GLU811  SER814 

> <Gold.Protein.RotatedAtoms>
  151.2246  135.0531  159.8962 H   0  0  0  0  0  0  0  0  0  0  0  0  # atno 6907 bound_to 6896
  152.5412  134.0603  159.8159 H   0  0  0  0  0  0  0  0  0  0  0  0  # atno 6908 bound_to 6896
  151.0774  133.5369  159.2654 H   0  0  0  0  0  0  0  0  0  0  0  0  # atno 6909 bound_to 6896
  146.1167  139.5944  142.9316 H   0  0  0  0  0  0  0  0  0  0  0  0  # atno 7974 bound_to 7965
  155.8971  140.3435  155.5999 H   0  0  0  0  0  0  0  0  0  0  0  0  # atno 8008 bound_to 7997
  155.7543  140.0824  157.2205 H   0  0  0  0  0  0  0  0  0  0  0  0  # atno 8009 bound_to 7997
  154.4039  140.1547  156.2747 H   0  0  0  0  0  0  0  0  0  0  0  0  # atno 8010 bound_to 7997
  140.1233  143.4424  152.1676 H   0  0  0  0  0  0  0  0  0  0  0  0  # atno 10167 bound_to 10162
  157.4330  130.8036  149.7621 H   0  0  0  0  0  0  0  0  0  0  0  0  # atno 10718 bound_to 10713
  153.9670  135.6733  153.4746 H   0  0  0  0  0  0  0  0  0  0  0  0  # atno 10763 bound_to 10752
  153.0811  135.4923  154.8500 H   0  0  0  0  0  0  0  0  0  0  0  0  # atno 10764 bound_to 10752
  154.7240  135.3123  154.8961 H   0  0  0  0  0  0  0  0  0  0  0  0  # atno 10765 bound_to 10752
  141.1241  133.6615  156.5047 H   0  0  0  0  0  0  0  0  0  0  0  0  # atno 11005 bound_to 11000
  145.5551  141.0410  143.2257 LP  0  0  0  0  0  0  0  0  0  0  0  0  # atno 17320 bound_to 7965
  144.7560  139.7074  143.7254 LP  0  0  0  0  0  0  0  0  0  0  0  0  # atno 17321 bound_to 7965
  139.5557  144.7371  151.4301 LP  0  0  0  0  0  0  0  0  0  0  0  0  # atno 17342 bound_to 10162
  140.6859  143.7975  150.7186 LP  0  0  0  0  0  0  0  0  0  0  0  0  # atno 17343 bound_to 10162
  155.9920  130.3934  150.2960 LP  0  0  0  0  0  0  0  0  0  0  0  0  # atno 17370 bound_to 10713
  157.1118  131.0223  151.3045 LP  0  0  0  0  0  0  0  0  0  0  0  0  # atno 17371 bound_to 10713
  140.4417  134.7009  157.4995 LP  0  0  0  0  0  0  0  0  0  0  0  0  # atno 17394 bound_to 11000
  140.0224  134.6527  155.9220 LP  0  0  0  0  0  0  0  0  0  0  0  0  # atno 17395 bound_to 11000

$$$$
