AV-unprocessed.smi:783|AV-procd|sdf|3717|dock8
  -GOLD-   22720 1143D 1   1.00000     0.00000
 Structure written by MMmdl.
 45 46  0  0  0  0  0  0  0  0  1 V2000
  145.5813  135.7641  151.8760 C   0  0  0  0  0  0  0  0  0  0  0  0
  146.3415  134.4646  151.5404 C   0  0  1  0  0  0  0  0  0  0  0  0
  146.6398  133.6149  152.7852 C   0  0  0  0  0  0  0  0  0  0  0  0
  145.8671  132.7232  153.1379 O   0  0  0  0  0  0  0  0  0  0  0  0
  147.7708  133.9115  153.4448 N   0  0  0  0  0  0  0  0  0  0  0  0
  148.2519  133.2579  154.6622 C   0  0  0  0  0  0  0  0  0  0  0  0
  149.1588  134.1735  155.5415 C   0  0  0  0  0  0  0  0  0  0  0  0
  149.7974  133.3845  156.7362 C   0  0  0  0  0  0  0  0  0  0  0  0
  149.6720  133.8572  157.8689 O   0  0  0  0  0  0  0  0  0  0  0  0
  150.4786  132.2183  156.5682 N   0  0  0  0  0  0  0  0  0  0  0  0
  150.9924  131.5087  157.7451 C   0  0  0  0  0  0  0  0  0  0  0  0
  150.8017  131.5315  155.3145 C   0  0  0  0  0  0  0  0  0  0  0  0
  150.2619  134.7976  154.6408 C   0  0  0  0  0  0  0  0  0  0  0  0
  150.7485  136.0696  155.3427 C   0  0  0  0  0  0  0  0  0  0  0  0
  149.5736  136.5238  156.2116 C   0  0  0  0  0  0  0  0  0  0  0  0
  148.4657  135.4844  155.9946 C   0  0  0  0  0  0  0  0  0  0  0  0
  145.6566  133.6621  150.5333 N   0  0  0  0  0  0  0  0  0  0  0  0
  146.1083  132.5134  149.9156 C   0  0  0  0  0  0  0  0  0  0  0  0
  145.1206  132.0804  149.0781 C   0  0  0  0  0  0  0  0  0  0  0  0
  144.0806  133.0331  149.2622 C   0  0  0  0  0  0  0  0  0  0  0  0
  144.3991  133.9711  150.1387 N   0  0  0  0  0  0  0  0  0  0  0  0
  146.1357  136.3679  152.5953 H   0  0  0  0  0  0  0  0  0  0  0  0
  144.5962  135.5677  152.3013 H   0  0  0  0  0  0  0  0  0  0  0  0
  145.4394  136.3716  150.9817 H   0  0  0  0  0  0  0  0  0  0  0  0
  147.3013  134.7605  151.1131 H   0  0  0  0  0  0  0  0  0  0  0  0
  148.3411  134.6607  153.0804 H   0  0  0  0  0  0  0  0  0  0  0  0
  147.4064  132.8935  155.2483 H   0  0  0  0  0  0  0  0  0  0  0  0
  148.7651  132.3540  154.3476 H   0  0  0  0  0  0  0  0  0  0  0  0
  150.1899  131.3023  158.4551 H   0  0  0  0  0  0  0  0  0  0  0  0
  151.7516  132.1063  158.2515 H   0  0  0  0  0  0  0  0  0  0  0  0
  151.4462  130.5499  157.4904 H   0  0  0  0  0  0  0  0  0  0  0  0
  150.6365  132.1067  154.4110 H   0  0  0  0  0  0  0  0  0  0  0  0
  150.2087  130.6200  155.2335 H   0  0  0  0  0  0  0  0  0  0  0  0
  151.8537  131.2435  155.3029 H   0  0  0  0  0  0  0  0  0  0  0  0
  151.0837  134.1221  154.3999 H   0  0  0  0  0  0  0  0  0  0  0  0
  149.8297  135.0868  153.6814 H   0  0  0  0  0  0  0  0  0  0  0  0
  151.6138  135.8515  155.9699 H   0  0  0  0  0  0  0  0  0  0  0  0
  151.0486  136.8333  154.6245 H   0  0  0  0  0  0  0  0  0  0  0  0
  149.8752  136.5433  157.2597 H   0  0  0  0  0  0  0  0  0  0  0  0
  149.2341  137.5265  155.9499 H   0  0  0  0  0  0  0  0  0  0  0  0
  147.8063  135.8345  155.1990 H   0  0  0  0  0  0  0  0  0  0  0  0
  147.8472  135.4079  156.8846 H   0  0  0  0  0  0  0  0  0  0  0  0
  147.0859  132.1031  150.1218 H   0  0  0  0  0  0  0  0  0  0  0  0
  145.1361  131.2123  148.4360 H   0  0  0  0  0  0  0  0  0  0  0  0
  143.1088  133.0682  148.7924 H   0  0  0  0  0  0  0  0  0  0  0  0
  1  2  1  0  0  0  0
  1 22  1  0  0  0  0
  1 23  1  0  0  0  0
  1 24  1  0  0  0  0
  2  3  1  0  0  0  0
  2 17  1  0  0  0  0
  2 25  1  0  0  0  0
  3  4  2  0  0  0  0
  3  5  1  0  0  0  0
  5  6  1  0  0  0  0
  5 26  1  0  0  0  0
  6  7  1  0  0  0  0
  6 27  1  0  0  0  0
  6 28  1  0  0  0  0
  7 16  1  0  0  0  0
  7  8  1  0  0  0  0
  7 13  1  0  0  0  0
  8  9  2  0  0  0  0
  8 10  1  0  0  0  0
 10 11  1  0  0  0  0
 10 12  1  0  0  0  0
 11 29  1  0  0  0  0
 11 30  1  0  0  0  0
 11 31  1  0  0  0  0
 12 32  1  0  0  0  0
 12 33  1  0  0  0  0
 12 34  1  0  0  0  0
 13 14  1  0  0  0  0
 13 35  1  0  0  0  0
 13 36  1  0  0  0  0
 14 15  1  0  0  0  0
 14 37  1  0  0  0  0
 14 38  1  0  0  0  0
 15 16  1  0  0  0  0
 15 39  1  0  0  0  0
 15 40  1  0  0  0  0
 16 41  1  0  0  0  0
 16 42  1  0  0  0  0
 17 21  1  0  0  0  0
 17 18  1  0  0  0  0
 18 19  2  0  0  0  0
 18 43  1  0  0  0  0
 19 20  1  0  0  0  0
 19 44  1  0  0  0  0
 20 21  2  0  0  0  0
 20 45  1  0  0  0  0
M  END
> <s_m_source_file>
AV-unprocessed.smi

> <i_m_source_file_index>
783

> <i_lp_mmshare_version>
43012

> <i_f3d_flags>
0

> <s_epik_input>
bjFbY0hdW2NIXVtjSF1uMVtDQEhdKFtDSDNdKUMoPU8pW05IXVtDSDJdQzIoQyg9TylOKFtDSDNdKVtDSDNdKVtDSDJdW0NIMl1bQ0gyXVtDSDJdMg==

> <s_epik_cmdline>
J2VwaWtfcHl0aG9uJywgJy1waCcsICc3LjAnLCAnLXRuJywgJzgnLCAnLW1hJywgJzIwMCcsICctbWV0YWxfYmluZGluZycsICctaW1hZScsICc8aW5maWxlLm1hZT4nLCAnLW9tYWUnLCAnPG91dGZpbGUubWFlPic=

> <r_lp_tautomer_probability>
1

> <r_epik_Ionization_Penalty>
3.31274e-05

> <r_epik_Ionization_Penalty_Charging>
0

> <r_epik_Ionization_Penalty_Neutral>
3.31274e-05

> <r_epik_State_Penalty>
-0

> <r_epik_Charging_Adjusted_Penalty>
0

> <i_epik_Tot_Q>
0

> <i_epik_Tot_abs_Q>
0

> <r_epik_Metal_State_Penalty>
-0

> <b_epik_Metal_Only>
0

> <s_lp_Force_Field>
OPLS_2005

> <r_lp_Energy>
40.1786

> <b_lp_Chiralities_Consistent>
1

> <s_lp_Variant>
AV-unprocessed.smi:783-2

> <Gold.Version>
5.8.1

> <Gold.Id.Protein>
6NUR|6NUR_protein|mol2

> <Gold.PLP.Fitness>
38.7274

> <Gold.PLP.PLP>
-28.8453

> <Gold.PLP.part.hbond>
-2.0000

> <Gold.PLP.part.metal>
0.0000

> <Gold.PLP.part.buried>
-1.8340

> <Gold.PLP.part.nonpolar>
-25.2557

> <Gold.PLP.part.repulsive>
0.3184

> <Gold.PLP.ligand.clash>
0.0000

> <Gold.PLP.ligand.torsion>
1.1798

> <Gold.PLP.Chemscore.Hbond>
1.9913

> <Gold.PLP.Chemscore.CHOScore>
1.9873

> <Gold.PLP.Chemscore.Metal>
0.0000

> <Gold.Chemscore.Hbonds>
donor molecule, donor type, donor heavy atom, donor atom, acceptor molecule, acceptor atom, score
      L1  H     5    26       P1  7948  0.98
      P1  H  6896  6909       L1     9  1.00
      L1  C    18    43       P1 10747  1.00
      L1  C    20    45       P1 10186  0.80

> <Gold.PLP.Chemscore.Internal.Correction>
0.3061

> <Gold.Rescore>
     Score         DG    S(hbond)    S(metal)    S(lipo)     H(rot)  DE(clash)    DE(int)     intcor
     14.70     -15.81       1.77        0.00      78.24       1.84       0.04       1.07       ----

> <Gold.Chemscore.Fitness>
14.7037

> <Gold.Chemscore.DG>
-15.8086

> <Gold.Chemscore.ZeroCoef>
-5.4800

> <Gold.Chemscore.Hbond>
1.7658

> <Gold.Chemscore.Metal>
0.0000

> <Gold.Chemscore.Lipo>
78.2364

> <Gold.Chemscore.Internal_Hbond>
0.0000

> <Gold.Chemscore.DEClash>
0.0378

> <Gold.Chemscore.DEInternal>
1.0671

> <Gold.Chemscore.Rot>
1.8449

> <Gold.Chemscore.Internal.Correction>
   9.000000E+99

> <Gold.Chemscore.Hbonds>
donor molecule, donor type, donor heavy atom, donor atom, acceptor molecule, acceptor atom, score
      L1  H     5    26       P1  7948  0.50
      P1  H  6896  6909       L1     9  0.97

> <Gold.Chemscore.Hbond.Weighted>
-5.8978

> <Gold.Chemscore.Metal.Weighted>
-0.0000

> <Gold.Chemscore.Lipo.Weighted>
-9.1537

> <Gold.Chemscore.Internal_Hbond.Weighted>
0.0000

> <Gold.Chemscore.DEClash.Weighted>
0.0378

> <Gold.Chemscore.DEInternal.Weighted>
1.0671

> <Gold.Chemscore.Rot.Weighted>
4.7229

> <Gold.Chemscore.Internal.Correction.Weighted>
   9.000000E+99

> <Gold.Protein.RotatedTorsions>
[ 6907 6896 6895 6894 ] final   -5.63 input  -60.11 | X-H torsion
[ 7974 7965 7964 7962 ] final -135.19 input  175.53 | X-H torsion
[ 8008 7997 7996 7995 ] final  174.87 input   59.86 | X-H torsion
[ 10167 10162 10161 10158 ] final -165.16 input  -65.29 | X-H torsion
[ 10718 10713 10712 10709 ] final  -74.60 input   66.30 | X-H torsion
[ 10763 10752 10751 10750 ] final   71.14 input  -60.55 | X-H torsion
[ 11005 11000 10999 10996 ] final   50.72 input  -57.11 | X-H torsion

> <Gold.Protein.ActiveResidues>
 VAL166  LYS551  ARG553  GLY616  TRP617  ASP618  TYR619  PRO620  LYS621  CYS622 
 ASP623  PHE694  ASN695  SER759  ASP760  ASP761  ALA762  ILE779  LEU786  VAL792 
 PHE793  MET794  SER795  GLU796  ALA797  LYS798  CYS799  TRP800  GLU811  SER814 

> <Gold.Protein.RotatedAtoms>
  151.4785  135.1050  159.9770 H   0  0  0  0  0  0  0  0  0  0  0  0  # atno 6907 bound_to 6896
  152.4789  133.8201  159.7059 H   0  0  0  0  0  0  0  0  0  0  0  0  # atno 6908 bound_to 6896
  150.8846  133.7264  159.2949 H   0  0  0  0  0  0  0  0  0  0  0  0  # atno 6909 bound_to 6896
  144.9036  140.6804  143.5069 H   0  0  0  0  0  0  0  0  0  0  0  0  # atno 7974 bound_to 7965
  156.0930  140.1423  156.9568 H   0  0  0  0  0  0  0  0  0  0  0  0  # atno 8008 bound_to 7997
  154.4653  140.0928  156.7051 H   0  0  0  0  0  0  0  0  0  0  0  0  # atno 8009 bound_to 7997
  155.4889  140.3447  155.4354 H   0  0  0  0  0  0  0  0  0  0  0  0  # atno 8010 bound_to 7997
  139.6201  144.0642  152.1924 H   0  0  0  0  0  0  0  0  0  0  0  0  # atno 10167 bound_to 10162
  156.0237  130.4421  150.2917 H   0  0  0  0  0  0  0  0  0  0  0  0  # atno 10718 bound_to 10713
  153.0381  135.5148  154.7547 H   0  0  0  0  0  0  0  0  0  0  0  0  # atno 10763 bound_to 10752
  154.6507  135.2924  154.9993 H   0  0  0  0  0  0  0  0  0  0  0  0  # atno 10764 bound_to 10752
  154.0878  135.6654  153.4900 H   0  0  0  0  0  0  0  0  0  0  0  0  # atno 10765 bound_to 10752
  140.0993  134.5102  155.8777 H   0  0  0  0  0  0  0  0  0  0  0  0  # atno 11005 bound_to 11000
  145.3574  139.1690  143.4402 LP  0  0  0  0  0  0  0  0  0  0  0  0  # atno 17320 bound_to 7965
  146.3122  140.3632  142.8667 LP  0  0  0  0  0  0  0  0  0  0  0  0  # atno 17321 bound_to 7965
  140.0282  144.6101  150.7510 LP  0  0  0  0  0  0  0  0  0  0  0  0  # atno 17342 bound_to 10162
  140.7376  143.2768  151.3718 LP  0  0  0  0  0  0  0  0  0  0  0  0  # atno 17343 bound_to 10162
  157.1020  131.0198  151.3082 LP  0  0  0  0  0  0  0  0  0  0  0  0  # atno 17370 bound_to 10713
  157.4772  130.7744  149.7379 LP  0  0  0  0  0  0  0  0  0  0  0  0  # atno 17371 bound_to 10713
  141.2101  133.6691  156.6486 LP  0  0  0  0  0  0  0  0  0  0  0  0  # atno 17394 bound_to 11000
  140.3242  134.7983  157.4276 LP  0  0  0  0  0  0  0  0  0  0  0  0  # atno 17395 bound_to 11000

$$$$
