#       Name:                AV-unprocessed.smi:612
#       Creating user name   scv26
#       Creation time:       Thu Mar 26 23:58:44 2020


#       File generated by GOLD software.
#

@<TRIPOS>MOLECULE
AV-unprocessed.smi:612
    54    56     1
SMALL
NO_CHARGES


@<TRIPOS>ATOM
      1 ****        -7.1169   4.0219   0.6544 C.3            1 S1                 0.0000
      2 ****        -6.4949   2.6961   0.6105 N.am           1 S1                 0.0000
      3 ****        -7.3447   1.5778   0.6470 C.2            1 S1                 0.0000
      4 ****        -6.8633   0.3275   0.6147 C.2            1 S1                 0.0000
      5 ****        -5.4338   0.1439   0.5410 C.2            1 S1                 0.0000
      6 ****        -4.5947   1.2096   0.4970 C.2            1 S1                 0.0000
      7 ****        -3.1921   1.1253   0.4331 N.am           1 S1                 0.0000
      8 ****        -2.4079   0.0675   0.1541 C.2            1 S1                 0.0000
      9 ****        -2.7974  -1.0653  -0.1273 O.2            1 S1                 0.0000
     10 ****        -1.1122   0.4112   0.2005 N.am           1 S1                 0.0000
     11 ****         0.0172  -0.4703  -0.0858 C.3            1 S1                 0.0000
     12 ****         0.8949  -0.6362   1.1630 C.3            1 S1                 0.0000
     13 ****         2.1446  -1.4793   0.8557 C.3            1 S1                 0.0000
     14 ****         2.9423  -0.8980  -0.2607 N.4            1 S1                 1.0000
     15 ****         4.2141  -1.6370  -0.5124 C.3            1 S1                 0.0000
     16 ****         5.1480  -1.6991   0.7054 C.3            1 S1                 0.0000
     17 ****         6.5362  -2.0096   0.1367 C.3            1 S1                 0.0000
     18 ****         6.5124  -1.5497  -1.3271 C.3            1 S1                 0.0000
     19 ****         5.1114  -0.9814  -1.5729 C.3            1 S1                 0.0000
     20 ****         2.1107  -0.7437  -1.4874 C.3            1 S1                 0.0000
     21 ****         0.8635   0.1155  -1.2241 C.3            1 S1                 0.0000
     22 ****        -5.1351   2.5829   0.5397 C.2            1 S1                 0.0000
     23 ****        -4.4124   3.5825   0.5133 O.2            1 S1                 0.0000
     24 ****        -8.2059   3.9758   0.6934 H              1 S1                 0.0000
     25 ****        -6.8488   4.6017  -0.2301 H              1 S1                 0.0000
     26 ****        -6.7830   4.5715   1.5356 H              1 S1                 0.0000
     27 ****        -8.4010   1.7974   0.7027 H              1 S1                 0.0000
     28 ****        -7.5289  -0.5227   0.6432 H              1 S1                 0.0000
     29 ****        -5.0711  -0.8707   0.5382 H              1 S1                 0.0000
     30 ****        -2.7176   2.0031   0.5879 H              1 S1                 0.0000
     31 ****        -0.8899   1.3669   0.4385 H              1 S1                 0.0000
     32 ****        -0.3341  -1.4570  -0.3932 H              1 S1                 0.0000
     33 ****         1.2009   0.3418   1.5380 H              1 S1                 0.0000
     34 ****         0.3214  -1.1078   1.9620 H              1 S1                 0.0000
     35 ****         2.7423  -1.5379   1.7645 H              1 S1                 0.0000
     36 ****         1.8545  -2.5002   0.6020 H              1 S1                 0.0000
     37 ****         3.9793  -2.6551  -0.8289 H              1 S1                 0.0000
     38 ****         5.1726  -0.7300   1.2065 H              1 S1                 0.0000
     39 ****         4.8408  -2.4450   1.4391 H              1 S1                 0.0000
     40 ****         7.3206  -1.5125   0.7085 H              1 S1                 0.0000
     41 ****         6.7301  -3.0821   0.1824 H              1 S1                 0.0000
     42 ****         7.2845  -0.8083  -1.5358 H              1 S1                 0.0000
     43 ****         6.6935  -2.4019  -1.9836 H              1 S1                 0.0000
     44 ****         4.7749  -1.1740  -2.5920 H              1 S1                 0.0000
     45 ****         5.1309   0.1001  -1.4275 H              1 S1                 0.0000
     46 ****         2.6834  -0.2683  -2.2828 H              1 S1                 0.0000
     47 ****         1.8169  -1.7285  -1.8543 H              1 S1                 0.0000
     48 ****         0.2666   0.1851  -2.1343 H              1 S1                 0.0000
     49 ****         1.1703   1.1330  -0.9765 H              1 S1                 0.0000
     50 ****         3.2060   0.0334   0.0279 H              1 S1                 0.0000
     51 ****        -3.7771  -1.2626  -0.1634 LP             1 S1                 0.0000
     52 ****        -2.1342  -1.7886  -0.3199 LP             1 S1                 0.0000
     53 ****        -4.8200   4.4951   0.5438 LP             1 S1                 0.0000
     54 ****        -3.4190   3.4801   0.4614 LP             1 S1                 0.0000
@<TRIPOS>BOND
    1    1    2 1     
    2    1   24 1     
    3    1   25 1     
    4    1   26 1     
    5    2   22 am    
    6    2    3 1     
    7    3    4 2     
    8    3   27 1     
    9    4    5 1     
   10    4   28 1     
   11    5    6 2     
   12    5   29 1     
   13    6    7 1     
   14    6   22 1     
   15    7    8 am    
   16    7   30 1     
   17    8    9 2     
   18    8   10 am    
   19   10   11 1     
   20   10   31 1     
   21   11   21 1     
   22   11   12 1     
   23   11   32 1     
   24   12   13 1     
   25   12   33 1     
   26   12   34 1     
   27   13   14 1     
   28   13   35 1     
   29   13   36 1     
   30   14   15 1     
   31   14   20 1     
   32   14   50 1     
   33   15   19 1     
   34   15   16 1     
   35   15   37 1     
   36   16   17 1     
   37   16   38 1     
   38   16   39 1     
   39   17   18 1     
   40   17   40 1     
   41   17   41 1     
   42   18   19 1     
   43   18   42 1     
   44   18   43 1     
   45   19   44 1     
   46   19   45 1     
   47   20   21 1     
   48   20   46 1     
   49   20   47 1     
   50   21   48 1     
   51   21   49 1     
   52   22   23 2     
   53    9   51 1     
   54    9   52 1     
   55   23   53 1     
   56   23   54 1     
@<TRIPOS>SUBSTRUCTURE
      1 S1             1
@<TRIPOS>SET
LONE_PAIRS      STATIC     ATOMS    <user>   **** ""
4 51 52 53 54
DONOR_HYDROGENS      STATIC     ATOMS    <user>   **** ""
3 30 31 50
ATOM$BLUE        STATIC     ATOMS    COLORGROUP SYSTEM
4 51 52 53 54
ATOM$RED        STATIC     ATOMS    COLORGROUP SYSTEM
3 30 31 50
