AV-unprocessed.smi:3058|AV-procd|sdf|11669|dock5
  -GOLD-   2272017 73D 1   1.00000     0.00000
 Structure written by MMmdl.
 38 40  0  0  0  0  0  0  0  0  1 V2000
  155.0429  145.1418  165.2761 O   0  0  0  0  0  0  0  0  0  0  0  0
  154.9358  143.9213  165.3992 C   0  0  0  0  0  0  0  0  0  0  0  0
  154.1601  143.1726  164.5999 N   0  0  0  0  0  0  0  0  0  0  0  0
  153.3504  143.6826  163.5001 C   0  0  0  0  0  0  0  0  0  0  0  0
  152.9818  142.5707  162.5039 C   0  0  0  0  0  0  0  0  0  0  0  0
  152.5305  143.1280  161.1682 C   0  0  0  0  0  0  0  0  0  0  0  0
  152.1397  144.4773  161.0450 C   0  0  0  0  0  0  0  0  0  0  0  0
  151.7316  144.9528  159.7841 C   0  0  0  0  0  0  0  0  0  0  0  0
  151.7304  144.0555  158.6974 C   0  0  0  0  0  0  0  0  0  0  0  0
  152.1028  142.7617  158.8035 N   0  0  0  0  0  0  0  0  0  0  0  0
  152.4939  142.3139  160.0161 C   0  0  0  0  0  0  0  0  0  0  0  0
  155.7000  143.1669  166.5013 C   0  0  2  0  0  0  0  0  0  0  0  0
  154.7811  142.3063  167.4032 C   0  0  0  0  0  0  0  0  0  0  0  0
  155.1140  142.8033  168.8235 C   0  0  1  0  0  0  0  0  0  0  0  0
  156.5453  142.3717  169.1967 C   0  0  0  0  0  0  0  0  0  0  0  0
  157.4173  143.2997  168.3286 C   0  0  0  0  0  0  0  0  0  0  0  0
  156.3680  144.1052  167.5390 C   0  0  2  0  0  0  0  0  0  0  0  0
  155.2862  144.2992  168.6016 C   0  0  0  0  0  0  0  0  0  0  0  0
  154.1294  142.1771  164.7659 H   0  0  0  0  0  0  0  0  0  0  0  0
  152.4514  144.1620  163.8916 H   0  0  0  0  0  0  0  0  0  0  0  0
  153.9214  144.4608  162.9930 H   0  0  0  0  0  0  0  0  0  0  0  0
  153.8358  141.9102  162.3478 H   0  0  0  0  0  0  0  0  0  0  0  0
  152.1824  141.9478  162.9073 H   0  0  0  0  0  0  0  0  0  0  0  0
  152.1539  145.1369  161.9004 H   0  0  0  0  0  0  0  0  0  0  0  0
  151.4263  145.9804  159.6528 H   0  0  0  0  0  0  0  0  0  0  0  0
  151.4221  144.3864  157.7165 H   0  0  0  0  0  0  0  0  0  0  0  0
  152.7874  141.2757  160.0668 H   0  0  0  0  0  0  0  0  0  0  0  0
  156.4568  142.5376  166.0294 H   0  0  0  0  0  0  0  0  0  0  0  0
  153.7235  142.4655  167.1859 H   0  0  0  0  0  0  0  0  0  0  0  0
  154.9781  141.2397  167.2883 H   0  0  0  0  0  0  0  0  0  0  0  0
  154.3662  142.5310  169.5691 H   0  0  0  0  0  0  0  0  0  0  0  0
  156.7413  142.5420  170.2561 H   0  0  0  0  0  0  0  0  0  0  0  0
  156.7248  141.3164  168.9882 H   0  0  0  0  0  0  0  0  0  0  0  0
  158.0168  143.9591  168.9575 H   0  0  0  0  0  0  0  0  0  0  0  0
  158.0995  142.7482  167.6804 H   0  0  0  0  0  0  0  0  0  0  0  0
  156.7611  145.0312  167.1172 H   0  0  0  0  0  0  0  0  0  0  0  0
  154.3819  144.7892  168.2398 H   0  0  0  0  0  0  0  0  0  0  0  0
  155.6412  144.8288  169.4875 H   0  0  0  0  0  0  0  0  0  0  0  0
  1  2  2  0  0  0  0
  2  3  1  0  0  0  0
  2 12  1  0  0  0  0
  3  4  1  0  0  0  0
  3 19  1  0  0  0  0
  4  5  1  0  0  0  0
  4 20  1  0  0  0  0
  4 21  1  0  0  0  0
  5  6  1  0  0  0  0
  5 22  1  0  0  0  0
  5 23  1  0  0  0  0
  6 11  1  0  0  0  0
  6  7  2  0  0  0  0
  7  8  1  0  0  0  0
  7 24  1  0  0  0  0
  8  9  2  0  0  0  0
  8 25  1  0  0  0  0
  9 10  1  0  0  0  0
  9 26  1  0  0  0  0
 10 11  2  0  0  0  0
 11 27  1  0  0  0  0
 12 17  1  0  0  0  0
 12 13  1  0  0  0  0
 12 28  1  0  0  0  0
 13 14  1  0  0  0  0
 13 29  1  0  0  0  0
 13 30  1  0  0  0  0
 14 18  1  0  0  0  0
 14 15  1  0  0  0  0
 14 31  1  0  0  0  0
 15 16  1  0  0  0  0
 15 32  1  0  0  0  0
 15 33  1  0  0  0  0
 16 17  1  0  0  0  0
 16 34  1  0  0  0  0
 16 35  1  0  0  0  0
 17 18  1  0  0  0  0
 17 36  1  0  0  0  0
 18 37  1  0  0  0  0
 18 38  1  0  0  0  0
M  END
> <s_m_source_file>
AV-unprocessed.smi

> <i_m_source_file_index>
3058

> <i_lp_mmshare_version>
43012

> <i_f3d_flags>
0

> <s_epik_input>
W0NIMl0xW0NIMl1bQ0BIXShbQ0gyXTIpW0NAQEhdKFtDSDJdW0NAQEhdMTIpQyg9TylbTkhdW0NIMl1bQ0gyXWMzW2NIXVtjSF1bY0hdbltjSF0z

> <s_epik_cmdline>
J2VwaWtfcHl0aG9uJywgJy1waCcsICc3LjAnLCAnLXRuJywgJzgnLCAnLW1hJywgJzIwMCcsICctbWV0YWxfYmluZGluZycsICctaW1hZScsICc8aW5maWxlLm1hZT4nLCAnLW9tYWUnLCAnPG91dGZpbGUubWFlPic=

> <r_epik_Ionization_Penalty>
0.0135821

> <r_epik_Ionization_Penalty_Charging>
0

> <r_epik_Ionization_Penalty_Neutral>
0.0135821

> <r_epik_State_Penalty>
0.0105782

> <r_epik_Charging_Adjusted_Penalty>
0.0105782

> <i_epik_Tot_Q>
0

> <i_epik_Tot_abs_Q>
0

> <r_epik_Metal_State_Penalty>
0.0103407

> <b_epik_Metal_Only>
0

> <s_lp_Force_Field>
OPLS_2005

> <r_lp_Energy>
46.4183

> <b_lp_Chiralities_Consistent>
1

> <s_lp_Variant>
AV-unprocessed.smi:3058-1

> <Gold.Version>
5.8.1

> <Gold.Id.Protein>
6NUR|6NUR_protein|mol2

> <Gold.PLP.Fitness>
46.3229

> <Gold.PLP.PLP>
-47.4337

> <Gold.PLP.part.hbond>
-1.0000

> <Gold.PLP.part.metal>
0.0000

> <Gold.PLP.part.buried>
-7.8265

> <Gold.PLP.part.nonpolar>
-38.4831

> <Gold.PLP.part.repulsive>
0.2229

> <Gold.PLP.ligand.clash>
0.0000

> <Gold.PLP.ligand.torsion>
0.5735

> <Gold.PLP.Chemscore.Hbond>
0.0000

> <Gold.PLP.Chemscore.CHOScore>
0.0000

> <Gold.PLP.Chemscore.Metal>
0.0000

> <Gold.PLP.Chemscore.Internal.Correction>
0.0362

> <Gold.Rescore>
     Score         DG    S(hbond)    S(metal)    S(lipo)     H(rot)  DE(clash)    DE(int)     intcor
     16.19     -16.79       0.00        0.00     126.56       1.37       0.31       0.29       ----

> <Gold.Chemscore.Fitness>
16.1879

> <Gold.Chemscore.DG>
-16.7920

> <Gold.Chemscore.ZeroCoef>
-5.4800

> <Gold.Chemscore.Hbond>
0.0000

> <Gold.Chemscore.Metal>
0.0000

> <Gold.Chemscore.Lipo>
126.5564

> <Gold.Chemscore.Internal_Hbond>
0.0000

> <Gold.Chemscore.DEClash>
0.3126

> <Gold.Chemscore.DEInternal>
0.2915

> <Gold.Chemscore.Rot>
1.3653

> <Gold.Chemscore.Internal.Correction>
   9.000000E+99

> <Gold.Chemscore.Hbond.Weighted>
-0.0000

> <Gold.Chemscore.Metal.Weighted>
-0.0000

> <Gold.Chemscore.Lipo.Weighted>
-14.8071

> <Gold.Chemscore.Internal_Hbond.Weighted>
0.0000

> <Gold.Chemscore.DEClash.Weighted>
0.3126

> <Gold.Chemscore.DEInternal.Weighted>
0.2915

> <Gold.Chemscore.Rot.Weighted>
3.4951

> <Gold.Chemscore.Internal.Correction.Weighted>
   9.000000E+99

> <Gold.Protein.RotatedTorsions>
[ 6907 6896 6895 6894 ] final -159.90 input  -60.11 | X-H torsion
[ 7974 7965 7964 7962 ] final  114.96 input  175.53 | X-H torsion
[ 8008 7997 7996 7995 ] final -124.77 input   59.86 | X-H torsion
[ 10167 10162 10161 10158 ] final  148.08 input  -65.29 | X-H torsion
[ 10718 10713 10712 10709 ] final  -11.86 input   66.30 | X-H torsion
[ 10763 10752 10751 10750 ] final   92.29 input  -60.55 | X-H torsion
[ 11005 11000 10999 10996 ] final -154.42 input  -57.11 | X-H torsion

> <Gold.Protein.ActiveResidues>
 VAL166  LYS551  ARG553  GLY616  TRP617  ASP618  TYR619  PRO620  LYS621  CYS622 
 ASP623  PHE694  ASN695  SER759  ASP760  ASP761  ALA762  ILE779  LEU786  VAL792 
 PHE793  MET794  SER795  GLU796  ALA797  LYS798  CYS799  TRP800  GLU811  SER814 

> <Gold.Protein.RotatedAtoms>
  151.3407  133.3963  159.2670 H   0  0  0  0  0  0  0  0  0  0  0  0  # atno 6907 bound_to 6896
  150.9880  134.9222  159.7893 H   0  0  0  0  0  0  0  0  0  0  0  0  # atno 6908 bound_to 6896
  152.5238  134.3372  159.9256 H   0  0  0  0  0  0  0  0  0  0  0  0  # atno 6909 bound_to 6896
  145.1979  139.2967  143.4334 H   0  0  0  0  0  0  0  0  0  0  0  0  # atno 7974 bound_to 7965
  155.2023  140.0416  157.2919 H   0  0  0  0  0  0  0  0  0  0  0  0  # atno 8008 bound_to 7997
  154.6066  140.2466  155.7694 H   0  0  0  0  0  0  0  0  0  0  0  0  # atno 8009 bound_to 7997
  156.2354  140.2923  156.0308 H   0  0  0  0  0  0  0  0  0  0  0  0  # atno 8010 bound_to 7997
  139.4880  144.5707  151.7061 H   0  0  0  0  0  0  0  0  0  0  0  0  # atno 10167 bound_to 10162
  156.6529  130.4960  149.6056 H   0  0  0  0  0  0  0  0  0  0  0  0  # atno 10718 bound_to 10713
  153.2175  135.4367  155.0451 H   0  0  0  0  0  0  0  0  0  0  0  0  # atno 10763 bound_to 10752
  154.8233  135.3348  154.6976 H   0  0  0  0  0  0  0  0  0  0  0  0  # atno 10764 bound_to 10752
  153.7410  135.7004  153.5023 H   0  0  0  0  0  0  0  0  0  0  0  0  # atno 10765 bound_to 10752
  140.6976  134.3973  157.5213 H   0  0  0  0  0  0  0  0  0  0  0  0  # atno 11005 bound_to 11000
  146.3423  140.2214  142.8591 LP  0  0  0  0  0  0  0  0  0  0  0  0  # atno 17320 bound_to 7965
  144.9977  140.8604  143.5301 LP  0  0  0  0  0  0  0  0  0  0  0  0  # atno 17321 bound_to 7965
  140.5293  144.0755  150.6048 LP  0  0  0  0  0  0  0  0  0  0  0  0  # atno 17342 bound_to 10162
  140.3740  143.2839  152.0246 LP  0  0  0  0  0  0  0  0  0  0  0  0  # atno 17343 bound_to 10162
  156.2070  130.6655  151.1229 LP  0  0  0  0  0  0  0  0  0  0  0  0  # atno 17370 bound_to 10713
  157.7135  131.0722  150.6414 LP  0  0  0  0  0  0  0  0  0  0  0  0  # atno 17371 bound_to 10713
  139.8906  134.8801  156.2363 LP  0  0  0  0  0  0  0  0  0  0  0  0  # atno 17394 bound_to 11000
  141.0190  133.7052  156.1237 LP  0  0  0  0  0  0  0  0  0  0  0  0  # atno 17395 bound_to 11000

$$$$
