#       Name:                AV-unprocessed.smi:583
#       Creating user name   scv26
#       Creation time:       Thu Mar 26 23:50:21 2020


#       File generated by GOLD software.
#

@<TRIPOS>MOLECULE
AV-unprocessed.smi:583
    39    40     1
SMALL
NO_CHARGES


@<TRIPOS>ATOM
      1 ****        -0.6885   0.7674  -0.1683 O.2            1 S1                 0.0000
      2 ****        -0.0321  -0.1677   0.2924 C.2            1 S1                 0.0000
      3 ****         1.5032  -0.1405   0.2733 C.3            1 S1                 0.0000
      4 ****         2.0634   1.2034   0.0510 N.am           1 S1                 0.0000
      5 ****         2.4545   1.5265  -1.2634 C.2            1 S1                 0.0000
      6 ****         2.9661   2.7256  -1.6023 C.2            1 S1                 0.0000
      7 ****         3.4287   3.0268  -3.0194 C.3            1 S1                 0.0000
      8 ****         4.4099   3.9294  -3.0224 F              1 S1                 0.0000
      9 ****         3.8715   1.9245  -3.6260 F              1 S1                 0.0000
     10 ****         2.4143   3.5137  -3.7329 F              1 S1                 0.0000
     11 ****         3.1330   3.6830  -0.5266 C.2            1 S1                 0.0000
     12 ****         2.7699   3.3881   0.7370 C.2            1 S1                 0.0000
     13 ****         2.1932   2.0877   1.0853 C.2            1 S1                 0.0000
     14 ****         1.8492   1.8096   2.2345 O.2            1 S1                 0.0000
     15 ****        -0.5921  -1.2671   0.8192 N.am           1 S1                 0.0000
     16 ****        -2.0276  -1.5024   0.9386 C.3            1 S1                 0.0000
     17 ****        -2.6679  -1.9035  -0.4065 C.3            1 S1                 0.0000
     18 ****        -4.0591  -2.4890  -0.1346 C.3            1 S1                 0.0000
     19 ****        -3.9678  -3.2752   1.5188 S.o2           1 S1                 0.0000
     20 ****        -4.9772  -2.6610   2.3943 O.2            1 S1                 0.0000
     21 ****        -3.8845  -4.7358   1.3674 O.2            1 S1                 0.0000
     22 ****        -2.3105  -2.6227   1.9488 C.3            1 S1                 0.0000
     23 ****         1.8825  -0.5539   1.2097 H              1 S1                 0.0000
     24 ****         1.8448  -0.8300  -0.4999 H              1 S1                 0.0000
     25 ****         2.3084   0.7347  -1.9838 H              1 S1                 0.0000
     26 ****         3.5517   4.6560  -0.7378 H              1 S1                 0.0000
     27 ****         2.9055   4.1272   1.5129 H              1 S1                 0.0000
     28 ****         0.0205  -1.9897   1.1687 H              1 S1                 0.0000
     29 ****        -2.5169  -0.5948   1.2978 H              1 S1                 0.0000
     30 ****        -2.7192  -1.0640  -1.1006 H              1 S1                 0.0000
     31 ****        -2.0540  -2.6705  -0.8807 H              1 S1                 0.0000
     32 ****        -4.8090  -1.6988  -0.0889 H              1 S1                 0.0000
     33 ****        -4.3672  -3.2185  -0.8839 H              1 S1                 0.0000
     34 ****        -1.5967  -3.4406   1.8449 H              1 S1                 0.0000
     35 ****        -2.2983  -2.2787   2.9832 H              1 S1                 0.0000
     36 ****        -0.2221   1.5594  -0.5622 LP             1 S1                 0.0000
     37 ****        -1.6878   0.7345  -0.1483 LP             1 S1                 0.0000
     38 ****         1.4596   0.9110   2.4362 LP             1 S1                 0.0000
     39 ****         1.9593   2.4824   2.9661 LP             1 S1                 0.0000
@<TRIPOS>BOND
    1    1    2 2     
    2    2    3 1     
    3    2   15 am    
    4    3    4 1     
    5    3   23 1     
    6    3   24 1     
    7    4   13 am    
    8    4    5 1     
    9    5    6 2     
   10    5   25 1     
   11    6    7 1     
   12    6   11 1     
   13    7    8 1     
   14    7    9 1     
   15    7   10 1     
   16   11   12 2     
   17   11   26 1     
   18   12   13 1     
   19   12   27 1     
   20   13   14 2     
   21   15   16 1     
   22   15   28 1     
   23   16   22 1     
   24   16   17 1     
   25   16   29 1     
   26   17   18 1     
   27   17   30 1     
   28   17   31 1     
   29   18   19 1     
   30   18   32 1     
   31   18   33 1     
   32   19   20 2     
   33   19   21 2     
   34   19   22 1     
   35   22   34 1     
   36   22   35 1     
   37    1   36 1     
   38    1   37 1     
   39   14   38 1     
   40   14   39 1     
@<TRIPOS>SUBSTRUCTURE
      1 S1             1
@<TRIPOS>SET
LONE_PAIRS      STATIC     ATOMS    <user>   **** ""
6 36 37 38 39 20 21
DONOR_HYDROGENS      STATIC     ATOMS    <user>   **** ""
1 28
ATOM$BLUE        STATIC     ATOMS    COLORGROUP SYSTEM
6 36 37 38 39 20 21
ATOM$RED        STATIC     ATOMS    COLORGROUP SYSTEM
1 28
