AV-unprocessed.smi:3213|AV-procd|sdf|12282|dock8
  -GOLD-   2272018123D 1   1.00000     0.00000
 Structure written by MMmdl.
 35 35  0  0  0  0  0  0  0  0  1 V2000
  150.2095  144.0959  159.2965 C   0  0  0  0  0  0  0  0  0  0  0  0
  151.7015  143.7895  159.0761 C   0  0  0  0  0  0  0  0  0  0  0  0
  152.4155  145.0810  158.6228 C   0  0  0  0  0  0  0  0  0  0  0  0
  152.3067  143.2679  160.3962 C   0  0  0  0  0  0  0  0  0  0  0  0
  151.7757  142.7584  158.0338 N   0  0  0  0  0  0  0  0  0  0  0  0
  150.9836  141.6851  157.8596 C   0  0  0  0  0  0  0  0  0  0  0  0
  150.0400  141.4001  158.5976 O   0  0  0  0  0  0  0  0  0  0  0  0
  151.3198  140.7907  156.6624 C   0  0  0  0  0  0  0  0  0  0  0  0
  150.2841  140.8390  155.6447 N   0  0  0  0  0  0  0  0  0  0  0  0
  149.2058  141.6947  155.5602 C   0  0  0  0  0  0  0  0  0  0  0  0
  148.5086  141.3677  154.4317 C   0  0  0  0  0  0  0  0  0  0  0  0
  147.2564  141.9944  153.8853 C   0  0  0  0  0  0  0  0  0  0  0  0
  146.0252  141.6126  154.7174 C   0  0  0  0  0  0  0  0  0  0  0  0
  145.6902  140.2615  154.4849 O   0  0  0  0  0  0  0  0  0  0  0  0
  149.2535  140.2838  153.8855 C   0  0  0  0  0  0  0  0  0  0  0  0
  150.3132  139.9689  154.6123 N   0  0  0  0  0  0  0  0  0  0  0  0
  150.0695  144.8600  160.0621 H   0  0  0  0  0  0  0  0  0  0  0  0
  149.6636  143.2080  159.6179 H   0  0  0  0  0  0  0  0  0  0  0  0
  149.7379  144.4590  158.3825 H   0  0  0  0  0  0  0  0  0  0  0  0
  152.0288  145.4345  157.6663 H   0  0  0  0  0  0  0  0  0  0  0  0
  153.4906  144.9403  158.5125 H   0  0  0  0  0  0  0  0  0  0  0  0
  152.2738  145.8821  159.3489 H   0  0  0  0  0  0  0  0  0  0  0  0
  152.1808  143.9948  161.1993 H   0  0  0  0  0  0  0  0  0  0  0  0
  153.3749  143.0703  160.3082 H   0  0  0  0  0  0  0  0  0  0  0  0
  151.8256  142.3421  160.7142 H   0  0  0  0  0  0  0  0  0  0  0  0
  152.5163  142.8816  157.3587 H   0  0  0  0  0  0  0  0  0  0  0  0
  152.2717  141.0819  156.2146 H   0  0  0  0  0  0  0  0  0  0  0  0
  151.4278  139.7611  157.0045 H   0  0  0  0  0  0  0  0  0  0  0  0
  149.0277  142.4593  156.3023 H   0  0  0  0  0  0  0  0  0  0  0  0
  147.3545  143.0805  153.8643 H   0  0  0  0  0  0  0  0  0  0  0  0
  147.0987  141.6908  152.8496 H   0  0  0  0  0  0  0  0  0  0  0  0
  146.2206  141.7528  155.7810 H   0  0  0  0  0  0  0  0  0  0  0  0
  145.1727  142.2400  154.4551 H   0  0  0  0  0  0  0  0  0  0  0  0
  145.0010  140.2293  153.8391 H   0  0  0  0  0  0  0  0  0  0  0  0
  149.0557  139.7202  152.9854 H   0  0  0  0  0  0  0  0  0  0  0  0
  1  2  1  0  0  0  0
  1 17  1  0  0  0  0
  1 18  1  0  0  0  0
  1 19  1  0  0  0  0
  2  3  1  0  0  0  0
  2  4  1  0  0  0  0
  2  5  1  0  0  0  0
  3 20  1  0  0  0  0
  3 21  1  0  0  0  0
  3 22  1  0  0  0  0
  4 23  1  0  0  0  0
  4 24  1  0  0  0  0
  4 25  1  0  0  0  0
  5  6  1  0  0  0  0
  5 26  1  0  0  0  0
  6  7  2  0  0  0  0
  6  8  1  0  0  0  0
  8  9  1  0  0  0  0
  8 27  1  0  0  0  0
  8 28  1  0  0  0  0
  9 16  1  0  0  0  0
  9 10  1  0  0  0  0
 10 11  2  0  0  0  0
 10 29  1  0  0  0  0
 11 12  1  0  0  0  0
 11 15  1  0  0  0  0
 12 13  1  0  0  0  0
 12 30  1  0  0  0  0
 12 31  1  0  0  0  0
 13 14  1  0  0  0  0
 13 32  1  0  0  0  0
 13 33  1  0  0  0  0
 14 34  1  0  0  0  0
 15 16  2  0  0  0  0
 15 35  1  0  0  0  0
M  END
> <s_m_source_file>
AV-unprocessed.smi

> <i_m_source_file_index>
3213

> <i_lp_mmshare_version>
43012

> <i_f3d_flags>
0

> <s_epik_input>
W0NIM11DKFtDSDNdKShbQ0gzXSlbTkhdQyg9TylbQ0gyXW4xW2NIXWMoW2NIXW4xKVtDSDJdW0NIMl1bT0hd

> <s_epik_cmdline>
J2VwaWtfcHl0aG9uJywgJy1waCcsICc3LjAnLCAnLXRuJywgJzgnLCAnLW1hJywgJzIwMCcsICctbWV0YWxfYmluZGluZycsICctaW1hZScsICc8aW5maWxlLm1hZT4nLCAnLW9tYWUnLCAnPG91dGZpbGUubWFlPic=

> <r_lp_tautomer_probability>
1

> <r_epik_Ionization_Penalty>
3.05354e-05

> <r_epik_Ionization_Penalty_Charging>
0

> <r_epik_Ionization_Penalty_Neutral>
3.05354e-05

> <r_epik_State_Penalty>
-0

> <r_epik_Charging_Adjusted_Penalty>
0

> <i_epik_Tot_Q>
0

> <i_epik_Tot_abs_Q>
0

> <r_epik_Metal_State_Penalty>
-0

> <b_epik_Metal_Only>
0

> <s_lp_Force_Field>
OPLS_2005

> <r_lp_Energy>
4.97676

> <b_lp_Chiralities_Consistent>
1

> <s_lp_Variant>
AV-unprocessed.smi:3213-1

> <Gold.Version>
5.8.1

> <Gold.Id.Protein>
6NUR|6NUR_protein|mol2

> <Gold.PLP.Fitness>
43.4236

> <Gold.PLP.PLP>
-33.7216

> <Gold.PLP.part.hbond>
-2.2671

> <Gold.PLP.part.metal>
0.0000

> <Gold.PLP.part.buried>
-0.9796

> <Gold.PLP.part.nonpolar>
-30.5422

> <Gold.PLP.part.repulsive>
0.1420

> <Gold.PLP.ligand.clash>
0.0000

> <Gold.PLP.ligand.torsion>
0.7605

> <Gold.PLP.Chemscore.Hbond>
2.0000

> <Gold.PLP.Chemscore.CHOScore>
1.7316

> <Gold.PLP.Chemscore.Metal>
0.0000

> <Gold.Chemscore.Hbonds>
donor molecule, donor type, donor heavy atom, donor atom, acceptor molecule, acceptor atom, score
      L1  H    14    34       P1 10175  1.00
      P1  H  7989  7998       L1    16  0.76
      L1  C    10    29       P1  8028  0.80
      L1  C    15    35       P1  7957  0.76

> <Gold.PLP.Chemscore.Internal.Correction>
0.0282

> <Gold.Rescore>
     Score         DG    S(hbond)    S(metal)    S(lipo)     H(rot)  DE(clash)    DE(int)     intcor
     11.52     -14.37       1.73        0.00      80.87       2.48       1.03       1.82       ----

> <Gold.Chemscore.Fitness>
11.5176

> <Gold.Chemscore.DG>
-14.3685

> <Gold.Chemscore.ZeroCoef>
-5.4800

> <Gold.Chemscore.Hbond>
1.7259

> <Gold.Chemscore.Metal>
0.0000

> <Gold.Chemscore.Lipo>
80.8727

> <Gold.Chemscore.Internal_Hbond>
0.0000

> <Gold.Chemscore.DEClash>
1.0311

> <Gold.Chemscore.DEInternal>
1.8198

> <Gold.Chemscore.Rot>
2.4758

> <Gold.Chemscore.Internal.Correction>
   9.000000E+99

> <Gold.Chemscore.Hbonds>
donor molecule, donor type, donor heavy atom, donor atom, acceptor molecule, acceptor atom, score
      L1  H    14    34       P1 10175  1.00
      P1  H  7989  7998       L1    16  0.03

> <Gold.Chemscore.Hbond.Weighted>
-5.7644

> <Gold.Chemscore.Metal.Weighted>
-0.0000

> <Gold.Chemscore.Lipo.Weighted>
-9.4621

> <Gold.Chemscore.Internal_Hbond.Weighted>
0.0000

> <Gold.Chemscore.DEClash.Weighted>
1.0311

> <Gold.Chemscore.DEInternal.Weighted>
1.8198

> <Gold.Chemscore.Rot.Weighted>
6.3380

> <Gold.Chemscore.Internal.Correction.Weighted>
   9.000000E+99

> <Gold.Protein.RotatedTorsions>
[ 6907 6896 6895 6894 ] final -118.76 input  -60.11 | X-H torsion
[ 7974 7965 7964 7962 ] final -127.54 input  175.53 | X-H torsion
[ 8008 7997 7996 7995 ] final  -60.72 input   59.86 | X-H torsion
[ 10167 10162 10161 10158 ] final  -66.70 input  -65.29 | X-H torsion
[ 10718 10713 10712 10709 ] final -114.46 input   66.30 | X-H torsion
[ 10763 10752 10751 10750 ] final   25.12 input  -60.55 | X-H torsion
[ 11005 11000 10999 10996 ] final   49.44 input  -57.11 | X-H torsion

> <Gold.Protein.ActiveResidues>
 VAL166  LYS551  ARG553  GLY616  TRP617  ASP618  TYR619  PRO620  LYS621  CYS622 
 ASP623  PHE694  ASN695  SER759  ASP760  ASP761  ALA762  ILE779  LEU786  VAL792 
 PHE793  MET794  SER795  GLU796  ALA797  LYS798  CYS799  TRP800  GLU811  SER814 

> <Gold.Protein.RotatedAtoms>
  150.8247  133.8192  159.3123 H   0  0  0  0  0  0  0  0  0  0  0  0  # atno 6907 bound_to 6896
  151.5940  135.1050  160.0055 H   0  0  0  0  0  0  0  0  0  0  0  0  # atno 6908 bound_to 6896
  152.4333  133.7275  159.6625 H   0  0  0  0  0  0  0  0  0  0  0  0  # atno 6909 bound_to 6896
  144.9761  140.7594  143.4641 H   0  0  0  0  0  0  0  0  0  0  0  0  # atno 7974 bound_to 7965
  154.4412  140.1033  156.6318 H   0  0  0  0  0  0  0  0  0  0  0  0  # atno 8008 bound_to 7997
  155.5597  140.3487  155.4469 H   0  0  0  0  0  0  0  0  0  0  0  0  # atno 8009 bound_to 7997
  156.0469  140.1295  157.0083 H   0  0  0  0  0  0  0  0  0  0  0  0  # atno 8010 bound_to 7997
  140.5637  143.2314  151.6676 H   0  0  0  0  0  0  0  0  0  0  0  0  # atno 10167 bound_to 10162
  156.0831  130.6028  150.8777 H   0  0  0  0  0  0  0  0  0  0  0  0  # atno 10718 bound_to 10713
  153.0715  135.6590  154.0238 H   0  0  0  0  0  0  0  0  0  0  0  0  # atno 10763 bound_to 10752
  153.9882  135.2948  155.3415 H   0  0  0  0  0  0  0  0  0  0  0  0  # atno 10764 bound_to 10752
  154.7090  135.5213  153.8708 H   0  0  0  0  0  0  0  0  0  0  0  0  # atno 10765 bound_to 10752
  140.1104  134.4963  155.8683 H   0  0  0  0  0  0  0  0  0  0  0  0  # atno 11005 bound_to 11000
  145.2488  139.2040  143.4953 LP  0  0  0  0  0  0  0  0  0  0  0  0  # atno 17320 bound_to 7965
  146.3395  140.2398  142.8595 LP  0  0  0  0  0  0  0  0  0  0  0  0  # atno 17321 bound_to 7965
  139.5082  144.3618  152.0555 LP  0  0  0  0  0  0  0  0  0  0  0  0  # atno 17342 bound_to 10162
  140.2747  144.3926  150.6139 LP  0  0  0  0  0  0  0  0  0  0  0  0  # atno 17343 bound_to 10162
  157.5956  131.0943  150.9047 LP  0  0  0  0  0  0  0  0  0  0  0  0  # atno 17370 bound_to 10713
  156.9214  130.5316  149.5279 LP  0  0  0  0  0  0  0  0  0  0  0  0  # atno 17371 bound_to 10713
  141.2128  133.6725  156.6693 LP  0  0  0  0  0  0  0  0  0  0  0  0  # atno 17394 bound_to 11000
  140.3099  134.8094  157.4168 LP  0  0  0  0  0  0  0  0  0  0  0  0  # atno 17395 bound_to 11000

$$$$
