AV-unprocessed.smi:242|AV-procd|sdf|1845|dock10
  -GOLD-   2262020463D 1   1.00000     0.00000
 Structure written by MMmdl.
 58 61  0  0  0  0  0  0  0  0  2 V2000
  145.7473  130.8661  151.3591 C   0  0  0  0  0  0  0  0  0  0  0  0
  144.9677  132.1205  150.9198 C   0  0  0  0  0  0  0  0  0  0  0  0
  145.7613  132.8620  149.8271 C   0  0  0  0  0  0  0  0  0  0  0  0
  144.6729  133.0195  152.0711 N   0  3  1  0  0  0  0  0  0  0  0  0
  145.8467  133.3857  152.9049 C   0  0  0  0  0  0  0  0  0  0  0  0
  145.7133  134.8767  153.2384 C   0  0  0  0  0  0  0  0  0  0  0  0
  144.2504  135.2041  152.9256 C   0  0  1  0  0  0  0  0  0  0  0  0
  143.9828  136.6167  152.6473 N   0  0  0  0  0  0  0  0  0  0  0  0
  142.6103  136.9691  152.3046 C   0  0  0  0  0  0  0  0  0  0  0  0
  144.4925  137.4702  153.5623 C   0  0  0  0  0  0  0  0  0  0  0  0
  143.8136  137.6093  154.7269 N   0  0  0  0  0  0  0  0  0  0  0  0
  144.2634  138.4504  155.6635 C   0  0  0  0  0  0  0  0  0  0  0  0
  145.3469  139.2298  155.6356 N   0  0  0  0  0  0  0  0  0  0  0  0
  146.0323  139.0869  154.4647 C   0  0  0  0  0  0  0  0  0  0  0  0
  145.6812  138.2320  153.3833 C   0  0  0  0  0  0  0  0  0  0  0  0
  146.6176  138.3459  152.3629 N   0  0  0  0  0  0  0  0  0  0  0  0
  147.4749  139.2194  152.8165 C   0  0  0  0  0  0  0  0  0  0  0  0
  147.1931  139.7258  154.0657 N   0  0  0  0  0  0  0  0  0  0  0  0
  147.9663  140.7133  154.8030 C   0  0  0  0  0  0  0  0  0  0  0  0
  149.4816  140.3985  154.8770 C   0  0  0  0  0  0  0  0  0  0  0  0
  150.0992  140.9480  153.7256 O   0  0  0  0  0  0  0  0  0  0  0  0
  150.1052  141.0549  156.1253 C   0  0  0  0  0  0  0  0  0  0  0  0
  151.5678  140.6261  156.3387 C   0  0  0  0  0  0  0  0  0  0  0  0
  151.6531  139.2081  156.4049 O   0  0  0  0  0  0  0  0  0  0  0  0
  151.2529  138.5797  155.1934 C   0  0  0  0  0  0  0  0  0  0  0  0
  149.7717  138.8817  154.9035 C   0  0  0  0  0  0  0  0  0  0  0  0
  143.9824  134.2838  151.7355 C   0  0  0  0  0  0  0  0  0  0  0  0
  145.9939  130.2404  150.5006 H   0  0  0  0  0  0  0  0  0  0  0  0
  145.1708  130.2440  152.0437 H   0  0  0  0  0  0  0  0  0  0  0  0
  146.6828  131.1318  151.8526 H   0  0  0  0  0  0  0  0  0  0  0  0
  144.0179  131.7940  150.4931 H   0  0  0  0  0  0  0  0  0  0  0  0
  145.9978  132.1964  148.9963 H   0  0  0  0  0  0  0  0  0  0  0  0
  146.7035  133.2490  150.2167 H   0  0  0  0  0  0  0  0  0  0  0  0
  145.2043  133.7009  149.4103 H   0  0  0  0  0  0  0  0  0  0  0  0
  145.8382  132.7778  153.8100 H   0  0  0  0  0  0  0  0  0  0  0  0
  146.7919  133.2059  152.3911 H   0  0  0  0  0  0  0  0  0  0  0  0
  145.9867  135.1007  154.2703 H   0  0  0  0  0  0  0  0  0  0  0  0
  146.3740  135.4518  152.5873 H   0  0  0  0  0  0  0  0  0  0  0  0
  143.6277  134.8769  153.7596 H   0  0  0  0  0  0  0  0  0  0  0  0
  142.4787  138.0509  152.2478 H   0  0  0  0  0  0  0  0  0  0  0  0
  141.9118  136.5774  153.0450 H   0  0  0  0  0  0  0  0  0  0  0  0
  142.3443  136.5553  151.3319 H   0  0  0  0  0  0  0  0  0  0  0  0
  143.6692  138.5082  156.5636 H   0  0  0  0  0  0  0  0  0  0  0  0
  148.3382  139.5282  152.2449 H   0  0  0  0  0  0  0  0  0  0  0  0
  147.8044  141.6882  154.3410 H   0  0  0  0  0  0  0  0  0  0  0  0
  147.5496  140.7836  155.8086 H   0  0  0  0  0  0  0  0  0  0  0  0
  150.1649  140.2725  153.0677 H   0  0  0  0  0  0  0  0  0  0  0  0
  150.0402  142.1419  156.0599 H   0  0  0  0  0  0  0  0  0  0  0  0
  149.5315  140.7684  157.0077 H   0  0  0  0  0  0  0  0  0  0  0  0
  152.2105  141.0049  155.5424 H   0  0  0  0  0  0  0  0  0  0  0  0
  151.9452  141.0434  157.2724 H   0  0  0  0  0  0  0  0  0  0  0  0
  151.8893  138.9106  154.3713 H   0  0  0  0  0  0  0  0  0  0  0  0
  151.4004  137.5042  155.2916 H   0  0  0  0  0  0  0  0  0  0  0  0
  149.1640  138.4130  155.6786 H   0  0  0  0  0  0  0  0  0  0  0  0
  149.4833  138.4134  153.9619 H   0  0  0  0  0  0  0  0  0  0  0  0
  144.4124  134.7090  150.8263 H   0  0  0  0  0  0  0  0  0  0  0  0
  142.9160  134.1264  151.5703 H   0  0  0  0  0  0  0  0  0  0  0  0
  144.0445  132.5190  152.6832 H   0  0  0  0  0  0  0  0  0  0  0  0
  1  2  1  0  0  0  0
  1 28  1  0  0  0  0
  1 29  1  0  0  0  0
  1 30  1  0  0  0  0
  2  3  1  0  0  0  0
  2  4  1  0  0  0  0
  2 31  1  0  0  0  0
  3 32  1  0  0  0  0
  3 33  1  0  0  0  0
  3 34  1  0  0  0  0
  4 27  1  0  0  0  0
  4  5  1  0  0  0  0
  4 58  1  0  0  0  0
  5  6  1  0  0  0  0
  5 35  1  0  0  0  0
  5 36  1  0  0  0  0
  6  7  1  0  0  0  0
  6 37  1  0  0  0  0
  6 38  1  0  0  0  0
  7  8  1  0  0  0  0
  7 27  1  0  0  0  0
  7 39  1  0  0  0  0
  8  9  1  0  0  0  0
  8 10  1  0  0  0  0
  9 40  1  0  0  0  0
  9 41  1  0  0  0  0
  9 42  1  0  0  0  0
 10 15  1  0  0  0  0
 10 11  2  0  0  0  0
 11 12  1  0  0  0  0
 12 13  2  0  0  0  0
 12 43  1  0  0  0  0
 13 14  1  0  0  0  0
 14 18  1  0  0  0  0
 14 15  2  0  0  0  0
 15 16  1  0  0  0  0
 16 17  2  0  0  0  0
 17 18  1  0  0  0  0
 17 44  1  0  0  0  0
 18 19  1  0  0  0  0
 19 20  1  0  0  0  0
 19 45  1  0  0  0  0
 19 46  1  0  0  0  0
 20 26  1  0  0  0  0
 20 21  1  0  0  0  0
 20 22  1  0  0  0  0
 21 47  1  0  0  0  0
 22 23  1  0  0  0  0
 22 48  1  0  0  0  0
 22 49  1  0  0  0  0
 23 24  1  0  0  0  0
 23 50  1  0  0  0  0
 23 51  1  0  0  0  0
 24 25  1  0  0  0  0
 25 26  1  0  0  0  0
 25 52  1  0  0  0  0
 25 53  1  0  0  0  0
 26 54  1  0  0  0  0
 26 55  1  0  0  0  0
 27 56  1  0  0  0  0
 27 57  1  0  0  0  0
M  CHG  1   4   1
M  END
> <s_m_source_file>
AV-unprocessed.smi

> <i_m_source_file_index>
242

> <i_lp_mmshare_version>
43012

> <i_f3d_flags>
0

> <s_epik_input>
W0NIM11bQ0hdKFtDSDNdKU4xW0NIMl1bQ0gyXVtDQEhdKFtDSDJdMSlOKFtDSDNdKWMobltjSF1uMiljKGMyMyluW2NIXW4zW0NIMl1DNChbT0hdKVtDSDJdW0NIMl1PW0NIMl1bQ0gyXTQ=

> <s_epik_cmdline>
J2VwaWtfcHl0aG9uJywgJy1waCcsICc3LjAnLCAnLXRuJywgJzgnLCAnLW1hJywgJzIwMCcsICctbWV0YWxfYmluZGluZycsICctaW1hZScsICc8aW5maWxlLm1hZT4nLCAnLW9tYWUnLCAnPG91dGZpbGUubWFlPic=

> <r_lp_tautomer_probability>
1

> <r_epik_Ionization_Penalty>
0.000825961

> <r_epik_Ionization_Penalty_Charging>
0.00034898

> <r_epik_Ionization_Penalty_Neutral>
0.000476981

> <r_epik_State_Penalty>
-0

> <r_epik_Charging_Adjusted_Penalty>
0.00034898

> <i_epik_Tot_Q>
1

> <i_epik_Tot_abs_Q>
1

> <r_epik_Metal_State_Penalty>
-0

> <b_epik_Metal_Only>
0

> <s_lp_Force_Field>
OPLS_2005

> <r_lp_Energy>
46.4754

> <b_lp_Chiralities_Consistent>
1

> <s_lp_Variant>
AV-unprocessed.smi:242-2

> <Gold.Version>
5.8.1

> <Gold.Id.Protein>
6NUR|6NUR_protein|mol2

> <Gold.PLP.Fitness>
48.8954

> <Gold.PLP.PLP>
-37.2385

> <Gold.PLP.part.hbond>
-2.9799

> <Gold.PLP.part.metal>
0.0000

> <Gold.PLP.part.buried>
-4.5729

> <Gold.PLP.part.nonpolar>
-29.3942

> <Gold.PLP.part.repulsive>
0.4643

> <Gold.PLP.ligand.clash>
0.0000

> <Gold.PLP.ligand.torsion>
0.9620

> <Gold.PLP.Chemscore.Hbond>
3.3869

> <Gold.PLP.Chemscore.CHOScore>
1.0000

> <Gold.PLP.Chemscore.Metal>
0.0000

> <Gold.Chemscore.Hbonds>
donor molecule, donor type, donor heavy atom, donor atom, acceptor molecule, acceptor atom, score
      L1  H    21    47       P1  7957  0.74
      P1  H  8011  8017       L1    21  0.56
      L1  C    17    44       P1  7957  0.25

> <Gold.PLP.Chemscore.Internal.Correction>
0.4200

> <Gold.Rescore>
     Score         DG    S(hbond)    S(metal)    S(lipo)     H(rot)  DE(clash)    DE(int)     intcor
     12.49     -13.34       1.17        0.00      88.32       2.50       0.01       0.84       ----

> <Gold.Chemscore.Fitness>
12.4901

> <Gold.Chemscore.DG>
-13.3376

> <Gold.Chemscore.ZeroCoef>
-5.4800

> <Gold.Chemscore.Hbond>
1.1746

> <Gold.Chemscore.Metal>
0.0000

> <Gold.Chemscore.Lipo>
88.3191

> <Gold.Chemscore.Internal_Hbond>
0.0000

> <Gold.Chemscore.DEClash>
0.0058

> <Gold.Chemscore.DEInternal>
0.8417

> <Gold.Chemscore.Rot>
2.4996

> <Gold.Chemscore.Internal.Correction>
   9.000000E+99

> <Gold.Chemscore.Hbonds>
donor molecule, donor type, donor heavy atom, donor atom, acceptor molecule, acceptor atom, score
      L1  H    21    47       P1  7957  0.71
      P1  H  8011  8017       L1    21  0.04

> <Gold.Chemscore.Hbond.Weighted>
-3.9232

> <Gold.Chemscore.Metal.Weighted>
-0.0000

> <Gold.Chemscore.Lipo.Weighted>
-10.3333

> <Gold.Chemscore.Internal_Hbond.Weighted>
0.0000

> <Gold.Chemscore.DEClash.Weighted>
0.0058

> <Gold.Chemscore.DEInternal.Weighted>
0.8417

> <Gold.Chemscore.Rot.Weighted>
6.3990

> <Gold.Chemscore.Internal.Correction.Weighted>
   9.000000E+99

> <Gold.Protein.RotatedTorsions>
[ 6907 6896 6895 6894 ] final   29.83 input  -60.11 | X-H torsion
[ 7974 7965 7964 7962 ] final -153.26 input  175.53 | X-H torsion
[ 8008 7997 7996 7995 ] final -101.85 input   59.86 | X-H torsion
[ 10167 10162 10161 10158 ] final  -14.31 input  -65.29 | X-H torsion
[ 10718 10713 10712 10709 ] final  -46.49 input   66.30 | X-H torsion
[ 10763 10752 10751 10750 ] final   72.40 input  -60.55 | X-H torsion
[ 11005 11000 10999 10996 ] final -110.16 input  -57.11 | X-H torsion

> <Gold.Protein.ActiveResidues>
 VAL166  LYS551  ARG553  GLY616  TRP617  ASP618  TYR619  PRO620  LYS621  CYS622 
 ASP623  PHE694  ASN695  SER759  ASP760  ASP761  ALA762  ILE779  LEU786  VAL792 
 PHE793  MET794  SER795  GLU796  ALA797  LYS798  CYS799  TRP800  GLU811  SER814 

> <Gold.Protein.RotatedAtoms>
  152.0373  134.9732  160.0573 H   0  0  0  0  0  0  0  0  0  0  0  0  # atno 6907 bound_to 6896
  152.1185  133.4335  159.4673 H   0  0  0  0  0  0  0  0  0  0  0  0  # atno 6908 bound_to 6896
  150.6847  134.2482  159.4543 H   0  0  0  0  0  0  0  0  0  0  0  0  # atno 6909 bound_to 6896
  144.7750  140.4550  143.5880 H   0  0  0  0  0  0  0  0  0  0  0  0  # atno 7974 bound_to 7965
  154.8483  140.0432  157.1587 H   0  0  0  0  0  0  0  0  0  0  0  0  # atno 8008 bound_to 7997
  154.8970  140.2995  155.5318 H   0  0  0  0  0  0  0  0  0  0  0  0  # atno 8009 bound_to 7997
  156.2995  140.2383  156.3993 H   0  0  0  0  0  0  0  0  0  0  0  0  # atno 8010 bound_to 7997
  140.7199  143.5334  150.9493 H   0  0  0  0  0  0  0  0  0  0  0  0  # atno 10167 bound_to 10162
  156.2178  130.4164  149.9031 H   0  0  0  0  0  0  0  0  0  0  0  0  # atno 10718 bound_to 10713
  153.0456  135.5101  154.7738 H   0  0  0  0  0  0  0  0  0  0  0  0  # atno 10763 bound_to 10752
  154.6640  135.2943  154.9831 H   0  0  0  0  0  0  0  0  0  0  0  0  # atno 10764 bound_to 10752
  154.0672  135.6682  153.4872 H   0  0  0  0  0  0  0  0  0  0  0  0  # atno 10765 bound_to 10752
  141.0807  133.9225  157.2294 H   0  0  0  0  0  0  0  0  0  0  0  0  # atno 11005 bound_to 11000
  145.6212  139.1524  143.3021 LP  0  0  0  0  0  0  0  0  0  0  0  0  # atno 17320 bound_to 7965
  146.1924  140.6322  142.9140 LP  0  0  0  0  0  0  0  0  0  0  0  0  # atno 17321 bound_to 7965
  139.9055  143.6783  152.3124 LP  0  0  0  0  0  0  0  0  0  0  0  0  # atno 17342 bound_to 10162
  139.7148  144.7614  151.1052 LP  0  0  0  0  0  0  0  0  0  0  0  0  # atno 17343 bound_to 10162
  156.6688  130.8812  151.3559 LP  0  0  0  0  0  0  0  0  0  0  0  0  # atno 17370 bound_to 10713
  157.7072  130.9399  150.0970 LP  0  0  0  0  0  0  0  0  0  0  0  0  # atno 17371 bound_to 10713
  139.9621  135.0151  156.9288 LP  0  0  0  0  0  0  0  0  0  0  0  0  # atno 17394 bound_to 11000
  140.5475  134.0660  155.7359 LP  0  0  0  0  0  0  0  0  0  0  0  0  # atno 17395 bound_to 11000

$$$$
