AV-unprocessed.smi:40|AV-procd|sdf|372|dock2
  -GOLD-   2262016213D 1   1.00000     0.00000
 Structure written by MMmdl.
 47 48  0  0  0  0  0  0  0  0  1 V2000
  153.6755  142.0037  162.3569 C   0  0  0  0  0  0  0  0  0  0  0  0
  152.7119  142.9361  161.6114 C   0  0  0  0  0  0  0  0  0  0  0  0
  153.1727  143.3012  160.1905 C   0  0  0  0  0  0  0  0  0  0  0  0
  152.7960  142.2535  159.1278 C   0  0  0  0  0  0  0  0  0  0  0  0
  153.4236  140.8782  159.3914 C   0  0  0  0  0  0  0  0  0  0  0  0
  153.1760  140.0354  158.2790 O   0  0  0  0  0  0  0  0  0  0  0  0
  152.3436  138.9849  158.3835 C   0  0  0  0  0  0  0  0  0  0  0  0
  151.8632  138.5909  159.4458 O   0  0  0  0  0  0  0  0  0  0  0  0
  152.1137  138.3546  157.0928 N   0  0  0  0  0  0  0  0  0  0  0  0
  151.3443  137.2799  156.7870 C   0  0  0  0  0  0  0  0  0  0  0  0
  150.9734  136.3831  157.6886 N   0  0  0  0  0  0  0  0  0  0  0  0
  150.2073  135.2839  157.4094 C   0  0  0  0  0  0  0  0  0  0  0  0
  149.9006  134.4907  158.2980 O   0  0  0  0  0  0  0  0  0  0  0  0
  149.8042  135.1020  156.0663 N   0  0  0  0  0  0  0  0  0  0  0  0
  148.9365  133.9215  155.6912 C   0  0  1  0  0  0  0  0  0  0  0  0
  148.1029  134.3188  154.6439 O   0  0  0  0  0  0  0  0  0  0  0  0
  147.9679  133.2535  153.7130 C   0  0  2  0  0  0  0  0  0  0  0  0
  146.7737  132.3771  154.1395 C   0  0  0  0  0  0  0  0  0  0  0  0
  149.3422  132.5709  153.7622 C   0  0  2  0  0  0  0  0  0  0  0  0
  149.2920  131.2238  153.3360 O   0  0  0  0  0  0  0  0  0  0  0  0
  149.7449  132.6869  155.2269 C   0  0  1  0  0  0  0  0  0  0  0  0
  151.1499  132.8168  155.3559 O   0  0  0  0  0  0  0  0  0  0  0  0
  150.1984  136.0152  155.1010 C   0  0  0  0  0  0  0  0  0  0  0  0
  150.9534  137.0923  155.4059 C   0  0  0  0  0  0  0  0  0  0  0  0
  151.3249  137.9630  154.4513 F   0  0  0  0  0  0  0  0  0  0  0  0
  148.3038  133.6974  156.5508 H   0  0  0  0  0  0  0  0  0  0  0  0
  147.7738  133.6589  152.7195 H   0  0  0  0  0  0  0  0  0  0  0  0
  150.0372  133.1290  153.1325 H   0  0  0  0  0  0  0  0  0  0  0  0
  149.3988  131.8262  155.8014 H   0  0  0  0  0  0  0  0  0  0  0  0
  153.3342  141.8348  163.3783 H   0  0  0  0  0  0  0  0  0  0  0  0
  154.6772  142.4309  162.4084 H   0  0  0  0  0  0  0  0  0  0  0  0
  153.7478  141.0302  161.8720 H   0  0  0  0  0  0  0  0  0  0  0  0
  151.7192  142.4861  161.5735 H   0  0  0  0  0  0  0  0  0  0  0  0
  152.6040  143.8548  162.1890 H   0  0  0  0  0  0  0  0  0  0  0  0
  152.7199  144.2571  159.9245 H   0  0  0  0  0  0  0  0  0  0  0  0
  154.2508  143.4655  160.1822 H   0  0  0  0  0  0  0  0  0  0  0  0
  151.7126  142.1386  159.0977 H   0  0  0  0  0  0  0  0  0  0  0  0
  153.0964  142.6036  158.1394 H   0  0  0  0  0  0  0  0  0  0  0  0
  154.4973  140.9708  159.5595 H   0  0  0  0  0  0  0  0  0  0  0  0
  152.9854  140.4402  160.2892 H   0  0  0  0  0  0  0  0  0  0  0  0
  152.5672  138.8220  156.3215 H   0  0  0  0  0  0  0  0  0  0  0  0
  146.6089  131.5618  153.4347 H   0  0  0  0  0  0  0  0  0  0  0  0
  145.8574  132.9666  154.1743 H   0  0  0  0  0  0  0  0  0  0  0  0
  146.9210  131.9387  155.1266 H   0  0  0  0  0  0  0  0  0  0  0  0
  149.2394  131.2124  152.3922 H   0  0  0  0  0  0  0  0  0  0  0  0
  151.3899  132.5895  156.2417 H   0  0  0  0  0  0  0  0  0  0  0  0
  149.9025  135.8663  154.0725 H   0  0  0  0  0  0  0  0  0  0  0  0
  1  2  1  0  0  0  0
  1 30  1  0  0  0  0
  1 31  1  0  0  0  0
  1 32  1  0  0  0  0
  2  3  1  0  0  0  0
  2 33  1  0  0  0  0
  2 34  1  0  0  0  0
  3  4  1  0  0  0  0
  3 35  1  0  0  0  0
  3 36  1  0  0  0  0
  4  5  1  0  0  0  0
  4 37  1  0  0  0  0
  4 38  1  0  0  0  0
  5  6  1  0  0  0  0
  5 39  1  0  0  0  0
  5 40  1  0  0  0  0
  6  7  1  0  0  0  0
  7  8  2  0  0  0  0
  7  9  1  0  0  0  0
  9 10  1  0  0  0  0
  9 41  1  0  0  0  0
 10 24  1  0  0  0  0
 10 11  2  0  0  0  0
 11 12  1  0  0  0  0
 12 13  2  0  0  0  0
 12 14  1  0  0  0  0
 14 15  1  0  0  0  0
 14 23  1  0  0  0  0
 15 26  1  0  0  0  0
 15 21  1  0  0  0  0
 15 16  1  0  0  0  0
 16 17  1  0  0  0  0
 17 27  1  0  0  0  0
 17 18  1  0  0  0  0
 17 19  1  0  0  0  0
 18 42  1  0  0  0  0
 18 43  1  0  0  0  0
 18 44  1  0  0  0  0
 19 28  1  0  0  0  0
 19 20  1  0  0  0  0
 19 21  1  0  0  0  0
 20 45  1  0  0  0  0
 21 29  1  0  0  0  0
 21 22  1  0  0  0  0
 22 46  1  0  0  0  0
 23 24  2  0  0  0  0
 23 47  1  0  0  0  0
 24 25  1  0  0  0  0
M  END
> <s_m_source_file>
AV-unprocessed.smi

> <i_m_source_file_index>
40

> <i_lp_mmshare_version>
43012

> <i_f3d_flags>
0

> <s_epik_input>
W0NIM11bQ0gyXVtDSDJdW0NIMl1bQ0gyXU9DKD1PKVtOSF1jMW5jKD1PKW4oW2NIXWMxRilbQ0BASF0yT1tDQEhdKFtDSDNdKVtDQEBIXShbT0hdKVtDQEhdMltPSF0=

> <s_epik_cmdline>
J2VwaWtfcHl0aG9uJywgJy1waCcsICc3LjAnLCAnLXRuJywgJzgnLCAnLW1hJywgJzIwMCcsICctbWV0YWxfYmluZGluZycsICctaW1hZScsICc8aW5maWxlLm1hZT4nLCAnLW9tYWUnLCAnPG91dGZpbGUubWFlPic=

> <r_lp_tautomer_probability>
1

> <r_epik_Ionization_Penalty>
2.29506e-06

> <r_epik_Ionization_Penalty_Charging>
8.26867e-09

> <r_epik_Ionization_Penalty_Neutral>
2.2868e-06

> <r_epik_State_Penalty>
-0

> <r_epik_Charging_Adjusted_Penalty>
8.26867e-09

> <i_epik_Tot_Q>
0

> <i_epik_Tot_abs_Q>
0

> <r_epik_Metal_State_Penalty>
-0

> <b_epik_Metal_Only>
0

> <s_epik_Chemistry_Notes>
This compound has an ester and may undergo hydrolysis at high or low pH. This compound contains an acetal/aminal-like group ( X-CH(R)-Y where X, Y are N, S, or O) that may be acid/base labile, releasing an aldehyde.

> <s_lp_Force_Field>
OPLS_2005

> <r_lp_Energy>
39.9495

> <b_lp_Chiralities_Consistent>
1

> <s_lp_Variant>
AV-unprocessed.smi:40-6

> <Gold.Version>
5.8.1

> <Gold.Id.Protein>
6NUR|6NUR_protein|mol2

> <Gold.PLP.Fitness>
44.8648

> <Gold.PLP.PLP>
-38.4072

> <Gold.PLP.part.hbond>
-3.0000

> <Gold.PLP.part.metal>
0.0000

> <Gold.PLP.part.buried>
-2.8001

> <Gold.PLP.part.nonpolar>
-31.2777

> <Gold.PLP.part.repulsive>
0.5229

> <Gold.PLP.ligand.clash>
0.0000

> <Gold.PLP.ligand.torsion>
1.3760

> <Gold.PLP.Chemscore.Hbond>
2.0000

> <Gold.PLP.Chemscore.CHOScore>
1.0000

> <Gold.PLP.Chemscore.Metal>
0.0000

> <Gold.Chemscore.Hbonds>
donor molecule, donor type, donor heavy atom, donor atom, acceptor molecule, acceptor atom, score
      L1  H    20    45       P1 10747  0.76
      P1  H  6896  6907       L1    13  0.54
      L1  C    23    47       P1  7948  0.90

> <Gold.PLP.Chemscore.Internal.Correction>
0.2096

> <Gold.Rescore>
     Score         DG    S(hbond)    S(metal)    S(lipo)     H(rot)  DE(clash)    DE(int)     intcor
      9.30     -12.01       1.89        0.00      82.87       3.70       0.18       2.53       ----

> <Gold.Chemscore.Fitness>
9.3030

> <Gold.Chemscore.DG>
-12.0142

> <Gold.Chemscore.ZeroCoef>
-5.4800

> <Gold.Chemscore.Hbond>
1.8861

> <Gold.Chemscore.Metal>
0.0000

> <Gold.Chemscore.Lipo>
82.8682

> <Gold.Chemscore.Internal_Hbond>
0.0000

> <Gold.Chemscore.DEClash>
0.1817

> <Gold.Chemscore.DEInternal>
2.5294

> <Gold.Chemscore.Rot>
3.6957

> <Gold.Chemscore.Internal.Correction>
   9.000000E+99

> <Gold.Chemscore.Hbonds>
donor molecule, donor type, donor heavy atom, donor atom, acceptor molecule, acceptor atom, score
      L1  H    20    45       P1 10747  0.19
      P1  H  6896  6907       L1    13  0.53

> <Gold.Chemscore.Hbond.Weighted>
-6.2995

> <Gold.Chemscore.Metal.Weighted>
-0.0000

> <Gold.Chemscore.Lipo.Weighted>
-9.6956

> <Gold.Chemscore.Internal_Hbond.Weighted>
0.0000

> <Gold.Chemscore.DEClash.Weighted>
0.1817

> <Gold.Chemscore.DEInternal.Weighted>
2.5294

> <Gold.Chemscore.Rot.Weighted>
9.4610

> <Gold.Chemscore.Internal.Correction.Weighted>
   9.000000E+99

> <Gold.Protein.RotatedTorsions>
[ 6907 6896 6895 6894 ] final  -95.13 input  -60.11 | X-H torsion
[ 7974 7965 7964 7962 ] final -110.38 input  175.53 | X-H torsion
[ 8008 7997 7996 7995 ] final  168.83 input   59.86 | X-H torsion
[ 10167 10162 10161 10158 ] final   56.27 input  -65.29 | X-H torsion
[ 10718 10713 10712 10709 ] final   47.83 input   66.30 | X-H torsion
[ 10763 10752 10751 10750 ] final -122.49 input  -60.55 | X-H torsion
[ 11005 11000 10999 10996 ] final  -41.85 input  -57.11 | X-H torsion

> <Gold.Protein.ActiveResidues>
 VAL166  LYS551  ARG553  GLY616  TRP617  ASP618  TYR619  PRO620  LYS621  CYS622 
 ASP623  PHE694  ASN695  SER759  ASP760  ASP761  ALA762  ILE779  LEU786  VAL792 
 PHE793  MET794  SER795  GLU796  ALA797  LYS798  CYS799  TRP800  GLU811  SER814 

> <Gold.Protein.RotatedAtoms>
  150.6957  134.1705  159.4210 H   0  0  0  0  0  0  0  0  0  0  0  0  # atno 6907 bound_to 6896
  151.9683  135.0087  160.0560 H   0  0  0  0  0  0  0  0  0  0  0  0  # atno 6908 bound_to 6896
  152.1865  133.4708  159.5022 H   0  0  0  0  0  0  0  0  0  0  0  0  # atno 6909 bound_to 6896
  145.1689  140.8916  143.3547 H   0  0  0  0  0  0  0  0  0  0  0  0  # atno 7974 bound_to 7965
  156.1511  140.1580  156.8767 H   0  0  0  0  0  0  0  0  0  0  0  0  # atno 8008 bound_to 7997
  154.5072  140.0810  156.7955 H   0  0  0  0  0  0  0  0  0  0  0  0  # atno 8009 bound_to 7997
  155.3893  140.3409  155.4253 H   0  0  0  0  0  0  0  0  0  0  0  0  # atno 8010 bound_to 7997
  140.2106  144.3893  150.6490 H   0  0  0  0  0  0  0  0  0  0  0  0  # atno 10167 bound_to 10162
  157.4625  130.8205  149.7901 H   0  0  0  0  0  0  0  0  0  0  0  0  # atno 10718 bound_to 10713
  154.8690  135.4131  154.2790 H   0  0  0  0  0  0  0  0  0  0  0  0  # atno 10763 bound_to 10752
  153.3686  135.7006  153.6661 H   0  0  0  0  0  0  0  0  0  0  0  0  # atno 10764 bound_to 10752
  153.5532  135.3625  155.2740 H   0  0  0  0  0  0  0  0  0  0  0  0  # atno 10765 bound_to 10752
  141.0274  133.6835  156.2513 H   0  0  0  0  0  0  0  0  0  0  0  0  # atno 11005 bound_to 11000
  145.0253  139.3388  143.6052 LP  0  0  0  0  0  0  0  0  0  0  0  0  # atno 17320 bound_to 7965
  146.3471  139.9570  142.8722 LP  0  0  0  0  0  0  0  0  0  0  0  0  # atno 17321 bound_to 7965
  140.6326  143.2190  151.6463 LP  0  0  0  0  0  0  0  0  0  0  0  0  # atno 17342 bound_to 10162
  139.5181  144.3293  152.0840 LP  0  0  0  0  0  0  0  0  0  0  0  0  # atno 17343 bound_to 10162
  156.0035  130.3867  150.2516 LP  0  0  0  0  0  0  0  0  0  0  0  0  # atno 17370 bound_to 10713
  157.0695  131.0112  151.3195 LP  0  0  0  0  0  0  0  0  0  0  0  0  # atno 17371 bound_to 10713
  140.6466  134.5110  157.5574 LP  0  0  0  0  0  0  0  0  0  0  0  0  # atno 17394 bound_to 11000
  139.9185  134.8196  156.1287 LP  0  0  0  0  0  0  0  0  0  0  0  0  # atno 17395 bound_to 11000

$$$$
