#       Name:                AV-unprocessed.smi:3238
#       Creating user name   scv26
#       Creation time:       Fri Mar 27 18:23:42 2020


#       File generated by GOLD software.
#

@<TRIPOS>MOLECULE
AV-unprocessed.smi:3238
    43    45     1
SMALL
NO_CHARGES


@<TRIPOS>ATOM
      1 ****        -4.3790   1.7982   0.3386 C.3            1 S1                 0.0000
      2 ****        -3.8956   0.4789   0.7146 N.am           1 S1                 0.0000
      3 ****        -3.8776   0.0101   1.9715 C.2            1 S1                 0.0000
      4 ****        -4.2874   0.6525   2.9382 O.2            1 S1                 0.0000
      5 ****        -3.3185  -1.4003   2.1706 C.3            1 S1                 0.0000
      6 ****        -1.8256  -1.3953   2.0830 C.2            1 S1                 0.0000
      7 ****        -1.0693  -1.2610   3.1665 N.2            1 S1                 0.0000
      8 ****         0.2364  -1.2903   2.6563 O.3            1 S1                 0.0000
      9 ****         0.1069  -1.4615   1.3190 C.2            1 S1                 0.0000
     10 ****         1.3338  -1.4673   0.4693 C.3            1 S1                 0.0000
     11 ****         1.8283  -0.0463   0.1359 C.3            1 S1                 0.0000
     12 ****         0.9228   0.7581  -0.8226 C.3            1 S1                 0.0000
     13 ****         1.9158   1.2664  -1.8849 C.3            1 S1                 0.0000
     14 ****         2.3200   0.0936  -2.7966 C.3            1 S1                 0.0000
     15 ****         3.2354  -0.7430  -1.8838 C.3            1 S1                 0.0000
     16 ****         3.2083   0.0424  -0.5561 C.3            1 S1                 0.0000
     17 ****         3.1853   1.4799  -1.0667 C.3            1 S1                 0.0000
     18 ****        -1.1555  -1.5255   0.9040 N.2            1 S1                 0.0000
     19 ****        -4.3179   1.9220  -0.7426 H              1 S1                 0.0000
     20 ****        -3.7769   2.5785   0.8059 H              1 S1                 0.0000
     21 ****        -5.4189   1.9332   0.6390 H              1 S1                 0.0000
     22 ****        -3.5396  -0.1114  -0.0236 H              1 S1                 0.0000
     23 ****        -3.6302  -1.7882   3.1417 H              1 S1                 0.0000
     24 ****        -3.7290  -2.0716   1.4151 H              1 S1                 0.0000
     25 ****         2.1134  -2.0151   0.9995 H              1 S1                 0.0000
     26 ****         1.1174  -2.0302  -0.4386 H              1 S1                 0.0000
     27 ****         1.9071   0.5036   1.0757 H              1 S1                 0.0000
     28 ****         0.1279   0.1568  -1.2656 H              1 S1                 0.0000
     29 ****         0.4526   1.5887  -0.2948 H              1 S1                 0.0000
     30 ****         1.5635   2.1423  -2.4302 H              1 S1                 0.0000
     31 ****         1.4575  -0.4715  -3.1517 H              1 S1                 0.0000
     32 ****         2.8701   0.4487  -3.6690 H              1 S1                 0.0000
     33 ****         2.9048  -1.7761  -1.7847 H              1 S1                 0.0000
     34 ****         4.2480  -0.7672  -2.2885 H              1 S1                 0.0000
     35 ****         4.0425  -0.1913   0.1060 H              1 S1                 0.0000
     36 ****         4.0543   1.7380  -1.6747 H              1 S1                 0.0000
     37 ****         3.0707   2.2223  -0.2747 H              1 S1                 0.0000
     38 ****        -4.6572   1.5723   2.8069 LP             1 S1                 0.0000
     39 ****        -4.2507   0.2545   3.8549 LP             1 S1                 0.0000
     40 ****        -1.3611  -1.1626   4.1179 LP             1 S1                 0.0000
     41 ****         0.7495  -2.0497   3.0564 LP             1 S1                 0.0000
     42 ****         0.7064  -0.4300   2.8532 LP             1 S1                 0.0000
     43 ****        -1.5151  -1.6386  -0.0223 LP             1 S1                 0.0000
@<TRIPOS>BOND
    1    1    2 1     
    2    1   19 1     
    3    1   20 1     
    4    1   21 1     
    5    2    3 am    
    6    2   22 1     
    7    3    4 2     
    8    3    5 1     
    9    5    6 1     
   10    5   23 1     
   11    5   24 1     
   12    6   18 1     
   13    6    7 2     
   14    7    8 1     
   15    8    9 1     
   16    9   10 1     
   17    9   18 2     
   18   10   11 1     
   19   10   25 1     
   20   10   26 1     
   21   11   16 1     
   22   11   12 1     
   23   11   27 1     
   24   12   13 1     
   25   12   28 1     
   26   12   29 1     
   27   13   17 1     
   28   13   14 1     
   29   13   30 1     
   30   14   15 1     
   31   14   31 1     
   32   14   32 1     
   33   15   16 1     
   34   15   33 1     
   35   15   34 1     
   36   16   17 1     
   37   16   35 1     
   38   17   36 1     
   39   17   37 1     
   40    4   38 1     
   41    4   39 1     
   42    7   40 1     
   43    8   41 1     
   44    8   42 1     
   45   18   43 1     
@<TRIPOS>SUBSTRUCTURE
      1 S1             1
@<TRIPOS>SET
LONE_PAIRS      STATIC     ATOMS    <user>   **** ""
6 38 39 40 41 42 43
DONOR_HYDROGENS      STATIC     ATOMS    <user>   **** ""
1 22
ATOM$BLUE        STATIC     ATOMS    COLORGROUP SYSTEM
6 38 39 40 41 42 43
ATOM$RED        STATIC     ATOMS    COLORGROUP SYSTEM
1 22
