AV-unprocessed.smi:3205|AV-procd|sdf|12254|dock10
  -GOLD-   2272018 93D 1   1.00000     0.00000
 Structure written by MMmdl.
 38 39  0  0  0  0  0  0  0  0  2 V2000
  148.4667  141.3671  154.5303 C   0  0  0  0  0  0  0  0  0  0  0  0
  149.6235  141.0612  155.5033 C   0  0  2  0  0  0  0  0  0  0  0  0
  150.3285  142.3172  155.8523 N   0  3  0  0  0  0  0  0  0  0  0  0
  150.9394  142.3523  157.1976 C   0  0  0  0  0  0  0  0  0  0  0  0
  151.6341  143.6993  157.4458 C   0  0  0  0  0  0  0  0  0  0  0  0
  151.7693  143.9885  158.8606 N   0  0  0  0  0  0  0  0  0  0  0  0
  151.4717  145.1571  159.5299 C   0  0  0  0  0  0  0  0  0  0  0  0
  151.7754  144.9594  160.8463 C   0  0  0  0  0  0  0  0  0  0  0  0
  152.2635  143.6235  160.8842 C   0  0  0  0  0  0  0  0  0  0  0  0
  152.2620  143.0464  159.6932 N   0  0  0  0  0  0  0  0  0  0  0  0
  150.6370  140.0357  154.9283 C   0  0  0  0  0  0  0  0  0  0  0  0
  149.9940  138.6750  154.5846 C   0  0  0  0  0  0  0  0  0  0  0  0
  151.0472  137.6604  154.1088 C   0  0  0  0  0  0  0  0  0  0  0  0
  152.0546  137.5015  155.0992 O   0  0  0  0  0  0  0  0  0  0  0  0
  152.7655  138.7057  155.3541 C   0  0  0  0  0  0  0  0  0  0  0  0
  151.8049  139.7720  155.9038 C   0  0  0  0  0  0  0  0  0  0  0  0
  147.8565  140.4849  154.3385 H   0  0  0  0  0  0  0  0  0  0  0  0
  148.8400  141.7306  153.5723 H   0  0  0  0  0  0  0  0  0  0  0  0
  147.7896  142.1221  154.9284 H   0  0  0  0  0  0  0  0  0  0  0  0
  149.2036  140.6400  156.4182 H   0  0  0  0  0  0  0  0  0  0  0  0
  151.0791  142.4343  155.1865 H   0  0  0  0  0  0  0  0  0  0  0  0
  150.1765  142.1870  157.9584 H   0  0  0  0  0  0  0  0  0  0  0  0
  151.6623  141.5397  157.2826 H   0  0  0  0  0  0  0  0  0  0  0  0
  152.6281  143.7064  156.9964 H   0  0  0  0  0  0  0  0  0  0  0  0
  151.0694  144.5082  156.9799 H   0  0  0  0  0  0  0  0  0  0  0  0
  151.0734  146.0225  159.0208 H   0  0  0  0  0  0  0  0  0  0  0  0
  151.6677  145.6627  161.6588 H   0  0  0  0  0  0  0  0  0  0  0  0
  152.6177  143.0610  161.7354 H   0  0  0  0  0  0  0  0  0  0  0  0
  151.0533  140.4475  154.0072 H   0  0  0  0  0  0  0  0  0  0  0  0
  149.4779  138.2768  155.4593 H   0  0  0  0  0  0  0  0  0  0  0  0
  149.2451  138.7848  153.8011 H   0  0  0  0  0  0  0  0  0  0  0  0
  150.5787  136.6929  153.9269 H   0  0  0  0  0  0  0  0  0  0  0  0
  151.4948  137.9777  153.1656 H   0  0  0  0  0  0  0  0  0  0  0  0
  153.5526  138.5014  156.0801 H   0  0  0  0  0  0  0  0  0  0  0  0
  153.2551  139.0537  154.4434 H   0  0  0  0  0  0  0  0  0  0  0  0
  152.3668  140.6864  156.0949 H   0  0  0  0  0  0  0  0  0  0  0  0
  151.4148  139.4405  156.8672 H   0  0  0  0  0  0  0  0  0  0  0  0
  149.6892  143.0927  155.7513 H   0  0  0  0  0  0  0  0  0  0  0  0
  1  2  1  0  0  0  0
  1 17  1  0  0  0  0
  1 18  1  0  0  0  0
  1 19  1  0  0  0  0
  2  3  1  0  0  0  0
  2 11  1  0  0  0  0
  2 20  1  0  0  0  0
  3  4  1  0  0  0  0
  3 21  1  0  0  0  0
  3 38  1  0  0  0  0
  4  5  1  0  0  0  0
  4 22  1  0  0  0  0
  4 23  1  0  0  0  0
  5  6  1  0  0  0  0
  5 24  1  0  0  0  0
  5 25  1  0  0  0  0
  6 10  1  0  0  0  0
  6  7  1  0  0  0  0
  7  8  2  0  0  0  0
  7 26  1  0  0  0  0
  8  9  1  0  0  0  0
  8 27  1  0  0  0  0
  9 10  2  0  0  0  0
  9 28  1  0  0  0  0
 11 16  1  0  0  0  0
 11 12  1  0  0  0  0
 11 29  1  0  0  0  0
 12 13  1  0  0  0  0
 12 30  1  0  0  0  0
 12 31  1  0  0  0  0
 13 14  1  0  0  0  0
 13 32  1  0  0  0  0
 13 33  1  0  0  0  0
 14 15  1  0  0  0  0
 15 16  1  0  0  0  0
 15 34  1  0  0  0  0
 15 35  1  0  0  0  0
 16 36  1  0  0  0  0
 16 37  1  0  0  0  0
M  CHG  1   3   1
M  END
> <s_m_source_file>
AV-unprocessed.smi

> <i_m_source_file_index>
3205

> <i_lp_mmshare_version>
43012

> <i_f3d_flags>
0

> <s_epik_input>
W0NIMl0xW0NIMl1PW0NIMl1bQ0gyXVtDSF0xW0NASF0oW0NIM10pW05IXVtDSDJdW0NIMl1uMltjSF1bY0hdW2NIXW4y

> <s_epik_cmdline>
J2VwaWtfcHl0aG9uJywgJy1waCcsICc3LjAnLCAnLXRuJywgJzgnLCAnLW1hJywgJzIwMCcsICctbWV0YWxfYmluZGluZycsICctaW1hZScsICc8aW5maWxlLm1hZT4nLCAnLW9tYWUnLCAnPG91dGZpbGUubWFlPic=

> <r_lp_tautomer_probability>
1

> <r_epik_Ionization_Penalty>
0.00310903

> <r_epik_Ionization_Penalty_Charging>
0.00310601

> <r_epik_Ionization_Penalty_Neutral>
3.02836e-06

> <r_epik_State_Penalty>
-0

> <r_epik_Charging_Adjusted_Penalty>
0.00310601

> <i_epik_Tot_Q>
1

> <i_epik_Tot_abs_Q>
1

> <r_epik_Metal_State_Penalty>
-0

> <b_epik_Metal_Only>
0

> <s_lp_Force_Field>
OPLS_2005

> <r_lp_Energy>
15.8656

> <b_lp_Chiralities_Consistent>
1

> <s_lp_Variant>
AV-unprocessed.smi:3205-1

> <Gold.Version>
5.8.1

> <Gold.Id.Protein>
6NUR|6NUR_protein|mol2

> <Gold.PLP.Fitness>
48.1028

> <Gold.PLP.PLP>
-41.4089

> <Gold.PLP.part.hbond>
-2.0000

> <Gold.PLP.part.metal>
0.0000

> <Gold.PLP.part.buried>
-1.2279

> <Gold.PLP.part.nonpolar>
-38.7696

> <Gold.PLP.part.repulsive>
0.2182

> <Gold.PLP.ligand.clash>
0.0000

> <Gold.PLP.ligand.torsion>
0.5945

> <Gold.PLP.Chemscore.Hbond>
2.6110

> <Gold.PLP.Chemscore.CHOScore>
0.0000

> <Gold.PLP.Chemscore.Metal>
0.0000

> <Gold.Chemscore.Hbonds>
donor molecule, donor type, donor heavy atom, donor atom, acceptor molecule, acceptor atom, score
      L1  H     3    38       P1  8028  2.00
      P1  H 10752 10764       L1    14  0.56

> <Gold.PLP.Chemscore.Internal.Correction>
0.0498

> <Gold.Rescore>
     Score         DG    S(hbond)    S(metal)    S(lipo)     H(rot)  DE(clash)    DE(int)     intcor
     18.14     -18.99       1.60        0.00     106.18       1.66       0.19       0.67       ----

> <Gold.Chemscore.Fitness>
18.1397

> <Gold.Chemscore.DG>
-18.9908

> <Gold.Chemscore.ZeroCoef>
-5.4800

> <Gold.Chemscore.Hbond>
1.5976

> <Gold.Chemscore.Metal>
0.0000

> <Gold.Chemscore.Lipo>
106.1788

> <Gold.Chemscore.Internal_Hbond>
0.0000

> <Gold.Chemscore.DEClash>
0.1855

> <Gold.Chemscore.DEInternal>
0.6656

> <Gold.Chemscore.Rot>
1.6594

> <Gold.Chemscore.Internal.Correction>
   9.000000E+99

> <Gold.Chemscore.Hbonds>
donor molecule, donor type, donor heavy atom, donor atom, acceptor molecule, acceptor atom, score
      L1  H     3    38       P1  8028  1.00
      P1  H 10752 10764       L1    14  0.24

> <Gold.Chemscore.Hbond.Weighted>
-5.3360

> <Gold.Chemscore.Metal.Weighted>
-0.0000

> <Gold.Chemscore.Lipo.Weighted>
-12.4229

> <Gold.Chemscore.Internal_Hbond.Weighted>
0.0000

> <Gold.Chemscore.DEClash.Weighted>
0.1855

> <Gold.Chemscore.DEInternal.Weighted>
0.6656

> <Gold.Chemscore.Rot.Weighted>
4.2482

> <Gold.Chemscore.Internal.Correction.Weighted>
   9.000000E+99

> <Gold.Protein.RotatedTorsions>
[ 6907 6896 6895 6894 ] final   95.60 input  -60.11 | X-H torsion
[ 7974 7965 7964 7962 ] final   77.48 input  175.53 | X-H torsion
[ 8008 7997 7996 7995 ] final    7.74 input   59.86 | X-H torsion
[ 10167 10162 10161 10158 ] final   16.46 input  -65.29 | X-H torsion
[ 10718 10713 10712 10709 ] final  -88.52 input   66.30 | X-H torsion
[ 10763 10752 10751 10750 ] final  -58.68 input  -60.55 | X-H torsion
[ 11005 11000 10999 10996 ] final   -1.37 input  -57.11 | X-H torsion

> <Gold.Protein.ActiveResidues>
 VAL166  LYS551  ARG553  GLY616  TRP617  ASP618  TYR619  PRO620  LYS621  CYS622 
 ASP623  PHE694  ASN695  SER759  ASP760  ASP761  ALA762  ILE779  LEU786  VAL792 
 PHE793  MET794  SER795  GLU796  ALA797  LYS798  CYS799  TRP800  GLU811  SER814 

> <Gold.Protein.RotatedAtoms>
  152.5442  134.1014  159.8319 H   0  0  0  0  0  0  0  0  0  0  0  0  # atno 6907 bound_to 6896
  151.1092  133.5178  159.2614 H   0  0  0  0  0  0  0  0  0  0  0  0  # atno 6908 bound_to 6896
  151.1904  135.0409  159.8884 H   0  0  0  0  0  0  0  0  0  0  0  0  # atno 6909 bound_to 6896
  145.6895  139.2548  143.1768 H   0  0  0  0  0  0  0  0  0  0  0  0  # atno 7974 bound_to 7965
  154.7578  140.2779  155.6239 H   0  0  0  0  0  0  0  0  0  0  0  0  # atno 8008 bound_to 7997
  156.2909  140.2666  156.2275 H   0  0  0  0  0  0  0  0  0  0  0  0  # atno 8009 bound_to 7997
  155.0056  140.0372  157.2368 H   0  0  0  0  0  0  0  0  0  0  0  0  # atno 8010 bound_to 7997
  140.5795  143.9008  150.6778 H   0  0  0  0  0  0  0  0  0  0  0  0  # atno 10167 bound_to 10162
  155.9983  130.4839  150.5032 H   0  0  0  0  0  0  0  0  0  0  0  0  # atno 10718 bound_to 10713
  154.2419  135.6342  153.5210 H   0  0  0  0  0  0  0  0  0  0  0  0  # atno 10763 bound_to 10752
  152.9928  135.5544  154.5901 H   0  0  0  0  0  0  0  0  0  0  0  0  # atno 10764 bound_to 10752
  154.5409  135.2894  155.1071 H   0  0  0  0  0  0  0  0  0  0  0  0  # atno 10765 bound_to 10752
  140.6465  133.9442  155.8356 H   0  0  0  0  0  0  0  0  0  0  0  0  # atno 11005 bound_to 11000
  146.0894  140.7673  142.9602 LP  0  0  0  0  0  0  0  0  0  0  0  0  # atno 17320 bound_to 7965
  144.7001  140.3613  143.7163 LP  0  0  0  0  0  0  0  0  0  0  0  0  # atno 17321 bound_to 7965
  140.2503  143.3598  152.1411 LP  0  0  0  0  0  0  0  0  0  0  0  0  # atno 17342 bound_to 10162
  139.5162  144.6973  151.5593 LP  0  0  0  0  0  0  0  0  0  0  0  0  # atno 17343 bound_to 10162
  157.3014  131.0646  151.2065 LP  0  0  0  0  0  0  0  0  0  0  0  0  # atno 17370 bound_to 10713
  157.3043  130.6858  149.6181 LP  0  0  0  0  0  0  0  0  0  0  0  0  # atno 17371 bound_to 10713
  141.0568  134.0405  157.3712 LP  0  0  0  0  0  0  0  0  0  0  0  0  # atno 17394 bound_to 11000
  139.9061  135.0179  156.7491 LP  0  0  0  0  0  0  0  0  0  0  0  0  # atno 17395 bound_to 11000

$$$$
