AV-unprocessed.smi:1260|AV-procd|sdf|5295|dock2
  -GOLD-   22720 4413D 1   1.00000     0.00000
 Structure written by MMmdl.
 37 39  0  0  0  0  0  0  0  0  2 V2000
  154.8541  139.0323  159.0259 O   0  0  0  0  0  0  0  0  0  0  0  0
  153.7249  139.1070  158.5432 C   0  0  0  0  0  0  0  0  0  0  0  0
  153.1451  137.9203  157.7703 C   0  0  0  0  0  0  0  0  0  0  0  0
  153.1871  138.1453  156.3371 N   0  0  0  0  0  0  0  0  0  0  0  0
  152.8015  139.1905  155.6021 C   0  0  0  0  0  0  0  0  0  0  0  0
  153.0025  138.9807  154.3104 N   0  0  0  0  0  0  0  0  0  0  0  0
  153.5543  137.7107  154.2802 N   0  0  0  0  0  0  0  0  0  0  0  0
  153.6662  137.2099  155.4799 N   0  0  0  0  0  0  0  0  0  0  0  0
  152.9514  140.1999  158.6427 N   0  0  0  0  0  0  0  0  0  0  0  0
  153.3152  141.4296  159.3397 C   0  0  2  0  0  0  0  0  0  0  0  0
  153.5964  141.2075  160.8365 C   0  0  0  0  0  0  0  0  0  0  0  0
  153.0109  142.4417  161.5512 C   0  0  0  0  0  0  0  0  0  0  0  0
  152.5414  143.3319  160.4726 N   0  3  2  0  0  0  0  0  0  0  0  0
  151.4766  144.3002  160.8142 C   0  0  0  0  0  0  0  0  0  0  0  0
  151.1838  145.1881  159.5880 C   0  0  0  0  0  0  0  0  0  0  0  0
  150.8759  144.3473  158.3321 C   0  0  0  0  0  0  0  0  0  0  0  0
  151.9740  143.2956  158.0829 C   0  0  0  0  0  0  0  0  0  0  0  0
  152.1753  142.4513  159.3527 C   0  0  1  0  0  0  0  0  0  0  0  0
  153.7114  137.0178  158.0042 H   0  0  0  0  0  0  0  0  0  0  0  0
  152.1121  137.7405  158.0722 H   0  0  0  0  0  0  0  0  0  0  0  0
  152.3716  140.0936  156.0094 H   0  0  0  0  0  0  0  0  0  0  0  0
  152.0377  140.1728  158.2133 H   0  0  0  0  0  0  0  0  0  0  0  0
  154.2025  141.8788  158.8881 H   0  0  0  0  0  0  0  0  0  0  0  0
  153.1096  140.3034  161.2054 H   0  0  0  0  0  0  0  0  0  0  0  0
  154.6658  141.1011  161.0219 H   0  0  0  0  0  0  0  0  0  0  0  0
  152.1731  142.1438  162.1835 H   0  0  0  0  0  0  0  0  0  0  0  0
  153.7453  142.9475  162.1785 H   0  0  0  0  0  0  0  0  0  0  0  0
  150.5760  143.7686  161.1249 H   0  0  0  0  0  0  0  0  0  0  0  0
  151.7964  144.9146  161.6565 H   0  0  0  0  0  0  0  0  0  0  0  0
  150.3508  145.8584  159.8024 H   0  0  0  0  0  0  0  0  0  0  0  0
  152.0472  145.8245  159.3899 H   0  0  0  0  0  0  0  0  0  0  0  0
  149.9161  143.8449  158.4592 H   0  0  0  0  0  0  0  0  0  0  0  0
  150.7719  144.9961  157.4617 H   0  0  0  0  0  0  0  0  0  0  0  0
  151.6938  142.6599  157.2427 H   0  0  0  0  0  0  0  0  0  0  0  0
  152.9068  143.7888  157.8064 H   0  0  0  0  0  0  0  0  0  0  0  0
  151.2411  141.9423  159.6019 H   0  0  0  0  0  0  0  0  0  0  0  0
  153.3450  143.8625  160.1671 H   0  0  0  0  0  0  0  0  0  0  0  0
  1  2  2  0  0  0  0
  2  3  1  0  0  0  0
  2  9  1  0  0  0  0
  3  4  1  0  0  0  0
  3 19  1  0  0  0  0
  3 20  1  0  0  0  0
  4  8  1  0  0  0  0
  4  5  1  0  0  0  0
  5  6  2  0  0  0  0
  5 21  1  0  0  0  0
  6  7  1  0  0  0  0
  7  8  2  0  0  0  0
  9 10  1  0  0  0  0
  9 22  1  0  0  0  0
 10 18  1  0  0  0  0
 10 11  1  0  0  0  0
 10 23  1  0  0  0  0
 11 12  1  0  0  0  0
 11 24  1  0  0  0  0
 11 25  1  0  0  0  0
 12 13  1  0  0  0  0
 12 26  1  0  0  0  0
 12 27  1  0  0  0  0
 13 18  1  0  0  0  0
 13 14  1  0  0  0  0
 13 37  1  0  0  0  0
 14 15  1  0  0  0  0
 14 28  1  0  0  0  0
 14 29  1  0  0  0  0
 15 16  1  0  0  0  0
 15 30  1  0  0  0  0
 15 31  1  0  0  0  0
 16 17  1  0  0  0  0
 16 32  1  0  0  0  0
 16 33  1  0  0  0  0
 17 18  1  0  0  0  0
 17 34  1  0  0  0  0
 17 35  1  0  0  0  0
 18 36  1  0  0  0  0
M  CHG  1  13   1
M  END
> <s_m_source_file>
AV-unprocessed.smi

> <i_m_source_file_index>
1260

> <i_lp_mmshare_version>
43012

> <i_f3d_flags>
0

> <s_epik_input>
bjFubltjSF1uMVtDSDJdQyg9TylbTkhdW0NASF0oW0NIMl1bQ0gyXTIpW0NAQEhdKE4yMylbQ0gyXVtDSDJdW0NIMl1bQ0gyXTM=

> <s_epik_cmdline>
J2VwaWtfcHl0aG9uJywgJy1waCcsICc3LjAnLCAnLXRuJywgJzgnLCAnLW1hJywgJzIwMCcsICctbWV0YWxfYmluZGluZycsICctaW1hZScsICc8aW5maWxlLm1hZT4nLCAnLW9tYWUnLCAnPG91dGZpbGUubWFlPic=

> <r_lp_tautomer_probability>
1

> <r_epik_Ionization_Penalty>
0.00234324

> <r_epik_Ionization_Penalty_Charging>
0.00233897

> <r_epik_Ionization_Penalty_Neutral>
4.26861e-06

> <r_epik_State_Penalty>
0.00161477

> <r_epik_Charging_Adjusted_Penalty>
0.00395374

> <i_epik_Tot_Q>
1

> <i_epik_Tot_abs_Q>
1

> <r_epik_Metal_State_Penalty>
-0

> <b_epik_Metal_Only>
0

> <s_lp_Force_Field>
OPLS_2005

> <r_lp_Energy>
37.0555

> <b_lp_Chiralities_Consistent>
1

> <s_lp_Variant>
AV-unprocessed.smi:1260-3

> <Gold.Version>
5.8.1

> <Gold.Id.Protein>
6NUR|6NUR_protein|mol2

> <Gold.PLP.Fitness>
44.7734

> <Gold.PLP.PLP>
-37.2359

> <Gold.PLP.part.hbond>
-3.2121

> <Gold.PLP.part.metal>
0.0000

> <Gold.PLP.part.buried>
-4.6159

> <Gold.PLP.part.nonpolar>
-30.4398

> <Gold.PLP.part.repulsive>
0.4546

> <Gold.PLP.ligand.clash>
0.0000

> <Gold.PLP.ligand.torsion>
0.3385

> <Gold.PLP.Chemscore.Hbond>
2.7340

> <Gold.PLP.Chemscore.CHOScore>
0.0000

> <Gold.PLP.Chemscore.Metal>
0.0000

> <Gold.Chemscore.Hbonds>
donor molecule, donor type, donor heavy atom, donor atom, acceptor molecule, acceptor atom, score
      P1  H 10752 10765       L1     8  0.01

> <Gold.PLP.Chemscore.Internal.Correction>
0.0124

> <Gold.Rescore>
     Score         DG    S(hbond)    S(metal)    S(lipo)     H(rot)  DE(clash)    DE(int)     intcor
     16.98     -17.36       1.98        0.00      88.16       1.98       0.04       0.34       ----

> <Gold.Chemscore.Fitness>
16.9775

> <Gold.Chemscore.DG>
-17.3573

> <Gold.Chemscore.ZeroCoef>
-5.4800

> <Gold.Chemscore.Hbond>
1.9823

> <Gold.Chemscore.Metal>
0.0000

> <Gold.Chemscore.Lipo>
88.1554

> <Gold.Chemscore.Internal_Hbond>
0.0000

> <Gold.Chemscore.DEClash>
0.0440

> <Gold.Chemscore.DEInternal>
0.3357

> <Gold.Chemscore.Rot>
1.9757

> <Gold.Chemscore.Internal.Correction>
   9.000000E+99

> <Gold.Chemscore.Hbonds>
donor molecule, donor type, donor heavy atom, donor atom, acceptor molecule, acceptor atom, score
      P1  H  7989  7998       L1     6  0.01

> <Gold.Chemscore.Hbond.Weighted>
-6.6209

> <Gold.Chemscore.Metal.Weighted>
-0.0000

> <Gold.Chemscore.Lipo.Weighted>
-10.3142

> <Gold.Chemscore.Internal_Hbond.Weighted>
0.0000

> <Gold.Chemscore.DEClash.Weighted>
0.0440

> <Gold.Chemscore.DEInternal.Weighted>
0.3357

> <Gold.Chemscore.Rot.Weighted>
5.0578

> <Gold.Chemscore.Internal.Correction.Weighted>
   9.000000E+99

> <Gold.Protein.RotatedTorsions>
[ 6907 6896 6895 6894 ] final  -92.79 input  -60.11 | X-H torsion
[ 7974 7965 7964 7962 ] final  110.16 input  175.53 | X-H torsion
[ 8008 7997 7996 7995 ] final   -1.98 input   59.86 | X-H torsion
[ 10167 10162 10161 10158 ] final  125.92 input  -65.29 | X-H torsion
[ 10718 10713 10712 10709 ] final -177.54 input   66.30 | X-H torsion
[ 10763 10752 10751 10750 ] final -167.92 input  -60.55 | X-H torsion
[ 11005 11000 10999 10996 ] final  -51.82 input  -57.11 | X-H torsion

> <Gold.Protein.ActiveResidues>
 VAL166  LYS551  ARG553  GLY616  TRP617  ASP618  TYR619  PRO620  LYS621  CYS622 
 ASP623  PHE694  ASN695  SER759  ASP760  ASP761  ALA762  ILE779  LEU786  VAL792 
 PHE793  MET794  SER795  GLU796  ALA797  LYS798  CYS799  TRP800  GLU811  SER814 

> <Gold.Protein.RotatedAtoms>
  150.6912  134.2067  159.4342 H   0  0  0  0  0  0  0  0  0  0  0  0  # atno 6907 bound_to 6896
  152.0031  134.9915  160.0575 H   0  0  0  0  0  0  0  0  0  0  0  0  # atno 6908 bound_to 6896
  152.1560  133.4517  159.4874 H   0  0  0  0  0  0  0  0  0  0  0  0  # atno 6909 bound_to 6896
  145.2585  139.2711  143.4029 H   0  0  0  0  0  0  0  0  0  0  0  0  # atno 7974 bound_to 7965
  154.6408  140.2546  155.7325 H   0  0  0  0  0  0  0  0  0  0  0  0  # atno 8008 bound_to 7997
  156.2527  140.2888  156.0721 H   0  0  0  0  0  0  0  0  0  0  0  0  # atno 8009 bound_to 7997
  155.1600  140.0384  157.2830 H   0  0  0  0  0  0  0  0  0  0  0  0  # atno 8010 bound_to 7997
  139.5659  144.6911  151.3911 H   0  0  0  0  0  0  0  0  0  0  0  0  # atno 10167 bound_to 10162
  156.8311  130.9653  151.3106 H   0  0  0  0  0  0  0  0  0  0  0  0  # atno 10718 bound_to 10713
  154.6682  135.2935  154.9777 H   0  0  0  0  0  0  0  0  0  0  0  0  # atno 10763 bound_to 10752
  154.0813  135.6604  153.4842 H   0  0  0  0  0  0  0  0  0  0  0  0  # atno 10764 bound_to 10752
  153.0470  135.5198  154.7665 H   0  0  0  0  0  0  0  0  0  0  0  0  # atno 10765 bound_to 10752
  141.0892  133.6636  156.3934 H   0  0  0  0  0  0  0  0  0  0  0  0  # atno 11005 bound_to 11000
  146.3282  140.2996  142.8620 LP  0  0  0  0  0  0  0  0  0  0  0  0  # atno 17320 bound_to 7965
  144.9439  140.8107  143.5613 LP  0  0  0  0  0  0  0  0  0  0  0  0  # atno 17321 bound_to 7965
  140.6942  143.7788  150.7302 LP  0  0  0  0  0  0  0  0  0  0  0  0  # atno 17342 bound_to 10162
  140.1279  143.4552  152.2272 LP  0  0  0  0  0  0  0  0  0  0  0  0  # atno 17343 bound_to 10162
  157.6406  130.8803  149.9442 LP  0  0  0  0  0  0  0  0  0  0  0  0  # atno 17370 bound_to 10713
  156.0934  130.3661  150.0352 LP  0  0  0  0  0  0  0  0  0  0  0  0  # atno 17371 bound_to 10713
  140.5293  134.6228  157.5344 LP  0  0  0  0  0  0  0  0  0  0  0  0  # atno 17394 bound_to 11000
  139.9714  134.7286  156.0033 LP  0  0  0  0  0  0  0  0  0  0  0  0  # atno 17395 bound_to 11000

$$$$
