AV-unprocessed.smi:2760|AV-procd|sdf|10628|dock9
  -GOLD-   2272015 73D 1   1.00000     0.00000
 Structure written by MMmdl.
 32 33  0  0  0  0  0  0  0  0  1 V2000
  150.8876  139.8556  154.5290 O   0  0  0  0  0  0  0  0  0  0  0  0
  150.9561  140.1279  155.7255 C   0  0  0  0  0  0  0  0  0  0  0  0
  151.0209  141.4903  156.2535 C   0  0  0  0  0  0  0  0  0  0  0  0
  151.0943  141.7093  157.5911 C   0  0  0  0  0  0  0  0  0  0  0  0
  151.1651  143.0710  158.2000 C   0  0  0  0  0  0  0  0  0  0  0  0
  152.1517  144.1172  157.7281 C   0  0  0  0  0  0  0  0  0  0  0  0
  152.3151  143.4883  159.0906 C   0  0  0  0  0  0  0  0  0  0  0  0
  151.1090  140.6310  158.4871 N   0  0  0  0  0  0  0  0  0  0  0  0
  151.0548  139.4136  158.0436 C   0  0  0  0  0  0  0  0  0  0  0  0
  151.0659  137.8520  158.9712 S   0  0  0  0  0  0  0  0  0  0  0  0
  149.2966  137.6268  159.3123 C   0  0  0  0  0  0  0  0  0  0  0  0
  148.9017  136.1462  159.3149 C   0  0  0  0  0  0  0  0  0  0  0  0
  148.5491  135.7537  160.6315 O   0  0  0  0  0  0  0  0  0  0  0  0
  147.3912  136.4184  161.1120 C   0  0  0  0  0  0  0  0  0  0  0  0
  147.1760  136.0710  162.5903 C   0  0  0  0  0  0  0  0  0  0  0  0
  147.4944  134.7930  162.7926 F   0  0  0  0  0  0  0  0  0  0  0  0
  147.9529  136.8324  163.3602 F   0  0  0  0  0  0  0  0  0  0  0  0
  145.8987  136.2517  162.9252 F   0  0  0  0  0  0  0  0  0  0  0  0
  150.9776  139.1600  156.6700 N   0  0  0  0  0  0  0  0  0  0  0  0
  150.9346  138.2006  156.3587 H   0  0  0  0  0  0  0  0  0  0  0  0
  151.0113  142.3182  155.5602 H   0  0  0  0  0  0  0  0  0  0  0  0
  150.1833  143.4446  158.4869 H   0  0  0  0  0  0  0  0  0  0  0  0
  152.8693  143.8422  156.9579 H   0  0  0  0  0  0  0  0  0  0  0  0
  151.8068  145.1485  157.6909 H   0  0  0  0  0  0  0  0  0  0  0  0
  152.0782  144.1008  159.9578 H   0  0  0  0  0  0  0  0  0  0  0  0
  153.1396  142.7915  159.2272 H   0  0  0  0  0  0  0  0  0  0  0  0
  148.7138  138.1712  158.5686 H   0  0  0  0  0  0  0  0  0  0  0  0
  149.0698  138.0664  160.2838 H   0  0  0  0  0  0  0  0  0  0  0  0
  148.0678  135.9797  158.6312 H   0  0  0  0  0  0  0  0  0  0  0  0
  149.7394  135.5426  158.9623 H   0  0  0  0  0  0  0  0  0  0  0  0
  147.5053  137.4978  160.9979 H   0  0  0  0  0  0  0  0  0  0  0  0
  146.5193  136.1184  160.5288 H   0  0  0  0  0  0  0  0  0  0  0  0
  1  2  2  0  0  0  0
  2 19  1  0  0  0  0
  2  3  1  0  0  0  0
  3 21  1  0  0  0  0
  3  4  2  0  0  0  0
  4  5  1  0  0  0  0
  4  8  1  0  0  0  0
  5  7  1  0  0  0  0
  5  6  1  0  0  0  0
  5 22  1  0  0  0  0
  6  7  1  0  0  0  0
  6 23  1  0  0  0  0
  6 24  1  0  0  0  0
  7 25  1  0  0  0  0
  7 26  1  0  0  0  0
  8  9  2  0  0  0  0
  9 10  1  0  0  0  0
  9 19  1  0  0  0  0
 10 11  1  0  0  0  0
 11 12  1  0  0  0  0
 11 27  1  0  0  0  0
 11 28  1  0  0  0  0
 12 13  1  0  0  0  0
 12 29  1  0  0  0  0
 12 30  1  0  0  0  0
 13 14  1  0  0  0  0
 14 15  1  0  0  0  0
 14 31  1  0  0  0  0
 14 32  1  0  0  0  0
 15 16  1  0  0  0  0
 15 17  1  0  0  0  0
 15 18  1  0  0  0  0
 19 20  1  0  0  0  0
M  END
> <s_m_source_file>
AV-unprocessed.smi

> <i_m_source_file_index>
2760

> <i_lp_mmshare_version>
43012

> <i_f3d_flags>
0

> <s_epik_input>
W09IXWMxW2NIXWMoW0NIXTJbQ0gyXVtDSDJdMiluYyhuMSlTW0NIMl1bQ0gyXU9bQ0gyXUMoRikoRilG

> <s_epik_cmdline>
J2VwaWtfcHl0aG9uJywgJy1waCcsICc3LjAnLCAnLXRuJywgJzgnLCAnLW1hJywgJzIwMCcsICctbWV0YWxfYmluZGluZycsICctaW1hZScsICc8aW5maWxlLm1hZT4nLCAnLW9tYWUnLCAnPG91dGZpbGUubWFlPic=

> <r_lp_tautomer_probability>
0.660323

> <r_epik_Ionization_Penalty>
0.00540315

> <r_epik_Ionization_Penalty_Charging>
0.00540219

> <r_epik_Ionization_Penalty_Neutral>
9.53041e-07

> <r_epik_State_Penalty>
0.139188

> <r_epik_Charging_Adjusted_Penalty>
0.14459

> <i_epik_Tot_Q>
0

> <i_epik_Tot_abs_Q>
0

> <r_epik_Metal_State_Penalty>
0.790013

> <b_epik_Metal_Only>
0

> <s_lp_Force_Field>
OPLS_2005

> <r_lp_Energy>
15.5574

> <b_lp_Chiralities_Consistent>
1

> <s_lp_Variant>
AV-unprocessed.smi:2760-1

> <Gold.Version>
5.8.1

> <Gold.Id.Protein>
6NUR|6NUR_protein|mol2

> <Gold.PLP.Fitness>
41.7900

> <Gold.PLP.PLP>
-41.4116

> <Gold.PLP.part.hbond>
-1.0000

> <Gold.PLP.part.metal>
0.0000

> <Gold.PLP.part.buried>
-6.5836

> <Gold.PLP.part.nonpolar>
-35.4233

> <Gold.PLP.part.repulsive>
0.1356

> <Gold.PLP.ligand.clash>
0.0000

> <Gold.PLP.ligand.torsion>
1.4059

> <Gold.PLP.Chemscore.Hbond>
1.0000

> <Gold.PLP.Chemscore.CHOScore>
0.0000

> <Gold.PLP.Chemscore.Metal>
0.0000

> <Gold.Chemscore.Hbonds>
donor molecule, donor type, donor heavy atom, donor atom, acceptor molecule, acceptor atom, score
      P1  H  7989  7998       L1     1  1.00

> <Gold.PLP.Chemscore.Internal.Correction>
0.1903

> <Gold.Rescore>
     Score         DG    S(hbond)    S(metal)    S(lipo)     H(rot)  DE(clash)    DE(int)     intcor
      8.85     -11.13       0.96        0.00      77.10       2.57       0.01       2.28       ----

> <Gold.Chemscore.Fitness>
8.8504

> <Gold.Chemscore.DG>
-11.1348

> <Gold.Chemscore.ZeroCoef>
-5.4800

> <Gold.Chemscore.Hbond>
0.9605

> <Gold.Chemscore.Metal>
0.0000

> <Gold.Chemscore.Lipo>
77.1000

> <Gold.Chemscore.Internal_Hbond>
0.0000

> <Gold.Chemscore.DEClash>
0.0089

> <Gold.Chemscore.DEInternal>
2.2755

> <Gold.Chemscore.Rot>
2.5680

> <Gold.Chemscore.Internal.Correction>
   9.000000E+99

> <Gold.Chemscore.Hbonds>
donor molecule, donor type, donor heavy atom, donor atom, acceptor molecule, acceptor atom, score
      P1  H  7989  7998       L1     1  0.94

> <Gold.Chemscore.Hbond.Weighted>
-3.2082

> <Gold.Chemscore.Metal.Weighted>
-0.0000

> <Gold.Chemscore.Lipo.Weighted>
-9.0207

> <Gold.Chemscore.Internal_Hbond.Weighted>
0.0000

> <Gold.Chemscore.DEClash.Weighted>
0.0089

> <Gold.Chemscore.DEInternal.Weighted>
2.2755

> <Gold.Chemscore.Rot.Weighted>
6.5741

> <Gold.Chemscore.Internal.Correction.Weighted>
   9.000000E+99

> <Gold.Protein.RotatedTorsions>
[ 6907 6896 6895 6894 ] final   38.15 input  -60.11 | X-H torsion
[ 7974 7965 7964 7962 ] final -176.63 input  175.53 | X-H torsion
[ 8008 7997 7996 7995 ] final  -15.53 input   59.86 | X-H torsion
[ 10167 10162 10161 10158 ] final   91.06 input  -65.29 | X-H torsion
[ 10718 10713 10712 10709 ] final  119.96 input   66.30 | X-H torsion
[ 10763 10752 10751 10750 ] final    4.05 input  -60.55 | X-H torsion
[ 11005 11000 10999 10996 ] final   64.94 input  -57.11 | X-H torsion

> <Gold.Protein.ActiveResidues>
 VAL166  LYS551  ARG553  GLY616  TRP617  ASP618  TYR619  PRO620  LYS621  CYS622 
 ASP623  PHE694  ASN695  SER759  ASP760  ASP761  ALA762  ILE779  LEU786  VAL792 
 PHE793  MET794  SER795  GLU796  ALA797  LYS798  CYS799  TRP800  GLU811  SER814 

> <Gold.Protein.RotatedAtoms>
  152.1526  134.8976  160.0546 H   0  0  0  0  0  0  0  0  0  0  0  0  # atno 6907 bound_to 6896
  152.0002  133.3818  159.4187 H   0  0  0  0  0  0  0  0  0  0  0  0  # atno 6908 bound_to 6896
  150.6877  134.3764  159.5058 H   0  0  0  0  0  0  0  0  0  0  0  0  # atno 6909 bound_to 6896
  144.7127  140.1141  143.6409 H   0  0  0  0  0  0  0  0  0  0  0  0  # atno 7974 bound_to 7965
  154.5123  140.2194  155.9133 H   0  0  0  0  0  0  0  0  0  0  0  0  # atno 8008 bound_to 7997
  156.1566  140.3150  155.8703 H   0  0  0  0  0  0  0  0  0  0  0  0  # atno 8009 bound_to 7997
  155.3834  140.0474  157.3033 H   0  0  0  0  0  0  0  0  0  0  0  0  # atno 8010 bound_to 7997
  139.8412  144.6640  150.9281 H   0  0  0  0  0  0  0  0  0  0  0  0  # atno 10167 bound_to 10162
  157.5925  131.1062  150.7969 H   0  0  0  0  0  0  0  0  0  0  0  0  # atno 10718 bound_to 10713
  153.2759  135.6936  153.7434 H   0  0  0  0  0  0  0  0  0  0  0  0  # atno 10763 bound_to 10752
  153.6439  135.3388  155.3080 H   0  0  0  0  0  0  0  0  0  0  0  0  # atno 10764 bound_to 10752
  154.8479  135.4438  154.1796 H   0  0  0  0  0  0  0  0  0  0  0  0  # atno 10765 bound_to 10752
  139.9926  134.6567  156.0064 H   0  0  0  0  0  0  0  0  0  0  0  0  # atno 11005 bound_to 11000
  145.9429  139.2681  143.1258 LP  0  0  0  0  0  0  0  0  0  0  0  0  # atno 17320 bound_to 7965
  145.9405  140.8983  143.0310 LP  0  0  0  0  0  0  0  0  0  0  0  0  # atno 17321 bound_to 7965
  140.7798  143.3911  151.1308 LP  0  0  0  0  0  0  0  0  0  0  0  0  # atno 17342 bound_to 10162
  139.7557  143.8711  152.3088 LP  0  0  0  0  0  0  0  0  0  0  0  0  # atno 17343 bound_to 10162
  156.8387  130.5041  149.5323 LP  0  0  0  0  0  0  0  0  0  0  0  0  # atno 17370 bound_to 10713
  156.0982  130.5948  150.9849 LP  0  0  0  0  0  0  0  0  0  0  0  0  # atno 17371 bound_to 10713
  141.1578  133.6541  156.4220 LP  0  0  0  0  0  0  0  0  0  0  0  0  # atno 17394 bound_to 11000
  140.4879  134.6603  157.5198 LP  0  0  0  0  0  0  0  0  0  0  0  0  # atno 17395 bound_to 11000

$$$$
