AV-unprocessed.smi:125|AV-procd|sdf|1149|dock9
  -GOLD-   2262018283D 1   1.00000     0.00000
 Structure written by MMmdl.
 59 62  0  0  0  0  0  0  0  0  1 V2000
  146.7206  132.2508  155.8517 C   0  0  0  0  0  0  0  0  0  0  0  0
  147.7565  133.3616  155.9008 C   0  0  0  0  0  0  0  0  0  0  0  0
  147.6200  134.4450  155.0079 C   0  0  0  0  0  0  0  0  0  0  0  0
  148.5493  135.5016  155.0064 C   0  0  0  0  0  0  0  0  0  0  0  0
  149.6466  135.4862  155.8982 C   0  0  0  0  0  0  0  0  0  0  0  0
  150.6174  136.5215  155.9731 N   0  0  0  0  0  0  0  0  0  0  0  0
  151.4608  136.8177  156.9789 C   0  0  0  0  0  0  0  0  0  0  0  0
  151.4734  136.2489  158.0710 O   0  0  0  0  0  0  0  0  0  0  0  0
  152.4159  137.9902  156.7085 C   0  0  0  0  0  0  0  0  0  0  0  0
  151.7401  139.3058  156.7352 N   0  0  0  0  0  0  0  0  0  0  0  0
  150.9244  139.6647  155.6333 C   0  0  0  0  0  0  0  0  0  0  0  0
  150.7727  138.9026  154.6770 O   0  0  0  0  0  0  0  0  0  0  0  0
  150.2951  140.9778  155.7156 C   0  0  0  0  0  0  0  0  0  0  0  0
  149.4876  141.3923  154.7247 F   0  0  0  0  0  0  0  0  0  0  0  0
  150.5073  141.7838  156.7758 C   0  0  0  0  0  0  0  0  0  0  0  0
  151.3222  141.4292  157.8351 N   0  0  0  0  0  0  0  0  0  0  0  0
  151.5349  142.3601  159.0082 C   0  0  2  0  0  0  0  0  0  0  0  0
  150.7603  143.6655  158.7954 C   0  0  0  0  0  0  0  0  0  0  0  0
  151.8164  144.5580  158.1806 C   0  0  0  0  0  0  0  0  0  0  0  0
  153.0732  144.0854  158.9018 C   0  0  0  0  0  0  0  0  0  0  0  0
  152.8931  142.6845  159.0932 O   0  0  0  0  0  0  0  0  0  0  0  0
  151.9529  140.1659  157.8393 C   0  0  0  0  0  0  0  0  0  0  0  0
  152.6689  139.8231  158.7824 O   0  0  0  0  0  0  0  0  0  0  0  0
  149.7786  134.4149  156.8035 C   0  0  0  0  0  0  0  0  0  0  0  0
  148.8475  133.3547  156.8088 C   0  0  0  0  0  0  0  0  0  0  0  0
  149.1166  132.0145  157.9818 S   0  0  0  0  0  0  0  0  0  0  0  0
  148.4397  130.8004  157.4991 O   0  0  0  0  0  0  0  0  0  0  0  0
  150.5518  131.9737  158.3025 O   0  0  0  0  0  0  0  0  0  0  0  0
  148.2572  132.5576  159.3835 N   0  0  0  0  0  0  0  0  0  0  0  0
  147.9821  133.9924  159.5603 C   0  0  0  0  0  0  0  0  0  0  0  0
  146.8720  134.2155  160.6008 C   0  0  0  0  0  0  0  0  0  0  0  0
  147.1757  133.5265  161.8045 O   0  0  0  0  0  0  0  0  0  0  0  0
  147.2356  132.1232  161.5985 C   0  0  0  0  0  0  0  0  0  0  0  0
  148.3750  131.7808  160.6262 C   0  0  0  0  0  0  0  0  0  0  0  0
  145.9148  132.4966  155.1595 H   0  0  0  0  0  0  0  0  0  0  0  0
  146.2661  132.0895  156.8279 H   0  0  0  0  0  0  0  0  0  0  0  0
  147.1670  131.3186  155.5094 H   0  0  0  0  0  0  0  0  0  0  0  0
  146.7916  134.4759  154.3155 H   0  0  0  0  0  0  0  0  0  0  0  0
  148.3892  136.3187  154.3203 H   0  0  0  0  0  0  0  0  0  0  0  0
  150.6503  137.1404  155.1759 H   0  0  0  0  0  0  0  0  0  0  0  0
  153.2307  137.9678  157.4347 H   0  0  0  0  0  0  0  0  0  0  0  0
  152.9102  137.8100  155.7530 H   0  0  0  0  0  0  0  0  0  0  0  0
  150.0110  142.7428  156.7855 H   0  0  0  0  0  0  0  0  0  0  0  0
  151.2353  141.8065  159.8993 H   0  0  0  0  0  0  0  0  0  0  0  0
  149.8745  143.5285  158.1742 H   0  0  0  0  0  0  0  0  0  0  0  0
  150.4542  144.0510  159.7687 H   0  0  0  0  0  0  0  0  0  0  0  0
  151.8982  144.3659  157.1103 H   0  0  0  0  0  0  0  0  0  0  0  0
  151.6163  145.6202  158.3232 H   0  0  0  0  0  0  0  0  0  0  0  0
  153.9845  144.2990  158.3432 H   0  0  0  0  0  0  0  0  0  0  0  0
  153.1524  144.5643  159.8785 H   0  0  0  0  0  0  0  0  0  0  0  0
  150.6087  134.4106  157.4944 H   0  0  0  0  0  0  0  0  0  0  0  0
  148.9010  134.4879  159.8750 H   0  0  0  0  0  0  0  0  0  0  0  0
  147.6846  134.4371  158.6110 H   0  0  0  0  0  0  0  0  0  0  0  0
  146.7724  135.2792  160.8174 H   0  0  0  0  0  0  0  0  0  0  0  0
  145.9078  133.8823  160.2134 H   0  0  0  0  0  0  0  0  0  0  0  0
  147.4036  131.6318  162.5569 H   0  0  0  0  0  0  0  0  0  0  0  0
  146.2799  131.7573  161.2194 H   0  0  0  0  0  0  0  0  0  0  0  0
  148.3629  130.7152  160.3967 H   0  0  0  0  0  0  0  0  0  0  0  0
  149.3393  131.9995  161.0860 H   0  0  0  0  0  0  0  0  0  0  0  0
  1  2  1  0  0  0  0
  1 35  1  0  0  0  0
  1 36  1  0  0  0  0
  1 37  1  0  0  0  0
  2 25  1  0  0  0  0
  2  3  2  0  0  0  0
  3  4  1  0  0  0  0
  3 38  1  0  0  0  0
  4  5  2  0  0  0  0
  4 39  1  0  0  0  0
  5  6  1  0  0  0  0
  5 24  1  0  0  0  0
  6  7  1  0  0  0  0
  6 40  1  0  0  0  0
  7  8  2  0  0  0  0
  7  9  1  0  0  0  0
  9 10  1  0  0  0  0
  9 41  1  0  0  0  0
  9 42  1  0  0  0  0
 10 22  1  0  0  0  0
 10 11  1  0  0  0  0
 11 12  2  0  0  0  0
 11 13  1  0  0  0  0
 13 14  1  0  0  0  0
 13 15  2  0  0  0  0
 15 16  1  0  0  0  0
 15 43  1  0  0  0  0
 16 17  1  0  0  0  0
 16 22  1  0  0  0  0
 17 21  1  0  0  0  0
 17 18  1  0  0  0  0
 17 44  1  0  0  0  0
 18 19  1  0  0  0  0
 18 45  1  0  0  0  0
 18 46  1  0  0  0  0
 19 20  1  0  0  0  0
 19 47  1  0  0  0  0
 19 48  1  0  0  0  0
 20 21  1  0  0  0  0
 20 49  1  0  0  0  0
 20 50  1  0  0  0  0
 22 23  2  0  0  0  0
 24 25  2  0  0  0  0
 24 51  1  0  0  0  0
 25 26  1  0  0  0  0
 26 27  2  0  0  0  0
 26 28  2  0  0  0  0
 26 29  1  0  0  0  0
 29 34  1  0  0  0  0
 29 30  1  0  0  0  0
 30 31  1  0  0  0  0
 30 52  1  0  0  0  0
 30 53  1  0  0  0  0
 31 32  1  0  0  0  0
 31 54  1  0  0  0  0
 31 55  1  0  0  0  0
 32 33  1  0  0  0  0
 33 34  1  0  0  0  0
 33 56  1  0  0  0  0
 33 57  1  0  0  0  0
 34 58  1  0  0  0  0
 34 59  1  0  0  0  0
M  END
> <s_m_source_file>
AV-unprocessed.smi

> <i_m_source_file_index>
125

> <i_lp_mmshare_version>
43012

> <i_f3d_flags>
0

> <s_epik_input>
W0NIMl0xW0NIMl1PW0NIMl1bQ0gyXU4xUyg9TykoPU8pYzJbY0hdYyhbY0hdW2NIXWMyW0NIM10pW05IXUMoPU8pW0NIMl1uM2MoPU8pYyhGKVtjSF1uKGMzPU8pW0NAQEhdNFtDSDJdW0NIMl1bQ0gyXU80

> <s_epik_cmdline>
J2VwaWtfcHl0aG9uJywgJy1waCcsICc3LjAnLCAnLXRuJywgJzgnLCAnLW1hJywgJzIwMCcsICctbWV0YWxfYmluZGluZycsICctaW1hZScsICc8aW5maWxlLm1hZT4nLCAnLW9tYWUnLCAnPG91dGZpbGUubWFlPic=

> <r_lp_tautomer_probability>
1

> <r_epik_Ionization_Penalty>
4.12263e-06

> <r_epik_Ionization_Penalty_Charging>
3.88729e-08

> <r_epik_Ionization_Penalty_Neutral>
4.08376e-06

> <r_epik_State_Penalty>
-0

> <r_epik_Charging_Adjusted_Penalty>
3.88729e-08

> <i_epik_Tot_Q>
0

> <i_epik_Tot_abs_Q>
0

> <r_epik_Metal_State_Penalty>
-0

> <b_epik_Metal_Only>
0

> <s_epik_Chemistry_Notes>
This compound contains an acetal/aminal-like group ( X-CH(R)-Y where X, Y are N, S, or O) that may be acid/base labile, releasing an aldehyde.

> <s_lp_Force_Field>
OPLS_2005

> <r_lp_Energy>
38.613

> <b_lp_Chiralities_Consistent>
1

> <s_lp_Variant>
AV-unprocessed.smi:125-1

> <Gold.Version>
5.8.1

> <Gold.Id.Protein>
6NUR|6NUR_protein|mol2

> <Gold.PLP.Fitness>
50.0099

> <Gold.PLP.PLP>
-44.3887

> <Gold.PLP.part.hbond>
-2.0000

> <Gold.PLP.part.metal>
0.0000

> <Gold.PLP.part.buried>
-6.6686

> <Gold.PLP.part.nonpolar>
-35.9623

> <Gold.PLP.part.repulsive>
0.2118

> <Gold.PLP.ligand.clash>
0.0000

> <Gold.PLP.ligand.torsion>
2.6417

> <Gold.PLP.Chemscore.Hbond>
1.2772

> <Gold.PLP.Chemscore.CHOScore>
1.0000

> <Gold.PLP.Chemscore.Metal>
0.0000

> <Gold.Chemscore.Hbonds>
donor molecule, donor type, donor heavy atom, donor atom, acceptor molecule, acceptor atom, score
      P1  H  6896  6907       L1    28  1.00
      P1  H  6896  6908       L1     8  0.30
      L1  C    15    43       P1  8028  0.99

> <Gold.PLP.Chemscore.Internal.Correction>
4.0732

> <Gold.Rescore>
     Score         DG    S(hbond)    S(metal)    S(lipo)     H(rot)  DE(clash)    DE(int)     intcor
      8.84     -17.21       1.45        0.00      94.94       1.65       0.13       8.23       ----

> <Gold.Chemscore.Fitness>
8.8448

> <Gold.Chemscore.DG>
-17.2112

> <Gold.Chemscore.ZeroCoef>
-5.4800

> <Gold.Chemscore.Hbond>
1.4522

> <Gold.Chemscore.Metal>
0.0000

> <Gold.Chemscore.Lipo>
94.9358

> <Gold.Chemscore.Internal_Hbond>
0.0000

> <Gold.Chemscore.DEClash>
0.1336

> <Gold.Chemscore.DEInternal>
8.2328

> <Gold.Chemscore.Rot>
1.6510

> <Gold.Chemscore.Internal.Correction>
   9.000000E+99

> <Gold.Chemscore.Hbonds>
donor molecule, donor type, donor heavy atom, donor atom, acceptor molecule, acceptor atom, score
      P1  H  6896  6907       L1    28  0.96
      P1  H  6896  6908       L1     8  0.30

> <Gold.Chemscore.Hbond.Weighted>
-4.8502

> <Gold.Chemscore.Metal.Weighted>
-0.0000

> <Gold.Chemscore.Lipo.Weighted>
-11.1075

> <Gold.Chemscore.Internal_Hbond.Weighted>
0.0000

> <Gold.Chemscore.DEClash.Weighted>
0.1336

> <Gold.Chemscore.DEInternal.Weighted>
8.2328

> <Gold.Chemscore.Rot.Weighted>
4.2265

> <Gold.Chemscore.Internal.Correction.Weighted>
   9.000000E+99

> <Gold.Protein.RotatedTorsions>
[ 6907 6896 6895 6894 ] final -156.15 input  -60.11 | X-H torsion
[ 7974 7965 7964 7962 ] final  134.84 input  175.53 | X-H torsion
[ 8008 7997 7996 7995 ] final  110.63 input   59.86 | X-H torsion
[ 10167 10162 10161 10158 ] final   -2.80 input  -65.29 | X-H torsion
[ 10718 10713 10712 10709 ] final  -42.02 input   66.30 | X-H torsion
[ 10763 10752 10751 10750 ] final   86.28 input  -60.55 | X-H torsion
[ 11005 11000 10999 10996 ] final   45.30 input  -57.11 | X-H torsion

> <Gold.Protein.ActiveResidues>
 VAL166  LYS551  ARG553  GLY616  TRP617  ASP618  TYR619  PRO620  LYS621  CYS622 
 ASP623  PHE694  ASN695  SER759  ASP760  ASP761  ALA762  ILE779  LEU786  VAL792 
 PHE793  MET794  SER795  GLU796  ALA797  LYS798  CYS799  TRP800  GLU811  SER814 

> <Gold.Protein.RotatedAtoms>
  151.2832  133.4199  159.2628 H   0  0  0  0  0  0  0  0  0  0  0  0  # atno 6907 bound_to 6896
  151.0342  134.9561  159.8137 H   0  0  0  0  0  0  0  0  0  0  0  0  # atno 6908 bound_to 6896
  152.5352  134.2792  159.9053 H   0  0  0  0  0  0  0  0  0  0  0  0  # atno 6909 bound_to 6896
  144.9723  139.4592  143.5427 H   0  0  0  0  0  0  0  0  0  0  0  0  # atno 7974 bound_to 7965
  156.2067  140.3035  155.9642 H   0  0  0  0  0  0  0  0  0  0  0  0  # atno 8008 bound_to 7997
  155.2824  140.0438  157.3033 H   0  0  0  0  0  0  0  0  0  0  0  0  # atno 8009 bound_to 7997
  154.5643  140.2329  155.8297 H   0  0  0  0  0  0  0  0  0  0  0  0  # atno 8010 bound_to 7997
  140.6865  143.6614  150.8263 H   0  0  0  0  0  0  0  0  0  0  0  0  # atno 10167 bound_to 10162
  156.2641  130.4200  149.8510 H   0  0  0  0  0  0  0  0  0  0  0  0  # atno 10718 bound_to 10713
  153.1556  135.4586  154.9699 H   0  0  0  0  0  0  0  0  0  0  0  0  # atno 10763 bound_to 10752
  154.7858  135.3203  154.7891 H   0  0  0  0  0  0  0  0  0  0  0  0  # atno 10764 bound_to 10752
  153.8389  135.6932  153.4859 H   0  0  0  0  0  0  0  0  0  0  0  0  # atno 10765 bound_to 10752
  140.1472  134.4507  155.8407 H   0  0  0  0  0  0  0  0  0  0  0  0  # atno 11005 bound_to 11000
  146.3385  139.8944  142.8804 LP  0  0  0  0  0  0  0  0  0  0  0  0  # atno 17320 bound_to 7965
  145.2540  141.0054  143.3864 LP  0  0  0  0  0  0  0  0  0  0  0  0  # atno 17321 bound_to 7965
  140.0322  143.5432  152.2755 LP  0  0  0  0  0  0  0  0  0  0  0  0  # atno 17342 bound_to 10162
  139.6229  144.7632  151.2702 LP  0  0  0  0  0  0  0  0  0  0  0  0  # atno 17343 bound_to 10162
  156.6015  130.8548  151.3433 LP  0  0  0  0  0  0  0  0  0  0  0  0  # atno 17370 bound_to 10713
  157.7261  130.9624  150.1641 LP  0  0  0  0  0  0  0  0  0  0  0  0  # atno 17371 bound_to 10713
  141.2194  133.6857  156.7356 LP  0  0  0  0  0  0  0  0  0  0  0  0  # atno 17394 bound_to 11000
  140.2649  134.8438  157.3793 LP  0  0  0  0  0  0  0  0  0  0  0  0  # atno 17395 bound_to 11000

$$$$
