AV-unprocessed.smi:1760|AV-procd|sdf|7090|dock3
  -GOLD-   22720 8303D 1   1.00000     0.00000
 Structure written by MMmdl.
 44 46  0  0  0  0  0  0  0  0  2 V2000
  149.3606  141.9628  156.9564 O   0  0  0  0  0  0  0  0  0  0  0  0
  149.9998  140.9243  156.7899 C   0  0  0  0  0  0  0  0  0  0  0  0
  151.1242  140.5783  157.4436 N   0  0  0  0  0  0  0  0  0  0  0  0
  151.8393  141.2889  158.4224 C   0  0  0  0  0  0  0  0  0  0  0  0
  151.4496  142.4717  158.9658 C   0  0  0  0  0  0  0  0  0  0  0  0
  152.2439  143.1577  159.9714 C   0  0  0  0  0  0  0  0  0  0  0  0
  151.7556  144.4357  160.6357 C   0  0  0  0  0  0  0  0  0  0  0  0
  150.4232  144.4915  160.6574 F   0  0  0  0  0  0  0  0  0  0  0  0
  152.1933  144.4877  161.8929 F   0  0  0  0  0  0  0  0  0  0  0  0
  152.2090  145.5123  159.9935 F   0  0  0  0  0  0  0  0  0  0  0  0
  153.3893  142.5574  160.3437 C   0  0  0  0  0  0  0  0  0  0  0  0
  153.8094  141.3544  159.7721 N   0  0  0  0  0  0  0  0  0  0  0  0
  153.1130  140.6751  158.8334 C   0  0  0  0  0  0  0  0  0  0  0  0
  153.5501  139.6181  158.3793 O   0  0  0  0  0  0  0  0  0  0  0  0
  149.6359  139.9634  155.9280 N   0  0  0  0  0  0  0  0  0  0  0  0
  148.4480  139.9810  155.0780 C   0  0  2  0  0  0  0  0  0  0  0  0
  148.3492  141.3284  154.3436 C   0  0  0  0  0  0  0  0  0  0  0  0
  147.0492  141.4204  153.5223 C   0  0  0  0  0  0  0  0  0  0  0  0
  145.8432  141.1790  154.3559 N   0  3  2  0  0  0  0  0  0  0  0  0
  145.5024  142.3195  155.2387 C   0  0  0  0  0  0  0  0  0  0  0  0
  144.0919  142.8286  155.0541 C   0  0  0  0  0  0  0  0  0  0  0  0
  145.2585  143.6107  154.4930 C   0  0  0  0  0  0  0  0  0  0  0  0
  145.9104  139.8792  155.0726 C   0  0  0  0  0  0  0  0  0  0  0  0
  147.1862  139.7526  155.9270 C   0  0  0  0  0  0  0  0  0  0  0  0
  154.6901  140.9770  160.0915 H   0  0  0  0  0  0  0  0  0  0  0  0
  151.4940  139.6604  157.2431 H   0  0  0  0  0  0  0  0  0  0  0  0
  150.5392  142.9548  158.6511 H   0  0  0  0  0  0  0  0  0  0  0  0
  154.0591  142.9402  161.0996 H   0  0  0  0  0  0  0  0  0  0  0  0
  150.2244  139.1454  155.8640 H   0  0  0  0  0  0  0  0  0  0  0  0
  148.5018  139.1898  154.3279 H   0  0  0  0  0  0  0  0  0  0  0  0
  148.3919  142.1493  155.0606 H   0  0  0  0  0  0  0  0  0  0  0  0
  149.2082  141.4556  153.6835 H   0  0  0  0  0  0  0  0  0  0  0  0
  146.9759  142.3921  153.0326 H   0  0  0  0  0  0  0  0  0  0  0  0
  147.0705  140.6762  152.7251 H   0  0  0  0  0  0  0  0  0  0  0  0
  145.9653  142.3353  156.2233 H   0  0  0  0  0  0  0  0  0  0  0  0
  143.4454  142.3135  154.3458 H   0  0  0  0  0  0  0  0  0  0  0  0
  143.5892  143.2411  155.9266 H   0  0  0  0  0  0  0  0  0  0  0  0
  145.5245  144.5384  154.9958 H   0  0  0  0  0  0  0  0  0  0  0  0
  145.3865  143.6151  153.4119 H   0  0  0  0  0  0  0  0  0  0  0  0
  145.0225  139.7488  155.6919 H   0  0  0  0  0  0  0  0  0  0  0  0
  145.8884  139.0778  154.3328 H   0  0  0  0  0  0  0  0  0  0  0  0
  147.2216  138.7641  156.3866 H   0  0  0  0  0  0  0  0  0  0  0  0
  147.1531  140.4694  156.7485 H   0  0  0  0  0  0  0  0  0  0  0  0
  145.0689  141.1032  153.7116 H   0  0  0  0  0  0  0  0  0  0  0  0
  1  2  2  0  0  0  0
  2  3  1  0  0  0  0
  2 15  1  0  0  0  0
  3  4  1  0  0  0  0
  3 26  1  0  0  0  0
  4 13  1  0  0  0  0
  4  5  2  0  0  0  0
  5  6  1  0  0  0  0
  5 27  1  0  0  0  0
  6  7  1  0  0  0  0
  6 11  2  0  0  0  0
  7  8  1  0  0  0  0
  7  9  1  0  0  0  0
  7 10  1  0  0  0  0
 11 12  1  0  0  0  0
 11 28  1  0  0  0  0
 12 25  1  0  0  0  0
 12 13  1  0  0  0  0
 13 14  2  0  0  0  0
 15 16  1  0  0  0  0
 15 29  1  0  0  0  0
 16 24  1  0  0  0  0
 16 17  1  0  0  0  0
 16 30  1  0  0  0  0
 17 18  1  0  0  0  0
 17 31  1  0  0  0  0
 17 32  1  0  0  0  0
 18 19  1  0  0  0  0
 18 33  1  0  0  0  0
 18 34  1  0  0  0  0
 19 20  1  0  0  0  0
 19 23  1  0  0  0  0
 19 44  1  0  0  0  0
 20 22  1  0  0  0  0
 20 21  1  0  0  0  0
 20 35  1  0  0  0  0
 21 22  1  0  0  0  0
 21 36  1  0  0  0  0
 21 37  1  0  0  0  0
 22 38  1  0  0  0  0
 22 39  1  0  0  0  0
 23 24  1  0  0  0  0
 23 40  1  0  0  0  0
 23 41  1  0  0  0  0
 24 42  1  0  0  0  0
 24 43  1  0  0  0  0
M  CHG  1  19   1
M  END
> <s_m_source_file>
AV-unprocessed.smi

> <i_m_source_file_index>
1760

> <i_lp_mmshare_version>
43012

> <i_f3d_flags>
0

> <s_epik_input>
W0NIMl0xW0NIMl1bQ0hdMU4oW0NIMl1bQ0gyXTIpW0NIMl1bQ0gyXVtDSF0yW05IXUMoPU8pW05IXWMzW2NIXWMoQyhGKShGKUYpW2NIXVtuSF1jMz1P

> <s_epik_cmdline>
J2VwaWtfcHl0aG9uJywgJy1waCcsICc3LjAnLCAnLXRuJywgJzgnLCAnLW1hJywgJzIwMCcsICctbWV0YWxfYmluZGluZycsICctaW1hZScsICc8aW5maWxlLm1hZT4nLCAnLW9tYWUnLCAnPG91dGZpbGUubWFlPic=

> <r_lp_tautomer_probability>
0.999

> <r_epik_Ionization_Penalty>
0.131122

> <r_epik_Ionization_Penalty_Charging>
0.131104

> <r_epik_Ionization_Penalty_Neutral>
1.84439e-05

> <r_epik_State_Penalty>
0.116042

> <r_epik_Charging_Adjusted_Penalty>
0.247146

> <i_epik_Tot_Q>
1

> <i_epik_Tot_abs_Q>
1

> <r_epik_Metal_State_Penalty>
0.492282

> <b_epik_Metal_Only>
0

> <s_lp_Force_Field>
OPLS_2005

> <r_lp_Energy>
39.2626

> <b_lp_Chiralities_Consistent>
1

> <s_lp_Variant>
AV-unprocessed.smi:1760-2

> <Gold.Version>
5.8.1

> <Gold.Id.Protein>
6NUR|6NUR_protein|mol2

> <Gold.PLP.Fitness>
46.1836

> <Gold.PLP.PLP>
-39.8303

> <Gold.PLP.part.hbond>
-2.0000

> <Gold.PLP.part.metal>
0.0000

> <Gold.PLP.part.buried>
-5.1746

> <Gold.PLP.part.nonpolar>
-32.2992

> <Gold.PLP.part.repulsive>
0.7011

> <Gold.PLP.ligand.clash>
0.0369

> <Gold.PLP.ligand.torsion>
1.9580

> <Gold.PLP.Chemscore.Hbond>
3.0000

> <Gold.PLP.Chemscore.CHOScore>
0.0000

> <Gold.PLP.Chemscore.Metal>
0.0000

> <Gold.Chemscore.Hbonds>
donor molecule, donor type, donor heavy atom, donor atom, acceptor molecule, acceptor atom, score
      L1  H    19    44       P1 10175  2.00
      P1  H  7997  8008       L1    14  1.00

> <Gold.PLP.Chemscore.Internal.Correction>
1.3061

> <Gold.Rescore>
     Score         DG    S(hbond)    S(metal)    S(lipo)     H(rot)  DE(clash)    DE(int)     intcor
     13.12     -18.18       1.88        0.00      82.97       1.29       0.77       4.28       ----

> <Gold.Chemscore.Fitness>
13.1241

> <Gold.Chemscore.DG>
-18.1758

> <Gold.Chemscore.ZeroCoef>
-5.4800

> <Gold.Chemscore.Hbond>
1.8815

> <Gold.Chemscore.Metal>
0.0000

> <Gold.Chemscore.Lipo>
82.9701

> <Gold.Chemscore.Internal_Hbond>
0.0000

> <Gold.Chemscore.DEClash>
0.7706

> <Gold.Chemscore.DEInternal>
4.2812

> <Gold.Chemscore.Rot>
1.2875

> <Gold.Chemscore.Internal.Correction>
   9.000000E+99

> <Gold.Chemscore.Hbonds>
donor molecule, donor type, donor heavy atom, donor atom, acceptor molecule, acceptor atom, score
      L1  H    19    44       P1 10175  0.65
      P1  H  7997  8008       L1    14  0.53

> <Gold.Chemscore.Hbond.Weighted>
-6.2843

> <Gold.Chemscore.Metal.Weighted>
-0.0000

> <Gold.Chemscore.Lipo.Weighted>
-9.7075

> <Gold.Chemscore.Internal_Hbond.Weighted>
0.0000

> <Gold.Chemscore.DEClash.Weighted>
0.7706

> <Gold.Chemscore.DEInternal.Weighted>
4.2812

> <Gold.Chemscore.Rot.Weighted>
3.2960

> <Gold.Chemscore.Internal.Correction.Weighted>
   9.000000E+99

> <Gold.Protein.RotatedTorsions>
[ 6907 6896 6895 6894 ] final  113.80 input  -60.11 | X-H torsion
[ 7974 7965 7964 7962 ] final  -66.03 input  175.53 | X-H torsion
[ 8008 7997 7996 7995 ] final  -75.15 input   59.86 | X-H torsion
[ 10167 10162 10161 10158 ] final   82.52 input  -65.29 | X-H torsion
[ 10718 10713 10712 10709 ] final  -19.42 input   66.30 | X-H torsion
[ 10763 10752 10751 10750 ] final  109.48 input  -60.55 | X-H torsion
[ 11005 11000 10999 10996 ] final   42.39 input  -57.11 | X-H torsion

> <Gold.Protein.ActiveResidues>
 VAL166  LYS551  ARG553  GLY616  TRP617  ASP618  TYR619  PRO620  LYS621  CYS622 
 ASP623  PHE694  ASN695  SER759  ASP760  ASP761  ALA762  ILE779  LEU786  VAL792 
 PHE793  MET794  SER795  GLU796  ALA797  LYS798  CYS799  TRP800  GLU811  SER814 

> <Gold.Protein.RotatedAtoms>
  152.4839  133.8324  159.7109 H   0  0  0  0  0  0  0  0  0  0  0  0  # atno 6907 bound_to 6896
  150.8911  133.7233  159.2911 H   0  0  0  0  0  0  0  0  0  0  0  0  # atno 6908 bound_to 6896
  151.4705  135.1049  159.9802 H   0  0  0  0  0  0  0  0  0  0  0  0  # atno 6909 bound_to 6896
  145.7469  140.8927  143.0500 H   0  0  0  0  0  0  0  0  0  0  0  0  # atno 7974 bound_to 7965
  154.5392  140.0749  156.8480 H   0  0  0  0  0  0  0  0  0  0  0  0  # atno 8008 bound_to 7997
  155.3216  140.3396  155.4223 H   0  0  0  0  0  0  0  0  0  0  0  0  # atno 8009 bound_to 7997
  156.1858  140.1668  156.8175 H   0  0  0  0  0  0  0  0  0  0  0  0  # atno 8010 bound_to 7997
  139.9279  144.6170  150.8374 H   0  0  0  0  0  0  0  0  0  0  0  0  # atno 10167 bound_to 10162
  156.5460  130.4690  149.6475 H   0  0  0  0  0  0  0  0  0  0  0  0  # atno 10718 bound_to 10713
  153.4354  135.3778  155.2196 H   0  0  0  0  0  0  0  0  0  0  0  0  # atno 10763 bound_to 10752
  154.8752  135.3850  154.4217 H   0  0  0  0  0  0  0  0  0  0  0  0  # atno 10764 bound_to 10752
  153.4755  135.7087  153.6031 H   0  0  0  0  0  0  0  0  0  0  0  0  # atno 10765 bound_to 10752
  140.1744  134.4182  155.8237 H   0  0  0  0  0  0  0  0  0  0  0  0  # atno 11005 bound_to 11000
  144.6858  139.9537  143.7478 LP  0  0  0  0  0  0  0  0  0  0  0  0  # atno 17320 bound_to 7965
  146.0394  139.3408  143.0706 LP  0  0  0  0  0  0  0  0  0  0  0  0  # atno 17321 bound_to 7965
  140.7645  143.3250  151.2535 LP  0  0  0  0  0  0  0  0  0  0  0  0  # atno 17342 bound_to 10162
  139.6806  143.9861  152.2806 LP  0  0  0  0  0  0  0  0  0  0  0  0  # atno 17343 bound_to 10162
  156.2928  130.7133  151.1987 LP  0  0  0  0  0  0  0  0  0  0  0  0  # atno 17370 bound_to 10713
  157.7396  131.0526  150.5218 LP  0  0  0  0  0  0  0  0  0  0  0  0  # atno 17371 bound_to 10713
  141.2219  133.6971  156.7820 LP  0  0  0  0  0  0  0  0  0  0  0  0  # atno 17394 bound_to 11000
  140.2340  134.8664  157.3506 LP  0  0  0  0  0  0  0  0  0  0  0  0  # atno 17395 bound_to 11000

$$$$
