AV-unprocessed.smi:1055|AV-procd|sdf|4629|dock3
  -GOLD-   22720 3133D 1   1.00000     0.00000
 Structure written by MMmdl.
 50 51  0  0  0  0  0  0  0  0  1 V2000
  151.8961  144.0695  157.8108 C   0  0  0  0  0  0  0  0  0  0  0  0
  151.2025  142.9812  158.1827 C   0  0  0  0  0  0  0  0  0  0  0  0
  149.6986  143.0154  158.3809 C   0  0  0  0  0  0  0  0  0  0  0  0
  151.8774  141.6358  158.4068 C   0  0  0  0  0  0  0  0  0  0  0  0
  151.2671  140.5420  157.6507 N   0  0  0  0  0  0  0  0  0  0  0  0
  151.8391  139.2436  158.0250 C   0  0  0  0  0  0  0  0  0  0  0  0
  151.1361  138.1068  157.2631 C   0  0  0  0  0  0  0  0  0  0  0  0
  151.2461  138.3065  155.7418 C   0  0  0  0  0  0  0  0  0  0  0  0
  150.4612  137.3055  155.0255 N   0  0  0  0  0  0  0  0  0  0  0  0
  150.6038  135.9784  155.1495 C   0  0  0  0  0  0  0  0  0  0  0  0
  151.4348  135.4511  155.8885 O   0  0  0  0  0  0  0  0  0  0  0  0
  149.7407  135.3221  154.3553 N   0  0  0  0  0  0  0  0  0  0  0  0
  149.5584  133.9199  154.2142 C   0  0  0  0  0  0  0  0  0  0  0  0
  150.3959  133.0655  154.9558 C   0  0  0  0  0  0  0  0  0  0  0  0
  150.2515  131.6714  154.8241 C   0  0  0  0  0  0  0  0  0  0  0  0
  149.2707  131.1580  153.9396 C   0  0  0  0  0  0  0  0  0  0  0  0
  149.0831  129.7667  153.7728 N   0  0  0  0  0  0  0  0  0  0  0  0
  150.0373  128.8237  154.3433 C   0  0  0  0  0  0  0  0  0  0  0  0
  147.8991  129.2721  153.0776 C   0  0  0  0  0  0  0  0  0  0  0  0
  148.4769  131.9842  153.2151 N   0  0  0  0  0  0  0  0  0  0  0  0
  148.6171  133.3201  153.3455 C   0  0  0  0  0  0  0  0  0  0  0  0
  150.7492  139.7148  155.3848 C   0  0  0  0  0  0  0  0  0  0  0  0
  151.4728  140.7842  156.2214 C   0  0  0  0  0  0  0  0  0  0  0  0
  151.4062  145.0178  157.6460 H   0  0  0  0  0  0  0  0  0  0  0  0
  152.9657  144.0287  157.6659 H   0  0  0  0  0  0  0  0  0  0  0  0
  149.2149  142.2957  157.7204 H   0  0  0  0  0  0  0  0  0  0  0  0
  149.2909  144.0031  158.1633 H   0  0  0  0  0  0  0  0  0  0  0  0
  149.4411  142.7641  159.4100 H   0  0  0  0  0  0  0  0  0  0  0  0
  152.9231  141.7369  158.1130 H   0  0  0  0  0  0  0  0  0  0  0  0
  151.8705  141.3952  159.4712 H   0  0  0  0  0  0  0  0  0  0  0  0
  152.9101  139.2334  157.8172 H   0  0  0  0  0  0  0  0  0  0  0  0
  151.7204  139.0695  159.0943 H   0  0  0  0  0  0  0  0  0  0  0  0
  151.5741  137.1503  157.5504 H   0  0  0  0  0  0  0  0  0  0  0  0
  150.0869  138.0677  157.5605 H   0  0  0  0  0  0  0  0  0  0  0  0
  152.2937  138.2259  155.4444 H   0  0  0  0  0  0  0  0  0  0  0  0
  149.7551  137.6510  154.3920 H   0  0  0  0  0  0  0  0  0  0  0  0
  149.1774  135.8948  153.7440 H   0  0  0  0  0  0  0  0  0  0  0  0
  151.1415  133.4703  155.6246 H   0  0  0  0  0  0  0  0  0  0  0  0
  150.8958  131.0265  155.4021 H   0  0  0  0  0  0  0  0  0  0  0  0
  151.0246  128.9643  153.9021 H   0  0  0  0  0  0  0  0  0  0  0  0
  149.7354  127.7924  154.1596 H   0  0  0  0  0  0  0  0  0  0  0  0
  150.1133  128.9599  155.4226 H   0  0  0  0  0  0  0  0  0  0  0  0
  147.8607  129.6632  152.0603 H   0  0  0  0  0  0  0  0  0  0  0  0
  146.9924  129.5773  153.6009 H   0  0  0  0  0  0  0  0  0  0  0  0
  147.8988  128.1839  153.0155 H   0  0  0  0  0  0  0  0  0  0  0  0
  147.9647  133.9035  152.7151 H   0  0  0  0  0  0  0  0  0  0  0  0
  150.9073  139.9092  154.3235 H   0  0  0  0  0  0  0  0  0  0  0  0
  149.6740  139.7883  155.5569 H   0  0  0  0  0  0  0  0  0  0  0  0
  151.0837  141.7684  155.9575 H   0  0  0  0  0  0  0  0  0  0  0  0
  152.5392  140.7892  155.9897 H   0  0  0  0  0  0  0  0  0  0  0  0
  1  2  2  0  0  0  0
  1 24  1  0  0  0  0
  1 25  1  0  0  0  0
  2  3  1  0  0  0  0
  2  4  1  0  0  0  0
  3 26  1  0  0  0  0
  3 27  1  0  0  0  0
  3 28  1  0  0  0  0
  4  5  1  0  0  0  0
  4 29  1  0  0  0  0
  4 30  1  0  0  0  0
  5 23  1  0  0  0  0
  5  6  1  0  0  0  0
  6  7  1  0  0  0  0
  6 31  1  0  0  0  0
  6 32  1  0  0  0  0
  7  8  1  0  0  0  0
  7 33  1  0  0  0  0
  7 34  1  0  0  0  0
  8  9  1  0  0  0  0
  8 22  1  0  0  0  0
  8 35  1  0  0  0  0
  9 10  1  0  0  0  0
  9 36  1  0  0  0  0
 10 11  2  0  0  0  0
 10 12  1  0  0  0  0
 12 13  1  0  0  0  0
 12 37  1  0  0  0  0
 13 21  1  0  0  0  0
 13 14  2  0  0  0  0
 14 15  1  0  0  0  0
 14 38  1  0  0  0  0
 15 16  2  0  0  0  0
 15 39  1  0  0  0  0
 16 17  1  0  0  0  0
 16 20  1  0  0  0  0
 17 18  1  0  0  0  0
 17 19  1  0  0  0  0
 18 40  1  0  0  0  0
 18 41  1  0  0  0  0
 18 42  1  0  0  0  0
 19 43  1  0  0  0  0
 19 44  1  0  0  0  0
 19 45  1  0  0  0  0
 20 21  2  0  0  0  0
 21 46  1  0  0  0  0
 22 23  1  0  0  0  0
 22 47  1  0  0  0  0
 22 48  1  0  0  0  0
 23 49  1  0  0  0  0
 23 50  1  0  0  0  0
M  END
> <s_m_source_file>
AV-unprocessed.smi

> <i_m_source_file_index>
1055

> <i_lp_mmshare_version>
43012

> <i_f3d_flags>
0

> <s_epik_input>
W0NIMl09QyhbQ0gzXSlbQ0gyXU4xW0NIMl1bQ0gyXVtDSF0oW0NIMl1bQ0gyXTEpW05IXUMoPU8pW05IXWMyW2NIXVtjSF1jKE4oW0NIM10pW0NIM10pbltjSF0y

> <s_epik_cmdline>
J2VwaWtfcHl0aG9uJywgJy1waCcsICc3LjAnLCAnLXRuJywgJzgnLCAnLW1hJywgJzIwMCcsICctbWV0YWxfYmluZGluZycsICctaW1hZScsICc8aW5maWxlLm1hZT4nLCAnLW9tYWUnLCAnPG91dGZpbGUubWFlPic=

> <r_epik_Ionization_Penalty>
2.66572

> <r_epik_Ionization_Penalty_Charging>
0

> <r_epik_Ionization_Penalty_Neutral>
2.66572

> <r_epik_State_Penalty>
2.75204

> <r_epik_Charging_Adjusted_Penalty>
2.75204

> <i_epik_Tot_Q>
0

> <i_epik_Tot_abs_Q>
0

> <r_epik_Metal_State_Penalty>
2.38689

> <b_epik_Metal_Only>
1

> <s_lp_Force_Field>
OPLS_2005

> <r_lp_Energy>
18.8719

> <b_lp_Chiralities_Consistent>
1

> <s_lp_Variant>
AV-unprocessed.smi:1055-6

> <Gold.Version>
5.8.1

> <Gold.Id.Protein>
6NUR|6NUR_protein|mol2

> <Gold.PLP.Fitness>
46.0328

> <Gold.PLP.PLP>
-39.0866

> <Gold.PLP.part.hbond>
-2.2406

> <Gold.PLP.part.metal>
0.0000

> <Gold.PLP.part.buried>
-4.4638

> <Gold.PLP.part.nonpolar>
-31.7768

> <Gold.PLP.part.repulsive>
0.2565

> <Gold.PLP.ligand.clash>
0.0000

> <Gold.PLP.ligand.torsion>
0.1431

> <Gold.PLP.Chemscore.Hbond>
1.8000

> <Gold.PLP.Chemscore.CHOScore>
0.5953

> <Gold.PLP.Chemscore.Metal>
0.0000

> <Gold.Chemscore.Hbonds>
donor molecule, donor type, donor heavy atom, donor atom, acceptor molecule, acceptor atom, score
      L1  H    12    37       P1  7948  0.75
      P1  H 10752 10764       L1    11  1.00
      L1  C    21    46       P1  7948  0.53

> <Gold.PLP.Chemscore.Internal.Correction>
0.0466

> <Gold.Rescore>
     Score         DG    S(hbond)    S(metal)    S(lipo)     H(rot)  DE(clash)    DE(int)     intcor
     15.60     -18.18       1.37        0.00      97.86       1.30       0.04       2.54       ----

> <Gold.Chemscore.Fitness>
15.6002

> <Gold.Chemscore.DG>
-18.1776

> <Gold.Chemscore.ZeroCoef>
-5.4800

> <Gold.Chemscore.Hbond>
1.3719

> <Gold.Chemscore.Metal>
0.0000

> <Gold.Chemscore.Lipo>
97.8644

> <Gold.Chemscore.Internal_Hbond>
0.0000

> <Gold.Chemscore.DEClash>
0.0403

> <Gold.Chemscore.DEInternal>
2.5370

> <Gold.Chemscore.Rot>
1.3027

> <Gold.Chemscore.Internal.Correction>
   9.000000E+99

> <Gold.Chemscore.Hbonds>
donor molecule, donor type, donor heavy atom, donor atom, acceptor molecule, acceptor atom, score
      L1  H    12    37       P1  7948  0.62
      P1  H 10752 10764       L1    11  0.39

> <Gold.Chemscore.Hbond.Weighted>
-4.5823

> <Gold.Chemscore.Metal.Weighted>
-0.0000

> <Gold.Chemscore.Lipo.Weighted>
-11.4501

> <Gold.Chemscore.Internal_Hbond.Weighted>
0.0000

> <Gold.Chemscore.DEClash.Weighted>
0.0403

> <Gold.Chemscore.DEInternal.Weighted>
2.5370

> <Gold.Chemscore.Rot.Weighted>
3.3348

> <Gold.Chemscore.Internal.Correction.Weighted>
   9.000000E+99

> <Gold.Protein.RotatedTorsions>
[ 6907 6896 6895 6894 ] final   62.78 input  -60.11 | X-H torsion
[ 7974 7965 7964 7962 ] final  177.57 input  175.53 | X-H torsion
[ 8008 7997 7996 7995 ] final  -74.57 input   59.86 | X-H torsion
[ 10167 10162 10161 10158 ] final -165.47 input  -65.29 | X-H torsion
[ 10718 10713 10712 10709 ] final   97.71 input   66.30 | X-H torsion
[ 10763 10752 10751 10750 ] final  -44.26 input  -60.55 | X-H torsion
[ 11005 11000 10999 10996 ] final  -32.15 input  -57.11 | X-H torsion

> <Gold.Protein.ActiveResidues>
 VAL166  LYS551  ARG553  GLY616  TRP617  ASP618  TYR619  PRO620  LYS621  CYS622 
 ASP623  PHE694  ASN695  SER759  ASP760  ASP761  ALA762  ILE779  LEU786  VAL792 
 PHE793  MET794  SER795  GLU796  ALA797  LYS798  CYS799  TRP800  GLU811  SER814 

> <Gold.Protein.RotatedAtoms>
  152.4200  134.5973  159.9990 H   0  0  0  0  0  0  0  0  0  0  0  0  # atno 6907 bound_to 6896
  151.6125  133.3340  159.3078 H   0  0  0  0  0  0  0  0  0  0  0  0  # atno 6908 bound_to 6896
  150.8088  134.7268  159.6734 H   0  0  0  0  0  0  0  0  0  0  0  0  # atno 6909 bound_to 6896
  144.7167  140.0266  143.6439 H   0  0  0  0  0  0  0  0  0  0  0  0  # atno 7974 bound_to 7965
  154.5342  140.0759  156.8398 H   0  0  0  0  0  0  0  0  0  0  0  0  # atno 8008 bound_to 7997
  155.3313  140.3402  155.4221 H   0  0  0  0  0  0  0  0  0  0  0  0  # atno 8009 bound_to 7997
  156.1811  140.1652  156.8258 H   0  0  0  0  0  0  0  0  0  0  0  0  # atno 8010 bound_to 7997
  139.6180  144.0681  152.1906 H   0  0  0  0  0  0  0  0  0  0  0  0  # atno 10167 bound_to 10162
  157.6908  131.0618  150.4685 H   0  0  0  0  0  0  0  0  0  0  0  0  # atno 10718 bound_to 10713
  154.0092  135.6683  153.4764 H   0  0  0  0  0  0  0  0  0  0  0  0  # atno 10763 bound_to 10752
  153.0628  135.5018  154.8129 H   0  0  0  0  0  0  0  0  0  0  0  0  # atno 10764 bound_to 10752
  154.7006  135.3078  154.9310 H   0  0  0  0  0  0  0  0  0  0  0  0  # atno 10765 bound_to 10752
  140.9528  133.7211  156.1246 H   0  0  0  0  0  0  0  0  0  0  0  0  # atno 11005 bound_to 11000
  146.0137  139.3191  143.0855 LP  0  0  0  0  0  0  0  0  0  0  0  0  # atno 17320 bound_to 7965
  145.8652  140.9452  143.0679 LP  0  0  0  0  0  0  0  0  0  0  0  0  # atno 17321 bound_to 7965
  140.0316  144.6076  150.7483 LP  0  0  0  0  0  0  0  0  0  0  0  0  # atno 17342 bound_to 10162
  140.7363  143.2752  151.3764 LP  0  0  0  0  0  0  0  0  0  0  0  0  # atno 17343 bound_to 10162
  156.5025  130.4120  149.6345 LP  0  0  0  0  0  0  0  0  0  0  0  0  # atno 17370 bound_to 10713
  156.3315  130.7334  151.2264 LP  0  0  0  0  0  0  0  0  0  0  0  0  # atno 17371 bound_to 10713
  140.7579  134.3972  157.5531 LP  0  0  0  0  0  0  0  0  0  0  0  0  # atno 17394 bound_to 11000
  139.8852  134.8942  156.2654 LP  0  0  0  0  0  0  0  0  0  0  0  0  # atno 17395 bound_to 11000

$$$$
