#       Name:                AV-unprocessed.smi:2154
#       Creating user name   scv26
#       Creation time:       Fri Mar 27 11:55:35 2020


#       File generated by GOLD software.
#

@<TRIPOS>MOLECULE
AV-unprocessed.smi:2154
    38    39     1
SMALL
NO_CHARGES


@<TRIPOS>ATOM
      1 ****        -2.5047   2.2233  -0.7955 C.3            1 S1                 0.0000
      2 ****        -2.6117   0.7142  -0.8213 C.3            1 S1                 0.0000
      3 ****        -3.7741   0.0072  -0.1609 C.3            1 S1                 0.0000
      4 ****        -2.3917  -0.0908   0.4390 C.3            1 S1                 0.0000
      5 ****        -1.6205  -1.3924   0.4036 C.3            1 S1                 0.0000
      6 ****        -0.1830  -1.2122   0.5470 N.am           1 S1                 0.0000
      7 ****         0.6400  -1.9503   1.3100 C.2            1 S1                 0.0000
      8 ****         0.2559  -2.9155   1.9699 O.2            1 S1                 0.0000
      9 ****         2.1295  -1.5638   1.3482 C.3            1 S1                 0.0000
     10 ****         2.4890  -0.3949   0.5236 N.am           1 S1                 0.0000
     11 ****         2.9823  -0.6398  -0.7701 C.2            1 S1                 0.0000
     12 ****         3.3233   0.3623  -1.6024 C.2            1 S1                 0.0000
     13 ****         3.1698   1.7332  -1.1316 C.2            1 S1                 0.0000
     14 ****         3.4747   2.6608  -1.8785 O.2            1 S1                 0.0000
     15 ****         2.6868   1.9197   0.1316 N.pl3          1 S1                -1.0000
     16 ****         2.3431   0.8908   0.9669 C.2            1 S1                 0.0000
     17 ****         1.8995   1.0816   2.0994 O.2            1 S1                 0.0000
     18 ****        -2.8850   2.6231   0.1448 H              1 S1                 0.0000
     19 ****        -3.0798   2.6542  -1.6148 H              1 S1                 0.0000
     20 ****        -1.4626   2.5244  -0.9039 H              1 S1                 0.0000
     21 ****        -2.2474   0.2688  -1.7453 H              1 S1                 0.0000
     22 ****        -4.5059   0.6152   0.3671 H              1 S1                 0.0000
     23 ****        -4.1744  -0.8725  -0.6609 H              1 S1                 0.0000
     24 ****        -2.2366   0.4789   1.3538 H              1 S1                 0.0000
     25 ****        -2.0157  -2.0373   1.1897 H              1 S1                 0.0000
     26 ****        -1.8106  -1.9012  -0.5422 H              1 S1                 0.0000
     27 ****         0.2254  -0.4368   0.0444 H              1 S1                 0.0000
     28 ****         2.4154  -1.3933   2.3874 H              1 S1                 0.0000
     29 ****         2.7109  -2.4326   1.0366 H              1 S1                 0.0000
     30 ****         3.0595  -1.6820  -1.0428 H              1 S1                 0.0000
     31 ****         3.6980   0.1567  -2.5943 H              1 S1                 0.0000
     32 ****        -0.7080  -3.1810   1.9529 LP             1 S1                 0.0000
     33 ****         0.9078  -3.4342   2.5232 LP             1 S1                 0.0000
     34 ****         3.8230   2.4700  -2.7962 LP             1 S1                 0.0000
     35 ****         3.3744   3.6062  -1.5683 LP             1 S1                 0.0000
     36 ****         2.5784   2.8566   0.4641 LP             1 S1                 0.0000
     37 ****         1.6530   0.3038   2.6775 LP             1 S1                 0.0000
     38 ****         1.7857   2.0145   2.4413 LP             1 S1                 0.0000
@<TRIPOS>BOND
    1    1    2 1     
    2    1   18 1     
    3    1   19 1     
    4    1   20 1     
    5    2    4 1     
    6    2    3 1     
    7    2   21 1     
    8    3    4 1     
    9    3   22 1     
   10    3   23 1     
   11    4    5 1     
   12    4   24 1     
   13    5    6 1     
   14    5   25 1     
   15    5   26 1     
   16    6    7 am    
   17    6   27 1     
   18    7    8 2     
   19    7    9 1     
   20    9   10 1     
   21    9   28 1     
   22    9   29 1     
   23   10   16 am    
   24   10   11 1     
   25   11   12 2     
   26   11   30 1     
   27   12   13 1     
   28   12   31 1     
   29   13   14 2     
   30   13   15 1     
   31   15   16 1     
   32   16   17 2     
   33    8   32 1     
   34    8   33 1     
   35   14   34 1     
   36   14   35 1     
   37   15   36 1     
   38   17   37 1     
   39   17   38 1     
@<TRIPOS>SUBSTRUCTURE
      1 S1             1
@<TRIPOS>SET
LONE_PAIRS      STATIC     ATOMS    <user>   **** ""
7 32 33 34 35 36 37 38
DONOR_HYDROGENS      STATIC     ATOMS    <user>   **** ""
1 27
ATOM$BLUE        STATIC     ATOMS    COLORGROUP SYSTEM
7 32 33 34 35 36 37 38
ATOM$RED        STATIC     ATOMS    COLORGROUP SYSTEM
1 27
