AV-unprocessed.smi:1572|AV-procd|sdf|6331|dock5
  -GOLD-   22720 6543D 1   1.00000     0.00000
 Structure written by MMmdl.
 42 43  0  0  0  0  0  0  0  0  3 V2000
  145.8327  131.8903  152.6902 C   0  0  0  0  0  0  0  0  0  0  0  0
  146.4913  132.9776  151.9743 N   0  0  0  0  0  0  0  0  0  0  0  0
  146.1360  134.3015  152.4845 C   0  0  0  0  0  0  0  0  0  0  0  0
  146.7616  134.5852  153.8665 C   0  0  0  0  0  0  0  0  0  0  0  0
  148.2464  134.4587  153.8092 N   0  3  0  0  0  0  0  0  0  0  0  0
  148.9939  134.9224  155.0331 C   0  0  0  0  0  0  0  0  0  0  0  0
  150.5166  134.9340  154.7456 C   0  0  0  0  0  0  0  0  0  0  0  0
  148.6084  136.3905  155.3467 C   0  0  0  0  0  0  0  0  0  0  0  0
  148.6992  134.0036  156.2571 C   0  0  0  0  0  0  0  0  0  0  0  0
  149.0827  134.6014  157.5352 N   0  0  0  0  0  0  0  0  0  0  0  0
  148.2518  135.0225  158.4994 C   0  0  0  0  0  0  0  0  0  0  0  0
  147.0320  134.9185  158.3524 O   0  0  0  0  0  0  0  0  0  0  0  0
  148.8881  135.5478  159.5699 N   0  5  0  0  0  0  0  0  0  0  0  0
  148.2859  135.5556  160.7706 C   0  0  0  0  0  0  0  0  0  0  0  0
  148.2351  136.6536  161.5415 N   0  0  0  0  0  0  0  0  0  0  0  0
  147.5676  136.4479  162.7411 N   0  0  0  0  0  0  0  0  0  0  0  0
  147.1200  135.1964  162.8396 C   0  0  0  0  0  0  0  0  0  0  0  0
  147.4736  134.1558  161.4767 S   0  0  0  0  0  0  0  0  0  0  0  0
  148.6003  133.1011  153.3050 C   0  0  0  0  0  0  0  0  0  0  0  0
  147.9467  132.8418  151.9317 C   0  0  0  0  0  0  0  0  0  0  0  0
  144.7499  132.0061  152.6365 H   0  0  0  0  0  0  0  0  0  0  0  0
  146.1143  131.8469  153.7417 H   0  0  0  0  0  0  0  0  0  0  0  0
  146.0846  130.9323  152.2344 H   0  0  0  0  0  0  0  0  0  0  0  0
  146.4773  135.0516  151.7699 H   0  0  0  0  0  0  0  0  0  0  0  0
  145.0502  134.3945  152.5328 H   0  0  0  0  0  0  0  0  0  0  0  0
  146.4629  135.5919  154.1505 H   0  0  0  0  0  0  0  0  0  0  0  0
  146.3451  133.9150  154.6176 H   0  0  0  0  0  0  0  0  0  0  0  0
  151.0707  135.4504  155.5304 H   0  0  0  0  0  0  0  0  0  0  0  0
  150.7415  135.4442  153.8084 H   0  0  0  0  0  0  0  0  0  0  0  0
  150.9377  133.9303  154.6934 H   0  0  0  0  0  0  0  0  0  0  0  0
  149.2762  136.8361  156.0846 H   0  0  0  0  0  0  0  0  0  0  0  0
  147.6039  136.4765  155.7605 H   0  0  0  0  0  0  0  0  0  0  0  0
  148.6606  137.0154  154.4545 H   0  0  0  0  0  0  0  0  0  0  0  0
  147.6497  133.7110  156.2880 H   0  0  0  0  0  0  0  0  0  0  0  0
  149.2618  133.0741  156.1785 H   0  0  0  0  0  0  0  0  0  0  0  0
  150.0717  134.7092  157.7067 H   0  0  0  0  0  0  0  0  0  0  0  0
  146.5780  134.8840  163.7196 H   0  0  0  0  0  0  0  0  0  0  0  0
  149.6748  133.0001  153.1690 H   0  0  0  0  0  0  0  0  0  0  0  0
  148.3038  132.3335  154.0194 H   0  0  0  0  0  0  0  0  0  0  0  0
  148.2103  131.8484  151.5668 H   0  0  0  0  0  0  0  0  0  0  0  0
  148.3401  133.5517  151.2027 H   0  0  0  0  0  0  0  0  0  0  0  0
  148.5356  135.0938  153.0795 H   0  0  0  0  0  0  0  0  0  0  0  0
  1  2  1  0  0  0  0
  1 21  1  0  0  0  0
  1 22  1  0  0  0  0
  1 23  1  0  0  0  0
  2 20  1  0  0  0  0
  2  3  1  0  0  0  0
  3  4  1  0  0  0  0
  3 24  1  0  0  0  0
  3 25  1  0  0  0  0
  4  5  1  0  0  0  0
  4 26  1  0  0  0  0
  4 27  1  0  0  0  0
  5  6  1  0  0  0  0
  5 19  1  0  0  0  0
  5 42  1  0  0  0  0
  6  7  1  0  0  0  0
  6  8  1  0  0  0  0
  6  9  1  0  0  0  0
  7 28  1  0  0  0  0
  7 29  1  0  0  0  0
  7 30  1  0  0  0  0
  8 31  1  0  0  0  0
  8 32  1  0  0  0  0
  8 33  1  0  0  0  0
  9 10  1  0  0  0  0
  9 34  1  0  0  0  0
  9 35  1  0  0  0  0
 10 11  1  0  0  0  0
 10 36  1  0  0  0  0
 11 12  2  0  0  0  0
 11 13  1  0  0  0  0
 13 14  1  0  0  0  0
 14 18  1  0  0  0  0
 14 15  2  0  0  0  0
 15 16  1  0  0  0  0
 16 17  2  0  0  0  0
 17 18  1  0  0  0  0
 17 37  1  0  0  0  0
 19 20  1  0  0  0  0
 19 38  1  0  0  0  0
 19 39  1  0  0  0  0
 20 40  1  0  0  0  0
 20 41  1  0  0  0  0
M  CHG  1   5   1
M  CHG  1  13  -1
M  END
> <s_m_source_file>
AV-unprocessed.smi

> <i_m_source_file_index>
1572

> <i_lp_mmshare_version>
43012

> <i_f3d_flags>
0

> <s_epik_input>
W0NIM11OMVtDSDJdW0NIMl1OKFtDSDJdW0NIMl0xKUMoW0NIM10pKFtDSDNdKVtDSDJdW05IXUMoPU8pW05IXWMybm5bY0hdczI=

> <s_epik_cmdline>
J2VwaWtfcHl0aG9uJywgJy1waCcsICc3LjAnLCAnLXRuJywgJzgnLCAnLW1hJywgJzIwMCcsICctbWV0YWxfYmluZGluZycsICctaW1hZScsICc8aW5maWxlLm1hZT4nLCAnLW9tYWUnLCAnPG91dGZpbGUubWFlPic=

> <r_epik_Ionization_Penalty>
3.12043

> <r_epik_Ionization_Penalty_Charging>
3.08547

> <r_epik_Ionization_Penalty_Neutral>
0.0349584

> <r_epik_State_Penalty>
4.04075

> <r_epik_Charging_Adjusted_Penalty>
7.12622

> <i_epik_Tot_Q>
0

> <i_epik_Tot_abs_Q>
2

> <r_epik_Metal_State_Penalty>
1.47091

> <b_epik_Metal_Only>
1

> <s_lp_Force_Field>
OPLS_2005

> <r_lp_Energy>
19.1563

> <b_lp_Chiralities_Consistent>
1

> <s_lp_Variant>
AV-unprocessed.smi:1572-5

> <Gold.Version>
5.8.1

> <Gold.Id.Protein>
6NUR|6NUR_protein|mol2

> <Gold.PLP.Fitness>
39.3750

> <Gold.PLP.PLP>
-25.8604

> <Gold.PLP.part.hbond>
-3.0035

> <Gold.PLP.part.metal>
0.0000

> <Gold.PLP.part.buried>
-3.4481

> <Gold.PLP.part.nonpolar>
-19.4915

> <Gold.PLP.part.repulsive>
0.2116

> <Gold.PLP.ligand.clash>
0.0000

> <Gold.PLP.ligand.torsion>
0.8178

> <Gold.PLP.Chemscore.Hbond>
5.0000

> <Gold.PLP.Chemscore.CHOScore>
0.0000

> <Gold.PLP.Chemscore.Metal>
0.0000

> <Gold.Chemscore.Hbonds>
donor molecule, donor type, donor heavy atom, donor atom, acceptor molecule, acceptor atom, score
      L1  H     5    42       P1  7948  2.00
      P1  H  6896  6907       L1    13  2.00
      P1  H  6931  6943       L1    15  1.00

> <Gold.PLP.Chemscore.Internal.Correction>
0.1502

> <Gold.Rescore>
     Score         DG    S(hbond)    S(metal)    S(lipo)     H(rot)  DE(clash)    DE(int)     intcor
     14.11     -15.02       2.27        0.00      53.24       1.67       0.06       0.85       ----

> <Gold.Chemscore.Fitness>
14.1084

> <Gold.Chemscore.DG>
-15.0184

> <Gold.Chemscore.ZeroCoef>
-5.4800

> <Gold.Chemscore.Hbond>
2.2705

> <Gold.Chemscore.Metal>
0.0000

> <Gold.Chemscore.Lipo>
53.2365

> <Gold.Chemscore.Internal_Hbond>
0.0000

> <Gold.Chemscore.DEClash>
0.0624

> <Gold.Chemscore.DEInternal>
0.8476

> <Gold.Chemscore.Rot>
1.6694

> <Gold.Chemscore.Internal.Correction>
   9.000000E+99

> <Gold.Chemscore.Hbonds>
donor molecule, donor type, donor heavy atom, donor atom, acceptor molecule, acceptor atom, score
      L1  H     5    42       P1  7948  0.74
      P1  H  6896  6907       L1    13  0.46
      P1  H  6931  6943       L1    15  0.26

> <Gold.Chemscore.Hbond.Weighted>
-7.5835

> <Gold.Chemscore.Metal.Weighted>
-0.0000

> <Gold.Chemscore.Lipo.Weighted>
-6.2287

> <Gold.Chemscore.Internal_Hbond.Weighted>
0.0000

> <Gold.Chemscore.DEClash.Weighted>
0.0624

> <Gold.Chemscore.DEInternal.Weighted>
0.8476

> <Gold.Chemscore.Rot.Weighted>
4.2738

> <Gold.Chemscore.Internal.Correction.Weighted>
   9.000000E+99

> <Gold.Protein.RotatedTorsions>
[ 6907 6896 6895 6894 ] final  -60.07 input  -60.11 | X-H torsion
[ 7974 7965 7964 7962 ] final -110.96 input  175.53 | X-H torsion
[ 8008 7997 7996 7995 ] final   78.51 input   59.86 | X-H torsion
[ 10167 10162 10161 10158 ] final   11.58 input  -65.29 | X-H torsion
[ 10718 10713 10712 10709 ] final   53.84 input   66.30 | X-H torsion
[ 10763 10752 10751 10750 ] final -139.92 input  -60.55 | X-H torsion
[ 11005 11000 10999 10996 ] final  -30.35 input  -57.11 | X-H torsion

> <Gold.Protein.ActiveResidues>
 VAL166  LYS551  ARG553  GLY616  TRP617  ASP618  TYR619  PRO620  LYS621  CYS622 
 ASP623  PHE694  ASN695  SER759  ASP760  ASP761  ALA762  ILE779  LEU786  VAL792 
 PHE793  MET794  SER795  GLU796  ALA797  LYS798  CYS799  TRP800  GLU811  SER814 

> <Gold.Protein.RotatedAtoms>
  150.7884  134.6886  159.6483 H   0  0  0  0  0  0  0  0  0  0  0  0  # atno 6907 bound_to 6896
  152.3984  134.6323  160.0088 H   0  0  0  0  0  0  0  0  0  0  0  0  # atno 6908 bound_to 6896
  151.6602  133.3280  159.3208 H   0  0  0  0  0  0  0  0  0  0  0  0  # atno 6909 bound_to 6896
  145.1619  140.8883  143.3586 H   0  0  0  0  0  0  0  0  0  0  0  0  # atno 7974 bound_to 7965
  155.8567  140.3455  155.5729 H   0  0  0  0  0  0  0  0  0  0  0  0  # atno 8008 bound_to 7997
  155.7979  140.0881  157.1993 H   0  0  0  0  0  0  0  0  0  0  0  0  # atno 8009 bound_to 7997
  154.4010  140.1471  156.3227 H   0  0  0  0  0  0  0  0  0  0  0  0  # atno 8010 bound_to 7997
  140.6123  143.8382  150.7079 H   0  0  0  0  0  0  0  0  0  0  0  0  # atno 10167 bound_to 10162
  157.5203  130.8561  149.8550 H   0  0  0  0  0  0  0  0  0  0  0  0  # atno 10718 bound_to 10713
  154.8595  135.3568  154.5624 H   0  0  0  0  0  0  0  0  0  0  0  0  # atno 10763 bound_to 10752
  153.6239  135.7005  153.5305 H   0  0  0  0  0  0  0  0  0  0  0  0  # atno 10764 bound_to 10752
  153.3106  135.4180  155.1292 H   0  0  0  0  0  0  0  0  0  0  0  0  # atno 10765 bound_to 10752
  140.9376  133.7299  156.1027 H   0  0  0  0  0  0  0  0  0  0  0  0  # atno 11005 bound_to 11000
  145.0322  139.3331  143.6019 LP  0  0  0  0  0  0  0  0  0  0  0  0  # atno 17320 bound_to 7965
  146.3481  139.9664  142.8711 LP  0  0  0  0  0  0  0  0  0  0  0  0  # atno 17321 bound_to 7965
  140.1953  143.4003  152.1832 LP  0  0  0  0  0  0  0  0  0  0  0  0  # atno 17342 bound_to 10162
  139.5371  144.7220  151.4858 LP  0  0  0  0  0  0  0  0  0  0  0  0  # atno 17343 bound_to 10162
  156.0349  130.3754  150.1587 LP  0  0  0  0  0  0  0  0  0  0  0  0  # atno 17370 bound_to 10713
  156.9775  130.9854  151.3445 LP  0  0  0  0  0  0  0  0  0  0  0  0  # atno 17371 bound_to 10713
  140.7779  134.3759  157.5494 LP  0  0  0  0  0  0  0  0  0  0  0  0  # atno 17394 bound_to 11000
  139.8812  134.9063  156.2919 LP  0  0  0  0  0  0  0  0  0  0  0  0  # atno 17395 bound_to 11000

$$$$
