AV-unprocessed.smi:285|AV-procd|sdf|2170|dock2
  -GOLD-   2262021533D 1   1.00000     0.00000
 Structure written by MMmdl.
 31 33  0  0  0  0  0  0  0  0  1 V2000
  155.4285  141.0144  160.7720 N   0  0  0  0  0  0  0  0  0  0  0  0
  154.1960  141.3153  160.3398 C   0  0  0  0  0  0  0  0  0  0  0  0
  153.5663  142.3821  160.8851 N   0  0  0  0  0  0  0  0  0  0  0  0
  152.3346  142.7012  160.4747 C   0  0  0  0  0  0  0  0  0  0  0  0
  151.5772  142.0972  159.5552 N   0  0  0  0  0  0  0  0  0  0  0  0
  152.2139  141.0229  159.0023 C   0  0  0  0  0  0  0  0  0  0  0  0
  153.5219  140.5676  159.3416 C   0  0  0  0  0  0  0  0  0  0  0  0
  153.8510  139.4477  158.5882 N   0  0  0  0  0  0  0  0  0  0  0  0
  152.7866  139.2713  157.8563 C   0  0  0  0  0  0  0  0  0  0  0  0
  152.6957  137.8224  156.6232 Br  0  0  0  0  0  0  0  0  0  0  0  0
  151.7499  140.1607  158.0280 N   0  0  0  0  0  0  0  0  0  0  0  0
  150.4232  140.2046  157.3389 C   0  0  1  0  0  0  0  0  0  0  0  0
  150.1008  141.6200  156.8698 C   0  0  0  0  0  0  0  0  0  0  0  0
  149.2911  141.3219  155.6283 C   0  0  1  0  0  0  0  0  0  0  0  0
  149.2884  142.4285  154.7501 O   0  0  0  0  0  0  0  0  0  0  0  0
  150.0421  140.1168  155.0507 C   0  0  2  0  0  0  0  0  0  0  0  0
  149.1641  139.2203  154.1640 C   0  0  0  0  0  0  0  0  0  0  0  0
  148.3739  140.0107  153.3019 O   0  0  0  0  0  0  0  0  0  0  0  0
  150.4729  139.3918  156.2044 O   0  0  0  0  0  0  0  0  0  0  0  0
  155.9186  140.2220  160.3821 H   0  0  0  0  0  0  0  0  0  0  0  0
  155.8641  141.5790  161.4869 H   0  0  0  0  0  0  0  0  0  0  0  0
  151.8917  143.5632  160.9515 H   0  0  0  0  0  0  0  0  0  0  0  0
  149.6968  139.8040  158.0455 H   0  0  0  0  0  0  0  0  0  0  0  0
  149.5587  142.1785  157.6335 H   0  0  0  0  0  0  0  0  0  0  0  0
  151.0212  142.1509  156.6193 H   0  0  0  0  0  0  0  0  0  0  0  0
  148.2699  141.0509  155.9011 H   0  0  0  0  0  0  0  0  0  0  0  0
  149.2113  143.2185  155.2635 H   0  0  0  0  0  0  0  0  0  0  0  0
  150.9230  140.4650  154.5078 H   0  0  0  0  0  0  0  0  0  0  0  0
  149.7675  138.5161  153.5903 H   0  0  0  0  0  0  0  0  0  0  0  0
  148.4832  138.6344  154.7822 H   0  0  0  0  0  0  0  0  0  0  0  0
  148.7398  139.9646  152.4317 H   0  0  0  0  0  0  0  0  0  0  0  0
  1  2  1  0  0  0  0
  1 20  1  0  0  0  0
  1 21  1  0  0  0  0
  2  7  1  0  0  0  0
  2  3  2  0  0  0  0
  3  4  1  0  0  0  0
  4  5  2  0  0  0  0
  4 22  1  0  0  0  0
  5  6  1  0  0  0  0
  6 11  1  0  0  0  0
  6  7  2  0  0  0  0
  7  8  1  0  0  0  0
  8  9  2  0  0  0  0
  9 10  1  0  0  0  0
  9 11  1  0  0  0  0
 11 12  1  0  0  0  0
 12 19  1  0  0  0  0
 12 13  1  0  0  0  0
 12 23  1  0  0  0  0
 13 14  1  0  0  0  0
 13 24  1  0  0  0  0
 13 25  1  0  0  0  0
 14 15  1  0  0  0  0
 14 16  1  0  0  0  0
 14 26  1  0  0  0  0
 15 27  1  0  0  0  0
 16 17  1  0  0  0  0
 16 19  1  0  0  0  0
 16 28  1  0  0  0  0
 17 18  1  0  0  0  0
 17 29  1  0  0  0  0
 17 30  1  0  0  0  0
 18 31  1  0  0  0  0
M  END
> <s_m_source_file>
AV-unprocessed.smi

> <i_m_source_file_index>
285

> <i_lp_mmshare_version>
43012

> <i_f3d_flags>
0

> <s_epik_input>
bjFbY0hdbmMoW05IMl0pYyhjMTIpbmMoQnIpbjJbQ0BASF0zW0NIMl1bQ0BASF0oW09IXSlbQ0BIXShPMylbQ0gyXVtPSF0=

> <s_epik_cmdline>
J2VwaWtfcHl0aG9uJywgJy1waCcsICc3LjAnLCAnLXRuJywgJzgnLCAnLW1hJywgJzIwMCcsICctbWV0YWxfYmluZGluZycsICctaW1hZScsICc8aW5maWxlLm1hZT4nLCAnLW9tYWUnLCAnPG91dGZpbGUubWFlPic=

> <r_lp_tautomer_probability>
1

> <r_epik_Ionization_Penalty>
0.000103242

> <r_epik_Ionization_Penalty_Charging>
0

> <r_epik_Ionization_Penalty_Neutral>
0.000103242

> <r_epik_State_Penalty>
-0

> <r_epik_Charging_Adjusted_Penalty>
0

> <i_epik_Tot_Q>
0

> <i_epik_Tot_abs_Q>
0

> <r_epik_Metal_State_Penalty>
-0

> <b_epik_Metal_Only>
0

> <s_epik_Chemistry_Notes>
This compound contains an acetal/aminal-like group ( X-CH(R)-Y where X, Y are N, S, or O) that may be acid/base labile, releasing an aldehyde.

> <s_lp_Force_Field>
OPLS_2005

> <r_lp_Energy>
32.6465

> <b_lp_Chiralities_Consistent>
1

> <s_lp_Variant>
AV-unprocessed.smi:285-6

> <Gold.Version>
5.8.1

> <Gold.Id.Protein>
6NUR|6NUR_protein|mol2

> <Gold.PLP.Fitness>
40.0085

> <Gold.PLP.PLP>
-31.9403

> <Gold.PLP.part.hbond>
-5.0284

> <Gold.PLP.part.metal>
0.0000

> <Gold.PLP.part.buried>
-4.1937

> <Gold.PLP.part.nonpolar>
-21.7316

> <Gold.PLP.part.repulsive>
0.0348

> <Gold.PLP.ligand.clash>
0.0000

> <Gold.PLP.ligand.torsion>
0.4936

> <Gold.PLP.Chemscore.Hbond>
3.0156

> <Gold.PLP.Chemscore.CHOScore>
0.0000

> <Gold.PLP.Chemscore.Metal>
0.0000

> <Gold.Chemscore.Hbonds>
donor molecule, donor type, donor heavy atom, donor atom, acceptor molecule, acceptor atom, score
      L1  H    15    27       P1  8028  1.00
      L1  H    18    31       P1  7957  1.00
      P1  H  7997  8008       L1     8  0.85

> <Gold.PLP.Chemscore.Internal.Correction>
0.0086

> <Gold.Rescore>
     Score         DG    S(hbond)    S(metal)    S(lipo)     H(rot)  DE(clash)    DE(int)     intcor
      8.22     -10.29       2.44        0.00      38.34       3.06       0.31       1.75       ----

> <Gold.Chemscore.Fitness>
8.2236

> <Gold.Chemscore.DG>
-10.2897

> <Gold.Chemscore.ZeroCoef>
-5.4800

> <Gold.Chemscore.Hbond>
2.4429

> <Gold.Chemscore.Metal>
0.0000

> <Gold.Chemscore.Lipo>
38.3409

> <Gold.Chemscore.Internal_Hbond>
0.0000

> <Gold.Chemscore.DEClash>
0.3129

> <Gold.Chemscore.DEInternal>
1.7532

> <Gold.Chemscore.Rot>
3.0607

> <Gold.Chemscore.Internal.Correction>
   9.000000E+99

> <Gold.Chemscore.Hbonds>
donor molecule, donor type, donor heavy atom, donor atom, acceptor molecule, acceptor atom, score
      L1  H    15    27       P1  8028  0.97
      L1  H    18    31       P1  7957  0.93
      P1  H  7997  8008       L1     8  0.08
      P1  H  8011  8017       L1    15  0.01

> <Gold.Chemscore.Hbond.Weighted>
-8.1592

> <Gold.Chemscore.Metal.Weighted>
-0.0000

> <Gold.Chemscore.Lipo.Weighted>
-4.4859

> <Gold.Chemscore.Internal_Hbond.Weighted>
0.0000

> <Gold.Chemscore.DEClash.Weighted>
0.3129

> <Gold.Chemscore.DEInternal.Weighted>
1.7532

> <Gold.Chemscore.Rot.Weighted>
7.8354

> <Gold.Chemscore.Internal.Correction.Weighted>
   9.000000E+99

> <Gold.Protein.RotatedTorsions>
[ 6907 6896 6895 6894 ] final -139.42 input  -60.11 | X-H torsion
[ 7974 7965 7964 7962 ] final   98.01 input  175.53 | X-H torsion
[ 8008 7997 7996 7995 ] final -109.86 input   59.86 | X-H torsion
[ 10167 10162 10161 10158 ] final  -68.09 input  -65.29 | X-H torsion
[ 10718 10713 10712 10709 ] final -103.04 input   66.30 | X-H torsion
[ 10763 10752 10751 10750 ] final -169.48 input  -60.55 | X-H torsion
[ 11005 11000 10999 10996 ] final  127.33 input  -57.11 | X-H torsion

> <Gold.Protein.ActiveResidues>
 VAL166  LYS551  ARG553  GLY616  TRP617  ASP618  TYR619  PRO620  LYS621  CYS622 
 ASP623  PHE694  ASN695  SER759  ASP760  ASP761  ALA762  ILE779  LEU786  VAL792 
 PHE793  MET794  SER795  GLU796  ALA797  LYS798  CYS799  TRP800  GLU811  SER814 

> <Gold.Protein.RotatedAtoms>
  151.0476  133.5652  159.2645 H   0  0  0  0  0  0  0  0  0  0  0  0  # atno 6907 bound_to 6896
  151.2675  135.0673  159.9131 H   0  0  0  0  0  0  0  0  0  0  0  0  # atno 6908 bound_to 6896
  152.5376  134.0212  159.8036 H   0  0  0  0  0  0  0  0  0  0  0  0  # atno 6909 bound_to 6896
  145.4178  139.2325  143.3212 H   0  0  0  0  0  0  0  0  0  0  0  0  # atno 7974 bound_to 7965
  154.9658  140.0398  157.2211 H   0  0  0  0  0  0  0  0  0  0  0  0  # atno 8008 bound_to 7997
  154.7847  140.2825  155.6015 H   0  0  0  0  0  0  0  0  0  0  0  0  # atno 8009 bound_to 7997
  156.2941  140.2585  156.2681 H   0  0  0  0  0  0  0  0  0  0  0  0  # atno 8010 bound_to 7997
  140.5534  143.2312  151.6868 H   0  0  0  0  0  0  0  0  0  0  0  0  # atno 10167 bound_to 10162
  156.0250  130.5448  150.7195 H   0  0  0  0  0  0  0  0  0  0  0  0  # atno 10718 bound_to 10713
  154.6518  135.2912  154.9977 H   0  0  0  0  0  0  0  0  0  0  0  0  # atno 10763 bound_to 10752
  154.1067  135.6568  153.4881 H   0  0  0  0  0  0  0  0  0  0  0  0  # atno 10764 bound_to 10752
  153.0381  135.5255  154.7430 H   0  0  0  0  0  0  0  0  0  0  0  0  # atno 10765 bound_to 10752
  139.9502  134.9623  156.8838 H   0  0  0  0  0  0  0  0  0  0  0  0  # atno 11005 bound_to 11000
  146.2672  140.4899  142.8829 LP  0  0  0  0  0  0  0  0  0  0  0  0  # atno 17320 bound_to 7965
  144.8265  140.6637  143.6318 LP  0  0  0  0  0  0  0  0  0  0  0  0  # atno 17321 bound_to 7965
  139.5037  144.3781  152.0403 LP  0  0  0  0  0  0  0  0  0  0  0  0  # atno 17342 bound_to 10162
  140.2900  144.3764  150.6091 LP  0  0  0  0  0  0  0  0  0  0  0  0  # atno 17343 bound_to 10162
  157.4814  131.0902  151.0532 LP  0  0  0  0  0  0  0  0  0  0  0  0  # atno 17370 bound_to 10713
  157.0964  130.5963  149.5450 LP  0  0  0  0  0  0  0  0  0  0  0  0  # atno 17371 bound_to 10713
  140.5738  134.0418  155.7440 LP  0  0  0  0  0  0  0  0  0  0  0  0  # atno 17394 bound_to 11000
  141.1162  133.9535  157.2817 LP  0  0  0  0  0  0  0  0  0  0  0  0  # atno 17395 bound_to 11000

$$$$
