AV-unprocessed.smi:701|AV-procd|sdf|3409|dock10
  -GOLD-   22720 0393D 1   1.00000     0.00000
 Structure written by MMmdl.
 49 51  0  0  0  0  0  0  0  0  1 V2000
  154.1721  141.2726  160.2708 C   0  0  0  0  0  0  0  0  0  0  0  0
  153.4455  139.9978  159.8216 C   0  0  0  0  0  0  0  0  0  0  0  0
  153.5303  139.7839  158.4189 O   0  0  0  0  0  0  0  0  0  0  0  0
  152.7368  138.7127  157.9280 C   0  0  1  0  0  0  0  0  0  0  0  0
  152.3651  137.6808  158.9972 C   0  0  0  0  0  0  0  0  0  0  0  0
  151.0091  137.6042  158.2996 C   0  0  1  0  0  0  0  0  0  0  0  0
  149.9055  137.4374  159.2385 N   0  0  0  0  0  0  0  0  0  0  0  0
  149.2091  136.3027  159.3960 C   0  0  0  0  0  0  0  0  0  0  0  0
  149.4371  135.2788  158.7503 O   0  0  0  0  0  0  0  0  0  0  0  0
  148.0657  136.3487  160.4191 C   0  0  0  0  0  0  0  0  0  0  0  0
  147.5175  135.0195  160.7250 N   0  0  0  0  0  0  0  0  0  0  0  0
  147.4507  134.5747  162.0378 C   0  0  0  0  0  0  0  0  0  0  0  0
  146.9463  133.3689  162.3914 C   0  0  0  0  0  0  0  0  0  0  0  0
  146.4345  132.4556  161.3751 C   0  0  0  0  0  0  0  0  0  0  0  0
  145.9603  131.3435  161.5954 O   0  0  0  0  0  0  0  0  0  0  0  0
  146.5169  132.9404  160.0670 N   0  0  0  0  0  0  0  0  0  0  0  0
  147.0332  134.1828  159.6960 C   0  0  0  0  0  0  0  0  0  0  0  0
  147.0542  134.5150  158.5114 O   0  0  0  0  0  0  0  0  0  0  0  0
  151.2267  139.0562  157.7910 C   0  0  0  0  0  0  0  0  0  0  0  0
  150.6762  140.1971  158.6871 C   0  0  0  0  0  0  0  0  0  0  0  0
  151.0149  141.6124  158.1794 C   0  0  0  0  0  0  0  0  0  0  0  0
  150.5757  141.8118  156.7244 C   0  0  0  0  0  0  0  0  0  0  0  0
  151.1259  140.6986  155.8258 C   0  0  0  0  0  0  0  0  0  0  0  0
  150.7259  139.3152  156.3610 C   0  0  0  0  0  0  0  0  0  0  0  0
  146.1723  132.3436  159.3291 H   0  0  0  0  0  0  0  0  0  0  0  0
  154.1871  141.3437  161.3586 H   0  0  0  0  0  0  0  0  0  0  0  0
  153.6812  142.1691  159.8945 H   0  0  0  0  0  0  0  0  0  0  0  0
  155.2052  141.2790  159.9225 H   0  0  0  0  0  0  0  0  0  0  0  0
  153.9088  139.1391  160.3080 H   0  0  0  0  0  0  0  0  0  0  0  0
  152.4034  140.0081  160.1443 H   0  0  0  0  0  0  0  0  0  0  0  0
  153.1312  138.2551  157.0172 H   0  0  0  0  0  0  0  0  0  0  0  0
  152.9410  136.7561  158.9653 H   0  0  0  0  0  0  0  0  0  0  0  0
  152.3249  138.0993  160.0044 H   0  0  0  0  0  0  0  0  0  0  0  0
  151.0194  136.8683  157.4916 H   0  0  0  0  0  0  0  0  0  0  0  0
  149.6533  138.2375  159.8003 H   0  0  0  0  0  0  0  0  0  0  0  0
  148.4053  136.8372  161.3349 H   0  0  0  0  0  0  0  0  0  0  0  0
  147.2837  136.9970  160.0214 H   0  0  0  0  0  0  0  0  0  0  0  0
  147.8142  135.2207  162.8244 H   0  0  0  0  0  0  0  0  0  0  0  0
  146.9202  133.0790  163.4318 H   0  0  0  0  0  0  0  0  0  0  0  0
  149.5907  140.1181  158.7570 H   0  0  0  0  0  0  0  0  0  0  0  0
  151.0412  140.0975  159.7096 H   0  0  0  0  0  0  0  0  0  0  0  0
  150.5328  142.3564  158.8142 H   0  0  0  0  0  0  0  0  0  0  0  0
  152.0852  141.7981  158.2613 H   0  0  0  0  0  0  0  0  0  0  0  0
  149.4865  141.8149  156.6705 H   0  0  0  0  0  0  0  0  0  0  0  0
  150.9070  142.7857  156.3628 H   0  0  0  0  0  0  0  0  0  0  0  0
  150.7541  140.8265  154.8088 H   0  0  0  0  0  0  0  0  0  0  0  0
  152.2129  140.7715  155.7711 H   0  0  0  0  0  0  0  0  0  0  0  0
  151.1073  138.5518  155.6821 H   0  0  0  0  0  0  0  0  0  0  0  0
  149.6399  139.2190  156.3257 H   0  0  0  0  0  0  0  0  0  0  0  0
  1  2  1  0  0  0  0
  1 26  1  0  0  0  0
  1 27  1  0  0  0  0
  1 28  1  0  0  0  0
  2  3  1  0  0  0  0
  2 29  1  0  0  0  0
  2 30  1  0  0  0  0
  3  4  1  0  0  0  0
  4 19  1  0  0  0  0
  4  5  1  0  0  0  0
  4 31  1  0  0  0  0
  5  6  1  0  0  0  0
  5 32  1  0  0  0  0
  5 33  1  0  0  0  0
  6  7  1  0  0  0  0
  6 19  1  0  0  0  0
  6 34  1  0  0  0  0
  7  8  1  0  0  0  0
  7 35  1  0  0  0  0
  8  9  2  0  0  0  0
  8 10  1  0  0  0  0
 10 11  1  0  0  0  0
 10 36  1  0  0  0  0
 10 37  1  0  0  0  0
 11 17  1  0  0  0  0
 11 12  1  0  0  0  0
 12 13  2  0  0  0  0
 12 38  1  0  0  0  0
 13 14  1  0  0  0  0
 13 39  1  0  0  0  0
 14 15  2  0  0  0  0
 14 16  1  0  0  0  0
 16 25  1  0  0  0  0
 16 17  1  0  0  0  0
 17 18  2  0  0  0  0
 19 24  1  0  0  0  0
 19 20  1  0  0  0  0
 20 21  1  0  0  0  0
 20 40  1  0  0  0  0
 20 41  1  0  0  0  0
 21 22  1  0  0  0  0
 21 42  1  0  0  0  0
 21 43  1  0  0  0  0
 22 23  1  0  0  0  0
 22 44  1  0  0  0  0
 22 45  1  0  0  0  0
 23 24  1  0  0  0  0
 23 46  1  0  0  0  0
 23 47  1  0  0  0  0
 24 48  1  0  0  0  0
 24 49  1  0  0  0  0
M  END
> <s_m_source_file>
AV-unprocessed.smi

> <i_m_source_file_index>
701

> <i_lp_mmshare_version>
43012

> <i_f3d_flags>
0

> <s_epik_input>
W0NIMl0xW0NIMl1bQ0gyXVtDSDJdW0NIMl1DMTJbQ0BIXShPW0NIMl1bQ0gzXSlbQ0gyXVtDQEhdMltOSF1DKD1PKVtDSDJdbjNbY0hdW2NIXWMoPU8pW25IXWMzPU8=

> <s_epik_cmdline>
J2VwaWtfcHl0aG9uJywgJy1waCcsICc3LjAnLCAnLXRuJywgJzgnLCAnLW1hJywgJzIwMCcsICctbWV0YWxfYmluZGluZycsICctaW1hZScsICc8aW5maWxlLm1hZT4nLCAnLW9tYWUnLCAnPG91dGZpbGUubWFlPic=

> <r_lp_tautomer_probability>
0.999537

> <r_epik_Ionization_Penalty>
0.00304597

> <r_epik_Ionization_Penalty_Charging>
0.00304595

> <r_epik_Ionization_Penalty_Neutral>
1.88422e-08

> <r_epik_State_Penalty>
0.00214084

> <r_epik_Charging_Adjusted_Penalty>
0.00518679

> <i_epik_Tot_Q>
0

> <i_epik_Tot_abs_Q>
0

> <r_epik_Metal_State_Penalty>
0.361872

> <b_epik_Metal_Only>
0

> <s_lp_Force_Field>
OPLS_2005

> <r_lp_Energy>
28.8847

> <b_lp_Chiralities_Consistent>
1

> <s_lp_Variant>
AV-unprocessed.smi:701-2

> <Gold.Version>
5.8.1

> <Gold.Id.Protein>
6NUR|6NUR_protein|mol2

> <Gold.PLP.Fitness>
40.1690

> <Gold.PLP.PLP>
-37.6759

> <Gold.PLP.part.hbond>
-2.0000

> <Gold.PLP.part.metal>
0.0000

> <Gold.PLP.part.buried>
-3.0422

> <Gold.PLP.part.nonpolar>
-32.6462

> <Gold.PLP.part.repulsive>
0.3079

> <Gold.PLP.ligand.clash>
2.3210

> <Gold.PLP.ligand.torsion>
0.7529

> <Gold.PLP.Chemscore.Hbond>
2.0000

> <Gold.PLP.Chemscore.CHOScore>
0.0000

> <Gold.PLP.Chemscore.Metal>
0.0000

> <Gold.Chemscore.Hbonds>
donor molecule, donor type, donor heavy atom, donor atom, acceptor molecule, acceptor atom, score
      P1  H  6896  6907       L1     9  1.00
      P1  H  7997  8008       L1     3  1.00

> <Gold.PLP.Chemscore.Internal.Correction>
0.3201

> <Gold.Rescore>
     Score         DG    S(hbond)    S(metal)    S(lipo)     H(rot)  DE(clash)    DE(int)     intcor
     15.77     -16.96       1.96        0.00      88.02       2.09       0.12       1.06       ----

> <Gold.Chemscore.Fitness>
15.7703

> <Gold.Chemscore.DG>
-16.9578

> <Gold.Chemscore.ZeroCoef>
-5.4800

> <Gold.Chemscore.Hbond>
1.9575

> <Gold.Chemscore.Metal>
0.0000

> <Gold.Chemscore.Lipo>
88.0211

> <Gold.Chemscore.Internal_Hbond>
0.0000

> <Gold.Chemscore.DEClash>
0.1232

> <Gold.Chemscore.DEInternal>
1.0644

> <Gold.Chemscore.Rot>
2.0933

> <Gold.Chemscore.Internal.Correction>
   9.000000E+99

> <Gold.Chemscore.Hbonds>
donor molecule, donor type, donor heavy atom, donor atom, acceptor molecule, acceptor atom, score
      P1  H  6896  6907       L1     9  0.60
      P1  H  7997  8008       L1     3  0.30

> <Gold.Chemscore.Hbond.Weighted>
-6.5381

> <Gold.Chemscore.Metal.Weighted>
-0.0000

> <Gold.Chemscore.Lipo.Weighted>
-10.2985

> <Gold.Chemscore.Internal_Hbond.Weighted>
0.0000

> <Gold.Chemscore.DEClash.Weighted>
0.1232

> <Gold.Chemscore.DEInternal.Weighted>
1.0644

> <Gold.Chemscore.Rot.Weighted>
5.3588

> <Gold.Chemscore.Internal.Correction.Weighted>
   9.000000E+99

> <Gold.Protein.RotatedTorsions>
[ 6907 6896 6895 6894 ] final  -76.34 input  -60.11 | X-H torsion
[ 7974 7965 7964 7962 ] final -107.77 input  175.53 | X-H torsion
[ 8008 7997 7996 7995 ] final  -88.71 input   59.86 | X-H torsion
[ 10167 10162 10161 10158 ] final  116.00 input  -65.29 | X-H torsion
[ 10718 10713 10712 10709 ] final  -80.87 input   66.30 | X-H torsion
[ 10763 10752 10751 10750 ] final  -72.10 input  -60.55 | X-H torsion
[ 11005 11000 10999 10996 ] final -156.04 input  -57.11 | X-H torsion

> <Gold.Protein.ActiveResidues>
 VAL166  LYS551  ARG553  GLY616  TRP617  ASP618  TYR619  PRO620  LYS621  CYS622 
 ASP623  PHE694  ASN695  SER759  ASP760  ASP761  ALA762  ILE779  LEU786  VAL792 
 PHE793  MET794  SER795  GLU796  ALA797  LYS798  CYS799  TRP800  GLU811  SER814 

> <Gold.Protein.RotatedAtoms>
  150.7030  134.4587  159.5370 H   0  0  0  0  0  0  0  0  0  0  0  0  # atno 6907 bound_to 6896
  152.2266  134.8359  160.0488 H   0  0  0  0  0  0  0  0  0  0  0  0  # atno 6908 bound_to 6896
  151.9191  133.3546  159.3927 H   0  0  0  0  0  0  0  0  0  0  0  0  # atno 6909 bound_to 6896
  145.2012  140.9057  143.3368 H   0  0  0  0  0  0  0  0  0  0  0  0  # atno 7974 bound_to 7965
  154.6780  140.0550  157.0236 H   0  0  0  0  0  0  0  0  0  0  0  0  # atno 8008 bound_to 7997
  155.0992  140.3227  155.4533 H   0  0  0  0  0  0  0  0  0  0  0  0  # atno 8009 bound_to 7997
  156.2683  140.2034  156.6118 H   0  0  0  0  0  0  0  0  0  0  0  0  # atno 8010 bound_to 7997
  139.6277  144.7111  151.2498 H   0  0  0  0  0  0  0  0  0  0  0  0  # atno 10167 bound_to 10162
  156.0061  130.4587  150.3866 H   0  0  0  0  0  0  0  0  0  0  0  0  # atno 10718 bound_to 10713
  154.4410  135.5941  153.6129 H   0  0  0  0  0  0  0  0  0  0  0  0  # atno 10763 bound_to 10752
  152.9805  135.5998  154.3722 H   0  0  0  0  0  0  0  0  0  0  0  0  # atno 10764 bound_to 10752
  154.3572  135.2841  155.2318 H   0  0  0  0  0  0  0  0  0  0  0  0  # atno 10765 bound_to 10752
  140.6799  134.4156  157.5227 H   0  0  0  0  0  0  0  0  0  0  0  0  # atno 11005 bound_to 11000
  144.9946  139.3657  143.6198 LP  0  0  0  0  0  0  0  0  0  0  0  0  # atno 17320 bound_to 7965
  146.3417  139.9143  142.8776 LP  0  0  0  0  0  0  0  0  0  0  0  0  # atno 17321 bound_to 7965
  140.7421  143.6537  150.8226 LP  0  0  0  0  0  0  0  0  0  0  0  0  # atno 17342 bound_to 10162
  140.0157  143.5595  152.2821 LP  0  0  0  0  0  0  0  0  0  0  0  0  # atno 17343 bound_to 10162
  157.1943  131.0423  151.2684 LP  0  0  0  0  0  0  0  0  0  0  0  0  # atno 17370 bound_to 10713
  157.4033  130.7345  149.6783 LP  0  0  0  0  0  0  0  0  0  0  0  0  # atno 17371 bound_to 10713
  139.8955  134.8681  156.2129 LP  0  0  0  0  0  0  0  0  0  0  0  0  # atno 17394 bound_to 11000
  141.0326  133.6980  156.1456 LP  0  0  0  0  0  0  0  0  0  0  0  0  # atno 17395 bound_to 11000

$$$$
