AV-unprocessed.smi:1261|AV-procd|sdf|5302|dock7
  -GOLD-   22720 4423D 1   1.00000     0.00000
 Structure written by MMmdl.
 49 50  0  0  0  0  0  0  0  0  3 V2000
  147.6014  131.9928  153.5074 C   0  0  0  0  0  0  0  0  0  0  0  0
  147.2292  133.2976  152.7894 C   0  0  1  0  0  0  0  0  0  0  0  0
  146.0074  133.1070  151.8754 C   0  0  0  0  0  0  0  0  0  0  0  0
  145.6403  134.4281  151.1797 C   0  0  1  0  0  0  0  0  0  0  0  0
  144.4096  134.2628  150.2768 C   0  0  0  0  0  0  0  0  0  0  0  0
  145.4280  135.5388  152.2265 C   0  0  0  0  0  0  0  0  0  0  0  0
  146.6233  135.7056  153.0937 N   0  3  1  0  0  0  0  0  0  0  0  0
  146.4881  136.8645  154.0126 C   0  0  0  0  0  0  0  0  0  0  0  0
  145.8526  138.0893  153.3322 C   0  0  0  0  0  0  0  0  0  0  0  0
  146.7780  138.7104  152.2736 C   0  0  0  0  0  0  0  0  0  0  0  0
  147.7290  139.6395  152.8706 N   0  0  0  0  0  0  0  0  0  0  0  0
  147.4016  140.7172  153.5996 C   0  0  0  0  0  0  0  0  0  0  0  0
  146.2403  141.0252  153.8696 O   0  0  0  0  0  0  0  0  0  0  0  0
  148.5684  141.5647  154.1186 C   0  0  0  0  0  0  0  0  0  0  0  0
  149.3401  140.8592  155.1492 N   0  0  0  0  0  0  0  0  0  0  0  0
  150.6554  140.4175  154.6923 N   0  5  0  0  0  0  0  0  0  0  0  0
  151.4771  139.7727  155.5624 C   0  0  0  0  0  0  0  0  0  0  0  0
  152.6002  139.3819  155.2526 O   0  0  0  0  0  0  0  0  0  0  0  0
  150.9955  139.5400  156.9139 C   0  0  0  0  0  0  0  0  0  0  0  0
  149.7728  139.9496  157.3051 C   0  0  0  0  0  0  0  0  0  0  0  0
  148.8611  140.6506  156.4088 C   0  0  0  0  0  0  0  0  0  0  0  0
  147.7438  141.0280  156.7615 O   0  0  0  0  0  0  0  0  0  0  0  0
  146.9720  134.4394  153.7916 C   0  0  0  0  0  0  0  0  0  0  0  0
  146.7920  131.6498  154.1526 H   0  0  0  0  0  0  0  0  0  0  0  0
  148.4884  132.1244  154.1278 H   0  0  0  0  0  0  0  0  0  0  0  0
  147.8162  131.1983  152.7921 H   0  0  0  0  0  0  0  0  0  0  0  0
  148.0780  133.5810  152.1649 H   0  0  0  0  0  0  0  0  0  0  0  0
  146.2165  132.3391  151.1293 H   0  0  0  0  0  0  0  0  0  0  0  0
  145.1593  132.7486  152.4610 H   0  0  0  0  0  0  0  0  0  0  0  0
  146.4773  134.7194  150.5430 H   0  0  0  0  0  0  0  0  0  0  0  0
  143.5319  133.9670  150.8523 H   0  0  0  0  0  0  0  0  0  0  0  0
  144.5808  133.5009  149.5157 H   0  0  0  0  0  0  0  0  0  0  0  0
  144.1715  135.1938  149.7615 H   0  0  0  0  0  0  0  0  0  0  0  0
  145.2185  136.4776  151.7118 H   0  0  0  0  0  0  0  0  0  0  0  0
  144.5578  135.3164  152.8466 H   0  0  0  0  0  0  0  0  0  0  0  0
  145.8509  136.5801  154.8510 H   0  0  0  0  0  0  0  0  0  0  0  0
  147.4605  137.1183  154.4378 H   0  0  0  0  0  0  0  0  0  0  0  0
  144.9111  137.8107  152.8595 H   0  0  0  0  0  0  0  0  0  0  0  0
  145.6114  138.8407  154.0852 H   0  0  0  0  0  0  0  0  0  0  0  0
  147.3450  137.9284  151.7680 H   0  0  0  0  0  0  0  0  0  0  0  0
  146.1941  139.2172  151.5032 H   0  0  0  0  0  0  0  0  0  0  0  0
  148.7097  139.4763  152.6904 H   0  0  0  0  0  0  0  0  0  0  0  0
  149.2121  141.8374  153.2806 H   0  0  0  0  0  0  0  0  0  0  0  0
  148.1872  142.5111  154.5071 H   0  0  0  0  0  0  0  0  0  0  0  0
  151.6316  139.0262  157.6194 H   0  0  0  0  0  0  0  0  0  0  0  0
  149.4561  139.7541  158.3187 H   0  0  0  0  0  0  0  0  0  0  0  0
  146.1659  134.1682  154.4756 H   0  0  0  0  0  0  0  0  0  0  0  0
  147.8651  134.5801  154.3992 H   0  0  0  0  0  0  0  0  0  0  0  0
  147.3913  135.9219  152.4742 H   0  0  0  0  0  0  0  0  0  0  0  0
  1  2  1  0  0  0  0
  1 24  1  0  0  0  0
  1 25  1  0  0  0  0
  1 26  1  0  0  0  0
  2 23  1  0  0  0  0
  2  3  1  0  0  0  0
  2 27  1  0  0  0  0
  3  4  1  0  0  0  0
  3 28  1  0  0  0  0
  3 29  1  0  0  0  0
  4  5  1  0  0  0  0
  4  6  1  0  0  0  0
  4 30  1  0  0  0  0
  5 31  1  0  0  0  0
  5 32  1  0  0  0  0
  5 33  1  0  0  0  0
  6  7  1  0  0  0  0
  6 34  1  0  0  0  0
  6 35  1  0  0  0  0
  7  8  1  0  0  0  0
  7 23  1  0  0  0  0
  7 49  1  0  0  0  0
  8  9  1  0  0  0  0
  8 36  1  0  0  0  0
  8 37  1  0  0  0  0
  9 10  1  0  0  0  0
  9 38  1  0  0  0  0
  9 39  1  0  0  0  0
 10 11  1  0  0  0  0
 10 40  1  0  0  0  0
 10 41  1  0  0  0  0
 11 12  1  0  0  0  0
 11 42  1  0  0  0  0
 12 13  2  0  0  0  0
 12 14  1  0  0  0  0
 14 43  1  0  0  0  0
 14 44  1  0  0  0  0
 14 15  1  0  0  0  0
 15 16  1  0  0  0  0
 15 21  1  0  0  0  0
 16 17  1  0  0  0  0
 17 18  2  0  0  0  0
 17 19  1  0  0  0  0
 19 45  1  0  0  0  0
 19 20  2  0  0  0  0
 20 46  1  0  0  0  0
 20 21  1  0  0  0  0
 21 22  2  0  0  0  0
 23 47  1  0  0  0  0
 23 48  1  0  0  0  0
M  CHG  1   7   1
M  CHG  1  16  -1
M  END
> <s_m_source_file>
AV-unprocessed.smi

> <i_m_source_file_index>
1261

> <i_lp_mmshare_version>
43012

> <i_f3d_flags>
0

> <s_epik_input>
W0NIM11bQ0BASF0xW0NIMl1bQ0BASF0oW0NIM10pW0NIMl1OKFtDSDJdMSlbQ0gyXVtDSDJdW0NIMl1bTkhdQyg9TylbQ0gyXW4yW25IXWMoPU8pW2NIXVtjSF1jMj1P

> <s_epik_cmdline>
J2VwaWtfcHl0aG9uJywgJy1waCcsICc3LjAnLCAnLXRuJywgJzgnLCAnLW1hJywgJzIwMCcsICctbWV0YWxfYmluZGluZycsICctaW1hZScsICc8aW5maWxlLm1hZT4nLCAnLW9tYWUnLCAnPG91dGZpbGUubWFlPic=

> <r_lp_tautomer_probability>
1

> <r_epik_Ionization_Penalty>
0.0955723

> <r_epik_Ionization_Penalty_Charging>
0.0955723

> <r_epik_Ionization_Penalty_Neutral>
2.68632e-08

> <r_epik_State_Penalty>
0.0334406

> <r_epik_Charging_Adjusted_Penalty>
0.129013

> <i_epik_Tot_Q>
0

> <i_epik_Tot_abs_Q>
2

> <r_epik_Metal_State_Penalty>
0.0334406

> <b_epik_Metal_Only>
0

> <s_lp_Force_Field>
OPLS_2005

> <r_lp_Energy>
31.5278

> <b_lp_Chiralities_Consistent>
1

> <s_lp_Variant>
AV-unprocessed.smi:1261-2

> <Gold.Version>
5.8.1

> <Gold.Id.Protein>
6NUR|6NUR_protein|mol2

> <Gold.PLP.Fitness>
48.8338

> <Gold.PLP.PLP>
-35.9923

> <Gold.PLP.part.hbond>
-4.7910

> <Gold.PLP.part.metal>
0.0000

> <Gold.PLP.part.buried>
-2.3279

> <Gold.PLP.part.nonpolar>
-28.9742

> <Gold.PLP.part.repulsive>
0.3639

> <Gold.PLP.ligand.clash>
0.0000

> <Gold.PLP.ligand.torsion>
0.4965

> <Gold.PLP.Chemscore.Hbond>
4.5920

> <Gold.PLP.Chemscore.CHOScore>
0.0000

> <Gold.PLP.Chemscore.Metal>
0.0000

> <Gold.Chemscore.Hbonds>
donor molecule, donor type, donor heavy atom, donor atom, acceptor molecule, acceptor atom, score
      L1  H     7    49       P1  7948  2.00
      L1  H    11    42       P1  7957  0.48
      P1  H  7989  7998       L1    16  1.00
      P1  H  7997  8010       L1    18  0.81

> <Gold.PLP.Chemscore.Internal.Correction>
0.0585

> <Gold.Rescore>
     Score         DG    S(hbond)    S(metal)    S(lipo)     H(rot)  DE(clash)    DE(int)     intcor
     17.15     -17.73       3.27        0.00      65.99       2.49       0.07       0.51       ----

> <Gold.Chemscore.Fitness>
17.1526

> <Gold.Chemscore.DG>
-17.7318

> <Gold.Chemscore.ZeroCoef>
-5.4800

> <Gold.Chemscore.Hbond>
3.2679

> <Gold.Chemscore.Metal>
0.0000

> <Gold.Chemscore.Lipo>
65.9914

> <Gold.Chemscore.Internal_Hbond>
0.0000

> <Gold.Chemscore.DEClash>
0.0702

> <Gold.Chemscore.DEInternal>
0.5089

> <Gold.Chemscore.Rot>
2.4938

> <Gold.Chemscore.Internal.Correction>
   9.000000E+99

> <Gold.Chemscore.Hbonds>
donor molecule, donor type, donor heavy atom, donor atom, acceptor molecule, acceptor atom, score
      L1  H     7    49       P1  7948  1.00
      L1  H    11    42       P1  7957  0.48
      P1  H  7989  7998       L1    16  0.43
      P1  H  7997  8010       L1    18  0.80

> <Gold.Chemscore.Hbond.Weighted>
-10.9148

> <Gold.Chemscore.Metal.Weighted>
-0.0000

> <Gold.Chemscore.Lipo.Weighted>
-7.7210

> <Gold.Chemscore.Internal_Hbond.Weighted>
0.0000

> <Gold.Chemscore.DEClash.Weighted>
0.0702

> <Gold.Chemscore.DEInternal.Weighted>
0.5089

> <Gold.Chemscore.Rot.Weighted>
6.3840

> <Gold.Chemscore.Internal.Correction.Weighted>
   9.000000E+99

> <Gold.Protein.RotatedTorsions>
[ 6907 6896 6895 6894 ] final   67.36 input  -60.11 | X-H torsion
[ 7974 7965 7964 7962 ] final  147.41 input  175.53 | X-H torsion
[ 8008 7997 7996 7995 ] final   99.49 input   59.86 | X-H torsion
[ 10167 10162 10161 10158 ] final   18.09 input  -65.29 | X-H torsion
[ 10718 10713 10712 10709 ] final   59.56 input   66.30 | X-H torsion
[ 10763 10752 10751 10750 ] final  175.14 input  -60.55 | X-H torsion
[ 11005 11000 10999 10996 ] final   55.39 input  -57.11 | X-H torsion

> <Gold.Protein.ActiveResidues>
 VAL166  LYS551  ARG553  GLY616  TRP617  ASP618  TYR619  PRO620  LYS621  CYS622 
 ASP623  PHE694  ASN695  SER759  ASP760  ASP761  ALA762  ILE779  LEU786  VAL792 
 PHE793  MET794  SER795  GLU796  ALA797  LYS798  CYS799  TRP800  GLU811  SER814 

> <Gold.Protein.RotatedAtoms>
  152.4547  134.5318  159.9813 H   0  0  0  0  0  0  0  0  0  0  0  0  # atno 6907 bound_to 6896
  151.5382  133.3431  159.2938 H   0  0  0  0  0  0  0  0  0  0  0  0  # atno 6908 bound_to 6896
  150.8487  134.7835  159.7054 H   0  0  0  0  0  0  0  0  0  0  0  0  # atno 6909 bound_to 6896
  144.8594  139.6025  143.5937 H   0  0  0  0  0  0  0  0  0  0  0  0  # atno 7974 bound_to 7965
  156.1110  140.3228  155.8073 H   0  0  0  0  0  0  0  0  0  0  0  0  # atno 8008 bound_to 7997
  155.4672  140.0544  157.3001 H   0  0  0  0  0  0  0  0  0  0  0  0  # atno 8009 bound_to 7997
  154.4760  140.2032  155.9891 H   0  0  0  0  0  0  0  0  0  0  0  0  # atno 8010 bound_to 7997
  140.5679  143.9217  150.6690 H   0  0  0  0  0  0  0  0  0  0  0  0  # atno 10167 bound_to 10162
  157.5685  130.8889  149.9227 H   0  0  0  0  0  0  0  0  0  0  0  0  # atno 10718 bound_to 10713
  154.4635  135.2768  155.1695 H   0  0  0  0  0  0  0  0  0  0  0  0  # atno 10763 bound_to 10752
  154.3474  135.6157  153.5629 H   0  0  0  0  0  0  0  0  0  0  0  0  # atno 10764 bound_to 10752
  152.9857  135.5803  154.5002 H   0  0  0  0  0  0  0  0  0  0  0  0  # atno 10765 bound_to 10752
  140.0610  134.5602  155.9152 H   0  0  0  0  0  0  0  0  0  0  0  0  # atno 11005 bound_to 11000
  146.2848  139.6975  142.9203 LP  0  0  0  0  0  0  0  0  0  0  0  0  # atno 17320 bound_to 7965
  145.4342  141.0417  143.2893 LP  0  0  0  0  0  0  0  0  0  0  0  0  # atno 17321 bound_to 7965
  140.2684  143.3473  152.1260 LP  0  0  0  0  0  0  0  0  0  0  0  0  # atno 17342 bound_to 10162
  139.5102  144.6880  151.5835 LP  0  0  0  0  0  0  0  0  0  0  0  0  # atno 17343 bound_to 10162
  156.0732  130.3682  150.0732 LP  0  0  0  0  0  0  0  0  0  0  0  0  # atno 17370 bound_to 10713
  156.8888  130.9581  151.3591 LP  0  0  0  0  0  0  0  0  0  0  0  0  # atno 17371 bound_to 10713
  141.1973  133.6596  156.5735 LP  0  0  0  0  0  0  0  0  0  0  0  0  # atno 17394 bound_to 11000
  140.3770  134.7557  157.4636 LP  0  0  0  0  0  0  0  0  0  0  0  0  # atno 17395 bound_to 11000

$$$$
