AV-unprocessed.smi:2360|AV-procd|sdf|9410|dock10
  -GOLD-   2272013 43D 1   1.00000     0.00000
 Structure written by MMmdl.
 34 35  0  0  0  0  0  0  0  0  1 V2000
  152.0995  144.2776  161.1428 C   0  0  0  0  0  0  0  0  0  0  0  0
  152.8170  142.9437  161.0357 C   0  0  0  0  0  0  0  0  0  0  0  0
  153.3416  142.4428  162.2305 N   0  0  0  0  0  0  0  0  0  0  0  0
  153.9681  141.3121  162.2348 C   0  0  0  0  0  0  0  0  0  0  0  0
  154.1439  140.5597  161.0610 N   0  0  0  0  0  0  0  0  0  0  0  0
  154.8672  139.2840  161.2047 C   0  0  0  0  0  0  0  0  0  0  0  0
  153.9487  138.0606  160.9828 C   0  0  1  0  0  0  0  0  0  0  0  0
  154.2124  137.5112  159.7074 O   0  0  0  0  0  0  0  0  0  0  0  0
  154.1486  137.0223  162.0764 C   0  0  0  0  0  0  0  0  0  0  0  0
  153.7013  137.2701  163.3932 C   0  0  0  0  0  0  0  0  0  0  0  0
  153.8831  136.3014  164.3992 C   0  0  0  0  0  0  0  0  0  0  0  0
  154.5117  135.0787  164.0951 C   0  0  0  0  0  0  0  0  0  0  0  0
  154.6854  134.1479  165.0632 F   0  0  0  0  0  0  0  0  0  0  0  0
  154.9582  134.8251  162.7835 C   0  0  0  0  0  0  0  0  0  0  0  0
  155.5624  133.6497  162.4877 F   0  0  0  0  0  0  0  0  0  0  0  0
  154.7758  135.7938  161.7770 C   0  0  0  0  0  0  0  0  0  0  0  0
  153.6649  140.9763  159.8533 C   0  0  0  0  0  0  0  0  0  0  0  0
  153.8237  140.3115  158.8279 O   0  0  0  0  0  0  0  0  0  0  0  0
  152.9514  142.2638  159.8644 C   0  0  0  0  0  0  0  0  0  0  0  0
  152.4000  142.7599  158.5334 C   0  0  0  0  0  0  0  0  0  0  0  0
  151.0594  144.1779  160.8321 H   0  0  0  0  0  0  0  0  0  0  0  0
  152.5829  145.0230  160.5110 H   0  0  0  0  0  0  0  0  0  0  0  0
  152.1072  144.6521  162.1671 H   0  0  0  0  0  0  0  0  0  0  0  0
  154.3907  140.8737  163.1406 H   0  0  0  0  0  0  0  0  0  0  0  0
  155.7435  139.2322  160.5557 H   0  0  0  0  0  0  0  0  0  0  0  0
  155.2822  139.2380  162.2139 H   0  0  0  0  0  0  0  0  0  0  0  0
  152.9036  138.3726  160.9959 H   0  0  0  0  0  0  0  0  0  0  0  0
  153.3915  137.3994  159.2529 H   0  0  0  0  0  0  0  0  0  0  0  0
  153.2152  138.2040  163.6348 H   0  0  0  0  0  0  0  0  0  0  0  0
  153.5389  136.4963  165.4042 H   0  0  0  0  0  0  0  0  0  0  0  0
  155.1191  135.5881  160.7738 H   0  0  0  0  0  0  0  0  0  0  0  0
  153.2115  142.8967  157.8183 H   0  0  0  0  0  0  0  0  0  0  0  0
  151.8697  143.7073  158.6138 H   0  0  0  0  0  0  0  0  0  0  0  0
  151.7039  142.0295  158.1196 H   0  0  0  0  0  0  0  0  0  0  0  0
  1  2  1  0  0  0  0
  1 21  1  0  0  0  0
  1 22  1  0  0  0  0
  1 23  1  0  0  0  0
  2 19  2  0  0  0  0
  2  3  1  0  0  0  0
  3  4  2  0  0  0  0
  4  5  1  0  0  0  0
  4 24  1  0  0  0  0
  5  6  1  0  0  0  0
  5 17  1  0  0  0  0
  6  7  1  0  0  0  0
  6 25  1  0  0  0  0
  6 26  1  0  0  0  0
  7  8  1  0  0  0  0
  7  9  1  0  0  0  0
  7 27  1  0  0  0  0
  8 28  1  0  0  0  0
  9 16  1  0  0  0  0
  9 10  2  0  0  0  0
 10 11  1  0  0  0  0
 10 29  1  0  0  0  0
 11 12  2  0  0  0  0
 11 30  1  0  0  0  0
 12 13  1  0  0  0  0
 12 14  1  0  0  0  0
 14 15  1  0  0  0  0
 14 16  2  0  0  0  0
 16 31  1  0  0  0  0
 17 18  2  0  0  0  0
 17 19  1  0  0  0  0
 19 20  1  0  0  0  0
 20 32  1  0  0  0  0
 20 33  1  0  0  0  0
 20 34  1  0  0  0  0
M  END
> <s_m_source_file>
AV-unprocessed.smi

> <i_m_source_file_index>
2360

> <i_lp_mmshare_version>
43012

> <i_f3d_flags>
0

> <s_epik_input>
W0NIM11jMW5bY0hdbihjKD1PKWMxW0NIM10pW0NIMl1bQ0BIXShbT0hdKWMyW2NIXVtjSF1jKEYpYyhGKVtjSF0y

> <s_epik_cmdline>
J2VwaWtfcHl0aG9uJywgJy1waCcsICc3LjAnLCAnLXRuJywgJzgnLCAnLW1hJywgJzIwMCcsICctbWV0YWxfYmluZGluZycsICctaW1hZScsICc8aW5maWxlLm1hZT4nLCAnLW9tYWUnLCAnPG91dGZpbGUubWFlPic=

> <r_lp_tautomer_probability>
1

> <r_epik_Ionization_Penalty>
5.07449e-05

> <r_epik_Ionization_Penalty_Charging>
7.56727e-08

> <r_epik_Ionization_Penalty_Neutral>
5.06692e-05

> <r_epik_State_Penalty>
-0

> <r_epik_Charging_Adjusted_Penalty>
7.56727e-08

> <i_epik_Tot_Q>
0

> <i_epik_Tot_abs_Q>
0

> <r_epik_Metal_State_Penalty>
-0

> <b_epik_Metal_Only>
0

> <s_lp_Force_Field>
OPLS_2005

> <r_lp_Energy>
19.5716

> <b_lp_Chiralities_Consistent>
1

> <s_lp_Variant>
AV-unprocessed.smi:2360-2

> <Gold.Version>
5.8.1

> <Gold.Id.Protein>
6NUR|6NUR_protein|mol2

> <Gold.PLP.Fitness>
47.1634

> <Gold.PLP.PLP>
-46.3742

> <Gold.PLP.part.hbond>
-1.0000

> <Gold.PLP.part.metal>
0.0000

> <Gold.PLP.part.buried>
-3.8719

> <Gold.PLP.part.nonpolar>
-40.3180

> <Gold.PLP.part.repulsive>
0.0412

> <Gold.PLP.ligand.clash>
0.0802

> <Gold.PLP.ligand.torsion>
0.9388

> <Gold.PLP.Chemscore.Hbond>
0.9120

> <Gold.PLP.Chemscore.CHOScore>
0.0000

> <Gold.PLP.Chemscore.Metal>
0.0000

> <Gold.Chemscore.Hbonds>
donor molecule, donor type, donor heavy atom, donor atom, acceptor molecule, acceptor atom, score
      P1  H  7997  8010       L1    18  0.80

> <Gold.PLP.Chemscore.Internal.Correction>
0.0110

> <Gold.Rescore>
     Score         DG    S(hbond)    S(metal)    S(lipo)     H(rot)  DE(clash)    DE(int)     intcor
     13.69     -14.60       0.93        0.00      97.59       2.11       0.06       0.86       ----

> <Gold.Chemscore.Fitness>
13.6864

> <Gold.Chemscore.DG>
-14.6029

> <Gold.Chemscore.ZeroCoef>
-5.4800

> <Gold.Chemscore.Hbond>
0.9300

> <Gold.Chemscore.Metal>
0.0000

> <Gold.Chemscore.Lipo>
97.5868

> <Gold.Chemscore.Internal_Hbond>
0.0000

> <Gold.Chemscore.DEClash>
0.0568

> <Gold.Chemscore.DEInternal>
0.8597

> <Gold.Chemscore.Rot>
2.1097

> <Gold.Chemscore.Internal.Correction>
   9.000000E+99

> <Gold.Chemscore.Hbonds>
donor molecule, donor type, donor heavy atom, donor atom, acceptor molecule, acceptor atom, score
      P1  H  7997  8010       L1    18  0.79

> <Gold.Chemscore.Hbond.Weighted>
-3.1062

> <Gold.Chemscore.Metal.Weighted>
-0.0000

> <Gold.Chemscore.Lipo.Weighted>
-11.4177

> <Gold.Chemscore.Internal_Hbond.Weighted>
0.0000

> <Gold.Chemscore.DEClash.Weighted>
0.0568

> <Gold.Chemscore.DEInternal.Weighted>
0.8597

> <Gold.Chemscore.Rot.Weighted>
5.4009

> <Gold.Chemscore.Internal.Correction.Weighted>
   9.000000E+99

> <Gold.Protein.RotatedTorsions>
[ 6907 6896 6895 6894 ] final  -35.09 input  -60.11 | X-H torsion
[ 7974 7965 7964 7962 ] final   17.94 input  175.53 | X-H torsion
[ 8008 7997 7996 7995 ] final   28.98 input   59.86 | X-H torsion
[ 10167 10162 10161 10158 ] final   25.82 input  -65.29 | X-H torsion
[ 10718 10713 10712 10709 ] final  102.85 input   66.30 | X-H torsion
[ 10763 10752 10751 10750 ] final -145.50 input  -60.55 | X-H torsion
[ 11005 11000 10999 10996 ] final  118.61 input  -57.11 | X-H torsion

> <Gold.Protein.ActiveResidues>
 VAL166  LYS551  ARG553  GLY616  TRP617  ASP618  TYR619  PRO620  LYS621  CYS622 
 ASP623  PHE694  ASN695  SER759  ASP760  ASP761  ALA762  ILE779  LEU786  VAL792 
 PHE793  MET794  SER795  GLU796  ALA797  LYS798  CYS799  TRP800  GLU811  SER814 

> <Gold.Protein.RotatedAtoms>
  151.0442  134.9628  159.8177 H   0  0  0  0  0  0  0  0  0  0  0  0  # atno 6907 bound_to 6896
  152.5369  134.2619  159.8949 H   0  0  0  0  0  0  0  0  0  0  0  0  # atno 6908 bound_to 6896
  151.2633  133.4248  159.2651 H   0  0  0  0  0  0  0  0  0  0  0  0  # atno 6909 bound_to 6896
  146.2202  139.8530  142.8619 H   0  0  0  0  0  0  0  0  0  0  0  0  # atno 7974 bound_to 7965
  155.0673  140.3196  155.4641 H   0  0  0  0  0  0  0  0  0  0  0  0  # atno 8008 bound_to 7997
  156.2799  140.2118  156.5745 H   0  0  0  0  0  0  0  0  0  0  0  0  # atno 8009 bound_to 7997
  154.7083  140.0500  157.0513 H   0  0  0  0  0  0  0  0  0  0  0  0  # atno 8010 bound_to 7997
  140.5074  144.0215  150.6358 H   0  0  0  0  0  0  0  0  0  0  0  0  # atno 10167 bound_to 10162
  157.6790  131.0764  150.5466 H   0  0  0  0  0  0  0  0  0  0  0  0  # atno 10718 bound_to 10713
  154.8380  135.3411  154.6514 H   0  0  0  0  0  0  0  0  0  0  0  0  # atno 10763 bound_to 10752
  153.7127  135.6963  153.5037 H   0  0  0  0  0  0  0  0  0  0  0  0  # atno 10764 bound_to 10752
  153.2439  135.4375  155.0681 H   0  0  0  0  0  0  0  0  0  0  0  0  # atno 10765 bound_to 10752
  139.9116  134.9622  156.7530 H   0  0  0  0  0  0  0  0  0  0  0  0  # atno 11005 bound_to 11000
  145.2782  141.0130  143.3733 LP  0  0  0  0  0  0  0  0  0  0  0  0  # atno 17320 bound_to 7965
  144.9170  139.4458  143.6559 LP  0  0  0  0  0  0  0  0  0  0  0  0  # atno 17321 bound_to 7965
  140.3529  143.2953  152.0468 LP  0  0  0  0  0  0  0  0  0  0  0  0  # atno 17342 bound_to 10162
  139.4887  144.6361  151.6973 LP  0  0  0  0  0  0  0  0  0  0  0  0  # atno 17343 bound_to 10162
  156.5772  130.4295  149.5993 LP  0  0  0  0  0  0  0  0  0  0  0  0  # atno 17370 bound_to 10713
  156.2691  130.7007  151.1799 LP  0  0  0  0  0  0  0  0  0  0  0  0  # atno 17371 bound_to 10713
  140.6759  133.9518  155.7882 LP  0  0  0  0  0  0  0  0  0  0  0  0  # atno 17394 bound_to 11000
  141.0545  134.0437  157.3740 LP  0  0  0  0  0  0  0  0  0  0  0  0  # atno 17395 bound_to 11000

$$$$
