AV-unprocessed.smi:712|AV-procd|sdf|3473|dock3
  -GOLD-   22720 0463D 1   1.00000     0.00000
 Structure written by MMmdl.
 50 51  0  0  0  0  0  0  0  0  1 V2000
  154.0595  142.3617  163.8550 C   0  0  0  0  0  0  0  0  0  0  0  0
  153.4975  142.6733  162.4833 C   0  0  0  0  0  0  0  0  0  0  0  0
  152.7057  143.8651  162.2601 C   0  0  0  0  0  0  0  0  0  0  0  0
  152.2295  144.1128  161.0298 C   0  0  0  0  0  0  0  0  0  0  0  0
  152.4766  143.2467  159.9490 N   0  0  0  0  0  0  0  0  0  0  0  0
  151.9114  143.6191  158.6417 C   0  0  0  0  0  0  0  0  0  0  0  0
  150.4849  143.0930  158.4314 C   0  0  0  0  0  0  0  0  0  0  0  0
  149.6120  143.2933  159.2766 O   0  0  0  0  0  0  0  0  0  0  0  0
  150.2611  142.4446  157.2783 N   0  0  0  0  0  0  0  0  0  0  0  0
  148.9872  141.8692  156.8551 C   0  0  0  0  0  0  0  0  0  0  0  0
  149.0915  141.1530  155.4965 C   0  0  1  0  0  0  0  0  0  0  0  0
  149.8569  139.8139  155.5491 C   0  0  0  0  0  0  0  0  0  0  0  0
  149.9055  139.1552  154.2477 N   0  0  0  0  0  0  0  0  0  0  0  0
  150.6538  137.8972  154.3377 C   0  0  0  0  0  0  0  0  0  0  0  0
  149.9557  136.6909  155.0133 C   0  0  0  0  0  0  0  0  0  0  0  0
  149.5540  136.9440  156.4762 C   0  0  0  0  0  0  0  0  0  0  0  0
  150.7025  135.3592  154.8246 C   0  0  0  0  0  0  0  0  0  0  0  0
  148.5404  138.9815  153.7586 C   0  0  0  0  0  0  0  0  0  0  0  0
  147.7688  140.3118  153.7138 C   0  0  0  0  0  0  0  0  0  0  0  0
  147.7759  140.9212  154.9997 O   0  0  0  0  0  0  0  0  0  0  0  0
  153.2101  142.1021  160.0942 C   0  0  0  0  0  0  0  0  0  0  0  0
  153.4247  141.3374  159.1533 O   0  0  0  0  0  0  0  0  0  0  0  0
  153.7286  141.8434  161.4424 C   0  0  0  0  0  0  0  0  0  0  0  0
  153.6802  143.0571  164.6042 H   0  0  0  0  0  0  0  0  0  0  0  0
  155.1473  142.4326  163.8428 H   0  0  0  0  0  0  0  0  0  0  0  0
  153.7834  141.3516  164.1588 H   0  0  0  0  0  0  0  0  0  0  0  0
  152.4969  144.5472  163.0712 H   0  0  0  0  0  0  0  0  0  0  0  0
  151.6284  144.9798  160.7979 H   0  0  0  0  0  0  0  0  0  0  0  0
  151.8902  144.7035  158.5265 H   0  0  0  0  0  0  0  0  0  0  0  0
  152.5602  143.2598  157.8404 H   0  0  0  0  0  0  0  0  0  0  0  0
  151.0360  142.3398  156.6394 H   0  0  0  0  0  0  0  0  0  0  0  0
  148.6749  141.1552  157.6177 H   0  0  0  0  0  0  0  0  0  0  0  0
  148.2053  142.6292  156.8173 H   0  0  0  0  0  0  0  0  0  0  0  0
  149.6048  141.8238  154.8050 H   0  0  0  0  0  0  0  0  0  0  0  0
  150.8701  139.9962  155.9089 H   0  0  0  0  0  0  0  0  0  0  0  0
  149.3863  139.1472  156.2729 H   0  0  0  0  0  0  0  0  0  0  0  0
  150.8850  137.5807  153.3195 H   0  0  0  0  0  0  0  0  0  0  0  0
  151.6234  138.0733  154.8059 H   0  0  0  0  0  0  0  0  0  0  0  0
  149.0209  136.5620  154.4659 H   0  0  0  0  0  0  0  0  0  0  0  0
  150.4247  137.0310  157.1259 H   0  0  0  0  0  0  0  0  0  0  0  0
  148.9404  136.1280  156.8583 H   0  0  0  0  0  0  0  0  0  0  0  0
  148.9742  137.8625  156.5700 H   0  0  0  0  0  0  0  0  0  0  0  0
  151.6374  135.3170  155.3789 H   0  0  0  0  0  0  0  0  0  0  0  0
  150.9322  135.1839  153.7732 H   0  0  0  0  0  0  0  0  0  0  0  0
  150.0905  134.5237  155.1654 H   0  0  0  0  0  0  0  0  0  0  0  0
  148.5502  138.5692  152.7525 H   0  0  0  0  0  0  0  0  0  0  0  0
  148.0058  138.2707  154.3907 H   0  0  0  0  0  0  0  0  0  0  0  0
  148.2118  140.9890  152.9821 H   0  0  0  0  0  0  0  0  0  0  0  0
  146.7370  140.1412  153.4071 H   0  0  0  0  0  0  0  0  0  0  0  0
  154.3191  140.9528  161.6023 H   0  0  0  0  0  0  0  0  0  0  0  0
  1  2  1  0  0  0  0
  1 24  1  0  0  0  0
  1 25  1  0  0  0  0
  1 26  1  0  0  0  0
  2 23  2  0  0  0  0
  2  3  1  0  0  0  0
  3  4  2  0  0  0  0
  3 27  1  0  0  0  0
  4  5  1  0  0  0  0
  4 28  1  0  0  0  0
  5  6  1  0  0  0  0
  5 21  1  0  0  0  0
  6  7  1  0  0  0  0
  6 29  1  0  0  0  0
  6 30  1  0  0  0  0
  7  8  2  0  0  0  0
  7  9  1  0  0  0  0
  9 10  1  0  0  0  0
  9 31  1  0  0  0  0
 10 11  1  0  0  0  0
 10 32  1  0  0  0  0
 10 33  1  0  0  0  0
 11 20  1  0  0  0  0
 11 12  1  0  0  0  0
 11 34  1  0  0  0  0
 12 13  1  0  0  0  0
 12 35  1  0  0  0  0
 12 36  1  0  0  0  0
 13 14  1  0  0  0  0
 13 18  1  0  0  0  0
 14 15  1  0  0  0  0
 14 37  1  0  0  0  0
 14 38  1  0  0  0  0
 15 16  1  0  0  0  0
 15 17  1  0  0  0  0
 15 39  1  0  0  0  0
 16 40  1  0  0  0  0
 16 41  1  0  0  0  0
 16 42  1  0  0  0  0
 17 43  1  0  0  0  0
 17 44  1  0  0  0  0
 17 45  1  0  0  0  0
 18 19  1  0  0  0  0
 18 46  1  0  0  0  0
 18 47  1  0  0  0  0
 19 20  1  0  0  0  0
 19 48  1  0  0  0  0
 19 49  1  0  0  0  0
 21 22  2  0  0  0  0
 21 23  1  0  0  0  0
 23 50  1  0  0  0  0
M  END
> <s_m_source_file>
AV-unprocessed.smi

> <i_m_source_file_index>
712

> <i_lp_mmshare_version>
43012

> <i_f3d_flags>
0

> <s_epik_input>
W0NIM11jMVtjSF1bY0hdbihjKD1PKVtjSF0xKVtDSDJdQyg9TylbTkhdW0NIMl1bQ0BASF0yW0NIMl1OKFtDSDJdW0NIMl1PMilbQ0gyXVtDSF0oW0NIM10pW0NIM10=

> <s_epik_cmdline>
J2VwaWtfcHl0aG9uJywgJy1waCcsICc3LjAnLCAnLXRuJywgJzgnLCAnLW1hJywgJzIwMCcsICctbWV0YWxfYmluZGluZycsICctaW1hZScsICc8aW5maWxlLm1hZT4nLCAnLW9tYWUnLCAnPG91dGZpbGUubWFlPic=

> <r_lp_tautomer_probability>
1

> <r_epik_Ionization_Penalty>
1.11669

> <r_epik_Ionization_Penalty_Charging>
4.93496e-07

> <r_epik_Ionization_Penalty_Neutral>
1.11669

> <r_epik_State_Penalty>
1.17516

> <r_epik_Charging_Adjusted_Penalty>
1.17516

> <i_epik_Tot_Q>
0

> <i_epik_Tot_abs_Q>
0

> <r_epik_Metal_State_Penalty>
1.17513

> <b_epik_Metal_Only>
0

> <s_lp_Force_Field>
OPLS_2005

> <r_lp_Energy>
40.1187

> <b_lp_Chiralities_Consistent>
1

> <s_lp_Variant>
AV-unprocessed.smi:712-6

> <Gold.Version>
5.8.1

> <Gold.Id.Protein>
6NUR|6NUR_protein|mol2

> <Gold.PLP.Fitness>
43.4084

> <Gold.PLP.PLP>
-44.6443

> <Gold.PLP.part.hbond>
-1.5950

> <Gold.PLP.part.metal>
0.0000

> <Gold.PLP.part.buried>
-2.0505

> <Gold.PLP.part.nonpolar>
-39.7380

> <Gold.PLP.part.repulsive>
0.4200

> <Gold.PLP.ligand.clash>
0.0000

> <Gold.PLP.ligand.torsion>
0.6722

> <Gold.PLP.Chemscore.Hbond>
0.0000

> <Gold.PLP.Chemscore.CHOScore>
0.0000

> <Gold.PLP.Chemscore.Metal>
0.0000

> <Gold.PLP.Chemscore.Internal.Correction>
0.1084

> <Gold.Rescore>
     Score         DG    S(hbond)    S(metal)    S(lipo)     H(rot)  DE(clash)    DE(int)     intcor
     13.63     -14.45       0.02        0.00     116.08       1.82       0.07       0.75       ----

> <Gold.Chemscore.Fitness>
13.6292

> <Gold.Chemscore.DG>
-14.4454

> <Gold.Chemscore.ZeroCoef>
-5.4800

> <Gold.Chemscore.Hbond>
0.0161

> <Gold.Chemscore.Metal>
0.0000

> <Gold.Chemscore.Lipo>
116.0847

> <Gold.Chemscore.Internal_Hbond>
0.0000

> <Gold.Chemscore.DEClash>
0.0702

> <Gold.Chemscore.DEInternal>
0.7460

> <Gold.Chemscore.Rot>
1.8243

> <Gold.Chemscore.Internal.Correction>
   9.000000E+99

> <Gold.Chemscore.Hbond.Weighted>
-0.0537

> <Gold.Chemscore.Metal.Weighted>
-0.0000

> <Gold.Chemscore.Lipo.Weighted>
-13.5819

> <Gold.Chemscore.Internal_Hbond.Weighted>
0.0000

> <Gold.Chemscore.DEClash.Weighted>
0.0702

> <Gold.Chemscore.DEInternal.Weighted>
0.7460

> <Gold.Chemscore.Rot.Weighted>
4.6703

> <Gold.Chemscore.Internal.Correction.Weighted>
   9.000000E+99

> <Gold.Protein.RotatedTorsions>
[ 6907 6896 6895 6894 ] final   76.58 input  -60.11 | X-H torsion
[ 7974 7965 7964 7962 ] final   14.82 input  175.53 | X-H torsion
[ 8008 7997 7996 7995 ] final  -85.41 input   59.86 | X-H torsion
[ 10167 10162 10161 10158 ] final  168.14 input  -65.29 | X-H torsion
[ 10718 10713 10712 10709 ] final -102.92 input   66.30 | X-H torsion
[ 10763 10752 10751 10750 ] final -176.81 input  -60.55 | X-H torsion
[ 11005 11000 10999 10996 ] final  -18.28 input  -57.11 | X-H torsion

> <Gold.Protein.ActiveResidues>
 VAL166  LYS551  ARG553  GLY616  TRP617  ASP618  TYR619  PRO620  LYS621  CYS622 
 ASP623  PHE694  ASN695  SER759  ASP760  ASP761  ALA762  ILE779  LEU786  VAL792 
 PHE793  MET794  SER795  GLU796  ALA797  LYS798  CYS799  TRP800  GLU811  SER814 

> <Gold.Protein.RotatedAtoms>
  152.5079  134.3947  159.9395 H   0  0  0  0  0  0  0  0  0  0  0  0  # atno 6907 bound_to 6896
  151.3909  133.3783  159.2728 H   0  0  0  0  0  0  0  0  0  0  0  0  # atno 6908 bound_to 6896
  150.9433  134.8861  159.7685 H   0  0  0  0  0  0  0  0  0  0  0  0  # atno 6909 bound_to 6896
  146.2295  139.8984  142.8543 H   0  0  0  0  0  0  0  0  0  0  0  0  # atno 7974 bound_to 7965
  154.6405  140.0592  156.9839 H   0  0  0  0  0  0  0  0  0  0  0  0  # atno 8008 bound_to 7997
  155.1525  140.3275  155.4410 H   0  0  0  0  0  0  0  0  0  0  0  0  # atno 8009 bound_to 7997
  156.2528  140.1945  156.6636 H   0  0  0  0  0  0  0  0  0  0  0  0  # atno 8010 bound_to 7997
  139.4961  144.3847  151.9584 H   0  0  0  0  0  0  0  0  0  0  0  0  # atno 10167 bound_to 10162
  156.0246  130.5443  150.7178 H   0  0  0  0  0  0  0  0  0  0  0  0  # atno 10718 bound_to 10713
  154.5678  135.2825  155.0857 H   0  0  0  0  0  0  0  0  0  0  0  0  # atno 10763 bound_to 10752
  154.2241  135.6386  153.5158 H   0  0  0  0  0  0  0  0  0  0  0  0  # atno 10764 bound_to 10752
  153.0048  135.5521  154.6292 H   0  0  0  0  0  0  0  0  0  0  0  0  # atno 10765 bound_to 10752
  140.8252  133.8038  155.9701 H   0  0  0  0  0  0  0  0  0  0  0  0  # atno 11005 bound_to 11000
  145.2347  140.9986  143.3970 LP  0  0  0  0  0  0  0  0  0  0  0  0  # atno 17320 bound_to 7965
  144.9501  139.4092  143.6407 LP  0  0  0  0  0  0  0  0  0  0  0  0  # atno 17321 bound_to 7965
  140.3283  144.3346  150.5993 LP  0  0  0  0  0  0  0  0  0  0  0  0  # atno 17342 bound_to 10162
  140.5666  143.2185  151.7673 LP  0  0  0  0  0  0  0  0  0  0  0  0  # atno 17343 bound_to 10162
  157.4801  131.0901  151.0546 LP  0  0  0  0  0  0  0  0  0  0  0  0  # atno 17370 bound_to 10713
  157.0981  130.5970  149.5454 LP  0  0  0  0  0  0  0  0  0  0  0  0  # atno 17371 bound_to 10713
  140.9057  134.2323  157.5016 LP  0  0  0  0  0  0  0  0  0  0  0  0  # atno 17394 bound_to 11000
  139.8707  134.9727  156.4782 LP  0  0  0  0  0  0  0  0  0  0  0  0  # atno 17395 bound_to 11000

$$$$
