AV-unprocessed.smi:490|AV-procd|sdf|2706|dock4
  -GOLD-   2262023143D 1   1.00000     0.00000
 Structure written by MMmdl.
 50 52  0  0  0  0  0  0  0  0  2 V2000
  137.0553  140.7660  154.5055 C   0  0  0  0  0  0  0  0  0  0  0  0
  137.9200  139.5339  154.3007 C   0  0  0  0  0  0  0  0  0  0  0  0
  137.3326  138.2587  154.4283 C   0  0  0  0  0  0  0  0  0  0  0  0
  138.1053  137.0979  154.2511 C   0  0  0  0  0  0  0  0  0  0  0  0
  139.4742  137.1990  153.9363 C   0  0  0  0  0  0  0  0  0  0  0  0
  140.2929  135.9336  153.7573 C   0  0  0  0  0  0  0  0  0  0  0  0
  140.0695  138.4739  153.7901 C   0  0  0  0  0  0  0  0  0  0  0  0
  141.4016  138.5687  153.4792 O   0  0  0  0  0  0  0  0  0  0  0  0
  142.2622  138.3618  154.5898 C   0  0  0  0  0  0  0  0  0  0  0  0
  143.4659  137.5249  154.1323 C   0  0  1  0  0  0  0  0  0  0  0  0
  143.6676  136.4821  155.0653 O   0  0  0  0  0  0  0  0  0  0  0  0
  143.2448  136.9175  152.7331 C   0  0  0  0  0  0  0  0  0  0  0  0
  144.4569  136.2833  152.1880 N   0  0  0  0  0  0  0  0  0  0  0  0
  145.7173  136.7851  152.0376 C   0  0  0  0  0  0  0  0  0  0  0  0
  146.1940  138.1502  152.4118 C   0  0  0  0  0  0  0  0  0  0  0  0
  147.0895  138.6846  151.4622 O   0  0  0  0  0  0  0  0  0  0  0  0
  146.4814  135.7996  151.4877 N   0  3  0  0  0  0  0  0  0  0  0  0
  145.7067  134.6569  151.2865 C   0  0  0  0  0  0  0  0  0  0  0  0
  146.0408  133.4126  150.7604 C   0  0  0  0  0  0  0  0  0  0  0  0
  145.0084  132.4539  150.6982 C   0  0  0  0  0  0  0  0  0  0  0  0
  143.7057  132.7484  151.1498 C   0  0  0  0  0  0  0  0  0  0  0  0
  143.3789  134.0140  151.6802 C   0  0  0  0  0  0  0  0  0  0  0  0
  144.4046  134.9583  151.7361 C   0  0  0  0  0  0  0  0  0  0  0  0
  139.2979  139.6466  153.9885 C   0  0  0  0  0  0  0  0  0  0  0  0
  139.9445  141.0199  153.8631 C   0  0  0  0  0  0  0  0  0  0  0  0
  136.0015  140.5004  154.5961 H   0  0  0  0  0  0  0  0  0  0  0  0
  137.1532  141.4518  153.6635 H   0  0  0  0  0  0  0  0  0  0  0  0
  137.3488  141.2891  155.4159 H   0  0  0  0  0  0  0  0  0  0  0  0
  136.2836  138.1642  154.6686 H   0  0  0  0  0  0  0  0  0  0  0  0
  137.6417  136.1282  154.3583 H   0  0  0  0  0  0  0  0  0  0  0  0
  141.3000  136.0586  154.1559 H   0  0  0  0  0  0  0  0  0  0  0  0
  140.3695  135.6800  152.6999 H   0  0  0  0  0  0  0  0  0  0  0  0
  139.8319  135.0931  154.2768 H   0  0  0  0  0  0  0  0  0  0  0  0
  142.5814  139.3060  155.0342 H   0  0  0  0  0  0  0  0  0  0  0  0
  141.7117  137.8181  155.3597 H   0  0  0  0  0  0  0  0  0  0  0  0
  144.3558  138.1547  154.1093 H   0  0  0  0  0  0  0  0  0  0  0  0
  143.3581  135.6758  154.6809 H   0  0  0  0  0  0  0  0  0  0  0  0
  142.4266  136.1970  152.7383 H   0  0  0  0  0  0  0  0  0  0  0  0
  142.9480  137.6980  152.0323 H   0  0  0  0  0  0  0  0  0  0  0  0
  145.3382  138.8188  152.5074 H   0  0  0  0  0  0  0  0  0  0  0  0
  146.6823  138.1176  153.3856 H   0  0  0  0  0  0  0  0  0  0  0  0
  147.6718  139.2856  151.9015 H   0  0  0  0  0  0  0  0  0  0  0  0
  147.0391  133.1837  150.4172 H   0  0  0  0  0  0  0  0  0  0  0  0
  145.2204  131.4724  150.2992 H   0  0  0  0  0  0  0  0  0  0  0  0
  142.9408  131.9875  151.0906 H   0  0  0  0  0  0  0  0  0  0  0  0
  142.3792  134.2241  152.0299 H   0  0  0  0  0  0  0  0  0  0  0  0
  141.0329  140.9674  153.8528 H   0  0  0  0  0  0  0  0  0  0  0  0
  139.6648  141.6575  154.7018 H   0  0  0  0  0  0  0  0  0  0  0  0
  139.6223  141.5035  152.9406 H   0  0  0  0  0  0  0  0  0  0  0  0
  147.4646  135.9031  151.2727 H   0  0  0  0  0  0  0  0  0  0  0  0
  1  2  1  0  0  0  0
  1 26  1  0  0  0  0
  1 27  1  0  0  0  0
  1 28  1  0  0  0  0
  2 24  1  0  0  0  0
  2  3  2  0  0  0  0
  3  4  1  0  0  0  0
  3 29  1  0  0  0  0
  4  5  2  0  0  0  0
  4 30  1  0  0  0  0
  5  6  1  0  0  0  0
  5  7  1  0  0  0  0
  6 31  1  0  0  0  0
  6 32  1  0  0  0  0
  6 33  1  0  0  0  0
  7  8  1  0  0  0  0
  7 24  2  0  0  0  0
  8  9  1  0  0  0  0
  9 10  1  0  0  0  0
  9 34  1  0  0  0  0
  9 35  1  0  0  0  0
 10 11  1  0  0  0  0
 10 12  1  0  0  0  0
 10 36  1  0  0  0  0
 11 37  1  0  0  0  0
 12 13  1  0  0  0  0
 12 38  1  0  0  0  0
 12 39  1  0  0  0  0
 13 23  1  0  0  0  0
 13 14  1  0  0  0  0
 14 15  1  0  0  0  0
 14 17  2  0  0  0  0
 15 16  1  0  0  0  0
 15 40  1  0  0  0  0
 15 41  1  0  0  0  0
 16 42  1  0  0  0  0
 17 18  1  0  0  0  0
 17 50  1  0  0  0  0
 18 23  2  0  0  0  0
 18 19  1  0  0  0  0
 19 20  2  0  0  0  0
 19 43  1  0  0  0  0
 20 21  1  0  0  0  0
 20 44  1  0  0  0  0
 21 22  2  0  0  0  0
 21 45  1  0  0  0  0
 22 23  1  0  0  0  0
 22 46  1  0  0  0  0
 24 25  1  0  0  0  0
 25 47  1  0  0  0  0
 25 48  1  0  0  0  0
 25 49  1  0  0  0  0
M  CHG  1  17   1
M  END
> <s_m_source_file>
AV-unprocessed.smi

> <i_m_source_file_index>
490

> <i_lp_mmshare_version>
43012

> <i_f3d_flags>
0

> <s_epik_input>
W0NIM11jMVtjSF1bY0hdYyhbQ0gzXSljKGMxW0NIM10pT1tDSDJdW0NASF0oW09IXSlbQ0gyXW4oYyhuMilbQ0gyXVtPSF0pYyhjMjMpW2NIXVtjSF1bY0hdW2NIXTM=

> <s_epik_cmdline>
J2VwaWtfcHl0aG9uJywgJy1waCcsICc3LjAnLCAnLXRuJywgJzgnLCAnLW1hJywgJzIwMCcsICctbWV0YWxfYmluZGluZycsICctaW1hZScsICc8aW5maWxlLm1hZT4nLCAnLW9tYWUnLCAnPG91dGZpbGUubWFlPic=

> <r_lp_tautomer_probability>
1

> <r_epik_Ionization_Penalty>
1.43125

> <r_epik_Ionization_Penalty_Charging>
1.43039

> <r_epik_Ionization_Penalty_Neutral>
0.000858184

> <r_epik_State_Penalty>
1.51493

> <r_epik_Charging_Adjusted_Penalty>
2.94531

> <i_epik_Tot_Q>
1

> <i_epik_Tot_abs_Q>
1

> <r_epik_Metal_State_Penalty>
5.5599

> <b_epik_Metal_Only>
0

> <s_lp_Force_Field>
OPLS_2005

> <r_lp_Energy>
24.5509

> <b_lp_Chiralities_Consistent>
1

> <s_lp_Variant>
AV-unprocessed.smi:490-4

> <Gold.Version>
5.8.1

> <Gold.Id.Protein>
6NUR|6NUR_protein|mol2

> <Gold.PLP.Fitness>
53.9006

> <Gold.PLP.PLP>
-46.6911

> <Gold.PLP.part.hbond>
-3.9022

> <Gold.PLP.part.metal>
0.0000

> <Gold.PLP.part.buried>
-3.3836

> <Gold.PLP.part.nonpolar>
-40.0856

> <Gold.PLP.part.repulsive>
1.3131

> <Gold.PLP.ligand.clash>
0.0000

> <Gold.PLP.ligand.torsion>
1.5974

> <Gold.PLP.Chemscore.Hbond>
3.4065

> <Gold.PLP.Chemscore.CHOScore>
0.0000

> <Gold.PLP.Chemscore.Metal>
0.0000

> <Gold.Chemscore.Hbonds>
donor molecule, donor type, donor heavy atom, donor atom, acceptor molecule, acceptor atom, score
      L1  H    16    42       P1  7957  0.32
      L1  H    17    50       P1  7948  1.92
      P1  H  7954  7966       L1    16  0.93

> <Gold.PLP.Chemscore.Internal.Correction>
0.1848

> <Gold.Rescore>
     Score         DG    S(hbond)    S(metal)    S(lipo)     H(rot)  DE(clash)    DE(int)     intcor
     14.59     -16.43       1.84        0.00     107.05       3.02       0.12       1.72       ----

> <Gold.Chemscore.Fitness>
14.5906

> <Gold.Chemscore.DG>
-16.4283

> <Gold.Chemscore.ZeroCoef>
-5.4800

> <Gold.Chemscore.Hbond>
1.8410

> <Gold.Chemscore.Metal>
0.0000

> <Gold.Chemscore.Lipo>
107.0541

> <Gold.Chemscore.Internal_Hbond>
0.0000

> <Gold.Chemscore.DEClash>
0.1190

> <Gold.Chemscore.DEInternal>
1.7187

> <Gold.Chemscore.Rot>
3.0180

> <Gold.Chemscore.Internal.Correction>
   9.000000E+99

> <Gold.Chemscore.Hbonds>
donor molecule, donor type, donor heavy atom, donor atom, acceptor molecule, acceptor atom, score
      L1  H    16    42       P1  7957  0.34
      L1  H    17    50       P1  7948  0.87
      P1  H  7954  7966       L1    16  0.47

> <Gold.Chemscore.Hbond.Weighted>
-6.1490

> <Gold.Chemscore.Metal.Weighted>
-0.0000

> <Gold.Chemscore.Lipo.Weighted>
-12.5253

> <Gold.Chemscore.Internal_Hbond.Weighted>
0.0000

> <Gold.Chemscore.DEClash.Weighted>
0.1190

> <Gold.Chemscore.DEInternal.Weighted>
1.7187

> <Gold.Chemscore.Rot.Weighted>
7.7260

> <Gold.Chemscore.Internal.Correction.Weighted>
   9.000000E+99

> <Gold.Protein.RotatedTorsions>
[ 6907 6896 6895 6894 ] final   -9.84 input  -60.11 | X-H torsion
[ 7974 7965 7964 7962 ] final  128.28 input  175.53 | X-H torsion
[ 8008 7997 7996 7995 ] final  -16.33 input   59.86 | X-H torsion
[ 10167 10162 10161 10158 ] final  103.22 input  -65.29 | X-H torsion
[ 10718 10713 10712 10709 ] final  173.34 input   66.30 | X-H torsion
[ 10763 10752 10751 10750 ] final  167.36 input  -60.55 | X-H torsion
[ 11005 11000 10999 10996 ] final  130.94 input  -57.11 | X-H torsion

> <Gold.Protein.ActiveResidues>
 VAL166  LYS551  ARG553  GLY616  TRP617  ASP618  TYR619  PRO620  LYS621  CYS622 
 ASP623  PHE694  ASN695  SER759  ASP760  ASP761  ALA762  ILE779  LEU786  VAL792 
 PHE793  MET794  SER795  GLU796  ALA797  LYS798  CYS799  TRP800  GLU811  SER814 

> <Gold.Protein.RotatedAtoms>
  151.4114  135.0985  159.9586 H   0  0  0  0  0  0  0  0  0  0  0  0  # atno 6907 bound_to 6896
  152.5018  133.8793  159.7349 H   0  0  0  0  0  0  0  0  0  0  0  0  # atno 6908 bound_to 6896
  150.9289  133.6733  159.2843 H   0  0  0  0  0  0  0  0  0  0  0  0  # atno 6909 bound_to 6896
  145.0413  139.3961  143.5100 H   0  0  0  0  0  0  0  0  0  0  0  0  # atno 7974 bound_to 7965
  154.5061  140.2172  155.9248 H   0  0  0  0  0  0  0  0  0  0  0  0  # atno 8008 bound_to 7997
  156.1495  140.3164  155.8592 H   0  0  0  0  0  0  0  0  0  0  0  0  # atno 8009 bound_to 7997
  155.3966  140.0481  157.3029 H   0  0  0  0  0  0  0  0  0  0  0  0  # atno 8010 bound_to 7997
  139.7282  144.7042  151.0764 H   0  0  0  0  0  0  0  0  0  0  0  0  # atno 10167 bound_to 10162
  156.9656  131.0074  151.2917 H   0  0  0  0  0  0  0  0  0  0  0  0  # atno 10718 bound_to 10713
  154.3527  135.2753  155.2363 H   0  0  0  0  0  0  0  0  0  0  0  0  # atno 10763 bound_to 10752
  154.4586  135.5913  153.6243 H   0  0  0  0  0  0  0  0  0  0  0  0  # atno 10764 bound_to 10752
  152.9849  135.6059  154.3739 H   0  0  0  0  0  0  0  0  0  0  0  0  # atno 10765 bound_to 10752
  139.9701  134.9580  156.9366 H   0  0  0  0  0  0  0  0  0  0  0  0  # atno 11005 bound_to 11000
  146.3509  140.0015  142.8675 LP  0  0  0  0  0  0  0  0  0  0  0  0  # atno 17320 bound_to 7965
  145.1644  140.9689  143.4358 LP  0  0  0  0  0  0  0  0  0  0  0  0  # atno 17321 bound_to 7965
  140.7766  143.5077  150.9691 LP  0  0  0  0  0  0  0  0  0  0  0  0  # atno 17342 bound_to 10162
  139.8765  143.7126  152.3161 LP  0  0  0  0  0  0  0  0  0  0  0  0  # atno 17343 bound_to 10162
  157.5627  130.8257  149.8287 LP  0  0  0  0  0  0  0  0  0  0  0  0  # atno 17370 bound_to 10713
  156.0304  130.3766  150.1705 LP  0  0  0  0  0  0  0  0  0  0  0  0  # atno 17371 bound_to 10713
  140.5312  134.0812  155.7316 LP  0  0  0  0  0  0  0  0  0  0  0  0  # atno 17394 bound_to 11000
  141.1381  133.9187  157.2389 LP  0  0  0  0  0  0  0  0  0  0  0  0  # atno 17395 bound_to 11000

$$$$
