AV-unprocessed.smi:214|AV-procd|sdf|1649|dock4
  -GOLD-   2262020 33D 1   1.00000     0.00000
 Structure written by MMmdl.
 47 50  0  0  0  0  0  0  0  0  1 V2000
  147.3043  139.8938  152.7306 C   0  0  0  0  0  0  0  0  0  0  0  0
  147.3675  138.8935  153.7911 N   0  0  0  0  0  0  0  0  0  0  0  0
  148.6428  138.6651  154.4794 C   0  0  0  0  0  0  0  0  0  0  0  0
  149.1823  139.9273  155.1637 C   0  0  0  0  0  0  0  0  0  0  0  0
  149.5169  140.9125  154.5036 O   0  0  0  0  0  0  0  0  0  0  0  0
  149.2438  139.8829  156.5025 N   0  0  0  0  0  0  0  0  0  0  0  0
  149.7047  140.9376  157.3467 C   0  0  0  0  0  0  0  0  0  0  0  0
  151.0779  141.5100  157.0685 C   0  0  0  0  0  0  0  0  0  0  0  0
  150.8614  140.6413  158.2766 C   0  0  0  0  0  0  0  0  0  0  0  0
  146.5616  137.8272  153.5797 C   0  0  0  0  0  0  0  0  0  0  0  0
  146.1113  137.1626  154.6734 N   0  0  0  0  0  0  0  0  0  0  0  0
  145.3149  136.0993  154.5323 C   0  0  0  0  0  0  0  0  0  0  0  0
  144.8480  135.5500  153.4096 N   0  0  0  0  0  0  0  0  0  0  0  0
  145.2787  136.2280  152.3078 C   0  0  0  0  0  0  0  0  0  0  0  0
  146.1326  137.3676  152.3010 C   0  0  0  0  0  0  0  0  0  0  0  0
  146.3459  137.7887  150.9933 N   0  0  0  0  0  0  0  0  0  0  0  0
  145.6675  136.9405  150.2698 C   0  0  0  0  0  0  0  0  0  0  0  0
  144.9886  135.9747  150.9782 N   0  0  0  0  0  0  0  0  0  0  0  0
  144.1607  134.9145  150.4223 C   0  0  0  0  0  0  0  0  0  0  0  0
  144.7812  133.5044  150.5176 C   0  0  0  0  0  0  0  0  0  0  0  0
  144.1603  132.5574  149.4752 C   0  0  0  0  0  0  0  0  0  0  0  0
  142.7505  132.5333  149.5733 O   0  0  0  0  0  0  0  0  0  0  0  0
  146.3134  133.4558  150.5970 C   0  0  0  0  0  0  0  0  0  0  0  0
  146.2809  132.5877  151.7491 O   0  0  0  0  0  0  0  0  0  0  0  0
  144.8857  132.9081  151.9291 C   0  0  0  0  0  0  0  0  0  0  0  0
  146.3139  140.3476  152.6821 H   0  0  0  0  0  0  0  0  0  0  0  0
  147.5261  139.4453  151.7610 H   0  0  0  0  0  0  0  0  0  0  0  0
  148.0242  140.6948  152.9014 H   0  0  0  0  0  0  0  0  0  0  0  0
  148.5383  137.9049  155.2552 H   0  0  0  0  0  0  0  0  0  0  0  0
  149.3776  138.2939  153.7632 H   0  0  0  0  0  0  0  0  0  0  0  0
  148.9424  139.0350  156.9603 H   0  0  0  0  0  0  0  0  0  0  0  0
  148.9621  141.6432  157.7167 H   0  0  0  0  0  0  0  0  0  0  0  0
  151.6499  141.0882  156.2441 H   0  0  0  0  0  0  0  0  0  0  0  0
  151.2188  142.5761  157.2347 H   0  0  0  0  0  0  0  0  0  0  0  0
  150.8579  141.1267  159.2504 H   0  0  0  0  0  0  0  0  0  0  0  0
  151.2871  139.6398  158.2576 H   0  0  0  0  0  0  0  0  0  0  0  0
  145.0079  135.6201  155.4503 H   0  0  0  0  0  0  0  0  0  0  0  0
  145.6361  137.0017  149.1915 H   0  0  0  0  0  0  0  0  0  0  0  0
  143.1953  134.9379  150.9291 H   0  0  0  0  0  0  0  0  0  0  0  0
  143.9481  135.1701  149.3835 H   0  0  0  0  0  0  0  0  0  0  0  0
  144.4172  132.8799  148.4656 H   0  0  0  0  0  0  0  0  0  0  0  0
  144.5451  131.5419  149.5717 H   0  0  0  0  0  0  0  0  0  0  0  0
  142.4317  133.4222  149.5312 H   0  0  0  0  0  0  0  0  0  0  0  0
  146.7918  132.9920  149.7337 H   0  0  0  0  0  0  0  0  0  0  0  0
  146.7755  134.4171  150.8279 H   0  0  0  0  0  0  0  0  0  0  0  0
  144.7459  133.6313  152.7338 H   0  0  0  0  0  0  0  0  0  0  0  0
  144.2653  132.0253  152.0870 H   0  0  0  0  0  0  0  0  0  0  0  0
  1  2  1  0  0  0  0
  1 26  1  0  0  0  0
  1 27  1  0  0  0  0
  1 28  1  0  0  0  0
  2  3  1  0  0  0  0
  2 10  1  0  0  0  0
  3  4  1  0  0  0  0
  3 29  1  0  0  0  0
  3 30  1  0  0  0  0
  4  5  2  0  0  0  0
  4  6  1  0  0  0  0
  6  7  1  0  0  0  0
  6 31  1  0  0  0  0
  7  9  1  0  0  0  0
  7  8  1  0  0  0  0
  7 32  1  0  0  0  0
  8  9  1  0  0  0  0
  8 33  1  0  0  0  0
  8 34  1  0  0  0  0
  9 35  1  0  0  0  0
  9 36  1  0  0  0  0
 10 15  1  0  0  0  0
 10 11  2  0  0  0  0
 11 12  1  0  0  0  0
 12 13  2  0  0  0  0
 12 37  1  0  0  0  0
 13 14  1  0  0  0  0
 14 18  1  0  0  0  0
 14 15  2  0  0  0  0
 15 16  1  0  0  0  0
 16 17  2  0  0  0  0
 17 18  1  0  0  0  0
 17 38  1  0  0  0  0
 18 19  1  0  0  0  0
 19 20  1  0  0  0  0
 19 39  1  0  0  0  0
 19 40  1  0  0  0  0
 20 25  1  0  0  0  0
 20 21  1  0  0  0  0
 20 23  1  0  0  0  0
 21 22  1  0  0  0  0
 21 41  1  0  0  0  0
 21 42  1  0  0  0  0
 22 43  1  0  0  0  0
 23 24  1  0  0  0  0
 23 44  1  0  0  0  0
 23 45  1  0  0  0  0
 24 25  1  0  0  0  0
 25 46  1  0  0  0  0
 25 47  1  0  0  0  0
M  END
> <s_m_source_file>
AV-unprocessed.smi

> <i_m_source_file_index>
214

> <i_lp_mmshare_version>
43012

> <i_f3d_flags>
0

> <s_epik_input>
W0NIMl0xW0NIMl1bQ0hdMVtOSF1DKD1PKVtDSDJdTihbQ0gzXSljKG5bY0hdbjIpYyhjMjMpbltjSF1uM1tDSDJdQzQoW0NIMl1bT0hdKVtDSDJdT1tDSDJdNA==

> <s_epik_cmdline>
J2VwaWtfcHl0aG9uJywgJy1waCcsICc3LjAnLCAnLXRuJywgJzgnLCAnLW1hJywgJzIwMCcsICctbWV0YWxfYmluZGluZycsICctaW1hZScsICc8aW5maWxlLm1hZT4nLCAnLW9tYWUnLCAnPG91dGZpbGUubWFlPic=

> <r_lp_tautomer_probability>
1

> <r_epik_Ionization_Penalty>
0.000508869

> <r_epik_Ionization_Penalty_Charging>
0

> <r_epik_Ionization_Penalty_Neutral>
0.000508869

> <r_epik_State_Penalty>
0.000243319

> <r_epik_Charging_Adjusted_Penalty>
0.000243319

> <i_epik_Tot_Q>
0

> <i_epik_Tot_abs_Q>
0

> <r_epik_Metal_State_Penalty>
-0

> <b_epik_Metal_Only>
0

> <s_lp_Force_Field>
OPLS_2005

> <r_lp_Energy>
39.3286

> <b_lp_Chiralities_Consistent>
1

> <s_lp_Variant>
AV-unprocessed.smi:214-1

> <Gold.Version>
5.8.1

> <Gold.Id.Protein>
6NUR|6NUR_protein|mol2

> <Gold.PLP.Fitness>
45.7256

> <Gold.PLP.PLP>
-36.4292

> <Gold.PLP.part.hbond>
-5.0000

> <Gold.PLP.part.metal>
0.0000

> <Gold.PLP.part.buried>
2.5771

> <Gold.PLP.part.nonpolar>
-36.2877

> <Gold.PLP.part.repulsive>
2.6550

> <Gold.PLP.ligand.clash>
0.0000

> <Gold.PLP.ligand.torsion>
1.5339

> <Gold.PLP.Chemscore.Hbond>
2.7850

> <Gold.PLP.Chemscore.CHOScore>
0.9789

> <Gold.PLP.Chemscore.Metal>
0.0000

> <Gold.Chemscore.Hbonds>
donor molecule, donor type, donor heavy atom, donor atom, acceptor molecule, acceptor atom, score
      L1  H    22    43       P1 10186  0.88
      P1  H  7954  7966       L1    16  0.76
      P1  H  7989  7998       L1     5  0.16
      L1  C    17    38       P1  7921  0.50

> <Gold.PLP.Chemscore.Internal.Correction>
1.0727

> <Gold.Rescore>
     Score         DG    S(hbond)    S(metal)    S(lipo)     H(rot)  DE(clash)    DE(int)     intcor
      2.93     -13.51       2.22        0.00      77.63       3.31       6.84       3.74       ----

> <Gold.Chemscore.Fitness>
2.9340

> <Gold.Chemscore.DG>
-13.5095

> <Gold.Chemscore.ZeroCoef>
-5.4800

> <Gold.Chemscore.Hbond>
2.2180

> <Gold.Chemscore.Metal>
0.0000

> <Gold.Chemscore.Lipo>
77.6312

> <Gold.Chemscore.Internal_Hbond>
0.0000

> <Gold.Chemscore.DEClash>
6.8372

> <Gold.Chemscore.DEInternal>
3.7382

> <Gold.Chemscore.Rot>
3.3052

> <Gold.Chemscore.Internal.Correction>
   9.000000E+99

> <Gold.Chemscore.Hbonds>
donor molecule, donor type, donor heavy atom, donor atom, acceptor molecule, acceptor atom, score
      L1  H    22    43       P1 10186  0.87
      P1  H  7954  7966       L1    16  0.19
      P1  H  7989  7998       L1     5  0.16

> <Gold.Chemscore.Hbond.Weighted>
-7.4080

> <Gold.Chemscore.Metal.Weighted>
-0.0000

> <Gold.Chemscore.Lipo.Weighted>
-9.0828

> <Gold.Chemscore.Internal_Hbond.Weighted>
0.0000

> <Gold.Chemscore.DEClash.Weighted>
6.8372

> <Gold.Chemscore.DEInternal.Weighted>
3.7382

> <Gold.Chemscore.Rot.Weighted>
8.4614

> <Gold.Chemscore.Internal.Correction.Weighted>
   9.000000E+99

> <Gold.Protein.RotatedTorsions>
[ 6907 6896 6895 6894 ] final  135.19 input  -60.11 | X-H torsion
[ 7974 7965 7964 7962 ] final  142.71 input  175.53 | X-H torsion
[ 8008 7997 7996 7995 ] final  -63.68 input   59.86 | X-H torsion
[ 10167 10162 10161 10158 ] final  111.25 input  -65.29 | X-H torsion
[ 10718 10713 10712 10709 ] final -155.00 input   66.30 | X-H torsion
[ 10763 10752 10751 10750 ] final  -25.09 input  -60.55 | X-H torsion
[ 11005 11000 10999 10996 ] final    8.62 input  -57.11 | X-H torsion

> <Gold.Protein.ActiveResidues>
 VAL166  LYS551  ARG553  GLY616  TRP617  ASP618  TYR619  PRO620  LYS621  CYS622 
 ASP623  PHE694  ASN695  SER759  ASP760  ASP761  ALA762  ILE779  LEU786  VAL792 
 PHE793  MET794  SER795  GLU796  ALA797  LYS798  CYS799  TRP800  GLU811  SER814 

> <Gold.Protein.RotatedAtoms>
  152.3031  133.5675  159.5631 H   0  0  0  0  0  0  0  0  0  0  0  0  # atno 6907 bound_to 6896
  150.7287  134.0262  159.3727 H   0  0  0  0  0  0  0  0  0  0  0  0  # atno 6908 bound_to 6896
  151.8161  135.0666  160.0470 H   0  0  0  0  0  0  0  0  0  0  0  0  # atno 6909 bound_to 6896
  144.8984  139.5457  143.5765 H   0  0  0  0  0  0  0  0  0  0  0  0  # atno 7974 bound_to 7965
  154.4568  140.0970  156.6780 H   0  0  0  0  0  0  0  0  0  0  0  0  # atno 8008 bound_to 7997
  155.5114  140.3476  155.4371 H   0  0  0  0  0  0  0  0  0  0  0  0  # atno 8009 bound_to 7997
  156.0793  140.1369  156.9721 H   0  0  0  0  0  0  0  0  0  0  0  0  # atno 8010 bound_to 7997
  139.6626  144.7128  151.1837 H   0  0  0  0  0  0  0  0  0  0  0  0  # atno 10167 bound_to 10162
  156.5069  130.8417  151.2631 H   0  0  0  0  0  0  0  0  0  0  0  0  # atno 10718 bound_to 10713
  153.6943  135.6960  153.5081 H   0  0  0  0  0  0  0  0  0  0  0  0  # atno 10763 bound_to 10752
  153.2389  135.4312  155.0676 H   0  0  0  0  0  0  0  0  0  0  0  0  # atno 10764 bound_to 10752
  154.8363  135.3503  154.6484 H   0  0  0  0  0  0  0  0  0  0  0  0  # atno 10765 bound_to 10752
  140.5349  134.0430  155.7885 H   0  0  0  0  0  0  0  0  0  0  0  0  # atno 11005 bound_to 11000
  146.3094  139.7694  142.9031 LP  0  0  0  0  0  0  0  0  0  0  0  0  # atno 17320 bound_to 7965
  145.3659  141.0334  143.3258 LP  0  0  0  0  0  0  0  0  0  0  0  0  # atno 17321 bound_to 7965
  140.7586  143.5971  150.8738 LP  0  0  0  0  0  0  0  0  0  0  0  0  # atno 17342 bound_to 10162
  139.9629  143.6143  152.2997 LP  0  0  0  0  0  0  0  0  0  0  0  0  # atno 17343 bound_to 10162
  157.7456  130.9963  150.2774 LP  0  0  0  0  0  0  0  0  0  0  0  0  # atno 17370 bound_to 10713
  156.3278  130.3795  149.7517 LP  0  0  0  0  0  0  0  0  0  0  0  0  # atno 17371 bound_to 10713
  141.1260  133.9382  157.2634 LP  0  0  0  0  0  0  0  0  0  0  0  0  # atno 17394 bound_to 11000
  139.9534  135.0170  156.9060 LP  0  0  0  0  0  0  0  0  0  0  0  0  # atno 17395 bound_to 11000

$$$$
