AV-unprocessed.smi:1503|AV-procd|sdf|6068|dock6
  -GOLD-   22720 6183D 1   1.00000     0.00000
 Structure written by MMmdl.
 44 45  0  0  0  0  0  0  0  0  1 V2000
  142.3837  137.5106  153.2430 C   0  0  0  0  0  0  0  0  0  0  0  0
  143.4735  136.7539  153.0452 C   0  0  0  0  0  0  0  0  0  0  0  0
  144.6734  137.1749  152.2194 C   0  0  0  0  0  0  0  0  0  0  0  0
  145.5343  138.0924  152.9560 N   0  0  0  0  0  0  0  0  0  0  0  0
  146.5609  138.7808  152.4327 C   0  0  0  0  0  0  0  0  0  0  0  0
  146.8952  138.6990  151.2504 O   0  0  0  0  0  0  0  0  0  0  0  0
  147.3215  139.6961  153.3965 C   0  0  0  0  0  0  0  0  0  0  0  0
  148.8458  139.4761  153.3604 C   0  0  0  0  0  0  0  0  0  0  0  0
  149.5570  140.1985  154.5014 C   0  0  0  0  0  0  0  0  0  0  0  0
  150.4407  139.5848  155.3371 C   0  0  0  0  0  0  0  0  0  0  0  0
  150.8235  138.1213  155.2041 C   0  0  0  0  0  0  0  0  0  0  0  0
  151.0628  140.2814  156.3807 N   0  0  0  0  0  0  0  0  0  0  0  0
  150.8075  141.5376  156.5722 C   0  0  0  0  0  0  0  0  0  0  0  0
  151.3541  142.3401  157.5763 N   0  0  0  0  0  0  0  0  0  0  0  0
  151.5701  143.7762  157.3817 C   0  0  0  0  0  0  0  0  0  0  0  0
  151.6369  144.5188  158.7266 C   0  0  0  0  0  0  0  0  0  0  0  0
  152.6432  143.9385  159.5451 O   0  0  0  0  0  0  0  0  0  0  0  0
  152.3563  142.5766  159.8317 C   0  0  0  0  0  0  0  0  0  0  0  0
  152.3118  141.7694  158.5234 C   0  0  0  0  0  0  0  0  0  0  0  0
  149.8991  142.2034  155.7420 N   0  0  0  0  0  0  0  0  0  0  0  0
  149.2495  141.6227  154.7091 C   0  0  0  0  0  0  0  0  0  0  0  0
  148.4701  142.2759  154.0169 O   0  0  0  0  0  0  0  0  0  0  0  0
  149.7118  143.1794  155.9182 H   0  0  0  0  0  0  0  0  0  0  0  0
  142.2966  138.4949  152.8064 H   0  0  0  0  0  0  0  0  0  0  0  0
  141.5626  137.1533  153.8469 H   0  0  0  0  0  0  0  0  0  0  0  0
  143.5250  135.7763  153.5029 H   0  0  0  0  0  0  0  0  0  0  0  0
  145.2577  136.2993  151.9349 H   0  0  0  0  0  0  0  0  0  0  0  0
  144.3284  137.6388  151.2942 H   0  0  0  0  0  0  0  0  0  0  0  0
  145.3312  138.2182  153.9372 H   0  0  0  0  0  0  0  0  0  0  0  0
  147.0986  140.7366  153.1553 H   0  0  0  0  0  0  0  0  0  0  0  0
  146.9413  139.5212  154.4035 H   0  0  0  0  0  0  0  0  0  0  0  0
  149.0785  138.4111  153.4118 H   0  0  0  0  0  0  0  0  0  0  0  0
  149.2430  139.8072  152.4008 H   0  0  0  0  0  0  0  0  0  0  0  0
  151.1439  137.8976  154.1863 H   0  0  0  0  0  0  0  0  0  0  0  0
  149.9750  137.4828  155.4504 H   0  0  0  0  0  0  0  0  0  0  0  0
  151.6439  137.8641  155.8753 H   0  0  0  0  0  0  0  0  0  0  0  0
  152.5047  143.9155  156.8369 H   0  0  0  0  0  0  0  0  0  0  0  0
  150.7856  144.2264  156.7734 H   0  0  0  0  0  0  0  0  0  0  0  0
  151.8767  145.5694  158.5626 H   0  0  0  0  0  0  0  0  0  0  0  0
  150.6720  144.4886  159.2356 H   0  0  0  0  0  0  0  0  0  0  0  0
  153.1311  142.1825  160.4892 H   0  0  0  0  0  0  0  0  0  0  0  0
  151.4108  142.4962  160.3704 H   0  0  0  0  0  0  0  0  0  0  0  0
  152.0528  140.7350  158.7540 H   0  0  0  0  0  0  0  0  0  0  0  0
  153.2994  141.7543  158.0604 H   0  0  0  0  0  0  0  0  0  0  0  0
  1  2  2  0  0  0  0
  1 24  1  0  0  0  0
  1 25  1  0  0  0  0
  2  3  1  0  0  0  0
  2 26  1  0  0  0  0
  3  4  1  0  0  0  0
  3 27  1  0  0  0  0
  3 28  1  0  0  0  0
  4  5  1  0  0  0  0
  4 29  1  0  0  0  0
  5  6  2  0  0  0  0
  5  7  1  0  0  0  0
  7  8  1  0  0  0  0
  7 30  1  0  0  0  0
  7 31  1  0  0  0  0
  8  9  1  0  0  0  0
  8 32  1  0  0  0  0
  8 33  1  0  0  0  0
  9 21  1  0  0  0  0
  9 10  2  0  0  0  0
 10 11  1  0  0  0  0
 10 12  1  0  0  0  0
 11 34  1  0  0  0  0
 11 35  1  0  0  0  0
 11 36  1  0  0  0  0
 12 13  2  0  0  0  0
 13 14  1  0  0  0  0
 13 20  1  0  0  0  0
 14 19  1  0  0  0  0
 14 15  1  0  0  0  0
 15 16  1  0  0  0  0
 15 37  1  0  0  0  0
 15 38  1  0  0  0  0
 16 17  1  0  0  0  0
 16 39  1  0  0  0  0
 16 40  1  0  0  0  0
 17 18  1  0  0  0  0
 18 19  1  0  0  0  0
 18 41  1  0  0  0  0
 18 42  1  0  0  0  0
 19 43  1  0  0  0  0
 19 44  1  0  0  0  0
 20 23  1  0  0  0  0
 20 21  1  0  0  0  0
 21 22  2  0  0  0  0
M  END
> <s_m_source_file>
AV-unprocessed.smi

> <i_m_source_file_index>
1503

> <i_lp_mmshare_version>
43012

> <i_f3d_flags>
0

> <s_epik_input>
W0NIMl09W0NIXVtDSDJdW05IXUMoPU8pW0NIMl1bQ0gyXWMxYyhbQ0gzXSluYyhbbkhdYzE9TylOMltDSDJdW0NIMl1PW0NIMl1bQ0gyXTI=

> <s_epik_cmdline>
J2VwaWtfcHl0aG9uJywgJy1waCcsICc3LjAnLCAnLXRuJywgJzgnLCAnLW1hJywgJzIwMCcsICctbWV0YWxfYmluZGluZycsICctaW1hZScsICc8aW5maWxlLm1hZT4nLCAnLW9tYWUnLCAnPG91dGZpbGUubWFlPic=

> <r_lp_tautomer_probability>
0.878553

> <r_epik_Ionization_Penalty>
0.00125265

> <r_epik_Ionization_Penalty_Charging>
0.00122759

> <r_epik_Ionization_Penalty_Neutral>
2.50575e-05

> <r_epik_State_Penalty>
0.0426914

> <r_epik_Charging_Adjusted_Penalty>
0.043919

> <i_epik_Tot_Q>
0

> <i_epik_Tot_abs_Q>
0

> <r_epik_Metal_State_Penalty>
1.02948

> <b_epik_Metal_Only>
0

> <s_lp_Force_Field>
OPLS_2005

> <r_lp_Energy>
21.7502

> <b_lp_Chiralities_Consistent>
1

> <s_lp_Variant>
AV-unprocessed.smi:1503-1

> <Gold.Version>
5.8.1

> <Gold.Id.Protein>
6NUR|6NUR_protein|mol2

> <Gold.PLP.Fitness>
46.4791

> <Gold.PLP.PLP>
-40.8595

> <Gold.PLP.part.hbond>
-3.9083

> <Gold.PLP.part.metal>
0.0000

> <Gold.PLP.part.buried>
0.9621

> <Gold.PLP.part.nonpolar>
-40.3147

> <Gold.PLP.part.repulsive>
2.7819

> <Gold.PLP.ligand.clash>
0.0000

> <Gold.PLP.ligand.torsion>
0.5613

> <Gold.PLP.Chemscore.Hbond>
2.1591

> <Gold.PLP.Chemscore.CHOScore>
0.0000

> <Gold.PLP.Chemscore.Metal>
0.0000

> <Gold.Chemscore.Hbonds>
donor molecule, donor type, donor heavy atom, donor atom, acceptor molecule, acceptor atom, score
      L1  H    20    23       P1  8028  1.00
      P1  H  7954  7966       L1     6  1.00
      P1  H  8011  8017       L1    22  0.15

> <Gold.PLP.Chemscore.Internal.Correction>
0.2647

> <Gold.Rescore>
     Score         DG    S(hbond)    S(metal)    S(lipo)     H(rot)  DE(clash)    DE(int)     intcor
     14.07     -18.12       1.95        0.00      94.27       1.92       2.47       1.57       ----

> <Gold.Chemscore.Fitness>
14.0679

> <Gold.Chemscore.DG>
-18.1175

> <Gold.Chemscore.ZeroCoef>
-5.4800

> <Gold.Chemscore.Hbond>
1.9519

> <Gold.Chemscore.Metal>
0.0000

> <Gold.Chemscore.Lipo>
94.2738

> <Gold.Chemscore.Internal_Hbond>
0.0000

> <Gold.Chemscore.DEClash>
2.4749

> <Gold.Chemscore.DEInternal>
1.5747

> <Gold.Chemscore.Rot>
1.9187

> <Gold.Chemscore.Internal.Correction>
   9.000000E+99

> <Gold.Chemscore.Hbonds>
donor molecule, donor type, donor heavy atom, donor atom, acceptor molecule, acceptor atom, score
      L1  H    20    23       P1  8028  0.98
      P1  H  7954  7966       L1     6  0.89
      P1  H  8011  8017       L1    22  0.02
      P1  H  8022  8030       L1    22  0.01

> <Gold.Chemscore.Hbond.Weighted>
-6.5194

> <Gold.Chemscore.Metal.Weighted>
-0.0000

> <Gold.Chemscore.Lipo.Weighted>
-11.0300

> <Gold.Chemscore.Internal_Hbond.Weighted>
0.0000

> <Gold.Chemscore.DEClash.Weighted>
2.4749

> <Gold.Chemscore.DEInternal.Weighted>
1.5747

> <Gold.Chemscore.Rot.Weighted>
4.9119

> <Gold.Chemscore.Internal.Correction.Weighted>
   9.000000E+99

> <Gold.Protein.RotatedTorsions>
[ 6907 6896 6895 6894 ] final  153.87 input  -60.11 | X-H torsion
[ 7974 7965 7964 7962 ] final -115.65 input  175.53 | X-H torsion
[ 8008 7997 7996 7995 ] final   60.19 input   59.86 | X-H torsion
[ 10167 10162 10161 10158 ] final   17.84 input  -65.29 | X-H torsion
[ 10718 10713 10712 10709 ] final -125.52 input   66.30 | X-H torsion
[ 10763 10752 10751 10750 ] final   -5.23 input  -60.55 | X-H torsion
[ 11005 11000 10999 10996 ] final -164.02 input  -57.11 | X-H torsion

> <Gold.Protein.ActiveResidues>
 VAL166  LYS551  ARG553  GLY616  TRP617  ASP618  TYR619  PRO620  LYS621  CYS622 
 ASP623  PHE694  ASN695  SER759  ASP760  ASP761  ALA762  ILE779  LEU786  VAL792 
 PHE793  MET794  SER795  GLU796  ALA797  LYS798  CYS799  TRP800  GLU811  SER814 

> <Gold.Protein.RotatedAtoms>
  152.0665  133.4086  159.4440 H   0  0  0  0  0  0  0  0  0  0  0  0  # atno 6907 bound_to 6896
  150.6864  134.3140  159.4767 H   0  0  0  0  0  0  0  0  0  0  0  0  # atno 6908 bound_to 6896
  152.0967  134.9369  160.0621 H   0  0  0  0  0  0  0  0  0  0  0  0  # atno 6909 bound_to 6896
  145.1059  140.8581  143.3898 H   0  0  0  0  0  0  0  0  0  0  0  0  # atno 7974 bound_to 7965
  155.5783  140.3491  155.4533 H   0  0  0  0  0  0  0  0  0  0  0  0  # atno 8008 bound_to 7997
  156.0392  140.1292  157.0199 H   0  0  0  0  0  0  0  0  0  0  0  0  # atno 8009 bound_to 7997
  154.4385  140.1027  156.6198 H   0  0  0  0  0  0  0  0  0  0  0  0  # atno 8010 bound_to 7997
  140.5697  143.9185  150.6703 H   0  0  0  0  0  0  0  0  0  0  0  0  # atno 10167 bound_to 10162
  156.1683  130.6650  151.0145 H   0  0  0  0  0  0  0  0  0  0  0  0  # atno 10718 bound_to 10713
  153.3957  135.7003  153.6462 H   0  0  0  0  0  0  0  0  0  0  0  0  # atno 10763 bound_to 10752
  153.5016  135.3651  155.2543 H   0  0  0  0  0  0  0  0  0  0  0  0  # atno 10764 bound_to 10752
  154.8706  135.4113  154.3283 H   0  0  0  0  0  0  0  0  0  0  0  0  # atno 10765 bound_to 10752
  140.5916  134.5039  157.5193 H   0  0  0  0  0  0  0  0  0  0  0  0  # atno 11005 bound_to 11000
  145.0902  139.2896  143.5739 LP  0  0  0  0  0  0  0  0  0  0  0  0  # atno 17320 bound_to 7965
  146.3528  140.0437  142.8641 LP  0  0  0  0  0  0  0  0  0  0  0  0  # atno 17321 bound_to 7965
  140.2657  143.3492  152.1283 LP  0  0  0  0  0  0  0  0  0  0  0  0  # atno 17342 bound_to 10162
  139.5111  144.6895  151.5798 LP  0  0  0  0  0  0  0  0  0  0  0  0  # atno 17343 bound_to 10162
  157.6784  131.0844  150.7435 LP  0  0  0  0  0  0  0  0  0  0  0  0  # atno 17370 bound_to 10713
  156.7495  130.4764  149.5460 LP  0  0  0  0  0  0  0  0  0  0  0  0  # atno 17371 bound_to 10713
  139.9271  134.8034  156.1036 LP  0  0  0  0  0  0  0  0  0  0  0  0  # atno 17394 bound_to 11000
  141.0931  133.6706  156.2584 LP  0  0  0  0  0  0  0  0  0  0  0  0  # atno 17395 bound_to 11000

$$$$
