AV-unprocessed.smi:281|AV-procd|sdf|2106|dock4
  -GOLD-   2262021393D 1   1.00000     0.00000
 Structure written by MMmdl.
 55 59  0  0  0  0  0  0  0  0  1 V2000
  144.3090  132.5955  148.4464 C   0  0  0  0  0  0  0  0  0  0  0  0
  144.2796  132.7403  149.9713 C   0  0  1  0  0  0  0  0  0  0  0  0
  145.5292  132.1322  150.6322 C   0  0  0  0  0  0  0  0  0  0  0  0
  145.5052  132.3902  152.0646 N   0  0  0  0  0  0  0  0  0  0  0  0
  146.4702  131.7495  152.7559 C   0  0  0  0  0  0  0  0  0  0  0  0
  146.4280  130.3951  152.7618 N   0  0  0  0  0  0  0  0  0  0  0  0
  147.3545  129.7024  153.4312 C   0  0  0  0  0  0  0  0  0  0  0  0
  148.3856  130.1594  154.1453 N   0  0  0  0  0  0  0  0  0  0  0  0
  148.4261  131.5231  154.1444 C   0  0  0  0  0  0  0  0  0  0  0  0
  147.5164  132.3907  153.4774 C   0  0  0  0  0  0  0  0  0  0  0  0
  147.8775  133.7149  153.6947 N   0  0  0  0  0  0  0  0  0  0  0  0
  148.9412  133.6344  154.4466 C   0  0  0  0  0  0  0  0  0  0  0  0
  149.3349  132.3560  154.7742 N   0  0  0  0  0  0  0  0  0  0  0  0
  150.4769  131.9757  155.5926 C   0  0  0  0  0  0  0  0  0  0  0  0
  150.4971  132.6456  156.9884 C   0  0  1  0  0  0  0  0  0  0  0  0
  151.5666  132.1074  157.7442 O   0  0  0  0  0  0  0  0  0  0  0  0
  150.6635  134.1647  156.9018 C   0  0  0  0  0  0  0  0  0  0  0  0
  149.2960  134.7001  157.3083 C   0  0  0  0  0  0  0  0  0  0  0  0
  148.8736  133.7630  158.2822 O   0  0  0  0  0  0  0  0  0  0  0  0
  149.1840  132.4722  157.7781 C   0  0  0  0  0  0  0  0  0  0  0  0
  145.4079  133.8096  152.3752 C   0  0  0  0  0  0  0  0  0  0  0  0
  144.1712  134.4332  151.6807 C   0  0  1  0  0  0  0  0  0  0  0  0
  142.8534  133.9959  152.3129 C   0  0  0  0  0  0  0  0  0  0  0  0
  142.6923  134.9634  153.4799 C   0  0  0  0  0  0  0  0  0  0  0  0
  143.3227  136.1705  153.0679 O   0  0  0  0  0  0  0  0  0  0  0  0
  144.0504  135.9589  151.8610 C   0  0  1  0  0  0  0  0  0  0  0  0
  145.3581  136.7643  151.8605 C   0  0  0  0  0  0  0  0  0  0  0  0
  144.2054  134.1325  150.2816 O   0  0  0  0  0  0  0  0  0  0  0  0
  144.3531  131.5467  148.1522 H   0  0  0  0  0  0  0  0  0  0  0  0
  145.1757  133.1005  148.0189 H   0  0  0  0  0  0  0  0  0  0  0  0
  143.4156  133.0295  147.9969 H   0  0  0  0  0  0  0  0  0  0  0  0
  143.3876  132.2356  150.3450 H   0  0  0  0  0  0  0  0  0  0  0  0
  145.5648  131.0571  150.4502 H   0  0  0  0  0  0  0  0  0  0  0  0
  146.4289  132.5651  150.1931 H   0  0  0  0  0  0  0  0  0  0  0  0
  147.2547  128.6278  153.3908 H   0  0  0  0  0  0  0  0  0  0  0  0
  149.4690  134.5138  154.7856 H   0  0  0  0  0  0  0  0  0  0  0  0
  150.4770  130.8896  155.6952 H   0  0  0  0  0  0  0  0  0  0  0  0
  151.3850  132.2290  155.0440 H   0  0  0  0  0  0  0  0  0  0  0  0
  151.3302  131.2341  158.0175 H   0  0  0  0  0  0  0  0  0  0  0  0
  151.4090  134.5192  157.6159 H   0  0  0  0  0  0  0  0  0  0  0  0
  150.9669  134.5136  155.9141 H   0  0  0  0  0  0  0  0  0  0  0  0
  149.3413  135.7120  157.7114 H   0  0  0  0  0  0  0  0  0  0  0  0
  148.6047  134.6926  156.4641 H   0  0  0  0  0  0  0  0  0  0  0  0
  148.3663  132.1744  157.1212 H   0  0  0  0  0  0  0  0  0  0  0  0
  149.2482  131.7347  158.5794 H   0  0  0  0  0  0  0  0  0  0  0  0
  145.3624  133.9557  153.4551 H   0  0  0  0  0  0  0  0  0  0  0  0
  146.3171  134.2989  152.0260 H   0  0  0  0  0  0  0  0  0  0  0  0
  142.0358  134.1450  151.6061 H   0  0  0  0  0  0  0  0  0  0  0  0
  142.8349  132.9515  152.6264 H   0  0  0  0  0  0  0  0  0  0  0  0
  141.6466  135.1289  153.7400 H   0  0  0  0  0  0  0  0  0  0  0  0
  143.2050  134.5858  154.3654 H   0  0  0  0  0  0  0  0  0  0  0  0
  143.4148  136.3425  151.0609 H   0  0  0  0  0  0  0  0  0  0  0  0
  145.9315  136.5797  150.9518 H   0  0  0  0  0  0  0  0  0  0  0  0
  145.9860  136.5149  152.7160 H   0  0  0  0  0  0  0  0  0  0  0  0
  145.1513  137.8334  151.9101 H   0  0  0  0  0  0  0  0  0  0  0  0
  1  2  1  0  0  0  0
  1 29  1  0  0  0  0
  1 30  1  0  0  0  0
  1 31  1  0  0  0  0
  2 28  1  0  0  0  0
  2  3  1  0  0  0  0
  2 32  1  0  0  0  0
  3  4  1  0  0  0  0
  3 33  1  0  0  0  0
  3 34  1  0  0  0  0
  4  5  1  0  0  0  0
  4 21  1  0  0  0  0
  5 10  1  0  0  0  0
  5  6  2  0  0  0  0
  6  7  1  0  0  0  0
  7  8  2  0  0  0  0
  7 35  1  0  0  0  0
  8  9  1  0  0  0  0
  9 13  1  0  0  0  0
  9 10  2  0  0  0  0
 10 11  1  0  0  0  0
 11 12  2  0  0  0  0
 12 13  1  0  0  0  0
 12 36  1  0  0  0  0
 13 14  1  0  0  0  0
 14 15  1  0  0  0  0
 14 37  1  0  0  0  0
 14 38  1  0  0  0  0
 15 20  1  0  0  0  0
 15 16  1  0  0  0  0
 15 17  1  0  0  0  0
 16 39  1  0  0  0  0
 17 18  1  0  0  0  0
 17 40  1  0  0  0  0
 17 41  1  0  0  0  0
 18 19  1  0  0  0  0
 18 42  1  0  0  0  0
 18 43  1  0  0  0  0
 19 20  1  0  0  0  0
 20 44  1  0  0  0  0
 20 45  1  0  0  0  0
 21 22  1  0  0  0  0
 21 46  1  0  0  0  0
 21 47  1  0  0  0  0
 22 26  1  0  0  0  0
 22 23  1  0  0  0  0
 22 28  1  0  0  0  0
 23 24  1  0  0  0  0
 23 48  1  0  0  0  0
 23 49  1  0  0  0  0
 24 25  1  0  0  0  0
 24 50  1  0  0  0  0
 24 51  1  0  0  0  0
 25 26  1  0  0  0  0
 26 27  1  0  0  0  0
 26 52  1  0  0  0  0
 27 53  1  0  0  0  0
 27 54  1  0  0  0  0
 27 55  1  0  0  0  0
M  END
> <s_m_source_file>
AV-unprocessed.smi

> <i_m_source_file_index>
281

> <i_lp_mmshare_version>
43012

> <i_f3d_flags>
0

> <s_epik_input>
W0NIM11bQ0BASF0xT1tDSDJdW0NIMl1bQ0BAXTEyW0NIMl1OKFtDSDJdW0NASF0oTzIpW0NIM10pYyhuW2NIXW4zKWMoYzM0KW5bY0hdbjRbQ0gyXVtDQEBdNShbT0hdKVtDSDJdW0NIMl1PW0NIMl01

> <s_epik_cmdline>
J2VwaWtfcHl0aG9uJywgJy1waCcsICc3LjAnLCAnLXRuJywgJzgnLCAnLW1hJywgJzIwMCcsICctbWV0YWxfYmluZGluZycsICctaW1hZScsICc8aW5maWxlLm1hZT4nLCAnLW9tYWUnLCAnPG91dGZpbGUubWFlPic=

> <r_lp_tautomer_probability>
1

> <r_epik_Ionization_Penalty>
0.00571331

> <r_epik_Ionization_Penalty_Charging>
0

> <r_epik_Ionization_Penalty_Neutral>
0.00571331

> <r_epik_State_Penalty>
0.00399586

> <r_epik_Charging_Adjusted_Penalty>
0.00399586

> <i_epik_Tot_Q>
0

> <i_epik_Tot_abs_Q>
0

> <r_epik_Metal_State_Penalty>
-0

> <b_epik_Metal_Only>
0

> <s_lp_Force_Field>
OPLS_2005

> <r_lp_Energy>
56.3854

> <b_lp_Chiralities_Consistent>
1

> <s_lp_Variant>
AV-unprocessed.smi:281-6

> <Gold.Version>
5.8.1

> <Gold.Id.Protein>
6NUR|6NUR_protein|mol2

> <Gold.PLP.Fitness>
44.3443

> <Gold.PLP.PLP>
-41.1080

> <Gold.PLP.part.hbond>
-1.7593

> <Gold.PLP.part.metal>
0.0000

> <Gold.PLP.part.buried>
-4.7484

> <Gold.PLP.part.nonpolar>
-35.6827

> <Gold.PLP.part.repulsive>
1.0956

> <Gold.PLP.ligand.clash>
0.0000

> <Gold.PLP.ligand.torsion>
0.2619

> <Gold.PLP.Chemscore.Hbond>
1.2124

> <Gold.PLP.Chemscore.CHOScore>
0.0000

> <Gold.PLP.Chemscore.Metal>
0.0000

> <Gold.Chemscore.Hbonds>
donor molecule, donor type, donor heavy atom, donor atom, acceptor molecule, acceptor atom, score
      P1  H  6896  6908       L1    16  0.41
      P1  H  6896  6909       L1    19  0.28

> <Gold.PLP.Chemscore.Internal.Correction>
0.1228

> <Gold.Rescore>
     Score         DG    S(hbond)    S(metal)    S(lipo)     H(rot)  DE(clash)    DE(int)     intcor
      8.86     -10.77       0.24        0.00      84.30       2.09       0.13       1.78       ----

> <Gold.Chemscore.Fitness>
8.8553

> <Gold.Chemscore.DG>
-10.7713

> <Gold.Chemscore.ZeroCoef>
-5.4800

> <Gold.Chemscore.Hbond>
0.2352

> <Gold.Chemscore.Metal>
0.0000

> <Gold.Chemscore.Lipo>
84.2986

> <Gold.Chemscore.Internal_Hbond>
0.0000

> <Gold.Chemscore.DEClash>
0.1319

> <Gold.Chemscore.DEInternal>
1.7841

> <Gold.Chemscore.Rot>
2.0927

> <Gold.Chemscore.Internal.Correction>
   9.000000E+99

> <Gold.Chemscore.Hbonds>
donor molecule, donor type, donor heavy atom, donor atom, acceptor molecule, acceptor atom, score
      P1  H  6896  6908       L1    16  0.28

> <Gold.Chemscore.Hbond.Weighted>
-0.7857

> <Gold.Chemscore.Metal.Weighted>
-0.0000

> <Gold.Chemscore.Lipo.Weighted>
-9.8629

> <Gold.Chemscore.Internal_Hbond.Weighted>
0.0000

> <Gold.Chemscore.DEClash.Weighted>
0.1319

> <Gold.Chemscore.DEInternal.Weighted>
1.7841

> <Gold.Chemscore.Rot.Weighted>
5.3573

> <Gold.Chemscore.Internal.Correction.Weighted>
   9.000000E+99

> <Gold.Protein.RotatedTorsions>
[ 6907 6896 6895 6894 ] final   30.98 input  -60.11 | X-H torsion
[ 7974 7965 7964 7962 ] final  130.09 input  175.53 | X-H torsion
[ 8008 7997 7996 7995 ] final  -56.01 input   59.86 | X-H torsion
[ 10167 10162 10161 10158 ] final -140.84 input  -65.29 | X-H torsion
[ 10718 10713 10712 10709 ] final   25.50 input   66.30 | X-H torsion
[ 10763 10752 10751 10750 ] final   45.77 input  -60.55 | X-H torsion
[ 11005 11000 10999 10996 ] final   19.31 input  -57.11 | X-H torsion

> <Gold.Protein.ActiveResidues>
 VAL166  LYS551  ARG553  GLY616  TRP617  ASP618  TYR619  PRO620  LYS621  CYS622 
 ASP623  PHE694  ASN695  SER759  ASP760  ASP761  ALA762  ILE779  LEU786  VAL792 
 PHE793  MET794  SER795  GLU796  ALA797  LYS798  CYS799  TRP800  GLU811  SER814 

> <Gold.Protein.RotatedAtoms>
  152.0537  134.9637  160.0574 H   0  0  0  0  0  0  0  0  0  0  0  0  # atno 6907 bound_to 6896
  152.1028  133.4254  159.4603 H   0  0  0  0  0  0  0  0  0  0  0  0  # atno 6908 bound_to 6896
  150.6840  134.2659  159.4611 H   0  0  0  0  0  0  0  0  0  0  0  0  # atno 6909 bound_to 6896
  145.0216  139.4126  143.5194 H   0  0  0  0  0  0  0  0  0  0  0  0  # atno 7974 bound_to 7965
  154.4215  140.1139  156.5569 H   0  0  0  0  0  0  0  0  0  0  0  0  # atno 8008 bound_to 7997
  155.6352  140.3496  155.4677 H   0  0  0  0  0  0  0  0  0  0  0  0  # atno 8009 bound_to 7997
  155.9916  140.1180  157.0623 H   0  0  0  0  0  0  0  0  0  0  0  0  # atno 8010 bound_to 7997
  139.8242  143.7533  152.2666 H   0  0  0  0  0  0  0  0  0  0  0  0  # atno 10167 bound_to 10162
  157.1942  130.6860  149.6162 H   0  0  0  0  0  0  0  0  0  0  0  0  # atno 10718 bound_to 10713
  152.9820  135.6029  154.3490 H   0  0  0  0  0  0  0  0  0  0  0  0  # atno 10763 bound_to 10752
  154.3181  135.2770  155.2535 H   0  0  0  0  0  0  0  0  0  0  0  0  # atno 10764 bound_to 10752
  154.4714  135.5941  153.6380 H   0  0  0  0  0  0  0  0  0  0  0  0  # atno 10765 bound_to 10752
  140.4152  134.1577  155.7669 H   0  0  0  0  0  0  0  0  0  0  0  0  # atno 11005 bound_to 11000
  146.3486  139.9717  142.8705 LP  0  0  0  0  0  0  0  0  0  0  0  0  # atno 17320 bound_to 7965
  145.1888  140.9802  143.4223 LP  0  0  0  0  0  0  0  0  0  0  0  0  # atno 17321 bound_to 7965
  139.7720  144.7473  151.0210 LP  0  0  0  0  0  0  0  0  0  0  0  0  # atno 17342 bound_to 10162
  140.7811  143.4634  151.0246 LP  0  0  0  0  0  0  0  0  0  0  0  0  # atno 17343 bound_to 10162
  155.9708  130.4604  150.6072 LP  0  0  0  0  0  0  0  0  0  0  0  0  # atno 17370 bound_to 10713
  157.3830  131.0784  151.1460 LP  0  0  0  0  0  0  0  0  0  0  0  0  # atno 17371 bound_to 10713
  141.1806  133.8422  157.1272 LP  0  0  0  0  0  0  0  0  0  0  0  0  # atno 17394 bound_to 11000
  140.0239  134.9933  157.0647 LP  0  0  0  0  0  0  0  0  0  0  0  0  # atno 17395 bound_to 11000

$$$$
