#       Name:                AV-unprocessed.smi:3183
#       Creating user name   scv26
#       Creation time:       Fri Mar 27 17:59:36 2020


#       File generated by GOLD software.
#

@<TRIPOS>MOLECULE
AV-unprocessed.smi:3183
    44    45     1
SMALL
NO_CHARGES


@<TRIPOS>ATOM
      1 ****        -4.7129   0.3158   0.2499 C.3            1 S1                 0.0000
      2 ****        -3.4374   1.1759   0.2024 C.3            1 S1                 0.0000
      3 ****        -2.5895   0.9209   1.4649 C.3            1 S1                 0.0000
      4 ****        -1.3065   1.7662   1.4824 C.3            1 S1                 0.0000
      5 ****        -0.4568   1.5505   0.2193 C.3            1 S1                 0.0000
      6 ****         0.1551   0.2022   0.2168 N.4            1 S1                 1.0000
      7 ****         1.6313   0.1873   0.2088 C.3            1 S1                 0.0000
      8 ****         2.1676  -1.2518   0.2075 C.3            1 S1                 0.0000
      9 ****         3.6632  -1.3521   0.2031 C.2            1 S1                 0.0000
     10 ****         4.6258  -0.3792   0.2013 C.2            1 S1                 0.0000
     11 ****         5.8516  -1.0992   0.1980 C.2            1 S1                 0.0000
     12 ****         5.6695  -2.4074   0.1974 N.2            1 S1                 0.0000
     13 ****         4.3296  -2.5667   0.2006 N.pl3          1 S1                 0.0000
     14 ****         3.7966  -3.9160   0.2013 C.3            1 S1                 0.0000
     15 ****        -1.2975   1.7754  -1.0506 C.3            1 S1                 0.0000
     16 ****        -2.5967   0.9392  -1.0805 C.3            1 S1                 0.0000
     17 ****        -3.3791   1.2423  -2.3711 C.3            1 S1                 0.0000
     18 ****        -4.4796  -0.7459   0.1628 H              1 S1                 0.0000
     19 ****        -5.4065   0.5744  -0.5497 H              1 S1                 0.0000
     20 ****        -5.2481   0.4605   1.1888 H              1 S1                 0.0000
     21 ****        -3.7470   2.2221   0.2177 H              1 S1                 0.0000
     22 ****        -3.1765   1.1453   2.3564 H              1 S1                 0.0000
     23 ****        -2.3335  -0.1376   1.5299 H              1 S1                 0.0000
     24 ****        -1.5790   2.8200   1.5546 H              1 S1                 0.0000
     25 ****        -0.7217   1.5435   2.3759 H              1 S1                 0.0000
     26 ****         0.3419   2.2941   0.2259 H              1 S1                 0.0000
     27 ****        -0.1646  -0.2909   1.0383 H              1 S1                 0.0000
     28 ****         1.9880   0.7208  -0.6734 H              1 S1                 0.0000
     29 ****         1.9972   0.7224   1.0864 H              1 S1                 0.0000
     30 ****         1.7801  -1.7772   1.0814 H              1 S1                 0.0000
     31 ****         1.7749  -1.7770  -0.6643 H              1 S1                 0.0000
     32 ****         4.4813   0.6910   0.2025 H              1 S1                 0.0000
     33 ****         6.8604  -0.7134   0.1961 H              1 S1                 0.0000
     34 ****         2.7073  -3.9058   0.2006 H              1 S1                 0.0000
     35 ****         4.1413  -4.4462   1.0896 H              1 S1                 0.0000
     36 ****         4.1424  -4.4477  -0.6857 H              1 S1                 0.0000
     37 ****        -1.5560   2.8335  -1.1161 H              1 S1                 0.0000
     38 ****        -0.6925   1.5610  -1.9329 H              1 S1                 0.0000
     39 ****        -2.3165  -0.1148  -1.1118 H              1 S1                 0.0000
     40 ****        -3.7647   2.2624  -2.3717 H              1 S1                 0.0000
     41 ****        -4.2226   0.5649  -2.5025 H              1 S1                 0.0000
     42 ****        -2.7444   1.1289  -3.2502 H              1 S1                 0.0000
     43 ****        -0.1742  -0.2924  -0.5999 H              1 S1                 0.0000
     44 ****         6.3695  -3.1215   0.1951 LP             1 S1                 0.0000
@<TRIPOS>BOND
    1    1    2 1     
    2    1   18 1     
    3    1   19 1     
    4    1   20 1     
    5    2   16 1     
    6    2    3 1     
    7    2   21 1     
    8    3    4 1     
    9    3   22 1     
   10    3   23 1     
   11    4    5 1     
   12    4   24 1     
   13    4   25 1     
   14    5    6 1     
   15    5   15 1     
   16    5   26 1     
   17    6    7 1     
   18    6   27 1     
   19    6   43 1     
   20    7    8 1     
   21    7   28 1     
   22    7   29 1     
   23    8    9 1     
   24    8   30 1     
   25    8   31 1     
   26    9   13 1     
   27    9   10 2     
   28   10   11 1     
   29   10   32 1     
   30   11   12 2     
   31   11   33 1     
   32   12   13 1     
   33   13   14 1     
   34   14   34 1     
   35   14   35 1     
   36   14   36 1     
   37   15   16 1     
   38   15   37 1     
   39   15   38 1     
   40   16   17 1     
   41   16   39 1     
   42   17   40 1     
   43   17   41 1     
   44   17   42 1     
   45   12   44 1     
@<TRIPOS>SUBSTRUCTURE
      1 S1             1
@<TRIPOS>SET
LONE_PAIRS      STATIC     ATOMS    <user>   **** ""
1 44
DONOR_HYDROGENS      STATIC     ATOMS    <user>   **** ""
2 27 43
ATOM$BLUE        STATIC     ATOMS    COLORGROUP SYSTEM
1 44
ATOM$RED        STATIC     ATOMS    COLORGROUP SYSTEM
2 27 43
