AV-unprocessed.smi:639|AV-procd|sdf|3147|dock2
  -GOLD-   22720 0 73D 1   1.00000     0.00000
 Structure written by MMmdl.
 23 24  0  0  0  0  0  0  0  0  2 V2000
  152.5779  143.7052  160.7841 C   0  0  0  0  0  0  0  0  0  0  0  0
  151.9846  143.1056  159.6084 N   0  0  0  0  0  0  0  0  0  0  0  0
  151.8815  141.7715  159.2813 C   0  0  0  0  0  0  0  0  0  0  0  0
  151.2400  141.6853  158.0756 C   0  0  0  0  0  0  0  0  0  0  0  0
  150.8807  140.4426  157.2821 C   0  0  2  0  0  0  0  0  0  0  0  0
  149.8719  139.5512  158.0318 C   0  0  0  0  0  0  0  0  0  0  0  0
  152.0468  139.6696  156.9064 N   0  0  0  0  0  0  0  0  0  0  0  0
  152.2008  139.6321  155.5837 C   0  0  0  0  0  0  0  0  0  0  0  0
  153.1379  139.0344  155.0595 O   0  0  0  0  0  0  0  0  0  0  0  0
  151.2106  140.3185  154.9806 N   0  5  0  0  0  0  0  0  0  0  0  0
  150.3612  140.8375  155.8942 C   0  0  0  0  0  0  0  0  0  0  0  0
  149.3384  141.5040  155.7368 O   0  0  0  0  0  0  0  0  0  0  0  0
  150.9907  143.0515  157.7484 C   0  0  0  0  0  0  0  0  0  0  0  0
  151.4388  143.8961  158.6631 N   0  0  0  0  0  0  0  0  0  0  0  0
  152.9686  142.9293  161.4431 H   0  0  0  0  0  0  0  0  0  0  0  0
  151.8257  144.2821  161.3230 H   0  0  0  0  0  0  0  0  0  0  0  0
  153.3941  144.3654  160.4897 H   0  0  0  0  0  0  0  0  0  0  0  0
  152.2651  140.9961  159.9280 H   0  0  0  0  0  0  0  0  0  0  0  0
  148.9524  140.0917  158.2594 H   0  0  0  0  0  0  0  0  0  0  0  0
  150.2881  139.1976  158.9756 H   0  0  0  0  0  0  0  0  0  0  0  0
  149.5979  138.6736  157.4447 H   0  0  0  0  0  0  0  0  0  0  0  0
  152.6647  139.2308  157.5729 H   0  0  0  0  0  0  0  0  0  0  0  0
  150.4993  143.4532  156.8745 H   0  0  0  0  0  0  0  0  0  0  0  0
  1  2  1  0  0  0  0
  1 15  1  0  0  0  0
  1 16  1  0  0  0  0
  1 17  1  0  0  0  0
  2 14  1  0  0  0  0
  2  3  1  0  0  0  0
  3  4  2  0  0  0  0
  3 18  1  0  0  0  0
  4  5  1  0  0  0  0
  4 13  1  0  0  0  0
  5 11  1  0  0  0  0
  5  6  1  0  0  0  0
  5  7  1  0  0  0  0
  6 19  1  0  0  0  0
  6 20  1  0  0  0  0
  6 21  1  0  0  0  0
  7  8  1  0  0  0  0
  7 22  1  0  0  0  0
  8  9  2  0  0  0  0
  8 10  1  0  0  0  0
 10 11  1  0  0  0  0
 11 12  2  0  0  0  0
 13 14  2  0  0  0  0
 13 23  1  0  0  0  0
M  CHG  1  10  -1
M  END
> <s_m_source_file>
AV-unprocessed.smi

> <i_m_source_file_index>
639

> <i_lp_mmshare_version>
43012

> <i_f3d_flags>
0

> <s_epik_input>
W0NIM11uMVtjSF1jKFtjSF1uMSlbQ0BAXTIoW0NIM10pW05IXUMoPU8pW05IXUMyPU8=

> <s_epik_cmdline>
J2VwaWtfcHl0aG9uJywgJy1waCcsICc3LjAnLCAnLXRuJywgJzgnLCAnLW1hJywgJzIwMCcsICctbWV0YWxfYmluZGluZycsICctaW1hZScsICc8aW5maWxlLm1hZT4nLCAnLW9tYWUnLCAnPG91dGZpbGUubWFlPic=

> <r_lp_tautomer_probability>
1

> <r_epik_Ionization_Penalty>
1.82128

> <r_epik_Ionization_Penalty_Charging>
1.82122

> <r_epik_Ionization_Penalty_Neutral>
5.526e-05

> <r_epik_State_Penalty>
1.93645

> <r_epik_Charging_Adjusted_Penalty>
3.75767

> <i_epik_Tot_Q>
-1

> <i_epik_Tot_abs_Q>
1

> <r_epik_Metal_State_Penalty>
0.532903

> <b_epik_Metal_Only>
0

> <s_lp_Force_Field>
OPLS_2005

> <r_lp_Energy>
3.65424

> <b_lp_Chiralities_Consistent>
1

> <s_lp_Variant>
AV-unprocessed.smi:639-4

> <Gold.Version>
5.8.1

> <Gold.Id.Protein>
6NUR|6NUR_protein|mol2

> <Gold.PLP.Fitness>
32.9032

> <Gold.PLP.PLP>
-25.4921

> <Gold.PLP.part.hbond>
-2.0000

> <Gold.PLP.part.metal>
0.0000

> <Gold.PLP.part.buried>
-4.7570

> <Gold.PLP.part.nonpolar>
-19.2930

> <Gold.PLP.part.repulsive>
0.3652

> <Gold.PLP.ligand.clash>
0.0000

> <Gold.PLP.ligand.torsion>
0.0886

> <Gold.PLP.Chemscore.Hbond>
1.5000

> <Gold.PLP.Chemscore.CHOScore>
1.0000

> <Gold.PLP.Chemscore.Metal>
0.0000

> <Gold.Chemscore.Hbonds>
donor molecule, donor type, donor heavy atom, donor atom, acceptor molecule, acceptor atom, score
      P1  H  7989  7998       L1    10  1.00
      P1  H  7997  8008       L1     9  0.45
      L1  C    13    23       P1  8028  1.00

> <Gold.PLP.Chemscore.Internal.Correction>
0.0883

> <Gold.Rescore>
     Score         DG    S(hbond)    S(metal)    S(lipo)     H(rot)  DE(clash)    DE(int)     intcor
     11.23     -11.54       0.96        0.00      46.25       1.00       0.03       0.28       ----

> <Gold.Chemscore.Fitness>
11.2286

> <Gold.Chemscore.DG>
-11.5357

> <Gold.Chemscore.ZeroCoef>
-5.4800

> <Gold.Chemscore.Hbond>
0.9593

> <Gold.Chemscore.Metal>
0.0000

> <Gold.Chemscore.Lipo>
46.2543

> <Gold.Chemscore.Internal_Hbond>
0.0000

> <Gold.Chemscore.DEClash>
0.0310

> <Gold.Chemscore.DEInternal>
0.2761

> <Gold.Chemscore.Rot>
1.0000

> <Gold.Chemscore.Internal.Correction>
   9.000000E+99

> <Gold.Chemscore.Hbonds>
donor molecule, donor type, donor heavy atom, donor atom, acceptor molecule, acceptor atom, score
      P1  H  7989  7998       L1    10  0.80
      P1  H  7997  8008       L1     9  0.02

> <Gold.Chemscore.Hbond.Weighted>
-3.2039

> <Gold.Chemscore.Metal.Weighted>
-0.0000

> <Gold.Chemscore.Lipo.Weighted>
-5.4118

> <Gold.Chemscore.Internal_Hbond.Weighted>
0.0000

> <Gold.Chemscore.DEClash.Weighted>
0.0310

> <Gold.Chemscore.DEInternal.Weighted>
0.2761

> <Gold.Chemscore.Rot.Weighted>
2.5600

> <Gold.Chemscore.Internal.Correction.Weighted>
   9.000000E+99

> <Gold.Protein.RotatedTorsions>
[ 6907 6896 6895 6894 ] final -164.56 input  -60.11 | X-H torsion
[ 7974 7965 7964 7962 ] final  -69.29 input  175.53 | X-H torsion
[ 8008 7997 7996 7995 ] final  -28.72 input   59.86 | X-H torsion
[ 10167 10162 10161 10158 ] final   77.28 input  -65.29 | X-H torsion
[ 10718 10713 10712 10709 ] final   75.77 input   66.30 | X-H torsion
[ 10763 10752 10751 10750 ] final  -37.88 input  -60.55 | X-H torsion
[ 11005 11000 10999 10996 ] final -135.43 input  -57.11 | X-H torsion

> <Gold.Protein.ActiveResidues>
 VAL166  LYS551  ARG553  GLY616  TRP617  ASP618  TYR619  PRO620  LYS621  CYS622 
 ASP623  PHE694  ASN695  SER759  ASP760  ASP761  ALA762  ILE779  LEU786  VAL792 
 PHE793  MET794  SER795  GLU796  ALA797  LYS798  CYS799  TRP800  GLU811  SER814 

> <Gold.Protein.RotatedAtoms>
  151.4138  133.3719  159.2747 H   0  0  0  0  0  0  0  0  0  0  0  0  # atno 6907 bound_to 6896
  150.9344  134.8758  159.7582 H   0  0  0  0  0  0  0  0  0  0  0  0  # atno 6908 bound_to 6896
  152.5043  134.4084  159.9492 H   0  0  0  0  0  0  0  0  0  0  0  0  # atno 6909 bound_to 6896
  145.7057  140.9099  143.0707 H   0  0  0  0  0  0  0  0  0  0  0  0  # atno 7974 bound_to 7965
  154.4320  140.1838  156.1133 H   0  0  0  0  0  0  0  0  0  0  0  0  # atno 8008 bound_to 7997
  156.0200  140.3342  155.7003 H   0  0  0  0  0  0  0  0  0  0  0  0  # atno 8009 bound_to 7997
  155.5989  140.0638  157.2729 H   0  0  0  0  0  0  0  0  0  0  0  0  # atno 8010 bound_to 7997
  139.9833  144.5810  150.7881 H   0  0  0  0  0  0  0  0  0  0  0  0  # atno 10167 bound_to 10162
  157.6647  130.9742  150.1401 H   0  0  0  0  0  0  0  0  0  0  0  0  # atno 10718 bound_to 10713
  153.9036  135.6800  153.4754 H   0  0  0  0  0  0  0  0  0  0  0  0  # atno 10763 bound_to 10752
  153.1116  135.4780  154.9042 H   0  0  0  0  0  0  0  0  0  0  0  0  # atno 10764 bound_to 10752
  154.7563  135.3198  154.8418 H   0  0  0  0  0  0  0  0  0  0  0  0  # atno 10765 bound_to 10752
  140.8899  134.1825  157.4535 H   0  0  0  0  0  0  0  0  0  0  0  0  # atno 11005 bound_to 11000
  144.6956  139.9006  143.7458 LP  0  0  0  0  0  0  0  0  0  0  0  0  # atno 17320 bound_to 7965
  146.0758  139.3746  143.0495 LP  0  0  0  0  0  0  0  0  0  0  0  0  # atno 17321 bound_to 7965
  140.7481  143.2917  151.3312 LP  0  0  0  0  0  0  0  0  0  0  0  0  # atno 17342 bound_to 10162
  139.6394  144.0569  152.2542 LP  0  0  0  0  0  0  0  0  0  0  0  0  # atno 17343 bound_to 10162
  156.2226  130.3675  149.8538 LP  0  0  0  0  0  0  0  0  0  0  0  0  # atno 17370 bound_to 10713
  156.6387  130.8696  151.3510 LP  0  0  0  0  0  0  0  0  0  0  0  0  # atno 17371 bound_to 10713
  139.8728  134.9854  156.5280 LP  0  0  0  0  0  0  0  0  0  0  0  0  # atno 17394 bound_to 11000
  140.8359  133.8242  155.9029 LP  0  0  0  0  0  0  0  0  0  0  0  0  # atno 17395 bound_to 11000

$$$$
