#       Name:                AV-unprocessed.smi:3117
#       Creating user name   scv26
#       Creation time:       Fri Mar 27 17:27:04 2020


#       File generated by GOLD software.
#

@<TRIPOS>MOLECULE
AV-unprocessed.smi:3117
    40    40     1
SMALL
NO_CHARGES


@<TRIPOS>ATOM
      1 ****        -1.8645  -1.3929  -2.2198 C.3            1 S1                 0.0000
      2 ****        -1.3403  -0.5503  -1.0436 C.3            1 S1                 0.0000
      3 ****         0.1149  -0.4297  -1.1989 N.3            1 S1                 0.0000
      4 ****         0.6973   0.8463  -0.7726 C.3            1 S1                 0.0000
      5 ****         2.2355   0.8606  -0.8983 C.3            1 S1                 0.0000
      6 ****         2.7867   2.2001  -0.3823 C.3            1 S1                 0.0000
      7 ****         2.9040  -0.3095  -0.1514 C.3            1 S1                 0.0000
      8 ****         2.5754   0.7881  -2.2696 O.3            1 S1                 0.0000
      9 ****        -1.7284  -1.1660   0.3362 C.3            1 S1                 0.0000
     10 ****        -3.2336  -1.4742   0.4698 C.3            1 S1                 0.0000
     11 ****        -1.3015  -0.3417   1.4601 N.pl3          1 S1                 0.0000
     12 ****        -0.3139  -0.6111   2.3858 C.2            1 S1                 0.0000
     13 ****        -0.2562   0.4498   3.2435 C.2            1 S1                 0.0000
     14 ****        -1.2604   1.3323   2.7570 C.2            1 S1                 0.0000
     15 ****        -1.8829   0.8584   1.6901 N.2            1 S1                 0.0000
     16 ****        -2.9535  -1.3990  -2.2596 H              1 S1                 0.0000
     17 ****        -1.5228  -2.4265  -2.1548 H              1 S1                 0.0000
     18 ****        -1.5206  -0.9896  -3.1729 H              1 S1                 0.0000
     19 ****        -1.7964   0.4366  -1.1352 H              1 S1                 0.0000
     20 ****         0.3653  -0.5907  -2.1697 H              1 S1                 0.0000
     21 ****         0.2732   1.6592  -1.3636 H              1 S1                 0.0000
     22 ****         0.4385   1.0612   0.2608 H              1 S1                 0.0000
     23 ****         2.5632   2.3348   0.6767 H              1 S1                 0.0000
     24 ****         2.3513   3.0440  -0.9195 H              1 S1                 0.0000
     25 ****         3.8696   2.2591  -0.4990 H              1 S1                 0.0000
     26 ****         2.6414  -0.2985   0.9071 H              1 S1                 0.0000
     27 ****         3.9909  -0.2553  -0.2217 H              1 S1                 0.0000
     28 ****         2.6027  -1.2765  -0.5553 H              1 S1                 0.0000
     29 ****         3.5165   0.8226  -2.3477 H              1 S1                 0.0000
     30 ****        -1.2043  -2.1184   0.4322 H              1 S1                 0.0000
     31 ****        -3.5464  -2.2645  -0.2122 H              1 S1                 0.0000
     32 ****        -3.8428  -0.5934   0.2643 H              1 S1                 0.0000
     33 ****        -3.4737  -1.8164   1.4771 H              1 S1                 0.0000
     34 ****         0.2629  -1.5237   2.3540 H              1 S1                 0.0000
     35 ****         0.4040   0.5764   4.0884 H              1 S1                 0.0000
     36 ****        -1.5520   2.2976   3.1436 H              1 S1                 0.0000
     37 ****         0.4959  -1.1209  -0.5848 LP             1 S1                 0.0000
     38 ****         2.1679   1.5589  -2.7593 LP             1 S1                 0.0000
     39 ****         2.2361  -0.0694  -2.6563 LP             1 S1                 0.0000
     40 ****        -2.6191   1.2908   1.1696 LP             1 S1                 0.0000
@<TRIPOS>BOND
    1    1    2 1     
    2    1   16 1     
    3    1   17 1     
    4    1   18 1     
    5    2    3 1     
    6    2    9 1     
    7    2   19 1     
    8    3    4 1     
    9    3   20 1     
   10    4    5 1     
   11    4   21 1     
   12    4   22 1     
   13    5    6 1     
   14    5    7 1     
   15    5    8 1     
   16    6   23 1     
   17    6   24 1     
   18    6   25 1     
   19    7   26 1     
   20    7   27 1     
   21    7   28 1     
   22    8   29 1     
   23    9   10 1     
   24    9   11 1     
   25    9   30 1     
   26   10   31 1     
   27   10   32 1     
   28   10   33 1     
   29   11   15 1     
   30   11   12 1     
   31   12   13 2     
   32   12   34 1     
   33   13   14 1     
   34   13   35 1     
   35   14   15 2     
   36   14   36 1     
   37    3   37 1     
   38    8   38 1     
   39    8   39 1     
   40   15   40 1     
@<TRIPOS>SUBSTRUCTURE
      1 S1             1
@<TRIPOS>SET
LONE_PAIRS      STATIC     ATOMS    <user>   **** ""
4 37 38 39 40
DONOR_HYDROGENS      STATIC     ATOMS    <user>   **** ""
2 20 29
ATOM$BLUE        STATIC     ATOMS    COLORGROUP SYSTEM
4 37 38 39 40
ATOM$RED        STATIC     ATOMS    COLORGROUP SYSTEM
2 20 29
