AV-unprocessed.smi:867|AV-procd|sdf|4000|dock8
  -GOLD-   22720 1483D 1   1.00000     0.00000
 Structure written by MMmdl.
 54 57  0  0  0  0  0  0  0  0  3 V2000
  152.8754  139.5803  155.6786 O   0  0  0  0  0  0  0  0  0  0  0  0
  151.6529  139.4420  155.6266 C   0  0  0  0  0  0  0  0  0  0  0  0
  150.8304  140.0114  156.5242 N   0  0  0  0  0  0  0  0  0  0  0  0
  151.2562  140.8541  157.6355 C   0  0  0  0  0  0  0  0  0  0  0  0
  150.1770  141.8823  158.0112 C   0  0  0  0  0  0  0  0  0  0  0  0
  150.7764  143.1719  158.5366 C   0  0  0  0  0  0  0  0  0  0  0  0
  149.9600  144.1360  159.1687 C   0  0  0  0  0  0  0  0  0  0  0  0
  150.5417  145.3296  159.6446 C   0  0  0  0  0  0  0  0  0  0  0  0
  151.9269  145.5325  159.4770 C   0  0  0  0  0  0  0  0  0  0  0  0
  152.6758  144.5879  158.8663 N   0  3  0  0  0  0  0  0  0  0  0  0
  152.1571  143.4318  158.3970 C   0  0  0  0  0  0  0  0  0  0  0  0
  151.0338  138.6569  154.7102 N   0  0  0  0  0  0  0  0  0  0  0  0
  151.5841  137.4415  154.0994 C   0  0  0  0  0  0  0  0  0  0  0  0
  150.9024  136.2168  154.7350 C   0  0  0  0  0  0  0  0  0  0  0  0
  149.4154  136.2651  154.5968 N   0  3  0  0  0  0  0  0  0  0  0  0
  148.7589  135.0700  155.2124 C   0  0  2  0  0  0  0  0  0  0  0  0
  149.6393  133.7956  155.1041 C   0  0  0  0  0  0  0  0  0  0  0  0
  148.7068  132.7614  154.4532 C   0  0  1  0  0  0  0  0  0  0  0  0
  147.6001  132.3663  155.4448 C   0  0  0  0  0  0  0  0  0  0  0  0
  146.7139  133.6236  155.4715 C   0  0  0  0  0  0  0  0  0  0  0  0
  147.4509  134.5882  154.5207 C   0  0  2  0  0  0  0  0  0  0  0  0
  147.9544  133.6260  153.4507 C   0  0  0  0  0  0  0  0  0  0  0  0
  148.8599  137.5724  155.0570 C   0  0  0  0  0  0  0  0  0  0  0  0
  149.6018  138.7680  154.4313 C   0  0  0  0  0  0  0  0  0  0  0  0
  149.8401  139.8326  156.4403 H   0  0  0  0  0  0  0  0  0  0  0  0
  151.4686  140.2084  158.4881 H   0  0  0  0  0  0  0  0  0  0  0  0
  152.1934  141.3544  157.3851 H   0  0  0  0  0  0  0  0  0  0  0  0
  149.5544  142.1130  157.1456 H   0  0  0  0  0  0  0  0  0  0  0  0
  149.5097  141.4653  158.7665 H   0  0  0  0  0  0  0  0  0  0  0  0
  148.8995  143.9651  159.2866 H   0  0  0  0  0  0  0  0  0  0  0  0
  149.9335  146.0788  160.1302 H   0  0  0  0  0  0  0  0  0  0  0  0
  152.4538  146.4151  159.8090 H   0  0  0  0  0  0  0  0  0  0  0  0
  152.8573  142.7570  157.9260 H   0  0  0  0  0  0  0  0  0  0  0  0
  151.3920  137.4609  153.0255 H   0  0  0  0  0  0  0  0  0  0  0  0
  152.6655  137.3488  154.1994 H   0  0  0  0  0  0  0  0  0  0  0  0
  151.3080  135.3176  154.2736 H   0  0  0  0  0  0  0  0  0  0  0  0
  151.1622  136.1655  155.7938 H   0  0  0  0  0  0  0  0  0  0  0  0
  148.5526  135.3050  156.2581 H   0  0  0  0  0  0  0  0  0  0  0  0
  150.4995  133.9455  154.4508 H   0  0  0  0  0  0  0  0  0  0  0  0
  150.0138  133.4666  156.0742 H   0  0  0  0  0  0  0  0  0  0  0  0
  149.2328  131.9088  154.0226 H   0  0  0  0  0  0  0  0  0  0  0  0
  147.0362  131.5071  155.0794 H   0  0  0  0  0  0  0  0  0  0  0  0
  147.9974  132.1137  156.4288 H   0  0  0  0  0  0  0  0  0  0  0  0
  145.7178  133.3939  155.0906 H   0  0  0  0  0  0  0  0  0  0  0  0
  146.5975  134.0319  156.4760 H   0  0  0  0  0  0  0  0  0  0  0  0
  146.7800  135.3630  154.1573 H   0  0  0  0  0  0  0  0  0  0  0  0
  148.6019  134.0995  152.7109 H   0  0  0  0  0  0  0  0  0  0  0  0
  147.1536  133.0916  152.9361 H   0  0  0  0  0  0  0  0  0  0  0  0
  147.8120  137.6686  154.7821 H   0  0  0  0  0  0  0  0  0  0  0  0
  148.9158  137.6274  156.1453 H   0  0  0  0  0  0  0  0  0  0  0  0
  149.1750  139.7043  154.7948 H   0  0  0  0  0  0  0  0  0  0  0  0
  149.4482  138.7781  153.3511 H   0  0  0  0  0  0  0  0  0  0  0  0
  149.2220  136.2180  153.6066 H   0  0  0  0  0  0  0  0  0  0  0  0
  153.6762  144.7555  158.7542 H   0  0  0  0  0  0  0  0  0  0  0  0
  1  2  2  0  0  0  0
  2  3  1  0  0  0  0
  2 12  1  0  0  0  0
  3  4  1  0  0  0  0
  3 25  1  0  0  0  0
  4  5  1  0  0  0  0
  4 26  1  0  0  0  0
  4 27  1  0  0  0  0
  5  6  1  0  0  0  0
  5 28  1  0  0  0  0
  5 29  1  0  0  0  0
  6 11  1  0  0  0  0
  6  7  2  0  0  0  0
  7  8  1  0  0  0  0
  7 30  1  0  0  0  0
  8  9  2  0  0  0  0
  8 31  1  0  0  0  0
  9 10  1  0  0  0  0
  9 32  1  0  0  0  0
 10 11  2  0  0  0  0
 10 54  1  0  0  0  0
 11 33  1  0  0  0  0
 12 24  1  0  0  0  0
 12 13  1  0  0  0  0
 13 14  1  0  0  0  0
 13 34  1  0  0  0  0
 13 35  1  0  0  0  0
 14 15  1  0  0  0  0
 14 36  1  0  0  0  0
 14 37  1  0  0  0  0
 15 16  1  0  0  0  0
 15 23  1  0  0  0  0
 15 53  1  0  0  0  0
 16 21  1  0  0  0  0
 16 17  1  0  0  0  0
 16 38  1  0  0  0  0
 17 18  1  0  0  0  0
 17 39  1  0  0  0  0
 17 40  1  0  0  0  0
 18 22  1  0  0  0  0
 18 19  1  0  0  0  0
 18 41  1  0  0  0  0
 19 20  1  0  0  0  0
 19 42  1  0  0  0  0
 19 43  1  0  0  0  0
 20 21  1  0  0  0  0
 20 44  1  0  0  0  0
 20 45  1  0  0  0  0
 21 22  1  0  0  0  0
 21 46  1  0  0  0  0
 22 47  1  0  0  0  0
 22 48  1  0  0  0  0
 23 24  1  0  0  0  0
 23 49  1  0  0  0  0
 23 50  1  0  0  0  0
 24 51  1  0  0  0  0
 24 52  1  0  0  0  0
M  CHG  1  10   1
M  CHG  1  15   1
M  END
> <s_m_source_file>
AV-unprocessed.smi

> <i_m_source_file_index>
867

> <i_lp_mmshare_version>
43012

> <i_f3d_flags>
0

> <s_epik_input>
W0NIMl0xW0NIMl1bQ0BASF0oW0NIMl0yKVtDQEBIXShbQ0gyXVtDQEhdMTIpTihbQ0gyXVtDSDJdMylbQ0gyXVtDSDJdTjNDKD1PKVtOSF1bQ0gyXVtDSDJdYzRbY0hdW2NIXVtjSF1uW2NIXTQ=

> <s_epik_cmdline>
J2VwaWtfcHl0aG9uJywgJy1waCcsICc3LjAnLCAnLXRuJywgJzgnLCAnLW1hJywgJzIwMCcsICctbWV0YWxfYmluZGluZycsICctaW1hZScsICc8aW5maWxlLm1hZT4nLCAnLW9tYWUnLCAnPG91dGZpbGUubWFlPic=

> <r_epik_Ionization_Penalty>
2.25108

> <r_epik_Ionization_Penalty_Charging>
2.25105

> <r_epik_Ionization_Penalty_Neutral>
2.64641e-05

> <r_epik_State_Penalty>
2.39519

> <r_epik_Charging_Adjusted_Penalty>
4.64625

> <i_epik_Tot_Q>
2

> <i_epik_Tot_abs_Q>
2

> <r_epik_Metal_State_Penalty>
2.40865

> <b_epik_Metal_Only>
0

> <s_lp_Force_Field>
OPLS_2005

> <r_lp_Energy>
104.696

> <b_lp_Chiralities_Consistent>
1

> <s_lp_Variant>
AV-unprocessed.smi:867-7

> <Gold.Version>
5.8.1

> <Gold.Id.Protein>
6NUR|6NUR_protein|mol2

> <Gold.PLP.Fitness>
46.7993

> <Gold.PLP.PLP>
-41.3303

> <Gold.PLP.part.hbond>
-2.0000

> <Gold.PLP.part.metal>
0.0000

> <Gold.PLP.part.buried>
-0.8799

> <Gold.PLP.part.nonpolar>
-37.9272

> <Gold.PLP.part.repulsive>
0.1351

> <Gold.PLP.ligand.clash>
0.8377

> <Gold.PLP.ligand.torsion>
1.4023

> <Gold.PLP.Chemscore.Hbond>
3.0000

> <Gold.PLP.Chemscore.CHOScore>
0.0000

> <Gold.PLP.Chemscore.Metal>
0.0000

> <Gold.Chemscore.Hbonds>
donor molecule, donor type, donor heavy atom, donor atom, acceptor molecule, acceptor atom, score
      L1  H    15    53       P1  7948  2.00
      P1  H  7997  8008       L1     1  1.00

> <Gold.PLP.Chemscore.Internal.Correction>
0.1112

> <Gold.Rescore>
     Score         DG    S(hbond)    S(metal)    S(lipo)     H(rot)  DE(clash)    DE(int)     intcor
     19.34     -21.07       1.94        0.00     109.73       1.46       0.29       1.45       ----

> <Gold.Chemscore.Fitness>
19.3373

> <Gold.Chemscore.DG>
-21.0742

> <Gold.Chemscore.ZeroCoef>
-5.4800

> <Gold.Chemscore.Hbond>
1.9419

> <Gold.Chemscore.Metal>
0.0000

> <Gold.Chemscore.Lipo>
109.7322

> <Gold.Chemscore.Internal_Hbond>
0.0000

> <Gold.Chemscore.DEClash>
0.2902

> <Gold.Chemscore.DEInternal>
1.4467

> <Gold.Chemscore.Rot>
1.4572

> <Gold.Chemscore.Internal.Correction>
   9.000000E+99

> <Gold.Chemscore.Hbonds>
donor molecule, donor type, donor heavy atom, donor atom, acceptor molecule, acceptor atom, score
      L1  H    15    53       P1  7948  0.91
      P1  H  7997  8008       L1     1  1.00

> <Gold.Chemscore.Hbond.Weighted>
-6.4861

> <Gold.Chemscore.Metal.Weighted>
-0.0000

> <Gold.Chemscore.Lipo.Weighted>
-12.8387

> <Gold.Chemscore.Internal_Hbond.Weighted>
0.0000

> <Gold.Chemscore.DEClash.Weighted>
0.2902

> <Gold.Chemscore.DEInternal.Weighted>
1.4467

> <Gold.Chemscore.Rot.Weighted>
3.7305

> <Gold.Chemscore.Internal.Correction.Weighted>
   9.000000E+99

> <Gold.Protein.RotatedTorsions>
[ 6907 6896 6895 6894 ] final  154.39 input  -60.11 | X-H torsion
[ 7974 7965 7964 7962 ] final -161.62 input  175.53 | X-H torsion
[ 8008 7997 7996 7995 ] final  -40.12 input   59.86 | X-H torsion
[ 10167 10162 10161 10158 ] final    1.86 input  -65.29 | X-H torsion
[ 10718 10713 10712 10709 ] final   74.58 input   66.30 | X-H torsion
[ 10763 10752 10751 10750 ] final -156.50 input  -60.55 | X-H torsion
[ 11005 11000 10999 10996 ] final  -71.80 input  -57.11 | X-H torsion

> <Gold.Protein.ActiveResidues>
 VAL166  LYS551  ARG553  GLY616  TRP617  ASP618  TYR619  PRO620  LYS621  CYS622 
 ASP623  PHE694  ASN695  SER759  ASP760  ASP761  ALA762  ILE779  LEU786  VAL792 
 PHE793  MET794  SER795  GLU796  ALA797  LYS798  CYS799  TRP800  GLU811  SER814 

> <Gold.Protein.RotatedAtoms>
  152.0591  133.4054  159.4409 H   0  0  0  0  0  0  0  0  0  0  0  0  # atno 6907 bound_to 6896
  150.6867  134.3220  159.4800 H   0  0  0  0  0  0  0  0  0  0  0  0  # atno 6908 bound_to 6896
  152.1039  134.9321  160.0619 H   0  0  0  0  0  0  0  0  0  0  0  0  # atno 6909 bound_to 6896
  144.7385  140.3371  143.6142 H   0  0  0  0  0  0  0  0  0  0  0  0  # atno 7974 bound_to 7965
  154.4015  140.1533  156.2975 H   0  0  0  0  0  0  0  0  0  0  0  0  # atno 8008 bound_to 7997
  155.8730  140.3448  155.5812 H   0  0  0  0  0  0  0  0  0  0  0  0  # atno 8009 bound_to 7997
  155.7753  140.0836  157.2077 H   0  0  0  0  0  0  0  0  0  0  0  0  # atno 8010 bound_to 7997
  140.6663  143.7171  150.7833 H   0  0  0  0  0  0  0  0  0  0  0  0  # atno 10167 bound_to 10162
  157.6598  130.9684  150.1231 H   0  0  0  0  0  0  0  0  0  0  0  0  # atno 10718 bound_to 10713
  154.7708  135.3144  154.8194 H   0  0  0  0  0  0  0  0  0  0  0  0  # atno 10763 bound_to 10752
  153.8930  135.6823  153.4764 H   0  0  0  0  0  0  0  0  0  0  0  0  # atno 10764 bound_to 10752
  153.1321  135.4775  154.9300 H   0  0  0  0  0  0  0  0  0  0  0  0  # atno 10765 bound_to 10752
  141.1598  133.6828  156.6961 H   0  0  0  0  0  0  0  0  0  0  0  0  # atno 11005 bound_to 11000
  145.7412  139.1765  143.2375 LP  0  0  0  0  0  0  0  0  0  0  0  0  # atno 17320 bound_to 7965
  146.1133  140.7402  142.9493 LP  0  0  0  0  0  0  0  0  0  0  0  0  # atno 17321 bound_to 7965
  140.0849  143.4933  152.2510 LP  0  0  0  0  0  0  0  0  0  0  0  0  # atno 17342 bound_to 10162
  139.5913  144.7551  151.3394 LP  0  0  0  0  0  0  0  0  0  0  0  0  # atno 17343 bound_to 10162
  156.2097  130.3666  149.8685 LP  0  0  0  0  0  0  0  0  0  0  0  0  # atno 17370 bound_to 10713
  156.6567  130.8765  151.3540 LP  0  0  0  0  0  0  0  0  0  0  0  0  # atno 17371 bound_to 10713
  140.2994  134.8176  157.4085 LP  0  0  0  0  0  0  0  0  0  0  0  0  # atno 17394 bound_to 11000
  140.1275  134.5138  155.8132 LP  0  0  0  0  0  0  0  0  0  0  0  0  # atno 17395 bound_to 11000

$$$$
