#       Name:                AV-unprocessed.smi:1726
#       Creating user name   scv26
#       Creation time:       Fri Mar 27 08:17:17 2020


#       File generated by GOLD software.
#

@<TRIPOS>MOLECULE
AV-unprocessed.smi:1726
    47    48     1
SMALL
NO_CHARGES


@<TRIPOS>ATOM
      1 ****        -1.5026  -1.2932   3.2085 C.3            1 S1                 0.0000
      2 ****        -2.4022  -2.1735   2.3290 C.3            1 S1                 0.0000
      3 ****        -2.1072  -2.0155   0.8830 N.4            1 S1                 1.0000
      4 ****        -2.5597  -3.1824   0.0815 C.3            1 S1                 0.0000
      5 ****        -2.1069  -3.0614  -1.3843 C.3            1 S1                 0.0000
      6 ****        -2.5672  -1.7325  -2.0068 C.3            1 S1                 0.0000
      7 ****        -2.1335  -0.5383  -1.1380 C.3            1 S1                 0.0000
      8 ****        -0.6804  -0.3773  -1.2043 N.am           1 S1                 0.0000
      9 ****         0.0006   0.7106  -0.8166 C.2            1 S1                 0.0000
     10 ****        -0.5416   1.7052  -0.3372 O.2            1 S1                 0.0000
     11 ****         1.3206   0.5434  -1.0182 N.am           1 S1                 0.0000
     12 ****         2.3928   1.4164  -0.7614 C.2            1 S1                 0.0000
     13 ****         2.2800   2.6862  -0.2897 C.2            1 S1                 0.0000
     14 ****         3.4413   3.5278  -0.0527 C.2            1 S1                 0.0000
     15 ****         3.3007   4.9696   0.4107 C.3            1 S1                 0.0000
     16 ****         3.3305   5.0219   1.7415 F              1 S1                 0.0000
     17 ****         4.2940   5.7268  -0.0569 F              1 S1                 0.0000
     18 ****         2.1459   5.4947   0.0005 F              1 S1                 0.0000
     19 ****         4.6405   2.9926  -0.3452 C.2            1 S1                 0.0000
     20 ****         4.7668   1.6855  -0.8195 N.am           1 S1                 0.0000
     21 ****         3.7243   0.8566  -1.0492 C.2            1 S1                 0.0000
     22 ****         3.9186  -0.2835  -1.4700 O.2            1 S1                 0.0000
     23 ****        -2.6235  -0.7426   0.3129 C.3            1 S1                 0.0000
     24 ****         5.7024   1.3514  -1.0008 H              1 S1                 0.0000
     25 ****        -1.6809  -1.4990   4.2643 H              1 S1                 0.0000
     26 ****        -1.6864  -0.2307   3.0528 H              1 S1                 0.0000
     27 ****        -0.4480  -1.4851   3.0090 H              1 S1                 0.0000
     28 ****        -2.2332  -3.2115   2.6186 H              1 S1                 0.0000
     29 ****        -3.4556  -1.9667   2.5229 H              1 S1                 0.0000
     30 ****        -2.1537  -4.1023   0.5041 H              1 S1                 0.0000
     31 ****        -3.6468  -3.2620   0.1352 H              1 S1                 0.0000
     32 ****        -1.0201  -3.1374  -1.4369 H              1 S1                 0.0000
     33 ****        -2.4988  -3.8975  -1.9644 H              1 S1                 0.0000
     34 ****        -2.1766  -1.6324  -3.0202 H              1 S1                 0.0000
     35 ****        -3.6542  -1.7360  -2.0976 H              1 S1                 0.0000
     36 ****        -2.5923   0.3650  -1.5440 H              1 S1                 0.0000
     37 ****        -0.1565  -1.1468  -1.5958 H              1 S1                 0.0000
     38 ****         1.5998  -0.3438  -1.4118 H              1 S1                 0.0000
     39 ****         1.3194   3.1212  -0.0731 H              1 S1                 0.0000
     40 ****         5.5806   3.5150  -0.2451 H              1 S1                 0.0000
     41 ****        -3.7144  -0.7535   0.3378 H              1 S1                 0.0000
     42 ****        -2.3163   0.1034   0.9261 H              1 S1                 0.0000
     43 ****        -1.1009  -1.9882   0.8001 H              1 S1                 0.0000
     44 ****        -1.5347   1.7265  -0.2216 LP             1 S1                 0.0000
     45 ****         0.0107   2.4925  -0.0630 LP             1 S1                 0.0000
     46 ****         3.1441  -0.8934  -1.6374 LP             1 S1                 0.0000
     47 ****         4.8510  -0.5999  -1.6445 LP             1 S1                 0.0000
@<TRIPOS>BOND
    1    1    2 1     
    2    1   25 1     
    3    1   26 1     
    4    1   27 1     
    5    2    3 1     
    6    2   28 1     
    7    2   29 1     
    8    3   23 1     
    9    3    4 1     
   10    3   43 1     
   11    4    5 1     
   12    4   30 1     
   13    4   31 1     
   14    5    6 1     
   15    5   32 1     
   16    5   33 1     
   17    6    7 1     
   18    6   34 1     
   19    6   35 1     
   20    7    8 1     
   21    7   23 1     
   22    7   36 1     
   23    8    9 am    
   24    8   37 1     
   25    9   10 2     
   26    9   11 am    
   27   11   12 1     
   28   11   38 1     
   29   12   21 1     
   30   12   13 2     
   31   13   14 1     
   32   13   39 1     
   33   14   15 1     
   34   14   19 2     
   35   15   16 1     
   36   15   17 1     
   37   15   18 1     
   38   19   20 1     
   39   19   40 1     
   40   20   24 1     
   41   20   21 am    
   42   21   22 2     
   43   23   41 1     
   44   23   42 1     
   45   10   44 1     
   46   10   45 1     
   47   22   46 1     
   48   22   47 1     
@<TRIPOS>SUBSTRUCTURE
      1 S1             1
@<TRIPOS>SET
LONE_PAIRS      STATIC     ATOMS    <user>   **** ""
4 44 45 46 47
DONOR_HYDROGENS      STATIC     ATOMS    <user>   **** ""
4 43 37 38 24
ATOM$BLUE        STATIC     ATOMS    COLORGROUP SYSTEM
4 44 45 46 47
ATOM$RED        STATIC     ATOMS    COLORGROUP SYSTEM
4 43 37 38 24
