AV-unprocessed.smi:178|AV-procd|sdf|1448|dock3
  -GOLD-   2262019243D 1   1.00000     0.00000
 Structure written by MMmdl.
 50 52  0  0  0  0  0  0  0  0  1 V2000
  149.4902  140.2929  154.4824 C   0  0  0  0  0  0  0  0  0  0  0  0
  150.7834  139.7094  154.4915 O   0  0  0  0  0  0  0  0  0  0  0  0
  151.0645  138.9162  155.6391 C   0  0  0  0  0  0  0  0  0  0  0  0
  150.9988  137.3960  155.3678 C   0  0  0  0  0  0  0  0  0  0  0  0
  149.8795  136.7189  156.0248 N   0  0  0  0  0  0  0  0  0  0  0  0
  149.8859  136.7923  157.4841 C   0  0  0  0  0  0  0  0  0  0  0  0
  148.5377  136.4153  158.1188 C   0  0  0  0  0  0  0  0  0  0  0  0
  148.5396  136.5900  159.5785 C   0  0  0  0  0  0  0  0  0  0  0  0
  148.5408  136.7270  160.7273 N   0  0  0  0  0  0  0  0  0  0  0  0
  149.6583  135.4681  155.5614 C   0  0  0  0  0  0  0  0  0  0  0  0
  150.6115  134.5370  155.8116 N   0  0  0  0  0  0  0  0  0  0  0  0
  150.4338  133.2762  155.4060 C   0  0  0  0  0  0  0  0  0  0  0  0
  149.3979  132.7475  154.7507 N   0  0  0  0  0  0  0  0  0  0  0  0
  148.4411  133.6853  154.4935 C   0  0  0  0  0  0  0  0  0  0  0  0
  148.4930  135.0606  154.8528 C   0  0  0  0  0  0  0  0  0  0  0  0
  147.3428  135.7090  154.4197 N   0  0  0  0  0  0  0  0  0  0  0  0
  146.6464  134.7676  153.8436 C   0  0  0  0  0  0  0  0  0  0  0  0
  147.2262  133.5187  153.8524 N   0  0  0  0  0  0  0  0  0  0  0  0
  146.6690  132.2948  153.2972 C   0  0  0  0  0  0  0  0  0  0  0  0
  146.1707  132.4556  151.8367 C   0  0  2  0  0  0  0  0  0  0  0  0
  147.2377  132.9936  151.0728 O   0  0  0  0  0  0  0  0  0  0  0  0
  144.9760  133.3935  151.6936 C   0  0  0  0  0  0  0  0  0  0  0  0
  144.2948  132.8831  150.4331 C   0  0  0  0  0  0  0  0  0  0  0  0
  144.4135  131.4773  150.5650 O   0  0  0  0  0  0  0  0  0  0  0  0
  145.6883  131.1619  151.1219 C   0  0  2  0  0  0  0  0  0  0  0  0
  145.5051  129.9150  152.0012 C   0  0  0  0  0  0  0  0  0  0  0  0
  149.3543  140.8516  153.5565 H   0  0  0  0  0  0  0  0  0  0  0  0
  149.3491  140.9886  155.3089 H   0  0  0  0  0  0  0  0  0  0  0  0
  148.7125  139.5299  154.5299 H   0  0  0  0  0  0  0  0  0  0  0  0
  152.0474  139.1838  156.0297 H   0  0  0  0  0  0  0  0  0  0  0  0
  150.3499  139.1767  156.4207 H   0  0  0  0  0  0  0  0  0  0  0  0
  151.0046  137.1784  154.3004 H   0  0  0  0  0  0  0  0  0  0  0  0
  151.9137  136.9520  155.7614 H   0  0  0  0  0  0  0  0  0  0  0  0
  150.6766  136.1555  157.8829 H   0  0  0  0  0  0  0  0  0  0  0  0
  150.1383  137.8121  157.7763 H   0  0  0  0  0  0  0  0  0  0  0  0
  147.7377  137.0336  157.7113 H   0  0  0  0  0  0  0  0  0  0  0  0
  148.2823  135.3749  157.9165 H   0  0  0  0  0  0  0  0  0  0  0  0
  151.2341  132.5916  155.6451 H   0  0  0  0  0  0  0  0  0  0  0  0
  145.6790  134.9567  153.4012 H   0  0  0  0  0  0  0  0  0  0  0  0
  147.4301  131.5156  153.3571 H   0  0  0  0  0  0  0  0  0  0  0  0
  145.8535  131.9804  153.9486 H   0  0  0  0  0  0  0  0  0  0  0  0
  147.8044  132.2841  150.8107 H   0  0  0  0  0  0  0  0  0  0  0  0
  144.2950  133.2646  152.5357 H   0  0  0  0  0  0  0  0  0  0  0  0
  145.2451  134.4494  151.6418 H   0  0  0  0  0  0  0  0  0  0  0  0
  143.2527  133.1944  150.3594 H   0  0  0  0  0  0  0  0  0  0  0  0
  144.8210  133.2158  149.5370 H   0  0  0  0  0  0  0  0  0  0  0  0
  146.3596  130.9064  150.3000 H   0  0  0  0  0  0  0  0  0  0  0  0
  146.4465  129.6046  152.4547 H   0  0  0  0  0  0  0  0  0  0  0  0
  145.1383  129.0772  151.4076 H   0  0  0  0  0  0  0  0  0  0  0  0
  144.7819  130.0904  152.7981 H   0  0  0  0  0  0  0  0  0  0  0  0
  1  2  1  0  0  0  0
  1 27  1  0  0  0  0
  1 28  1  0  0  0  0
  1 29  1  0  0  0  0
  2  3  1  0  0  0  0
  3  4  1  0  0  0  0
  3 30  1  0  0  0  0
  3 31  1  0  0  0  0
  4  5  1  0  0  0  0
  4 32  1  0  0  0  0
  4 33  1  0  0  0  0
  5  6  1  0  0  0  0
  5 10  1  0  0  0  0
  6  7  1  0  0  0  0
  6 34  1  0  0  0  0
  6 35  1  0  0  0  0
  7  8  1  0  0  0  0
  7 36  1  0  0  0  0
  7 37  1  0  0  0  0
  8  9  3  0  0  0  0
 10 15  1  0  0  0  0
 10 11  2  0  0  0  0
 11 12  1  0  0  0  0
 12 13  2  0  0  0  0
 12 38  1  0  0  0  0
 13 14  1  0  0  0  0
 14 18  1  0  0  0  0
 14 15  2  0  0  0  0
 15 16  1  0  0  0  0
 16 17  2  0  0  0  0
 17 18  1  0  0  0  0
 17 39  1  0  0  0  0
 18 19  1  0  0  0  0
 19 20  1  0  0  0  0
 19 40  1  0  0  0  0
 19 41  1  0  0  0  0
 20 25  1  0  0  0  0
 20 21  1  0  0  0  0
 20 22  1  0  0  0  0
 21 42  1  0  0  0  0
 22 23  1  0  0  0  0
 22 43  1  0  0  0  0
 22 44  1  0  0  0  0
 23 24  1  0  0  0  0
 23 45  1  0  0  0  0
 23 46  1  0  0  0  0
 24 25  1  0  0  0  0
 25 26  1  0  0  0  0
 25 47  1  0  0  0  0
 26 48  1  0  0  0  0
 26 49  1  0  0  0  0
 26 50  1  0  0  0  0
M  END
> <s_m_source_file>
AV-unprocessed.smi

> <i_m_source_file_index>
178

> <i_lp_mmshare_version>
43012

> <i_f3d_flags>
0

> <s_epik_input>
W0NIM11PW0NIMl1bQ0gyXU4oW0NIMl1bQ0gyXUMjTiljKG5bY0hdbjEpYyhjMTIpbltjSF1uMltDSDJdW0NAQF0zKFtPSF0pW0NIMl1bQ0gyXU9bQ0BIXTNbQ0gzXQ==

> <s_epik_cmdline>
J2VwaWtfcHl0aG9uJywgJy1waCcsICc3LjAnLCAnLXRuJywgJzgnLCAnLW1hJywgJzIwMCcsICctbWV0YWxfYmluZGluZycsICctaW1hZScsICc8aW5maWxlLm1hZT4nLCAnLW9tYWUnLCAnPG91dGZpbGUubWFlPic=

> <r_lp_tautomer_probability>
1

> <r_epik_Ionization_Penalty>
0.000885317

> <r_epik_Ionization_Penalty_Charging>
0

> <r_epik_Ionization_Penalty_Neutral>
0.000885317

> <r_epik_State_Penalty>
0.00047273

> <r_epik_Charging_Adjusted_Penalty>
0.00047273

> <i_epik_Tot_Q>
0

> <i_epik_Tot_abs_Q>
0

> <r_epik_Metal_State_Penalty>
-0

> <b_epik_Metal_Only>
0

> <s_lp_Force_Field>
OPLS_2005

> <r_lp_Energy>
31.3349

> <b_lp_Chiralities_Consistent>
1

> <s_lp_Variant>
AV-unprocessed.smi:178-4

> <Gold.Version>
5.8.1

> <Gold.Id.Protein>
6NUR|6NUR_protein|mol2

> <Gold.PLP.Fitness>
43.3773

> <Gold.PLP.PLP>
-36.0356

> <Gold.PLP.part.hbond>
-3.3373

> <Gold.PLP.part.metal>
0.0000

> <Gold.PLP.part.buried>
-7.3690

> <Gold.PLP.part.nonpolar>
-25.9429

> <Gold.PLP.part.repulsive>
1.1114

> <Gold.PLP.ligand.clash>
0.0000

> <Gold.PLP.ligand.torsion>
0.9842

> <Gold.PLP.Chemscore.Hbond>
2.9600

> <Gold.PLP.Chemscore.CHOScore>
0.0000

> <Gold.PLP.Chemscore.Metal>
0.0000

> <Gold.Chemscore.Hbonds>
donor molecule, donor type, donor heavy atom, donor atom, acceptor molecule, acceptor atom, score
      L1  H    21    42       P1 10747  1.00
      P1  H  6931  6943       L1     9  0.99
      P1  H  7989  7998       L1     2  1.00

> <Gold.PLP.Chemscore.Internal.Correction>
0.4301

> <Gold.Rescore>
     Score         DG    S(hbond)    S(metal)    S(lipo)     H(rot)  DE(clash)    DE(int)     intcor
     12.83     -13.83       2.85        0.00      70.65       3.69       0.09       0.91       ----

> <Gold.Chemscore.Fitness>
12.8294

> <Gold.Chemscore.DG>
-13.8284

> <Gold.Chemscore.ZeroCoef>
-5.4800

> <Gold.Chemscore.Hbond>
2.8547

> <Gold.Chemscore.Metal>
0.0000

> <Gold.Chemscore.Lipo>
70.6512

> <Gold.Chemscore.Internal_Hbond>
0.0000

> <Gold.Chemscore.DEClash>
0.0855

> <Gold.Chemscore.DEInternal>
0.9134

> <Gold.Chemscore.Rot>
3.6923

> <Gold.Chemscore.Internal.Correction>
   9.000000E+99

> <Gold.Chemscore.Hbonds>
donor molecule, donor type, donor heavy atom, donor atom, acceptor molecule, acceptor atom, score
      L1  H    21    42       P1 10747  1.00
      P1  H  6931  6943       L1     9  0.91
      P1  H  7989  7998       L1     2  0.26

> <Gold.Chemscore.Hbond.Weighted>
-9.5345

> <Gold.Chemscore.Metal.Weighted>
-0.0000

> <Gold.Chemscore.Lipo.Weighted>
-8.2662

> <Gold.Chemscore.Internal_Hbond.Weighted>
0.0000

> <Gold.Chemscore.DEClash.Weighted>
0.0855

> <Gold.Chemscore.DEInternal.Weighted>
0.9134

> <Gold.Chemscore.Rot.Weighted>
9.4524

> <Gold.Chemscore.Internal.Correction.Weighted>
   9.000000E+99

> <Gold.Protein.RotatedTorsions>
[ 6907 6896 6895 6894 ] final -123.14 input  -60.11 | X-H torsion
[ 7974 7965 7964 7962 ] final   25.78 input  175.53 | X-H torsion
[ 8008 7997 7996 7995 ] final -137.10 input   59.86 | X-H torsion
[ 10167 10162 10161 10158 ] final   71.07 input  -65.29 | X-H torsion
[ 10718 10713 10712 10709 ] final   19.48 input   66.30 | X-H torsion
[ 10763 10752 10751 10750 ] final -176.62 input  -60.55 | X-H torsion
[ 11005 11000 10999 10996 ] final  159.84 input  -57.11 | X-H torsion

> <Gold.Protein.ActiveResidues>
 VAL166  LYS551  ARG553  GLY616  TRP617  ASP618  TYR619  PRO620  LYS621  CYS622 
 ASP623  PHE694  ASN695  SER759  ASP760  ASP761  ALA762  ILE779  LEU786  VAL792 
 PHE793  MET794  SER795  GLU796  ALA797  LYS798  CYS799  TRP800  GLU811  SER814 

> <Gold.Protein.RotatedAtoms>
  150.8643  133.7598  159.2981 H   0  0  0  0  0  0  0  0  0  0  0  0  # atno 6907 bound_to 6896
  151.5230  135.1066  159.9893 H   0  0  0  0  0  0  0  0  0  0  0  0  # atno 6908 bound_to 6896
  152.4649  133.7857  159.6930 H   0  0  0  0  0  0  0  0  0  0  0  0  # atno 6909 bound_to 6896
  146.1871  139.7419  142.8858 H   0  0  0  0  0  0  0  0  0  0  0  0  # atno 7974 bound_to 7965
  155.4063  140.0509  157.3034 H   0  0  0  0  0  0  0  0  0  0  0  0  # atno 8008 bound_to 7997
  154.4967  140.2141  155.9392 H   0  0  0  0  0  0  0  0  0  0  0  0  # atno 8009 bound_to 7997
  156.1414  140.3153  155.8507 H   0  0  0  0  0  0  0  0  0  0  0  0  # atno 8010 bound_to 7997
  140.0501  144.5319  150.7369 H   0  0  0  0  0  0  0  0  0  0  0  0  # atno 10167 bound_to 10162
  157.1110  130.6508  149.5897 H   0  0  0  0  0  0  0  0  0  0  0  0  # atno 10718 bound_to 10713
  154.5702  135.2827  155.0835 H   0  0  0  0  0  0  0  0  0  0  0  0  # atno 10763 bound_to 10752
  154.2210  135.6391  153.5148 H   0  0  0  0  0  0  0  0  0  0  0  0  # atno 10764 bound_to 10752
  153.0055  135.5514  154.6322 H   0  0  0  0  0  0  0  0  0  0  0  0  # atno 10765 bound_to 10752
  140.2000  134.8344  157.3008 H   0  0  0  0  0  0  0  0  0  0  0  0  # atno 11005 bound_to 11000
  145.3905  141.0371  143.3127 LP  0  0  0  0  0  0  0  0  0  0  0  0  # atno 17320 bound_to 7965
  144.8418  139.5460  143.6897 LP  0  0  0  0  0  0  0  0  0  0  0  0  # atno 17321 bound_to 7965
  140.7220  143.2598  151.4245 LP  0  0  0  0  0  0  0  0  0  0  0  0  # atno 17342 bound_to 10162
  139.5958  144.1400  152.2142 LP  0  0  0  0  0  0  0  0  0  0  0  0  # atno 17343 bound_to 10162
  155.9850  130.4878  150.7013 LP  0  0  0  0  0  0  0  0  0  0  0  0  # atno 17370 bound_to 10713
  157.4559  131.0878  151.0797 LP  0  0  0  0  0  0  0  0  0  0  0  0  # atno 17371 bound_to 10713
  140.2064  134.4192  155.7635 LP  0  0  0  0  0  0  0  0  0  0  0  0  # atno 17394 bound_to 11000
  141.2227  133.7097  156.8267 LP  0  0  0  0  0  0  0  0  0  0  0  0  # atno 17395 bound_to 11000

$$$$
