AV-unprocessed.smi:761|AV-procd|sdf|3630|dock10
  -GOLD-   22720 1 23D 1   1.00000     0.00000
 Structure written by MMmdl.
 34 35  0  0  0  0  0  0  0  0  2 V2000
  150.4882  140.6343  156.4690 O   0  0  0  0  0  0  0  0  0  0  0  0
  150.1148  141.7712  156.1801 C   0  0  0  0  0  0  0  0  0  0  0  0
  149.2723  142.0317  155.1701 N   0  0  0  0  0  0  0  0  0  0  0  0
  148.6797  141.0194  154.3038 C   0  0  0  0  0  0  0  0  0  0  0  0
  147.3161  141.4762  153.7531 C   0  0  0  0  0  0  0  0  0  0  0  0
  146.3379  140.3655  153.7016 N   0  3  0  0  0  0  0  0  0  0  0  0
  145.8545  139.8972  155.0328 C   0  0  0  0  0  0  0  0  0  0  0  0
  145.7757  138.4060  154.8666 C   0  0  0  0  0  0  0  0  0  0  0  0
  146.2916  138.0187  153.7056 C   0  0  0  0  0  0  0  0  0  0  0  0
  146.7987  139.1890  152.9117 C   0  0  0  0  0  0  0  0  0  0  0  0
  150.5002  142.9010  156.7983 N   0  0  0  0  0  0  0  0  0  0  0  0
  151.3586  143.0502  157.9216 C   0  0  0  0  0  0  0  0  0  0  0  0
  152.0429  141.9059  158.3811 C   0  0  0  0  0  0  0  0  0  0  0  0
  152.9133  142.0310  159.4824 C   0  0  0  0  0  0  0  0  0  0  0  0
  153.1370  143.1982  160.1218 N   0  0  0  0  0  0  0  0  0  0  0  0
  152.4928  144.2955  159.6716 C   0  0  0  0  0  0  0  0  0  0  0  0
  151.6014  144.2799  158.5800 C   0  0  0  0  0  0  0  0  0  0  0  0
  149.0187  142.9931  154.9938 H   0  0  0  0  0  0  0  0  0  0  0  0
  149.3726  140.7832  153.4945 H   0  0  0  0  0  0  0  0  0  0  0  0
  148.5589  140.1044  154.8844 H   0  0  0  0  0  0  0  0  0  0  0  0
  146.9199  142.2610  154.3993 H   0  0  0  0  0  0  0  0  0  0  0  0
  147.4196  141.9122  152.7583 H   0  0  0  0  0  0  0  0  0  0  0  0
  146.5532  140.1369  155.8359 H   0  0  0  0  0  0  0  0  0  0  0  0
  144.8795  140.3253  155.2668 H   0  0  0  0  0  0  0  0  0  0  0  0
  145.3647  137.7539  155.6235 H   0  0  0  0  0  0  0  0  0  0  0  0
  146.3708  136.9986  153.3590 H   0  0  0  0  0  0  0  0  0  0  0  0
  146.3768  139.2047  151.9065 H   0  0  0  0  0  0  0  0  0  0  0  0
  147.8864  139.1376  152.8432 H   0  0  0  0  0  0  0  0  0  0  0  0
  150.1745  143.7642  156.3888 H   0  0  0  0  0  0  0  0  0  0  0  0
  151.9041  140.9461  157.9052 H   0  0  0  0  0  0  0  0  0  0  0  0
  153.4457  141.1696  159.8576 H   0  0  0  0  0  0  0  0  0  0  0  0
  152.6986  145.2183  160.1934 H   0  0  0  0  0  0  0  0  0  0  0  0
  151.1395  145.2033  158.2676 H   0  0  0  0  0  0  0  0  0  0  0  0
  145.5228  140.7119  153.2162 H   0  0  0  0  0  0  0  0  0  0  0  0
  1  2  2  0  0  0  0
  2  3  1  0  0  0  0
  2 11  1  0  0  0  0
  3  4  1  0  0  0  0
  3 18  1  0  0  0  0
  4  5  1  0  0  0  0
  4 19  1  0  0  0  0
  4 20  1  0  0  0  0
  5  6  1  0  0  0  0
  5 21  1  0  0  0  0
  5 22  1  0  0  0  0
  6 10  1  0  0  0  0
  6  7  1  0  0  0  0
  6 34  1  0  0  0  0
  7  8  1  0  0  0  0
  7 23  1  0  0  0  0
  7 24  1  0  0  0  0
  8  9  2  0  0  0  0
  8 25  1  0  0  0  0
  9 10  1  0  0  0  0
  9 26  1  0  0  0  0
 10 27  1  0  0  0  0
 10 28  1  0  0  0  0
 11 12  1  0  0  0  0
 11 29  1  0  0  0  0
 12 17  1  0  0  0  0
 12 13  2  0  0  0  0
 13 14  1  0  0  0  0
 13 30  1  0  0  0  0
 14 15  2  0  0  0  0
 14 31  1  0  0  0  0
 15 16  1  0  0  0  0
 16 17  2  0  0  0  0
 16 32  1  0  0  0  0
 17 33  1  0  0  0  0
M  CHG  1   6   1
M  END
> <s_m_source_file>
AV-unprocessed.smi

> <i_m_source_file_index>
761

> <i_lp_mmshare_version>
43012

> <i_f3d_flags>
0

> <s_epik_input>
W2NIXTFbY0hdbltjSF1bY0hdYzFbTkhdQyg9TylbTkhdW0NIMl1bQ0gyXU4yW0NIMl1bQ0hdPVtDSF1bQ0gyXTI=

> <s_epik_cmdline>
J2VwaWtfcHl0aG9uJywgJy1waCcsICc3LjAnLCAnLXRuJywgJzgnLCAnLW1hJywgJzIwMCcsICctbWV0YWxfYmluZGluZycsICctaW1hZScsICc8aW5maWxlLm1hZT4nLCAnLW9tYWUnLCAnPG91dGZpbGUubWFlPic=

> <r_epik_Ionization_Penalty>
0.100973

> <r_epik_Ionization_Penalty_Charging>
0.00265978

> <r_epik_Ionization_Penalty_Neutral>
0.098313

> <r_epik_State_Penalty>
0.0959991

> <r_epik_Charging_Adjusted_Penalty>
0.0986589

> <i_epik_Tot_Q>
1

> <i_epik_Tot_abs_Q>
1

> <r_epik_Metal_State_Penalty>
0.0816347

> <b_epik_Metal_Only>
0

> <s_lp_Force_Field>
OPLS_2005

> <r_lp_Energy>
25.6578

> <b_lp_Chiralities_Consistent>
1

> <s_lp_Variant>
AV-unprocessed.smi:761-1

> <Gold.Version>
5.8.1

> <Gold.Id.Protein>
6NUR|6NUR_protein|mol2

> <Gold.PLP.Fitness>
44.5731

> <Gold.PLP.PLP>
-33.6276

> <Gold.PLP.part.hbond>
-3.0000

> <Gold.PLP.part.metal>
0.0000

> <Gold.PLP.part.buried>
-6.4808

> <Gold.PLP.part.nonpolar>
-25.6838

> <Gold.PLP.part.repulsive>
0.2700

> <Gold.PLP.ligand.clash>
0.0000

> <Gold.PLP.ligand.torsion>
0.4998

> <Gold.PLP.Chemscore.Hbond>
3.9760

> <Gold.PLP.Chemscore.CHOScore>
0.0000

> <Gold.PLP.Chemscore.Metal>
0.0000

> <Gold.Chemscore.Hbonds>
donor molecule, donor type, donor heavy atom, donor atom, acceptor molecule, acceptor atom, score
      L1  H     3    18       P1  8028  0.98
      L1  H     6    34       P1 10175  2.00
      L1  H    11    29       P1  8028  1.00

> <Gold.PLP.Chemscore.Internal.Correction>
0.0171

> <Gold.Rescore>
     Score         DG    S(hbond)    S(metal)    S(lipo)     H(rot)  DE(clash)    DE(int)     intcor
     19.41     -21.24       2.92        0.00      84.50       1.51       0.02       1.81       ----

> <Gold.Chemscore.Fitness>
19.4063

> <Gold.Chemscore.DG>
-21.2358

> <Gold.Chemscore.ZeroCoef>
-5.4800

> <Gold.Chemscore.Hbond>
2.9158

> <Gold.Chemscore.Metal>
0.0000

> <Gold.Chemscore.Lipo>
84.5039

> <Gold.Chemscore.Internal_Hbond>
0.0000

> <Gold.Chemscore.DEClash>
0.0162

> <Gold.Chemscore.DEInternal>
1.8133

> <Gold.Chemscore.Rot>
1.5117

> <Gold.Chemscore.Internal.Correction>
   9.000000E+99

> <Gold.Chemscore.Hbonds>
donor molecule, donor type, donor heavy atom, donor atom, acceptor molecule, acceptor atom, score
      L1  H     3    18       P1  8028  0.93
      L1  H     6    34       P1 10175  0.74
      L1  H    11    29       P1  8028  0.95

> <Gold.Chemscore.Hbond.Weighted>
-9.7389

> <Gold.Chemscore.Metal.Weighted>
-0.0000

> <Gold.Chemscore.Lipo.Weighted>
-9.8870

> <Gold.Chemscore.Internal_Hbond.Weighted>
0.0000

> <Gold.Chemscore.DEClash.Weighted>
0.0162

> <Gold.Chemscore.DEInternal.Weighted>
1.8133

> <Gold.Chemscore.Rot.Weighted>
3.8700

> <Gold.Chemscore.Internal.Correction.Weighted>
   9.000000E+99

> <Gold.Protein.RotatedTorsions>
[ 6907 6896 6895 6894 ] final -160.26 input  -60.11 | X-H torsion
[ 7974 7965 7964 7962 ] final   21.63 input  175.53 | X-H torsion
[ 8008 7997 7996 7995 ] final  -85.51 input   59.86 | X-H torsion
[ 10167 10162 10161 10158 ] final -147.24 input  -65.29 | X-H torsion
[ 10718 10713 10712 10709 ] final -171.68 input   66.30 | X-H torsion
[ 10763 10752 10751 10750 ] final  169.50 input  -60.55 | X-H torsion
[ 11005 11000 10999 10996 ] final   47.79 input  -57.11 | X-H torsion

> <Gold.Protein.ActiveResidues>
 VAL166  LYS551  ARG553  GLY616  TRP617  ASP618  TYR619  PRO620  LYS621  CYS622 
 ASP623  PHE694  ASN695  SER759  ASP760  ASP761  ALA762  ILE779  LEU786  VAL792 
 PHE793  MET794  SER795  GLU796  ALA797  LYS798  CYS799  TRP800  GLU811  SER814 

> <Gold.Protein.RotatedAtoms>
  151.3463  133.3943  159.2675 H   0  0  0  0  0  0  0  0  0  0  0  0  # atno 6907 bound_to 6896
  150.9837  134.9188  159.7870 H   0  0  0  0  0  0  0  0  0  0  0  0  # atno 6908 bound_to 6896
  152.5225  134.3427  159.9275 H   0  0  0  0  0  0  0  0  0  0  0  0  # atno 6909 bound_to 6896
  146.2063  139.8000  142.8723 H   0  0  0  0  0  0  0  0  0  0  0  0  # atno 7974 bound_to 7965
  154.6415  140.0590  156.9851 H   0  0  0  0  0  0  0  0  0  0  0  0  # atno 8008 bound_to 7997
  155.1510  140.3274  155.4413 H   0  0  0  0  0  0  0  0  0  0  0  0  # atno 8009 bound_to 7997
  156.2533  140.1947  156.6621 H   0  0  0  0  0  0  0  0  0  0  0  0  # atno 8010 bound_to 7997
  139.7640  143.8335  152.2612 H   0  0  0  0  0  0  0  0  0  0  0  0  # atno 10167 bound_to 10162
  156.7444  130.9354  151.3112 H   0  0  0  0  0  0  0  0  0  0  0  0  # atno 10718 bound_to 10713
  154.3841  135.2753  155.2194 H   0  0  0  0  0  0  0  0  0  0  0  0  # atno 10763 bound_to 10752
  154.4288  135.5982  153.6059 H   0  0  0  0  0  0  0  0  0  0  0  0  # atno 10764 bound_to 10752
  152.9833  135.5990  154.4087 H   0  0  0  0  0  0  0  0  0  0  0  0  # atno 10765 bound_to 10752
  140.1248  134.4783  155.8568 H   0  0  0  0  0  0  0  0  0  0  0  0  # atno 11005 bound_to 11000
  145.3306  141.0265  143.3448 LP  0  0  0  0  0  0  0  0  0  0  0  0  # atno 17320 bound_to 7965
  144.8801  139.4915  143.6727 LP  0  0  0  0  0  0  0  0  0  0  0  0  # atno 17321 bound_to 7965
  139.8349  144.7236  150.9403 LP  0  0  0  0  0  0  0  0  0  0  0  0  # atno 17342 bound_to 10162
  140.7809  143.4035  151.1109 LP  0  0  0  0  0  0  0  0  0  0  0  0  # atno 17343 bound_to 10162
  157.6804  130.9135  150.0254 LP  0  0  0  0  0  0  0  0  0  0  0  0  # atno 17370 bound_to 10713
  156.1443  130.3642  149.9535 LP  0  0  0  0  0  0  0  0  0  0  0  0  # atno 17371 bound_to 10713
  141.2159  133.6773  156.6957 LP  0  0  0  0  0  0  0  0  0  0  0  0  # atno 17394 bound_to 11000
  140.2918  134.8234  157.4023 LP  0  0  0  0  0  0  0  0  0  0  0  0  # atno 17395 bound_to 11000

$$$$
