#       Name:                AV-unprocessed.smi:2618
#       Creating user name   scv26
#       Creation time:       Fri Mar 27 14:22:31 2020


#       File generated by GOLD software.
#

@<TRIPOS>MOLECULE
AV-unprocessed.smi:2618
    46    47     1
SMALL
NO_CHARGES


@<TRIPOS>ATOM
      1 ****        -5.0542   0.7354  -2.4806 C.3            1 S1                 0.0000
      2 ****        -3.9543  -0.1514  -2.3782 O.3            1 S1                 0.0000
      3 ****        -3.9159  -0.8298  -1.1324 C.3            1 S1                 0.0000
      4 ****        -2.6901  -1.7549  -1.0718 C.3            1 S1                 0.0000
      5 ****        -1.4005  -0.9897  -0.9416 C.2            1 S1                 0.0000
      6 ****        -0.7117  -0.9669   0.1379 N.2            1 S1                 0.0000
      7 ****         0.3850  -0.2244  -0.0139 N.pl3          1 S1                 0.0000
      8 ****         1.2881   0.0239   1.0257 C.ar           1 S1                 0.0000
      9 ****         2.1416   1.0464   0.8878 N.ar           1 S1                 0.0000
     10 ****         3.0094   1.2818   1.8952 C.ar           1 S1                 0.0000
     11 ****         3.9654   2.4413   1.7145 C.3            1 S1                 0.0000
     12 ****         3.0237   0.4921   3.0621 C.ar           1 S1                 0.0000
     13 ****         2.0817  -0.5549   3.1098 C.ar           1 S1                 0.0000
     14 ****         1.9910  -1.4830   4.3022 C.3            1 S1                 0.0000
     15 ****         1.2215  -0.7843   2.0942 N.ar           1 S1                 0.0000
     16 ****         0.5270   0.2619  -1.3948 C.3            1 S1                 0.0000
     17 ****         0.6034   1.6704  -1.5458 O.3            1 S1                 0.0000
     18 ****         1.7332  -0.3824  -2.1346 C.3            1 S1                 0.0000
     19 ****         1.6649  -1.7127  -2.0566 F              1 S1                 0.0000
     20 ****         1.7120  -0.0448  -3.4252 F              1 S1                 0.0000
     21 ****         2.9018  -0.0009  -1.6207 F              1 S1                 0.0000
     22 ****        -0.8011  -0.1721  -2.0296 C.3            1 S1                 0.0000
     23 ****        -5.0416   1.2230  -3.4553 H              1 S1                 0.0000
     24 ****        -5.0070   1.5117  -1.7156 H              1 S1                 0.0000
     25 ****        -6.0011   0.2030  -2.3826 H              1 S1                 0.0000
     26 ****        -3.9007  -0.1178  -0.3048 H              1 S1                 0.0000
     27 ****        -4.8227  -1.4268  -1.0251 H              1 S1                 0.0000
     28 ****        -2.8006  -2.4210  -0.2148 H              1 S1                 0.0000
     29 ****        -2.6559  -2.3969  -1.9523 H              1 S1                 0.0000
     30 ****         4.8526   2.3137   2.3350 H              1 S1                 0.0000
     31 ****         3.4796   3.3756   1.9964 H              1 S1                 0.0000
     32 ****         4.2875   2.5199   0.6753 H              1 S1                 0.0000
     33 ****         3.7149   0.6785   3.8710 H              1 S1                 0.0000
     34 ****         2.4609  -1.0381   5.1799 H              1 S1                 0.0000
     35 ****         2.4937  -2.4254   4.0836 H              1 S1                 0.0000
     36 ****         0.9498  -1.6964   4.5467 H              1 S1                 0.0000
     37 ****         0.3867   1.8874  -2.4393 H              1 S1                 0.0000
     38 ****        -0.6681  -0.7638  -2.9356 H              1 S1                 0.0000
     39 ****        -1.4515   0.6707  -2.2678 H              1 S1                 0.0000
     40 ****        -3.1092   0.3727  -2.4839 LP             1 S1                 0.0000
     41 ****        -4.0199  -0.8293  -3.1104 LP             1 S1                 0.0000
     42 ****        -0.9627  -1.4421   0.9812 LP             1 S1                 0.0000
     43 ****         2.1366   1.6166   0.0663 LP             1 S1                 0.0000
     44 ****         0.5578  -1.5310   2.1373 LP             1 S1                 0.0000
     45 ****         1.5305   1.9824  -1.3380 LP             1 S1                 0.0000
     46 ****        -0.0439   2.1121  -0.9246 LP             1 S1                 0.0000
@<TRIPOS>BOND
    1    1    2 1     
    2    1   23 1     
    3    1   24 1     
    4    1   25 1     
    5    2    3 1     
    6    3    4 1     
    7    3   26 1     
    8    3   27 1     
    9    4    5 1     
   10    4   28 1     
   11    4   29 1     
   12    5   22 1     
   13    5    6 2     
   14    6    7 1     
   15    7    8 1     
   16    7   16 1     
   17    8   15 ar    
   18    8    9 ar    
   19    9   10 ar    
   20   10   11 1     
   21   10   12 ar    
   22   11   30 1     
   23   11   31 1     
   24   11   32 1     
   25   12   13 ar    
   26   12   33 1     
   27   13   14 1     
   28   13   15 ar    
   29   14   34 1     
   30   14   35 1     
   31   14   36 1     
   32   16   17 1     
   33   16   18 1     
   34   16   22 1     
   35   17   37 1     
   36   18   19 1     
   37   18   20 1     
   38   18   21 1     
   39   22   38 1     
   40   22   39 1     
   41    2   40 1     
   42    2   41 1     
   43    6   42 1     
   44    9   43 1     
   45   15   44 1     
   46   17   45 1     
   47   17   46 1     
@<TRIPOS>SUBSTRUCTURE
      1 S1             1
@<TRIPOS>SET
LONE_PAIRS      STATIC     ATOMS    <user>   **** ""
7 40 41 42 43 44 45 46
DONOR_HYDROGENS      STATIC     ATOMS    <user>   **** ""
1 37
ATOM$BLUE        STATIC     ATOMS    COLORGROUP SYSTEM
7 40 41 42 43 44 45 46
ATOM$RED        STATIC     ATOMS    COLORGROUP SYSTEM
1 37
