AV-unprocessed.smi:688|AV-procd|sdf|3355|dock2
  -GOLD-   22720 0333D 1   1.00000     0.00000
 Structure written by MMmdl.
 36 37  0  0  0  0  0  0  0  0  1 V2000
  144.5327  143.9807  155.8383 O   0  0  0  0  0  0  0  0  0  0  0  0
  145.2659  143.0613  155.4798 C   0  0  0  0  0  0  0  0  0  0  0  0
  145.5634  142.0221  156.3667 N   0  0  0  0  0  0  0  0  0  0  0  0
  146.3780  140.9243  156.0878 C   0  0  0  0  0  0  0  0  0  0  0  0
  146.5711  140.0683  156.9510 O   0  0  0  0  0  0  0  0  0  0  0  0
  146.9462  140.8648  154.7946 N   0  0  0  0  0  0  0  0  0  0  0  0
  147.8026  139.7436  154.4862 C   0  0  0  0  0  0  0  0  0  0  0  0
  149.3135  140.0588  154.5680 C   0  0  1  0  0  0  0  0  0  0  0  0
  149.6395  140.8304  153.4306 O   0  0  0  0  0  0  0  0  0  0  0  0
  149.7079  140.8622  155.8202 C   0  0  0  0  0  0  0  0  0  0  0  0
  151.1198  140.9858  155.8585 O   0  0  0  0  0  0  0  0  0  0  0  0
  151.6606  140.7342  157.1447 C   0  0  0  0  0  0  0  0  0  0  0  0
  151.7662  142.0090  157.9572 C   0  0  0  0  0  0  0  0  0  0  0  0
  151.3156  143.2284  157.4103 C   0  0  0  0  0  0  0  0  0  0  0  0
  151.4148  144.4187  158.1565 C   0  0  0  0  0  0  0  0  0  0  0  0
  151.9661  144.3941  159.4524 C   0  0  0  0  0  0  0  0  0  0  0  0
  152.0866  145.8521  160.3671 Cl  0  0  0  0  0  0  0  0  0  0  0  0
  152.4201  143.1785  160.0005 C   0  0  0  0  0  0  0  0  0  0  0  0
  152.3226  141.9881  159.2536 C   0  0  0  0  0  0  0  0  0  0  0  0
  146.6790  141.8746  153.8823 C   0  0  0  0  0  0  0  0  0  0  0  0
  145.8875  142.9381  154.1620 C   0  0  0  0  0  0  0  0  0  0  0  0
  145.6067  144.1586  152.9722 Cl  0  0  0  0  0  0  0  0  0  0  0  0
  145.1532  142.0698  157.2881 H   0  0  0  0  0  0  0  0  0  0  0  0
  147.5120  138.9325  155.1583 H   0  0  0  0  0  0  0  0  0  0  0  0
  147.5278  139.4145  153.4826 H   0  0  0  0  0  0  0  0  0  0  0  0
  149.8871  139.1323  154.5292 H   0  0  0  0  0  0  0  0  0  0  0  0
  149.4821  140.3056  152.6603 H   0  0  0  0  0  0  0  0  0  0  0  0
  149.2195  141.8383  155.8312 H   0  0  0  0  0  0  0  0  0  0  0  0
  149.3955  140.3353  156.7221 H   0  0  0  0  0  0  0  0  0  0  0  0
  151.0394  140.0084  157.6721 H   0  0  0  0  0  0  0  0  0  0  0  0
  152.6577  140.3006  157.0533 H   0  0  0  0  0  0  0  0  0  0  0  0
  150.8916  143.2521  156.4170 H   0  0  0  0  0  0  0  0  0  0  0  0
  151.0674  145.3497  157.7330 H   0  0  0  0  0  0  0  0  0  0  0  0
  152.8441  143.1571  160.9939 H   0  0  0  0  0  0  0  0  0  0  0  0
  152.6745  141.0608  159.6813 H   0  0  0  0  0  0  0  0  0  0  0  0
  147.1257  141.8184  152.8997 H   0  0  0  0  0  0  0  0  0  0  0  0
  1  2  2  0  0  0  0
  2 21  1  0  0  0  0
  2  3  1  0  0  0  0
  3 23  1  0  0  0  0
  3  4  1  0  0  0  0
  4  5  2  0  0  0  0
  4  6  1  0  0  0  0
  6  7  1  0  0  0  0
  6 20  1  0  0  0  0
  7  8  1  0  0  0  0
  7 24  1  0  0  0  0
  7 25  1  0  0  0  0
  8  9  1  0  0  0  0
  8 10  1  0  0  0  0
  8 26  1  0  0  0  0
  9 27  1  0  0  0  0
 10 11  1  0  0  0  0
 10 28  1  0  0  0  0
 10 29  1  0  0  0  0
 11 12  1  0  0  0  0
 12 13  1  0  0  0  0
 12 30  1  0  0  0  0
 12 31  1  0  0  0  0
 13 19  1  0  0  0  0
 13 14  2  0  0  0  0
 14 15  1  0  0  0  0
 14 32  1  0  0  0  0
 15 16  2  0  0  0  0
 15 33  1  0  0  0  0
 16 17  1  0  0  0  0
 16 18  1  0  0  0  0
 18 19  2  0  0  0  0
 18 34  1  0  0  0  0
 19 35  1  0  0  0  0
 20 21  2  0  0  0  0
 20 36  1  0  0  0  0
 21 22  1  0  0  0  0
M  END
> <s_m_source_file>
AV-unprocessed.smi

> <i_m_source_file_index>
688

> <i_lp_mmshare_version>
43012

> <i_f3d_flags>
0

> <s_epik_input>
Tz1jMVtuSF1jKD1PKW4oW2NIXWMxQ2wpW0NIMl1bQ0BIXShbT0hdKVtDSDJdT1tDSDJdYzJbY0hdW2NIXWMoQ2wpW2NIXVtjSF0y

> <s_epik_cmdline>
J2VwaWtfcHl0aG9uJywgJy1waCcsICc3LjAnLCAnLXRuJywgJzgnLCAnLW1hJywgJzIwMCcsICctbWV0YWxfYmluZGluZycsICctaW1hZScsICc8aW5maWxlLm1hZT4nLCAnLW9tYWUnLCAnPG91dGZpbGUubWFlPic=

> <r_lp_tautomer_probability>
0.999537

> <r_epik_Ionization_Penalty>
0.0280571

> <r_epik_Ionization_Penalty_Charging>
0.028057

> <r_epik_Ionization_Penalty_Neutral>
6.25502e-08

> <r_epik_State_Penalty>
0.0230008

> <r_epik_Charging_Adjusted_Penalty>
0.0510579

> <i_epik_Tot_Q>
0

> <i_epik_Tot_abs_Q>
0

> <r_epik_Metal_State_Penalty>
2.1942

> <b_epik_Metal_Only>
0

> <s_lp_Force_Field>
OPLS_2005

> <r_lp_Energy>
13.9943

> <b_lp_Chiralities_Consistent>
1

> <s_lp_Variant>
AV-unprocessed.smi:688-2

> <Gold.Version>
5.8.1

> <Gold.Id.Protein>
6NUR|6NUR_protein|mol2

> <Gold.PLP.Fitness>
49.7513

> <Gold.PLP.PLP>
-45.8459

> <Gold.PLP.part.hbond>
-3.0581

> <Gold.PLP.part.metal>
0.0000

> <Gold.PLP.part.buried>
-6.6188

> <Gold.PLP.part.nonpolar>
-36.9751

> <Gold.PLP.part.repulsive>
0.1473

> <Gold.PLP.ligand.clash>
0.0000

> <Gold.PLP.ligand.torsion>
0.9146

> <Gold.PLP.Chemscore.Hbond>
1.8453

> <Gold.PLP.Chemscore.CHOScore>
0.0000

> <Gold.PLP.Chemscore.Metal>
0.0000

> <Gold.Chemscore.Hbonds>
donor molecule, donor type, donor heavy atom, donor atom, acceptor molecule, acceptor atom, score
      L1  H     9    27       P1  7957  0.99
      P1  H  7989  7998       L1     9  0.30
      P1  H  8011  8017       L1     9  0.50

> <Gold.PLP.Chemscore.Internal.Correction>
0.1989

> <Gold.Rescore>
     Score         DG    S(hbond)    S(metal)    S(lipo)     H(rot)  DE(clash)    DE(int)     intcor
     14.63     -15.57       0.96        0.00     123.20       2.94       0.05       0.89       ----

> <Gold.Chemscore.Fitness>
14.6322

> <Gold.Chemscore.DG>
-15.5688

> <Gold.Chemscore.ZeroCoef>
-5.4800

> <Gold.Chemscore.Hbond>
0.9605

> <Gold.Chemscore.Metal>
0.0000

> <Gold.Chemscore.Lipo>
123.2001

> <Gold.Chemscore.Internal_Hbond>
0.0000

> <Gold.Chemscore.DEClash>
0.0475

> <Gold.Chemscore.DEInternal>
0.8891

> <Gold.Chemscore.Rot>
2.9429

> <Gold.Chemscore.Internal.Correction>
   9.000000E+99

> <Gold.Chemscore.Hbonds>
donor molecule, donor type, donor heavy atom, donor atom, acceptor molecule, acceptor atom, score
      L1  H     9    27       P1  7957  0.88
      P1  H  7989  7998       L1     9  0.04
      P1  H  8011  8017       L1     9  0.02

> <Gold.Chemscore.Hbond.Weighted>
-3.2081

> <Gold.Chemscore.Metal.Weighted>
-0.0000

> <Gold.Chemscore.Lipo.Weighted>
-14.4144

> <Gold.Chemscore.Internal_Hbond.Weighted>
0.0000

> <Gold.Chemscore.DEClash.Weighted>
0.0475

> <Gold.Chemscore.DEInternal.Weighted>
0.8891

> <Gold.Chemscore.Rot.Weighted>
7.5337

> <Gold.Chemscore.Internal.Correction.Weighted>
   9.000000E+99

> <Gold.Protein.RotatedTorsions>
[ 6907 6896 6895 6894 ] final -125.85 input  -60.11 | X-H torsion
[ 7974 7965 7964 7962 ] final   56.76 input  175.53 | X-H torsion
[ 8008 7997 7996 7995 ] final   96.33 input   59.86 | X-H torsion
[ 10167 10162 10161 10158 ] final  104.74 input  -65.29 | X-H torsion
[ 10718 10713 10712 10709 ] final  -60.91 input   66.30 | X-H torsion
[ 10763 10752 10751 10750 ] final -177.14 input  -60.55 | X-H torsion
[ 11005 11000 10999 10996 ] final  150.93 input  -57.11 | X-H torsion

> <Gold.Protein.ActiveResidues>
 VAL166  LYS551  ARG553  GLY616  TRP617  ASP618  TYR619  PRO620  LYS621  CYS622 
 ASP623  PHE694  ASN695  SER759  ASP760  ASP761  ALA762  ILE779  LEU786  VAL792 
 PHE793  MET794  SER795  GLU796  ALA797  LYS798  CYS799  TRP800  GLU811  SER814 

> <Gold.Protein.RotatedAtoms>
  150.8909  133.7244  159.2904 H   0  0  0  0  0  0  0  0  0  0  0  0  # atno 6907 bound_to 6896
  151.4794  135.1050  159.9783 H   0  0  0  0  0  0  0  0  0  0  0  0  # atno 6908 bound_to 6896
  152.4819  133.8230  159.7118 H   0  0  0  0  0  0  0  0  0  0  0  0  # atno 6909 bound_to 6896
  145.9364  139.3851  143.0390 H   0  0  0  0  0  0  0  0  0  0  0  0  # atno 7974 bound_to 7965
  156.0785  140.3274  155.7664 H   0  0  0  0  0  0  0  0  0  0  0  0  # atno 8008 bound_to 7997
  155.5191  140.0583  157.2927 H   0  0  0  0  0  0  0  0  0  0  0  0  # atno 8009 bound_to 7997
  154.4569  140.1947  156.0372 H   0  0  0  0  0  0  0  0  0  0  0  0  # atno 8010 bound_to 7997
  139.7152  144.7070  151.0962 H   0  0  0  0  0  0  0  0  0  0  0  0  # atno 10167 bound_to 10162
  156.0958  130.4193  150.0920 H   0  0  0  0  0  0  0  0  0  0  0  0  # atno 10718 bound_to 10713
  154.5638  135.2822  155.0893 H   0  0  0  0  0  0  0  0  0  0  0  0  # atno 10763 bound_to 10752
  154.2292  135.6377  153.5173 H   0  0  0  0  0  0  0  0  0  0  0  0  # atno 10764 bound_to 10752
  153.0037  135.5533  154.6240 H   0  0  0  0  0  0  0  0  0  0  0  0  # atno 10765 bound_to 10752
  140.1174  134.8885  157.2023 H   0  0  0  0  0  0  0  0  0  0  0  0  # atno 11005 bound_to 11000
  145.8358  140.9607  143.0825 LP  0  0  0  0  0  0  0  0  0  0  0  0  # atno 17320 bound_to 7965
  144.6772  140.0221  143.7483 LP  0  0  0  0  0  0  0  0  0  0  0  0  # atno 17321 bound_to 7965
  140.7742  143.5240  150.9503 LP  0  0  0  0  0  0  0  0  0  0  0  0  # atno 17342 bound_to 10162
  139.8925  143.6935  152.3143 LP  0  0  0  0  0  0  0  0  0  0  0  0  # atno 17343 bound_to 10162
  156.8919  130.9591  151.3587 LP  0  0  0  0  0  0  0  0  0  0  0  0  # atno 17370 bound_to 10713
  157.6118  130.8589  149.8964 LP  0  0  0  0  0  0  0  0  0  0  0  0  # atno 17371 bound_to 10713
  140.3010  134.3131  155.7290 LP  0  0  0  0  0  0  0  0  0  0  0  0  # atno 17394 bound_to 11000
  141.2144  133.7592  156.9641 LP  0  0  0  0  0  0  0  0  0  0  0  0  # atno 17395 bound_to 11000

$$$$
