AV-unprocessed.smi:1561|AV-procd|sdf|6283|dock4
  -GOLD-   22720 6483D 1   1.00000     0.00000
 Structure written by MMmdl.
 33 34  0  0  0  0  0  0  0  0  1 V2000
  153.1622  141.9330  161.2982 C   0  0  0  0  0  0  0  0  0  0  0  0
  152.2653  141.6872  160.0675 C   0  0  2  0  0  0  0  0  0  0  0  0
  152.6807  140.4427  159.2684 C   0  0  0  0  0  0  0  0  0  0  0  0
  153.8518  140.2774  158.9249 O   0  0  0  0  0  0  0  0  0  0  0  0
  151.6959  139.5834  158.9601 N   0  0  0  0  0  0  0  0  0  0  0  0
  151.8398  138.3946  158.1270 C   0  0  0  0  0  0  0  0  0  0  0  0
  151.2643  138.6228  156.7165 C   0  0  2  0  0  0  0  0  0  0  0  0
  151.6177  137.5266  155.7194 C   0  0  0  0  0  0  0  0  0  0  0  0
  151.7860  138.2647  154.3865 C   0  0  0  0  0  0  0  0  0  0  0  0
  151.4459  139.6192  154.6501 O   0  0  0  0  0  0  0  0  0  0  0  0
  151.7580  139.8829  156.0067 C   0  0  0  0  0  0  0  0  0  0  0  0
  152.2037  142.8467  159.1840 N   0  0  0  0  0  0  0  0  0  0  0  0
  152.7824  144.0860  159.3708 C   0  0  0  0  0  0  0  0  0  0  0  0
  152.4182  144.8735  158.3165 C   0  0  0  0  0  0  0  0  0  0  0  0
  151.5918  144.0240  157.5304 C   0  0  0  0  0  0  0  0  0  0  0  0
  151.4578  142.8172  158.0547 N   0  0  0  0  0  0  0  0  0  0  0  0
  153.1504  141.0738  161.9697 H   0  0  0  0  0  0  0  0  0  0  0  0
  152.8127  142.7954  161.8666 H   0  0  0  0  0  0  0  0  0  0  0  0
  154.2006  142.1197  161.0208 H   0  0  0  0  0  0  0  0  0  0  0  0
  151.2540  141.5131  160.4385 H   0  0  0  0  0  0  0  0  0  0  0  0
  150.7652  139.7957  159.2889 H   0  0  0  0  0  0  0  0  0  0  0  0
  152.8831  138.0789  158.0710 H   0  0  0  0  0  0  0  0  0  0  0  0
  151.3014  137.5804  158.6127 H   0  0  0  0  0  0  0  0  0  0  0  0
  150.1765  138.6809  156.7807 H   0  0  0  0  0  0  0  0  0  0  0  0
  152.5493  137.0257  155.9861 H   0  0  0  0  0  0  0  0  0  0  0  0
  150.8350  136.7688  155.6715 H   0  0  0  0  0  0  0  0  0  0  0  0
  152.8219  138.2127  154.0484 H   0  0  0  0  0  0  0  0  0  0  0  0
  151.1515  137.8545  153.6004 H   0  0  0  0  0  0  0  0  0  0  0  0
  151.2654  140.7891  156.3608 H   0  0  0  0  0  0  0  0  0  0  0  0
  152.8364  140.0081  156.1185 H   0  0  0  0  0  0  0  0  0  0  0  0
  153.3979  144.3032  160.2312 H   0  0  0  0  0  0  0  0  0  0  0  0
  152.6945  145.9019  158.1375 H   0  0  0  0  0  0  0  0  0  0  0  0
  151.0846  144.2484  156.6035 H   0  0  0  0  0  0  0  0  0  0  0  0
  1  2  1  0  0  0  0
  1 17  1  0  0  0  0
  1 18  1  0  0  0  0
  1 19  1  0  0  0  0
  2  3  1  0  0  0  0
  2 12  1  0  0  0  0
  2 20  1  0  0  0  0
  3  4  2  0  0  0  0
  3  5  1  0  0  0  0
  5  6  1  0  0  0  0
  5 21  1  0  0  0  0
  6  7  1  0  0  0  0
  6 22  1  0  0  0  0
  6 23  1  0  0  0  0
  7 11  1  0  0  0  0
  7  8  1  0  0  0  0
  7 24  1  0  0  0  0
  8  9  1  0  0  0  0
  8 25  1  0  0  0  0
  8 26  1  0  0  0  0
  9 10  1  0  0  0  0
  9 27  1  0  0  0  0
  9 28  1  0  0  0  0
 10 11  1  0  0  0  0
 11 29  1  0  0  0  0
 11 30  1  0  0  0  0
 12 16  1  0  0  0  0
 12 13  1  0  0  0  0
 13 14  2  0  0  0  0
 13 31  1  0  0  0  0
 14 15  1  0  0  0  0
 14 32  1  0  0  0  0
 15 16  2  0  0  0  0
 15 33  1  0  0  0  0
M  END
> <s_m_source_file>
AV-unprocessed.smi

> <i_m_source_file_index>
1561

> <i_lp_mmshare_version>
43012

> <i_f3d_flags>
0

> <s_epik_input>
bjFbY0hdW2NIXVtjSF1uMVtDQEhdKFtDSDNdKUMoPU8pW05IXVtDSDJdW0NAQEhdMltDSDJdW0NIMl1PW0NIMl0y

> <s_epik_cmdline>
J2VwaWtfcHl0aG9uJywgJy1waCcsICc3LjAnLCAnLXRuJywgJzgnLCAnLW1hJywgJzIwMCcsICctbWV0YWxfYmluZGluZycsICctaW1hZScsICc8aW5maWxlLm1hZT4nLCAnLW9tYWUnLCAnPG91dGZpbGUubWFlPic=

> <r_lp_tautomer_probability>
1

> <r_epik_Ionization_Penalty>
3.82077e-05

> <r_epik_Ionization_Penalty_Charging>
0

> <r_epik_Ionization_Penalty_Neutral>
3.82077e-05

> <r_epik_State_Penalty>
-0

> <r_epik_Charging_Adjusted_Penalty>
0

> <i_epik_Tot_Q>
0

> <i_epik_Tot_abs_Q>
0

> <r_epik_Metal_State_Penalty>
-0

> <b_epik_Metal_Only>
0

> <s_lp_Force_Field>
OPLS_2005

> <r_lp_Energy>
22.2594

> <b_lp_Chiralities_Consistent>
1

> <s_lp_Variant>
AV-unprocessed.smi:1561-1

> <Gold.Version>
5.8.1

> <Gold.Id.Protein>
6NUR|6NUR_protein|mol2

> <Gold.PLP.Fitness>
43.5902

> <Gold.PLP.PLP>
-35.9305

> <Gold.PLP.part.hbond>
-2.0000

> <Gold.PLP.part.metal>
0.0000

> <Gold.PLP.part.buried>
-4.0258

> <Gold.PLP.part.nonpolar>
-30.2433

> <Gold.PLP.part.repulsive>
0.2626

> <Gold.PLP.ligand.clash>
0.0000

> <Gold.PLP.ligand.torsion>
0.5462

> <Gold.PLP.Chemscore.Hbond>
1.8800

> <Gold.PLP.Chemscore.CHOScore>
1.0000

> <Gold.PLP.Chemscore.Metal>
0.0000

> <Gold.Chemscore.Hbonds>
donor molecule, donor type, donor heavy atom, donor atom, acceptor molecule, acceptor atom, score
      P1  H  7989  7998       L1    10  1.00
      P1  H  7997  8009       L1     4  0.90
      L1  C    15    33       P1  8028  1.00

> <Gold.PLP.Chemscore.Internal.Correction>
0.1121

> <Gold.Rescore>
     Score         DG    S(hbond)    S(metal)    S(lipo)     H(rot)  DE(clash)    DE(int)     intcor
     17.93     -18.35       1.85        0.00      92.49       1.61       0.04       0.39       ----

> <Gold.Chemscore.Fitness>
17.9300

> <Gold.Chemscore.DG>
-18.3536

> <Gold.Chemscore.ZeroCoef>
-5.4800

> <Gold.Chemscore.Hbond>
1.8480

> <Gold.Chemscore.Metal>
0.0000

> <Gold.Chemscore.Lipo>
92.4911

> <Gold.Chemscore.Internal_Hbond>
0.0000

> <Gold.Chemscore.DEClash>
0.0352

> <Gold.Chemscore.DEInternal>
0.3884

> <Gold.Chemscore.Rot>
1.6094

> <Gold.Chemscore.Internal.Correction>
   9.000000E+99

> <Gold.Chemscore.Hbonds>
donor molecule, donor type, donor heavy atom, donor atom, acceptor molecule, acceptor atom, score
      P1  H  7989  7998       L1    10  0.96
      P1  H  7997  8009       L1     4  0.87

> <Gold.Chemscore.Hbond.Weighted>
-6.1722

> <Gold.Chemscore.Metal.Weighted>
-0.0000

> <Gold.Chemscore.Lipo.Weighted>
-10.8215

> <Gold.Chemscore.Internal_Hbond.Weighted>
0.0000

> <Gold.Chemscore.DEClash.Weighted>
0.0352

> <Gold.Chemscore.DEInternal.Weighted>
0.3884

> <Gold.Chemscore.Rot.Weighted>
4.1201

> <Gold.Chemscore.Internal.Correction.Weighted>
   9.000000E+99

> <Gold.Protein.RotatedTorsions>
[ 6907 6896 6895 6894 ] final   19.90 input  -60.11 | X-H torsion
[ 7974 7965 7964 7962 ] final   48.87 input  175.53 | X-H torsion
[ 8008 7997 7996 7995 ] final  134.89 input   59.86 | X-H torsion
[ 10167 10162 10161 10158 ] final   23.69 input  -65.29 | X-H torsion
[ 10718 10713 10712 10709 ] final  146.64 input   66.30 | X-H torsion
[ 10763 10752 10751 10750 ] final  -63.94 input  -60.55 | X-H torsion
[ 11005 11000 10999 10996 ] final -103.49 input  -57.11 | X-H torsion

> <Gold.Protein.ActiveResidues>
 VAL166  LYS551  ARG553  GLY616  TRP617  ASP618  TYR619  PRO620  LYS621  CYS622 
 ASP623  PHE694  ASN695  SER759  ASP760  ASP761  ALA762  ILE779  LEU786  VAL792 
 PHE793  MET794  SER795  GLU796  ALA797  LYS798  CYS799  TRP800  GLU811  SER814 

> <Gold.Protein.RotatedAtoms>
  151.8880  135.0427  160.0494 H   0  0  0  0  0  0  0  0  0  0  0  0  # atno 6907 bound_to 6896
  152.2459  133.5169  159.5305 H   0  0  0  0  0  0  0  0  0  0  0  0  # atno 6908 bound_to 6896
  150.7068  134.0942  159.3985 H   0  0  0  0  0  0  0  0  0  0  0  0  # atno 6909 bound_to 6896
  146.0163  139.4600  142.9925 H   0  0  0  0  0  0  0  0  0  0  0  0  # atno 7974 bound_to 7965
  156.3001  140.2484  156.3491 H   0  0  0  0  0  0  0  0  0  0  0  0  # atno 8008 bound_to 7997
  154.8982  140.0407  157.1897 H   0  0  0  0  0  0  0  0  0  0  0  0  # atno 8009 bound_to 7997
  154.8527  140.2908  155.5592 H   0  0  0  0  0  0  0  0  0  0  0  0  # atno 8010 bound_to 7997
  140.5248  143.9941  150.6435 H   0  0  0  0  0  0  0  0  0  0  0  0  # atno 10167 bound_to 10162
  157.3307  131.0920  151.1165 H   0  0  0  0  0  0  0  0  0  0  0  0  # atno 10718 bound_to 10713
  154.3227  135.6193  153.5515 H   0  0  0  0  0  0  0  0  0  0  0  0  # atno 10763 bound_to 10752
  152.9818  135.5728  154.5052 H   0  0  0  0  0  0  0  0  0  0  0  0  # atno 10764 bound_to 10752
  154.4723  135.2860  155.1610 H   0  0  0  0  0  0  0  0  0  0  0  0  # atno 10765 bound_to 10752
  141.1143  133.8645  157.1493 H   0  0  0  0  0  0  0  0  0  0  0  0  # atno 11005 bound_to 11000
  145.7263  141.0058  143.1375 LP  0  0  0  0  0  0  0  0  0  0  0  0  # atno 17320 bound_to 7965
  144.6972  139.8930  143.7454 LP  0  0  0  0  0  0  0  0  0  0  0  0  # atno 17321 bound_to 7965
  140.3300  143.3084  152.0697 LP  0  0  0  0  0  0  0  0  0  0  0  0  # atno 17342 bound_to 10162
  139.4935  144.6516  151.6664 LP  0  0  0  0  0  0  0  0  0  0  0  0  # atno 17343 bound_to 10162
  157.2414  130.6571  149.5891 LP  0  0  0  0  0  0  0  0  0  0  0  0  # atno 17370 bound_to 10713
  155.9695  130.4567  150.5935 LP  0  0  0  0  0  0  0  0  0  0  0  0  # atno 17371 bound_to 10713
  140.0056  135.0010  157.0284 LP  0  0  0  0  0  0  0  0  0  0  0  0  # atno 17394 bound_to 11000
  140.4689  134.1407  155.7200 LP  0  0  0  0  0  0  0  0  0  0  0  0  # atno 17395 bound_to 11000

$$$$
