AV-unprocessed.smi:1918|AV-procd|sdf|7769|dock7
  -GOLD-   22720 9513D 1   1.00000     0.00000
 Structure written by MMmdl.
 35 37  0  0  0  0  0  0  0  0  1 V2000
  152.4259  138.8899  155.4117 C   0  0  0  0  0  0  0  0  0  0  0  0
  151.1381  139.6504  155.4342 C   0  0  0  0  0  0  0  0  0  0  0  0
  150.5992  140.1671  154.3295 N   0  0  0  0  0  0  0  0  0  0  0  0
  149.4490  140.7669  154.8052 C   0  0  0  0  0  0  0  0  0  0  0  0
  148.4402  141.4882  154.1273 C   0  0  0  0  0  0  0  0  0  0  0  0
  147.3417  142.0171  154.8365 C   0  0  0  0  0  0  0  0  0  0  0  0
  147.2356  141.8326  156.2304 C   0  0  0  0  0  0  0  0  0  0  0  0
  148.2290  141.1160  156.9251 C   0  0  0  0  0  0  0  0  0  0  0  0
  149.3233  140.5906  156.2125 C   0  0  0  0  0  0  0  0  0  0  0  0
  150.4457  139.8566  156.5817 N   0  0  0  0  0  0  0  0  0  0  0  0
  150.7752  139.4152  157.9300 C   0  0  0  0  0  0  0  0  0  0  0  0
  152.1321  139.9604  158.4174 C   0  0  2  0  0  0  0  0  0  0  0  0
  152.5924  139.1968  159.5166 O   0  0  0  0  0  0  0  0  0  0  0  0
  152.0436  141.4470  158.7362 C   0  0  0  0  0  0  0  0  0  0  0  0
  150.9409  142.2101  158.2902 C   0  0  0  0  0  0  0  0  0  0  0  0
  150.8644  143.5866  158.5772 C   0  0  0  0  0  0  0  0  0  0  0  0
  151.8920  144.2116  159.3083 C   0  0  0  0  0  0  0  0  0  0  0  0
  151.8189  145.5353  159.5840 F   0  0  0  0  0  0  0  0  0  0  0  0
  152.9973  143.4598  159.7493 C   0  0  0  0  0  0  0  0  0  0  0  0
  153.0761  142.0827  159.4632 C   0  0  0  0  0  0  0  0  0  0  0  0
  154.1519  141.3769  159.8878 F   0  0  0  0  0  0  0  0  0  0  0  0
  152.8635  138.9071  154.4130 H   0  0  0  0  0  0  0  0  0  0  0  0
  152.2546  137.8509  155.6935 H   0  0  0  0  0  0  0  0  0  0  0  0
  153.1406  139.3320  156.1057 H   0  0  0  0  0  0  0  0  0  0  0  0
  148.5121  141.6347  153.0597 H   0  0  0  0  0  0  0  0  0  0  0  0
  146.5768  142.5677  154.3084 H   0  0  0  0  0  0  0  0  0  0  0  0
  146.3917  142.2418  156.7663 H   0  0  0  0  0  0  0  0  0  0  0  0
  148.1521  140.9729  157.9928 H   0  0  0  0  0  0  0  0  0  0  0  0
  149.9800  139.7560  158.5942 H   0  0  0  0  0  0  0  0  0  0  0  0
  150.7596  138.3263  157.9748 H   0  0  0  0  0  0  0  0  0  0  0  0
  152.8703  139.8220  157.6270 H   0  0  0  0  0  0  0  0  0  0  0  0
  153.0545  138.4421  159.1847 H   0  0  0  0  0  0  0  0  0  0  0  0
  150.1493  141.7434  157.7224 H   0  0  0  0  0  0  0  0  0  0  0  0
  150.0179  144.1635  158.2346 H   0  0  0  0  0  0  0  0  0  0  0  0
  153.7881  143.9402  160.3064 H   0  0  0  0  0  0  0  0  0  0  0  0
  1  2  1  0  0  0  0
  1 22  1  0  0  0  0
  1 23  1  0  0  0  0
  1 24  1  0  0  0  0
  2 10  1  0  0  0  0
  2  3  2  0  0  0  0
  3  4  1  0  0  0  0
  4  9  2  0  0  0  0
  4  5  1  0  0  0  0
  5  6  2  0  0  0  0
  5 25  1  0  0  0  0
  6  7  1  0  0  0  0
  6 26  1  0  0  0  0
  7  8  2  0  0  0  0
  7 27  1  0  0  0  0
  8  9  1  0  0  0  0
  8 28  1  0  0  0  0
  9 10  1  0  0  0  0
 10 11  1  0  0  0  0
 11 12  1  0  0  0  0
 11 29  1  0  0  0  0
 11 30  1  0  0  0  0
 12 13  1  0  0  0  0
 12 14  1  0  0  0  0
 12 31  1  0  0  0  0
 13 32  1  0  0  0  0
 14 20  1  0  0  0  0
 14 15  2  0  0  0  0
 15 16  1  0  0  0  0
 15 33  1  0  0  0  0
 16 17  2  0  0  0  0
 16 34  1  0  0  0  0
 17 18  1  0  0  0  0
 17 19  1  0  0  0  0
 19 20  2  0  0  0  0
 19 35  1  0  0  0  0
 20 21  1  0  0  0  0
M  END
> <s_m_source_file>
AV-unprocessed.smi

> <i_m_source_file_index>
1918

> <i_lp_mmshare_version>
43012

> <i_f3d_flags>
0

> <s_epik_input>
W2NIXTFbY0hdW2NIXVtjSF1jKGMxMiluKGMobjIpW0NIM10pW0NIMl1bQ0BIXShbT0hdKWMzW2NIXVtjSF1jKEYpW2NIXWMzRg==

> <s_epik_cmdline>
J2VwaWtfcHl0aG9uJywgJy1waCcsICc3LjAnLCAnLXRuJywgJzgnLCAnLW1hJywgJzIwMCcsICctbWV0YWxfYmluZGluZycsICctaW1hZScsICc8aW5maWxlLm1hZT4nLCAnLW9tYWUnLCAnPG91dGZpbGUubWFlPic=

> <r_epik_Ionization_Penalty>
0.129663

> <r_epik_Ionization_Penalty_Charging>
0

> <r_epik_Ionization_Penalty_Neutral>
0.129663

> <r_epik_State_Penalty>
0.119073

> <r_epik_Charging_Adjusted_Penalty>
0.119073

> <i_epik_Tot_Q>
0

> <i_epik_Tot_abs_Q>
0

> <r_epik_Metal_State_Penalty>
0.000131867

> <b_epik_Metal_Only>
0

> <s_lp_Force_Field>
OPLS_2005

> <r_lp_Energy>
11.5863

> <b_lp_Chiralities_Consistent>
1

> <s_lp_Variant>
AV-unprocessed.smi:1918-1

> <Gold.Version>
5.8.1

> <Gold.Id.Protein>
6NUR|6NUR_protein|mol2

> <Gold.PLP.Fitness>
49.9509

> <Gold.PLP.PLP>
-48.0198

> <Gold.PLP.part.hbond>
-0.8970

> <Gold.PLP.part.metal>
0.0000

> <Gold.PLP.part.buried>
-5.0299

> <Gold.PLP.part.nonpolar>
-42.5266

> <Gold.PLP.part.repulsive>
0.1168

> <Gold.PLP.ligand.clash>
0.0000

> <Gold.PLP.ligand.torsion>
0.5342

> <Gold.PLP.Chemscore.Hbond>
0.9913

> <Gold.PLP.Chemscore.CHOScore>
0.0000

> <Gold.PLP.Chemscore.Metal>
0.0000

> <Gold.Chemscore.Hbonds>
donor molecule, donor type, donor heavy atom, donor atom, acceptor molecule, acceptor atom, score
      P1  H  7989  7998       L1     3  0.91

> <Gold.PLP.Chemscore.Internal.Correction>
0.0258

> <Gold.Rescore>
     Score         DG    S(hbond)    S(metal)    S(lipo)     H(rot)  DE(clash)    DE(int)     intcor
     14.58     -16.18       0.96        0.00     105.34       1.88       0.01       1.58       ----

> <Gold.Chemscore.Fitness>
14.5828

> <Gold.Chemscore.DG>
-16.1796

> <Gold.Chemscore.ZeroCoef>
-5.4800

> <Gold.Chemscore.Hbond>
0.9572

> <Gold.Chemscore.Metal>
0.0000

> <Gold.Chemscore.Lipo>
105.3435

> <Gold.Chemscore.Internal_Hbond>
0.0000

> <Gold.Chemscore.DEClash>
0.0135

> <Gold.Chemscore.DEInternal>
1.5833

> <Gold.Chemscore.Rot>
1.8839

> <Gold.Chemscore.Internal.Correction>
   9.000000E+99

> <Gold.Chemscore.Hbonds>
donor molecule, donor type, donor heavy atom, donor atom, acceptor molecule, acceptor atom, score
      P1  H  7989  7998       L1     3  0.72

> <Gold.Chemscore.Hbond.Weighted>
-3.1972

> <Gold.Chemscore.Metal.Weighted>
-0.0000

> <Gold.Chemscore.Lipo.Weighted>
-12.3252

> <Gold.Chemscore.Internal_Hbond.Weighted>
0.0000

> <Gold.Chemscore.DEClash.Weighted>
0.0135

> <Gold.Chemscore.DEInternal.Weighted>
1.5833

> <Gold.Chemscore.Rot.Weighted>
4.8227

> <Gold.Chemscore.Internal.Correction.Weighted>
   9.000000E+99

> <Gold.Protein.RotatedTorsions>
[ 6907 6896 6895 6894 ] final   15.50 input  -60.11 | X-H torsion
[ 7974 7965 7964 7962 ] final  108.55 input  175.53 | X-H torsion
[ 8008 7997 7996 7995 ] final -114.32 input   59.86 | X-H torsion
[ 10167 10162 10161 10158 ] final  160.75 input  -65.29 | X-H torsion
[ 10718 10713 10712 10709 ] final   80.54 input   66.30 | X-H torsion
[ 10763 10752 10751 10750 ] final  -45.14 input  -60.55 | X-H torsion
[ 11005 11000 10999 10996 ] final   46.76 input  -57.11 | X-H torsion

> <Gold.Protein.ActiveResidues>
 VAL166  LYS551  ARG553  GLY616  TRP617  ASP618  TYR619  PRO620  LYS621  CYS622 
 ASP623  PHE694  ASN695  SER759  ASP760  ASP761  ALA762  ILE779  LEU786  VAL792 
 PHE793  MET794  SER795  GLU796  ALA797  LYS798  CYS799  TRP800  GLU811  SER814 

> <Gold.Protein.RotatedAtoms>
  151.8191  135.0657  160.0422 H   0  0  0  0  0  0  0  0  0  0  0  0  # atno 6907 bound_to 6896
  152.2964  133.5607  159.5598 H   0  0  0  0  0  0  0  0  0  0  0  0  # atno 6908 bound_to 6896
  150.7253  134.0271  159.3763 H   0  0  0  0  0  0  0  0  0  0  0  0  # atno 6909 bound_to 6896
  145.2792  139.2638  143.3924 H   0  0  0  0  0  0  0  0  0  0  0  0  # atno 7974 bound_to 7965
  155.0346  140.0392  157.2487 H   0  0  0  0  0  0  0  0  0  0  0  0  # atno 8008 bound_to 7997
  154.7268  140.2722  155.6468 H   0  0  0  0  0  0  0  0  0  0  0  0  # atno 8009 bound_to 7997
  156.2831  140.2692  156.1956 H   0  0  0  0  0  0  0  0  0  0  0  0  # atno 8010 bound_to 7997
  139.4843  144.4604  151.8712 H   0  0  0  0  0  0  0  0  0  0  0  0  # atno 10167 bound_to 10162
  157.6809  130.9964  150.2094 H   0  0  0  0  0  0  0  0  0  0  0  0  # atno 10718 bound_to 10713
  154.0236  135.6666  153.4774 H   0  0  0  0  0  0  0  0  0  0  0  0  # atno 10763 bound_to 10752
  153.0570  135.5050  154.7999 H   0  0  0  0  0  0  0  0  0  0  0  0  # atno 10764 bound_to 10752
  154.6922  135.3063  154.9428 H   0  0  0  0  0  0  0  0  0  0  0  0  # atno 10765 bound_to 10752
  140.1340  134.4669  155.8500 H   0  0  0  0  0  0  0  0  0  0  0  0  # atno 11005 bound_to 11000
  146.3222  140.3255  142.8636 LP  0  0  0  0  0  0  0  0  0  0  0  0  # atno 17320 bound_to 7965
  144.9268  140.7930  143.5714 LP  0  0  0  0  0  0  0  0  0  0  0  0  # atno 17321 bound_to 7965
  140.4066  144.2424  150.5890 LP  0  0  0  0  0  0  0  0  0  0  0  0  # atno 17342 bound_to 10162
  140.5006  143.2319  151.8683 LP  0  0  0  0  0  0  0  0  0  0  0  0  # atno 17343 bound_to 10162
  156.2768  130.3728  149.7975 LP  0  0  0  0  0  0  0  0  0  0  0  0  # atno 17370 bound_to 10713
  156.5675  130.8410  151.3347 LP  0  0  0  0  0  0  0  0  0  0  0  0  # atno 17371 bound_to 10713
  141.2175  133.6807  156.7122 LP  0  0  0  0  0  0  0  0  0  0  0  0  # atno 17394 bound_to 11000
  140.2806  134.8319  157.3930 LP  0  0  0  0  0  0  0  0  0  0  0  0  # atno 17395 bound_to 11000

$$$$
