AV-unprocessed.smi:1047|AV-procd|sdf|4575|dock9
  -GOLD-   22720 3 33D 1   1.00000     0.00000
 Structure written by MMmdl.
 56 58  0  0  0  0  0  0  0  0  2 V2000
  147.1910  133.3800  152.0708 C   0  0  0  0  0  0  0  0  0  0  0  0
  146.8358  134.0162  153.4222 C   0  0  0  0  0  0  0  0  0  0  0  0
  147.9252  134.8739  153.9517 N   0  3  2  0  0  0  0  0  0  0  0  0
  149.0312  134.0816  154.5401 C   0  0  0  0  0  0  0  0  0  0  0  0
  150.1667  135.0064  155.0089 C   0  0  0  0  0  0  0  0  0  0  0  0
  149.6635  135.9495  155.9466 O   0  0  0  0  0  0  0  0  0  0  0  0
  148.6412  136.7712  155.3917 C   0  0  2  0  0  0  0  0  0  0  0  0
  148.2485  137.8413  156.4241 C   0  0  0  0  0  0  0  0  0  0  0  0
  147.6380  139.0066  155.7915 N   0  0  0  0  0  0  0  0  0  0  0  0
  148.2399  139.3600  154.5082 C   0  0  0  0  0  0  0  0  0  0  0  0
  149.2678  140.4975  154.6488 C   0  0  2  0  0  0  0  0  0  0  0  0
  149.5370  141.0403  153.3703 O   0  0  0  0  0  0  0  0  0  0  0  0
  150.5660  140.0882  155.3758 C   0  0  0  0  0  0  0  0  0  0  0  0
  150.9685  141.0629  156.3734 N   0  0  0  0  0  0  0  0  0  0  0  0
  150.7120  142.3849  156.3662 C   0  0  0  0  0  0  0  0  0  0  0  0
  151.1847  143.1019  157.3817 N   0  0  0  0  0  0  0  0  0  0  0  0
  151.8205  142.1314  158.1370 C   0  0  0  0  0  0  0  0  0  0  0  0
  152.5337  142.2346  159.3515 C   0  0  0  0  0  0  0  0  0  0  0  0
  153.1120  141.0936  159.9520 C   0  0  0  0  0  0  0  0  0  0  0  0
  153.8737  141.2511  161.2563 C   0  0  0  0  0  0  0  0  0  0  0  0
  152.9793  139.8227  159.3368 C   0  0  0  0  0  0  0  0  0  0  0  0
  153.5899  138.5822  159.9644 C   0  0  0  0  0  0  0  0  0  0  0  0
  152.2717  139.7021  158.1227 C   0  0  0  0  0  0  0  0  0  0  0  0
  151.7017  140.8449  157.5347 C   0  0  0  0  0  0  0  0  0  0  0  0
  147.4583  135.9008  154.9155 C   0  0  0  0  0  0  0  0  0  0  0  0
  146.4118  132.6838  151.7596 H   0  0  0  0  0  0  0  0  0  0  0  0
  148.1261  132.8224  152.1303 H   0  0  0  0  0  0  0  0  0  0  0  0
  147.2907  134.1248  151.2818 H   0  0  0  0  0  0  0  0  0  0  0  0
  145.9097  134.5881  153.3470 H   0  0  0  0  0  0  0  0  0  0  0  0
  146.6438  133.2087  154.1303 H   0  0  0  0  0  0  0  0  0  0  0  0
  148.6553  133.4945  155.3799 H   0  0  0  0  0  0  0  0  0  0  0  0
  149.4170  133.3769  153.8025 H   0  0  0  0  0  0  0  0  0  0  0  0
  150.9539  134.4223  155.4857 H   0  0  0  0  0  0  0  0  0  0  0  0
  150.6227  135.5233  154.1631 H   0  0  0  0  0  0  0  0  0  0  0  0
  149.0583  137.2929  154.5284 H   0  0  0  0  0  0  0  0  0  0  0  0
  147.5565  137.4055  157.1458 H   0  0  0  0  0  0  0  0  0  0  0  0
  149.1321  138.1455  156.9865 H   0  0  0  0  0  0  0  0  0  0  0  0
  147.6963  139.8038  156.4181 H   0  0  0  0  0  0  0  0  0  0  0  0
  148.7233  138.4877  154.0662 H   0  0  0  0  0  0  0  0  0  0  0  0
  147.4589  139.6652  153.8108 H   0  0  0  0  0  0  0  0  0  0  0  0
  148.7958  141.2950  155.2238 H   0  0  0  0  0  0  0  0  0  0  0  0
  149.3443  140.3826  152.7192 H   0  0  0  0  0  0  0  0  0  0  0  0
  150.4316  139.1253  155.8702 H   0  0  0  0  0  0  0  0  0  0  0  0
  151.3877  139.9629  154.6700 H   0  0  0  0  0  0  0  0  0  0  0  0
  150.1498  142.8473  155.5681 H   0  0  0  0  0  0  0  0  0  0  0  0
  152.6346  143.2029  159.8195 H   0  0  0  0  0  0  0  0  0  0  0  0
  153.4090  140.6579  162.0442 H   0  0  0  0  0  0  0  0  0  0  0  0
  153.8896  142.2904  161.5855 H   0  0  0  0  0  0  0  0  0  0  0  0
  154.9064  140.9227  161.1379 H   0  0  0  0  0  0  0  0  0  0  0  0
  153.3819  137.6919  159.3703 H   0  0  0  0  0  0  0  0  0  0  0  0
  153.1834  138.4197  160.9629 H   0  0  0  0  0  0  0  0  0  0  0  0
  154.6722  138.6867  160.0428 H   0  0  0  0  0  0  0  0  0  0  0  0
  152.1669  138.7412  157.6410 H   0  0  0  0  0  0  0  0  0  0  0  0
  146.7057  136.5397  154.4545 H   0  0  0  0  0  0  0  0  0  0  0  0
  146.9808  135.4042  155.7616 H   0  0  0  0  0  0  0  0  0  0  0  0
  148.3175  135.3650  153.1610 H   0  0  0  0  0  0  0  0  0  0  0  0
  1  2  1  0  0  0  0
  1 26  1  0  0  0  0
  1 27  1  0  0  0  0
  1 28  1  0  0  0  0
  2  3  1  0  0  0  0
  2 29  1  0  0  0  0
  2 30  1  0  0  0  0
  3 25  1  0  0  0  0
  3  4  1  0  0  0  0
  3 56  1  0  0  0  0
  4  5  1  0  0  0  0
  4 31  1  0  0  0  0
  4 32  1  0  0  0  0
  5  6  1  0  0  0  0
  5 33  1  0  0  0  0
  5 34  1  0  0  0  0
  6  7  1  0  0  0  0
  7  8  1  0  0  0  0
  7 25  1  0  0  0  0
  7 35  1  0  0  0  0
  8  9  1  0  0  0  0
  8 36  1  0  0  0  0
  8 37  1  0  0  0  0
  9 10  1  0  0  0  0
  9 38  1  0  0  0  0
 10 11  1  0  0  0  0
 10 39  1  0  0  0  0
 10 40  1  0  0  0  0
 11 12  1  0  0  0  0
 11 13  1  0  0  0  0
 11 41  1  0  0  0  0
 12 42  1  0  0  0  0
 13 14  1  0  0  0  0
 13 43  1  0  0  0  0
 13 44  1  0  0  0  0
 14 24  1  0  0  0  0
 14 15  1  0  0  0  0
 15 16  2  0  0  0  0
 15 45  1  0  0  0  0
 16 17  1  0  0  0  0
 17 24  2  0  0  0  0
 17 18  1  0  0  0  0
 18 19  2  0  0  0  0
 18 46  1  0  0  0  0
 19 20  1  0  0  0  0
 19 21  1  0  0  0  0
 20 47  1  0  0  0  0
 20 48  1  0  0  0  0
 20 49  1  0  0  0  0
 21 22  1  0  0  0  0
 21 23  2  0  0  0  0
 22 50  1  0  0  0  0
 22 51  1  0  0  0  0
 22 52  1  0  0  0  0
 23 24  1  0  0  0  0
 23 53  1  0  0  0  0
 25 54  1  0  0  0  0
 25 55  1  0  0  0  0
M  CHG  1   3   1
M  END
> <s_m_source_file>
AV-unprocessed.smi

> <i_m_source_file_index>
1047

> <i_lp_mmshare_version>
43012

> <i_f3d_flags>
0

> <s_epik_input>
W0NIM11bQ0gyXU4xW0NIMl1bQ0gyXU9bQ0BIXShbQ0gyXTEpW0NIMl1bTkhdW0NIMl1bQ0BIXShbT0hdKVtDSDJdbihbY0hdbjIpYyhjMjMpW2NIXWMoW0NIM10pYyhbY0hdMylbQ0gzXQ==

> <s_epik_cmdline>
J2VwaWtfcHl0aG9uJywgJy1waCcsICc3LjAnLCAnLXRuJywgJzgnLCAnLW1hJywgJzIwMCcsICctbWV0YWxfYmluZGluZycsICctaW1hZScsICc8aW5maWxlLm1hZT4nLCAnLW9tYWUnLCAnPG91dGZpbGUubWFlPic=

> <r_epik_Ionization_Penalty>
1.19246

> <r_epik_Ionization_Penalty_Charging>
0.210041

> <r_epik_Ionization_Penalty_Neutral>
0.982415

> <r_epik_State_Penalty>
1.57595

> <r_epik_Charging_Adjusted_Penalty>
1.78599

> <i_epik_Tot_Q>
1

> <i_epik_Tot_abs_Q>
1

> <r_epik_Metal_State_Penalty>
1.46172

> <b_epik_Metal_Only>
0

> <s_lp_Force_Field>
OPLS_2005

> <r_lp_Energy>
33.3518

> <b_lp_Chiralities_Consistent>
1

> <s_lp_Variant>
AV-unprocessed.smi:1047-16

> <Gold.Version>
5.8.1

> <Gold.Id.Protein>
6NUR|6NUR_protein|mol2

> <Gold.PLP.Fitness>
54.1207

> <Gold.PLP.PLP>
-42.6494

> <Gold.PLP.part.hbond>
-3.6275

> <Gold.PLP.part.metal>
0.0000

> <Gold.PLP.part.buried>
-3.8135

> <Gold.PLP.part.nonpolar>
-35.4458

> <Gold.PLP.part.repulsive>
0.1840

> <Gold.PLP.ligand.clash>
0.0000

> <Gold.PLP.ligand.torsion>
1.8585

> <Gold.PLP.Chemscore.Hbond>
4.0176

> <Gold.PLP.Chemscore.CHOScore>
0.9578

> <Gold.PLP.Chemscore.Metal>
0.0000

> <Gold.Chemscore.Hbonds>
donor molecule, donor type, donor heavy atom, donor atom, acceptor molecule, acceptor atom, score
      L1  H     3    56       P1  7948  2.00
      L1  H    12    42       P1  7957  0.82
      P1  H  7989  7998       L1    12  0.16
      P1  H  8011  8017       L1    12  0.95
      L1  C    15    45       P1  8028  0.97

> <Gold.PLP.Chemscore.Internal.Correction>
0.2620

> <Gold.Rescore>
     Score         DG    S(hbond)    S(metal)    S(lipo)     H(rot)  DE(clash)    DE(int)     intcor
     16.52     -18.52       2.26        0.00     104.28       2.62       0.04       1.96       ----

> <Gold.Chemscore.Fitness>
16.5162

> <Gold.Chemscore.DG>
-18.5183

> <Gold.Chemscore.ZeroCoef>
-5.4800

> <Gold.Chemscore.Hbond>
2.2598

> <Gold.Chemscore.Metal>
0.0000

> <Gold.Chemscore.Lipo>
104.2765

> <Gold.Chemscore.Internal_Hbond>
0.0000

> <Gold.Chemscore.DEClash>
0.0440

> <Gold.Chemscore.DEInternal>
1.9581

> <Gold.Chemscore.Rot>
2.6209

> <Gold.Chemscore.Internal.Correction>
   9.000000E+99

> <Gold.Chemscore.Hbonds>
donor molecule, donor type, donor heavy atom, donor atom, acceptor molecule, acceptor atom, score
      L1  H     3    56       P1  7948  0.99
      L1  H    12    42       P1  7957  0.81
      P1  H  7989  7998       L1    12  0.01
      P1  H  8011  8017       L1    12  0.21

> <Gold.Chemscore.Hbond.Weighted>
-7.5476

> <Gold.Chemscore.Metal.Weighted>
-0.0000

> <Gold.Chemscore.Lipo.Weighted>
-12.2004

> <Gold.Chemscore.Internal_Hbond.Weighted>
0.0000

> <Gold.Chemscore.DEClash.Weighted>
0.0440

> <Gold.Chemscore.DEInternal.Weighted>
1.9581

> <Gold.Chemscore.Rot.Weighted>
6.7096

> <Gold.Chemscore.Internal.Correction.Weighted>
   9.000000E+99

> <Gold.Protein.RotatedTorsions>
[ 6907 6896 6895 6894 ] final  119.80 input  -60.11 | X-H torsion
[ 7974 7965 7964 7962 ] final   -4.03 input  175.53 | X-H torsion
[ 8008 7997 7996 7995 ] final   43.75 input   59.86 | X-H torsion
[ 10167 10162 10161 10158 ] final -158.79 input  -65.29 | X-H torsion
[ 10718 10713 10712 10709 ] final  -20.42 input   66.30 | X-H torsion
[ 10763 10752 10751 10750 ] final  166.25 input  -60.55 | X-H torsion
[ 11005 11000 10999 10996 ] final   24.52 input  -57.11 | X-H torsion

> <Gold.Protein.ActiveResidues>
 VAL166  LYS551  ARG553  GLY616  TRP617  ASP618  TYR619  PRO620  LYS621  CYS622 
 ASP623  PHE694  ASN695  SER759  ASP760  ASP761  ALA762  ILE779  LEU786  VAL792 
 PHE793  MET794  SER795  GLU796  ALA797  LYS798  CYS799  TRP800  GLU811  SER814 

> <Gold.Protein.RotatedAtoms>
  152.4445  133.7510  159.6693 H   0  0  0  0  0  0  0  0  0  0  0  0  # atno 6907 bound_to 6896
  150.8342  133.8030  159.3092 H   0  0  0  0  0  0  0  0  0  0  0  0  # atno 6908 bound_to 6896
  151.5675  135.1066  160.0039 H   0  0  0  0  0  0  0  0  0  0  0  0  # atno 6909 bound_to 6896
  146.2379  140.1810  142.8332 H   0  0  0  0  0  0  0  0  0  0  0  0  # atno 7974 bound_to 7965
  155.3079  140.3389  155.4245 H   0  0  0  0  0  0  0  0  0  0  0  0  # atno 8008 bound_to 7997
  156.1970  140.1718  156.8016 H   0  0  0  0  0  0  0  0  0  0  0  0  # atno 8009 bound_to 7997
  154.5511  140.0705  156.8653 H   0  0  0  0  0  0  0  0  0  0  0  0  # atno 8010 bound_to 7997
  139.6665  143.9820  152.2258 H   0  0  0  0  0  0  0  0  0  0  0  0  # atno 10167 bound_to 10162
  156.5321  130.4657  149.6541 H   0  0  0  0  0  0  0  0  0  0  0  0  # atno 10718 bound_to 10713
  154.3363  135.2754  155.2446 H   0  0  0  0  0  0  0  0  0  0  0  0  # atno 10763 bound_to 10752
  154.4736  135.5876  153.6342 H   0  0  0  0  0  0  0  0  0  0  0  0  # atno 10764 bound_to 10752
  152.9861  135.6094  154.3560 H   0  0  0  0  0  0  0  0  0  0  0  0  # atno 10765 bound_to 10752
  140.3578  134.2159  155.7674 H   0  0  0  0  0  0  0  0  0  0  0  0  # atno 11005 bound_to 11000
  144.9935  140.8568  143.5325 LP  0  0  0  0  0  0  0  0  0  0  0  0  # atno 17320 bound_to 7965
  145.1819  139.2347  143.5288 LP  0  0  0  0  0  0  0  0  0  0  0  0  # atno 17321 bound_to 7965
  139.9573  144.6581  150.8113 LP  0  0  0  0  0  0  0  0  0  0  0  0  # atno 17342 bound_to 10162
  140.7601  143.3144  151.2768 LP  0  0  0  0  0  0  0  0  0  0  0  0  # atno 17343 bound_to 10162
  156.3050  130.7197  151.2078 LP  0  0  0  0  0  0  0  0  0  0  0  0  # atno 17370 bound_to 10713
  157.7420  131.0496  150.5057 LP  0  0  0  0  0  0  0  0  0  0  0  0  # atno 17371 bound_to 10713
  141.1993  133.8014  157.0542 LP  0  0  0  0  0  0  0  0  0  0  0  0  # atno 17394 bound_to 11000
  140.0651  134.9733  157.1372 LP  0  0  0  0  0  0  0  0  0  0  0  0  # atno 17395 bound_to 11000

$$$$
