#       Name:                AV-unprocessed.smi:2144
#       Creating user name   scv26
#       Creation time:       Fri Mar 27 11:50:17 2020


#       File generated by GOLD software.
#

@<TRIPOS>MOLECULE
AV-unprocessed.smi:2144
    47    49     1
SMALL
NO_CHARGES


@<TRIPOS>ATOM
      1 ****        -2.3016   1.1896   2.8220 O.3            1 S1                 0.0000
      2 ****        -1.1583   1.8781   2.3673 C.3            1 S1                 0.0000
      3 ****        -1.3081   2.3554   0.9607 C.2            1 S1                 0.0000
      4 ****        -1.7737   3.5775   0.5775 N.pl3          1 S1                 1.0000
      5 ****        -1.7847   3.6634  -0.8151 C.ar           1 S1                 0.0000
      6 ****        -2.1709   4.6992  -1.6602 C.ar           1 S1                 0.0000
      7 ****        -2.0550   4.4625  -3.0457 C.ar           1 S1                 0.0000
      8 ****        -1.5712   3.2347  -3.5423 C.ar           1 S1                 0.0000
      9 ****        -1.1843   2.1912  -2.6758 C.ar           1 S1                 0.0000
     10 ****        -1.3026   2.4327  -1.3070 C.ar           1 S1                 0.0000
     11 ****        -1.0223   1.6568  -0.1754 N.pl3          1 S1                 0.0000
     12 ****        -0.5040   0.2887  -0.3348 C.3            1 S1                 0.0000
     13 ****         1.0333   0.2178  -0.2402 C.3            1 S1                 0.0000
     14 ****         1.6173   0.9820  -1.2758 O.3            1 S1                 0.0000
     15 ****         1.5614  -1.2209  -0.3342 C.3            1 S1                 0.0000
     16 ****         1.1511  -1.9328   0.8255 O.3            1 S1                 0.0000
     17 ****         1.5121  -3.2581   0.9433 C.ar           1 S1                 0.0000
     18 ****         2.2948  -3.9571  -0.0108 C.ar           1 S1                 0.0000
     19 ****         2.6188  -5.3134   0.1879 C.ar           1 S1                 0.0000
     20 ****         2.1677  -5.9867   1.3380 C.ar           1 S1                 0.0000
     21 ****         1.3912  -5.3015   2.2904 C.ar           1 S1                 0.0000
     22 ****         1.0662  -3.9455   2.0926 C.ar           1 S1                 0.0000
     23 ****         0.3170  -3.2975   3.0166 F              1 S1                 0.0000
     24 ****        -2.1421   0.8911   3.7046 H              1 S1                 0.0000
     25 ****        -0.9712   2.7299   3.0215 H              1 S1                 0.0000
     26 ****        -0.2923   1.2202   2.4420 H              1 S1                 0.0000
     27 ****        -2.5417   5.6407  -1.2821 H              1 S1                 0.0000
     28 ****        -2.3421   5.2380  -3.7411 H              1 S1                 0.0000
     29 ****        -1.4944   3.0895  -4.6101 H              1 S1                 0.0000
     30 ****        -0.8119   1.2569  -3.0691 H              1 S1                 0.0000
     31 ****        -0.9546  -0.3163   0.4528 H              1 S1                 0.0000
     32 ****        -0.8636  -0.1294  -1.2752 H              1 S1                 0.0000
     33 ****         1.3622   0.6507   0.7052 H              1 S1                 0.0000
     34 ****         1.3493   1.8818  -1.1698 H              1 S1                 0.0000
     35 ****         1.1859  -1.7017  -1.2393 H              1 S1                 0.0000
     36 ****         2.6518  -1.2082  -0.3836 H              1 S1                 0.0000
     37 ****         2.6606  -3.4752  -0.9046 H              1 S1                 0.0000
     38 ****         3.2154  -5.8371  -0.5445 H              1 S1                 0.0000
     39 ****         2.4170  -7.0266   1.4894 H              1 S1                 0.0000
     40 ****         1.0437  -5.8159   3.1742 H              1 S1                 0.0000
     41 ****        -2.0672   4.2969   1.2258 H              1 S1                 0.0000
     42 ****        -2.4810   0.4052   2.2282 LP             1 S1                 0.0000
     43 ****        -3.0910   1.8033   2.8113 LP             1 S1                 0.0000
     44 ****         1.3086   0.6399  -2.1633 LP             1 S1                 0.0000
     45 ****         2.6138   0.9178  -1.2222 LP             1 S1                 0.0000
     46 ****         0.1524  -1.8945   0.8580 LP             1 S1                 0.0000
     47 ****         1.5291  -1.4520   1.6167 LP             1 S1                 0.0000
@<TRIPOS>BOND
    1    1    2 1     
    2    1   24 1     
    3    2    3 1     
    4    2   25 1     
    5    2   26 1     
    6    3   11 1     
    7    3    4 2     
    8    4    5 1     
    9    4   41 1     
   10    5   10 ar    
   11    5    6 ar    
   12    6    7 ar    
   13    6   27 1     
   14    7    8 ar    
   15    7   28 1     
   16    8    9 ar    
   17    8   29 1     
   18    9   10 ar    
   19    9   30 1     
   20   10   11 1     
   21   11   12 1     
   22   12   13 1     
   23   12   31 1     
   24   12   32 1     
   25   13   14 1     
   26   13   15 1     
   27   13   33 1     
   28   14   34 1     
   29   15   16 1     
   30   15   35 1     
   31   15   36 1     
   32   16   17 1     
   33   17   22 ar    
   34   17   18 ar    
   35   18   19 ar    
   36   18   37 1     
   37   19   20 ar    
   38   19   38 1     
   39   20   21 ar    
   40   20   39 1     
   41   21   22 ar    
   42   21   40 1     
   43   22   23 1     
   44    1   42 1     
   45    1   43 1     
   46   14   44 1     
   47   14   45 1     
   48   16   46 1     
   49   16   47 1     
@<TRIPOS>SUBSTRUCTURE
      1 S1             1
@<TRIPOS>SET
LONE_PAIRS      STATIC     ATOMS    <user>   **** ""
6 42 43 44 45 46 47
DONOR_HYDROGENS      STATIC     ATOMS    <user>   **** ""
3 24 41 34
ATOM$BLUE        STATIC     ATOMS    COLORGROUP SYSTEM
6 42 43 44 45 46 47
ATOM$RED        STATIC     ATOMS    COLORGROUP SYSTEM
3 24 41 34
