AV-unprocessed.smi:102|AV-procd|sdf|946|dock1
  -GOLD-   2262017463D 1   1.00000     0.00000
 Structure written by MMmdl.
 44 45  0  0  0  0  0  0  0  0  1 V2000
  148.0832  134.8279  160.4999 C   0  0  0  0  0  0  0  0  0  0  0  0
  148.5026  136.2636  160.2127 C   0  0  0  0  0  0  0  0  0  0  0  0
  147.9025  137.2192  160.7048 O   0  0  0  0  0  0  0  0  0  0  0  0
  149.5593  136.3341  159.3881 O   0  0  0  0  0  0  0  0  0  0  0  0
  150.2510  137.5629  159.2347 C   0  0  0  0  0  0  0  0  0  0  0  0
  151.6184  137.2965  158.5777 C   0  0  1  0  0  0  0  0  0  0  0  0
  151.4160  136.7526  157.2729 O   0  0  0  0  0  0  0  0  0  0  0  0
  151.5450  137.7328  156.2796 C   0  0  1  0  0  0  0  0  0  0  0  0
  150.2662  137.8176  155.4693 N   0  0  0  0  0  0  0  0  0  0  0  0
  149.1567  137.0239  155.7352 C   0  0  0  0  0  0  0  0  0  0  0  0
  148.0033  137.1117  155.0317 C   0  0  0  0  0  0  0  0  0  0  0  0
  146.9713  136.3116  155.3490 F   0  0  0  0  0  0  0  0  0  0  0  0
  147.8711  138.0634  153.9325 C   0  0  0  0  0  0  0  0  0  0  0  0
  146.8662  138.2190  153.2415 O   0  0  0  0  0  0  0  0  0  0  0  0
  149.0142  138.8314  153.6935 N   0  0  0  0  0  0  0  0  0  0  0  0
  150.2086  138.7507  154.4108 C   0  0  0  0  0  0  0  0  0  0  0  0
  151.1549  139.4809  154.1200 O   0  0  0  0  0  0  0  0  0  0  0  0
  151.9031  139.0602  156.9804 C   0  0  1  0  0  0  0  0  0  0  0  0
  150.7420  139.8721  157.1645 O   0  0  0  0  0  0  0  0  0  0  0  0
  150.8415  141.1225  157.6457 C   0  0  0  0  0  0  0  0  0  0  0  0
  149.4814  141.7858  157.8132 C   0  0  0  0  0  0  0  0  0  0  0  0
  151.8833  141.7116  157.9325 O   0  0  0  0  0  0  0  0  0  0  0  0
  152.4523  138.5511  158.3061 C   0  0  1  0  0  0  0  0  0  0  0  0
  152.4068  139.5078  159.3595 O   0  0  0  0  0  0  0  0  0  0  0  0
  153.5085  140.2045  159.6896 C   0  0  0  0  0  0  0  0  0  0  0  0
  153.2397  141.2337  160.7791 C   0  0  0  0  0  0  0  0  0  0  0  0
  154.6254  140.0735  159.1890 O   0  0  0  0  0  0  0  0  0  0  0  0
  148.9702  139.5025  152.9404 H   0  0  0  0  0  0  0  0  0  0  0  0
  148.1104  134.2326  159.5871 H   0  0  0  0  0  0  0  0  0  0  0  0
  147.0689  134.7990  160.8986 H   0  0  0  0  0  0  0  0  0  0  0  0
  148.7553  134.3765  161.2295 H   0  0  0  0  0  0  0  0  0  0  0  0
  149.6658  138.2636  158.6393 H   0  0  0  0  0  0  0  0  0  0  0  0
  150.3823  138.0070  160.2219 H   0  0  0  0  0  0  0  0  0  0  0  0
  152.1848  136.5965  159.1928 H   0  0  0  0  0  0  0  0  0  0  0  0
  152.3147  137.3984  155.5814 H   0  0  0  0  0  0  0  0  0  0  0  0
  149.1876  136.2957  156.5299 H   0  0  0  0  0  0  0  0  0  0  0  0
  152.6684  139.5742  156.3972 H   0  0  0  0  0  0  0  0  0  0  0  0
  148.7236  141.0469  158.0746 H   0  0  0  0  0  0  0  0  0  0  0  0
  149.1840  142.2735  156.8846 H   0  0  0  0  0  0  0  0  0  0  0  0
  149.5182  142.5359  158.6032 H   0  0  0  0  0  0  0  0  0  0  0  0
  153.4820  138.2251  158.1493 H   0  0  0  0  0  0  0  0  0  0  0  0
  152.6693  140.7870  161.5935 H   0  0  0  0  0  0  0  0  0  0  0  0
  152.6704  142.0703  160.3735 H   0  0  0  0  0  0  0  0  0  0  0  0
  154.1770  141.6168  161.1832 H   0  0  0  0  0  0  0  0  0  0  0  0
  1  2  1  0  0  0  0
  1 29  1  0  0  0  0
  1 30  1  0  0  0  0
  1 31  1  0  0  0  0
  2  3  2  0  0  0  0
  2  4  1  0  0  0  0
  4  5  1  0  0  0  0
  5  6  1  0  0  0  0
  5 32  1  0  0  0  0
  5 33  1  0  0  0  0
  6 23  1  0  0  0  0
  6  7  1  0  0  0  0
  6 34  1  0  0  0  0
  7  8  1  0  0  0  0
  8  9  1  0  0  0  0
  8 18  1  0  0  0  0
  8 35  1  0  0  0  0
  9 16  1  0  0  0  0
  9 10  1  0  0  0  0
 10 11  2  0  0  0  0
 10 36  1  0  0  0  0
 11 12  1  0  0  0  0
 11 13  1  0  0  0  0
 13 14  2  0  0  0  0
 13 15  1  0  0  0  0
 15 28  1  0  0  0  0
 15 16  1  0  0  0  0
 16 17  2  0  0  0  0
 18 19  1  0  0  0  0
 18 23  1  0  0  0  0
 18 37  1  0  0  0  0
 19 20  1  0  0  0  0
 20 21  1  0  0  0  0
 20 22  2  0  0  0  0
 21 38  1  0  0  0  0
 21 39  1  0  0  0  0
 21 40  1  0  0  0  0
 23 24  1  0  0  0  0
 23 41  1  0  0  0  0
 24 25  1  0  0  0  0
 25 26  1  0  0  0  0
 25 27  2  0  0  0  0
 26 42  1  0  0  0  0
 26 43  1  0  0  0  0
 26 44  1  0  0  0  0
M  END
> <s_m_source_file>
AV-unprocessed.smi

> <i_m_source_file_index>
102

> <i_lp_mmshare_version>
43012

> <i_f3d_flags>
0

> <s_epik_input>
W0NIM11DKD1PKU9bQ0gyXVtDQEBIXTFPW0NASF0oW0NAQEhdKE9DKD1PKVtDSDNdKVtDQEhdMU9DKD1PKVtDSDNdKW4yW2NIXWMoRiljKD1PKVtuSF1jMj1P

> <s_epik_cmdline>
J2VwaWtfcHl0aG9uJywgJy1waCcsICc3LjAnLCAnLXRuJywgJzgnLCAnLW1hJywgJzIwMCcsICctbWV0YWxfYmluZGluZycsICctaW1hZScsICc8aW5maWxlLm1hZT4nLCAnLW9tYWUnLCAnPG91dGZpbGUubWFlPic=

> <r_lp_tautomer_probability>
0.999537

> <r_epik_Ionization_Penalty>
0.058267

> <r_epik_Ionization_Penalty_Charging>
0.058267

> <r_epik_Ionization_Penalty_Neutral>
6.57791e-16

> <r_epik_State_Penalty>
0.0503774

> <r_epik_Charging_Adjusted_Penalty>
0.108644

> <i_epik_Tot_Q>
0

> <i_epik_Tot_abs_Q>
0

> <r_epik_Metal_State_Penalty>
2.6644

> <b_epik_Metal_Only>
0

> <s_epik_Chemistry_Notes>
This compound has an ester and may undergo hydrolysis at high or low pH. This compound contains an acetal/aminal-like group ( X-CH(R)-Y where X, Y are N, S, or O) that may be acid/base labile, releasing an aldehyde.

> <s_lp_Force_Field>
OPLS_2005

> <r_lp_Energy>
16.4745

> <b_lp_Chiralities_Consistent>
1

> <s_lp_Variant>
AV-unprocessed.smi:102-2

> <Gold.Version>
5.8.1

> <Gold.Id.Protein>
6NUR|6NUR_protein|mol2

> <Gold.PLP.Fitness>
40.2128

> <Gold.PLP.PLP>
-28.1608

> <Gold.PLP.part.hbond>
-6.0116

> <Gold.PLP.part.metal>
0.0000

> <Gold.PLP.part.buried>
-2.9216

> <Gold.PLP.part.nonpolar>
-19.8728

> <Gold.PLP.part.repulsive>
0.4577

> <Gold.PLP.ligand.clash>
0.0000

> <Gold.PLP.ligand.torsion>
0.8301

> <Gold.PLP.Chemscore.Hbond>
4.4640

> <Gold.PLP.Chemscore.CHOScore>
0.0000

> <Gold.PLP.Chemscore.Metal>
0.0000

> <Gold.Chemscore.Hbonds>
donor molecule, donor type, donor heavy atom, donor atom, acceptor molecule, acceptor atom, score
      L1  H    15    28       P1  7957  0.94
      P1  H  6931  6943       L1     3  0.82
      P1  H  6934  6947       L1     3  0.80
      P1  H  7989  7998       L1    17  1.00
      P1  H  7997  8010       L1    27  0.98

> <Gold.PLP.Chemscore.Internal.Correction>
0.3201

> <Gold.Rescore>
     Score         DG    S(hbond)    S(metal)    S(lipo)     H(rot)  DE(clash)    DE(int)     intcor
     10.60     -14.50       4.45        0.00      38.58       4.05       0.66       3.23       ----

> <Gold.Chemscore.Fitness>
10.6034

> <Gold.Chemscore.DG>
-14.4974

> <Gold.Chemscore.ZeroCoef>
-5.4800

> <Gold.Chemscore.Hbond>
4.4542

> <Gold.Chemscore.Metal>
0.0000

> <Gold.Chemscore.Lipo>
38.5783

> <Gold.Chemscore.Internal_Hbond>
0.0000

> <Gold.Chemscore.DEClash>
0.6617

> <Gold.Chemscore.DEInternal>
3.2324

> <Gold.Chemscore.Rot>
4.0520

> <Gold.Chemscore.Internal.Correction>
   9.000000E+99

> <Gold.Chemscore.Hbonds>
donor molecule, donor type, donor heavy atom, donor atom, acceptor molecule, acceptor atom, score
      L1  H    15    28       P1  7957  0.89
      P1  H  6931  6943       L1     3  0.66
      P1  H  6934  6947       L1     3  0.79
      P1  H  7989  7998       L1    17  0.98
      P1  H  7997  8010       L1    27  0.92

> <Gold.Chemscore.Hbond.Weighted>
-14.8770

> <Gold.Chemscore.Metal.Weighted>
-0.0000

> <Gold.Chemscore.Lipo.Weighted>
-4.5137

> <Gold.Chemscore.Internal_Hbond.Weighted>
0.0000

> <Gold.Chemscore.DEClash.Weighted>
0.6617

> <Gold.Chemscore.DEInternal.Weighted>
3.2324

> <Gold.Chemscore.Rot.Weighted>
10.3732

> <Gold.Chemscore.Internal.Correction.Weighted>
   9.000000E+99

> <Gold.Protein.RotatedTorsions>
[ 6907 6896 6895 6894 ] final   54.87 input  -60.11 | X-H torsion
[ 7974 7965 7964 7962 ] final  142.43 input  175.53 | X-H torsion
[ 8008 7997 7996 7995 ] final   -6.29 input   59.86 | X-H torsion
[ 10167 10162 10161 10158 ] final -167.84 input  -65.29 | X-H torsion
[ 10718 10713 10712 10709 ] final  -25.97 input   66.30 | X-H torsion
[ 10763 10752 10751 10750 ] final  106.71 input  -60.55 | X-H torsion
[ 11005 11000 10999 10996 ] final  -86.44 input  -57.11 | X-H torsion

> <Gold.Protein.ActiveResidues>
 VAL166  LYS551  ARG553  GLY616  TRP617  ASP618  TYR619  PRO620  LYS621  CYS622 
 ASP623  PHE694  ASN695  SER759  ASP760  ASP761  ALA762  ILE779  LEU786  VAL792 
 PHE793  MET794  SER795  GLU796  ALA797  LYS798  CYS799  TRP800  GLU811  SER814 

> <Gold.Protein.RotatedAtoms>
  152.3482  134.7041  160.0243 H   0  0  0  0  0  0  0  0  0  0  0  0  # atno 6907 bound_to 6896
  151.7404  133.3316  159.3372 H   0  0  0  0  0  0  0  0  0  0  0  0  # atno 6908 bound_to 6896
  150.7523  134.6216  159.6184 H   0  0  0  0  0  0  0  0  0  0  0  0  # atno 6909 bound_to 6896
  144.9008  139.5426  143.5754 H   0  0  0  0  0  0  0  0  0  0  0  0  # atno 7974 bound_to 7965
  154.5953  140.2436  155.7865 H   0  0  0  0  0  0  0  0  0  0  0  0  # atno 8008 bound_to 7997
  156.2275  140.2978  156.0056 H   0  0  0  0  0  0  0  0  0  0  0  0  # atno 8009 bound_to 7997
  155.2304  140.0403  157.2952 H   0  0  0  0  0  0  0  0  0  0  0  0  # atno 8010 bound_to 7997
  139.6023  144.0984  152.1756 H   0  0  0  0  0  0  0  0  0  0  0  0  # atno 10167 bound_to 10162
  156.4574  130.4496  149.6951 H   0  0  0  0  0  0  0  0  0  0  0  0  # atno 10718 bound_to 10713
  153.3967  135.3868  155.1960 H   0  0  0  0  0  0  0  0  0  0  0  0  # atno 10763 bound_to 10752
  154.8725  135.3761  154.4669 H   0  0  0  0  0  0  0  0  0  0  0  0  # atno 10764 bound_to 10752
  153.5162  135.7087  153.5817 H   0  0  0  0  0  0  0  0  0  0  0  0  # atno 10765 bound_to 10752
  141.1630  133.7455  156.9162 H   0  0  0  0  0  0  0  0  0  0  0  0  # atno 11005 bound_to 11000
  146.3107  139.7737  142.9022 LP  0  0  0  0  0  0  0  0  0  0  0  0  # atno 17320 bound_to 7965
  145.3620  141.0327  143.3279 LP  0  0  0  0  0  0  0  0  0  0  0  0  # atno 17321 bound_to 7965
  140.0583  144.5877  150.7282 LP  0  0  0  0  0  0  0  0  0  0  0  0  # atno 17342 bound_to 10162
  140.7259  143.2636  151.4121 LP  0  0  0  0  0  0  0  0  0  0  0  0  # atno 17343 bound_to 10162
  156.3753  130.7551  151.2538 LP  0  0  0  0  0  0  0  0  0  0  0  0  # atno 17370 bound_to 10713
  157.7500  131.0311  150.4168 LP  0  0  0  0  0  0  0  0  0  0  0  0  # atno 17371 bound_to 10713
  140.1483  134.9247  157.2558 LP  0  0  0  0  0  0  0  0  0  0  0  0  # atno 17394 bound_to 11000
  140.2754  134.3412  155.7360 LP  0  0  0  0  0  0  0  0  0  0  0  0  # atno 17395 bound_to 11000

$$$$
