AV-unprocessed.smi:787|AV-procd|sdf|3730|dock7
  -GOLD-   22720 1163D 1   1.00000     0.00000
 Structure written by MMmdl.
 46 48  0  0  0  0  0  0  0  0  1 V2000
  145.6806  139.1572  158.2874 C   0  0  0  0  0  0  0  0  0  0  0  0
  146.3959  139.9729  157.3193 N   0  0  0  0  0  0  0  0  0  0  0  0
  145.9178  141.2409  156.9598 C   0  0  0  0  0  0  0  0  0  0  0  0
  145.2549  141.9935  157.8683 N   0  0  0  0  0  0  0  0  0  0  0  0
  144.8182  143.1999  157.4839 C   0  0  0  0  0  0  0  0  0  0  0  0
  144.9414  143.8033  156.2917 N   0  0  0  0  0  0  0  0  0  0  0  0
  145.5971  143.0663  155.3847 C   0  0  0  0  0  0  0  0  0  0  0  0
  145.8692  143.4393  154.0797 N   0  0  0  0  0  0  0  0  0  0  0  0
  146.5245  142.3742  153.6255 C   0  0  0  0  0  0  0  0  0  0  0  0
  146.7117  141.3479  154.4782 N   0  0  0  0  0  0  0  0  0  0  0  0
  147.3985  140.1018  154.1822 C   0  0  0  0  0  0  0  0  0  0  0  0
  148.9237  140.1989  154.3954 C   0  0  1  0  0  0  0  0  0  0  0  0
  149.4822  141.1142  153.4737 O   0  0  0  0  0  0  0  0  0  0  0  0
  149.2970  140.6755  155.8144 C   0  0  0  0  0  0  0  0  0  0  0  0
  150.7302  140.7333  156.1095 N   0  0  0  0  0  0  0  0  0  0  0  0
  151.4251  139.6485  155.4226 C   0  0  0  0  0  0  0  0  0  0  0  0
  151.0057  140.7068  157.5489 C   0  0  0  0  0  0  0  0  0  0  0  0
  151.4791  142.0392  158.1044 C   0  0  0  0  0  0  0  0  0  0  0  0
  152.1286  142.0924  159.3561 C   0  0  0  0  0  0  0  0  0  0  0  0
  152.5693  143.3263  159.8730 C   0  0  0  0  0  0  0  0  0  0  0  0
  152.3647  144.5106  159.1393 C   0  0  0  0  0  0  0  0  0  0  0  0
  151.7191  144.4610  157.8883 C   0  0  0  0  0  0  0  0  0  0  0  0
  151.2773  143.2275  157.3711 C   0  0  0  0  0  0  0  0  0  0  0  0
  146.1107  141.7640  155.6652 C   0  0  0  0  0  0  0  0  0  0  0  0
  146.2168  138.2234  158.4550 H   0  0  0  0  0  0  0  0  0  0  0  0
  144.6802  138.9167  157.9259 H   0  0  0  0  0  0  0  0  0  0  0  0
  145.5936  139.6769  159.2421 H   0  0  0  0  0  0  0  0  0  0  0  0
  147.2499  139.6204  156.9124 H   0  0  0  0  0  0  0  0  0  0  0  0
  144.2929  143.7657  158.2389 H   0  0  0  0  0  0  0  0  0  0  0  0
  146.8926  142.3371  152.6104 H   0  0  0  0  0  0  0  0  0  0  0  0
  146.9711  139.3027  154.7864 H   0  0  0  0  0  0  0  0  0  0  0  0
  147.1829  139.8412  153.1451 H   0  0  0  0  0  0  0  0  0  0  0  0
  149.3823  139.2333  154.1847 H   0  0  0  0  0  0  0  0  0  0  0  0
  149.2547  140.8396  152.5986 H   0  0  0  0  0  0  0  0  0  0  0  0
  148.8516  141.6551  155.9957 H   0  0  0  0  0  0  0  0  0  0  0  0
  148.8198  139.9975  156.5239 H   0  0  0  0  0  0  0  0  0  0  0  0
  152.5041  139.7170  155.5630 H   0  0  0  0  0  0  0  0  0  0  0  0
  151.2381  139.6863  154.3489 H   0  0  0  0  0  0  0  0  0  0  0  0
  151.0957  138.6753  155.7896 H   0  0  0  0  0  0  0  0  0  0  0  0
  150.1044  140.4548  158.1051 H   0  0  0  0  0  0  0  0  0  0  0  0
  151.7352  139.9285  157.7779 H   0  0  0  0  0  0  0  0  0  0  0  0
  152.2881  141.1863  159.9224 H   0  0  0  0  0  0  0  0  0  0  0  0
  153.0644  143.3643  160.8322 H   0  0  0  0  0  0  0  0  0  0  0  0
  152.7033  145.4566  159.5356 H   0  0  0  0  0  0  0  0  0  0  0  0
  151.5629  145.3692  157.3253 H   0  0  0  0  0  0  0  0  0  0  0  0
  150.7817  143.1976  156.4118 H   0  0  0  0  0  0  0  0  0  0  0  0
  1  2  1  0  0  0  0
  1 25  1  0  0  0  0
  1 26  1  0  0  0  0
  1 27  1  0  0  0  0
  2  3  1  0  0  0  0
  2 28  1  0  0  0  0
  3 24  1  0  0  0  0
  3  4  2  0  0  0  0
  4  5  1  0  0  0  0
  5  6  2  0  0  0  0
  5 29  1  0  0  0  0
  6  7  1  0  0  0  0
  7 24  2  0  0  0  0
  7  8  1  0  0  0  0
  8  9  2  0  0  0  0
  9 10  1  0  0  0  0
  9 30  1  0  0  0  0
 10 11  1  0  0  0  0
 10 24  1  0  0  0  0
 11 12  1  0  0  0  0
 11 31  1  0  0  0  0
 11 32  1  0  0  0  0
 12 13  1  0  0  0  0
 12 14  1  0  0  0  0
 12 33  1  0  0  0  0
 13 34  1  0  0  0  0
 14 15  1  0  0  0  0
 14 35  1  0  0  0  0
 14 36  1  0  0  0  0
 15 16  1  0  0  0  0
 15 17  1  0  0  0  0
 16 37  1  0  0  0  0
 16 38  1  0  0  0  0
 16 39  1  0  0  0  0
 17 18  1  0  0  0  0
 17 40  1  0  0  0  0
 17 41  1  0  0  0  0
 18 23  1  0  0  0  0
 18 19  2  0  0  0  0
 19 20  1  0  0  0  0
 19 42  1  0  0  0  0
 20 21  2  0  0  0  0
 20 43  1  0  0  0  0
 21 22  1  0  0  0  0
 21 44  1  0  0  0  0
 22 23  2  0  0  0  0
 22 45  1  0  0  0  0
 23 46  1  0  0  0  0
M  END
> <s_m_source_file>
AV-unprocessed.smi

> <i_m_source_file_index>
787

> <i_lp_mmshare_version>
43012

> <i_f3d_flags>
0

> <s_epik_input>
bjFbY0hdbmMoW05IXVtDSDNdKWMoYzEyKW4oW2NIXW4yKVtDSDJdW0NASF0oW09IXSlbQ0gyXU4oW0NIM10pW0NIMl1jM1tjSF1bY0hdW2NIXVtjSF1bY0hdMw==

> <s_epik_cmdline>
J2VwaWtfcHl0aG9uJywgJy1waCcsICc3LjAnLCAnLXRuJywgJzgnLCAnLW1hJywgJzIwMCcsICctbWV0YWxfYmluZGluZycsICctaW1hZScsICc8aW5maWxlLm1hZT4nLCAnLW9tYWUnLCAnPG91dGZpbGUubWFlPic=

> <r_lp_tautomer_probability>
0.999987

> <r_epik_Ionization_Penalty>
1.52367

> <r_epik_Ionization_Penalty_Charging>
0

> <r_epik_Ionization_Penalty_Neutral>
1.52367

> <r_epik_State_Penalty>
1.60995

> <r_epik_Charging_Adjusted_Penalty>
1.60995

> <i_epik_Tot_Q>
0

> <i_epik_Tot_abs_Q>
0

> <r_epik_Metal_State_Penalty>
1.60969

> <b_epik_Metal_Only>
0

> <s_lp_Force_Field>
OPLS_2005

> <r_lp_Energy>
19.785

> <b_lp_Chiralities_Consistent>
1

> <s_lp_Variant>
AV-unprocessed.smi:787-6

> <Gold.Version>
5.8.1

> <Gold.Id.Protein>
6NUR|6NUR_protein|mol2

> <Gold.PLP.Fitness>
45.0513

> <Gold.PLP.PLP>
-44.5896

> <Gold.PLP.part.hbond>
-3.0000

> <Gold.PLP.part.metal>
0.0000

> <Gold.PLP.part.buried>
-6.8628

> <Gold.PLP.part.nonpolar>
-35.4503

> <Gold.PLP.part.repulsive>
0.4399

> <Gold.PLP.ligand.clash>
0.0000

> <Gold.PLP.ligand.torsion>
1.7617

> <Gold.PLP.Chemscore.Hbond>
1.1820

> <Gold.PLP.Chemscore.CHOScore>
0.0000

> <Gold.PLP.Chemscore.Metal>
0.0000

> <Gold.Chemscore.Hbonds>
donor molecule, donor type, donor heavy atom, donor atom, acceptor molecule, acceptor atom, score
      L1  H    13    34       P1  7957  1.00
      P1  H  7989  7998       L1    13  0.16

> <Gold.PLP.Chemscore.Internal.Correction>
0.4393

> <Gold.Rescore>
     Score         DG    S(hbond)    S(metal)    S(lipo)     H(rot)  DE(clash)    DE(int)     intcor
     11.14     -12.83       1.02        0.00     101.79       3.11       0.08       1.61       ----

> <Gold.Chemscore.Fitness>
11.1376

> <Gold.Chemscore.DG>
-12.8267

> <Gold.Chemscore.ZeroCoef>
-5.4800

> <Gold.Chemscore.Hbond>
1.0157

> <Gold.Chemscore.Metal>
0.0000

> <Gold.Chemscore.Lipo>
101.7887

> <Gold.Chemscore.Internal_Hbond>
0.0000

> <Gold.Chemscore.DEClash>
0.0800

> <Gold.Chemscore.DEInternal>
1.6091

> <Gold.Chemscore.Rot>
3.1075

> <Gold.Chemscore.Internal.Correction>
   9.000000E+99

> <Gold.Chemscore.Hbonds>
donor molecule, donor type, donor heavy atom, donor atom, acceptor molecule, acceptor atom, score
      L1  H    13    34       P1  7957  0.96
      P1  H  7989  7998       L1    13  0.04

> <Gold.Chemscore.Hbond.Weighted>
-3.3926

> <Gold.Chemscore.Metal.Weighted>
-0.0000

> <Gold.Chemscore.Lipo.Weighted>
-11.9093

> <Gold.Chemscore.Internal_Hbond.Weighted>
0.0000

> <Gold.Chemscore.DEClash.Weighted>
0.0800

> <Gold.Chemscore.DEInternal.Weighted>
1.6091

> <Gold.Chemscore.Rot.Weighted>
7.9551

> <Gold.Chemscore.Internal.Correction.Weighted>
   9.000000E+99

> <Gold.Protein.RotatedTorsions>
[ 6907 6896 6895 6894 ] final  166.31 input  -60.11 | X-H torsion
[ 7974 7965 7964 7962 ] final -178.55 input  175.53 | X-H torsion
[ 8008 7997 7996 7995 ] final -148.36 input   59.86 | X-H torsion
[ 10167 10162 10161 10158 ] final  -39.78 input  -65.29 | X-H torsion
[ 10718 10713 10712 10709 ] final  -43.96 input   66.30 | X-H torsion
[ 10763 10752 10751 10750 ] final -159.61 input  -60.55 | X-H torsion
[ 11005 11000 10999 10996 ] final  -23.69 input  -57.11 | X-H torsion

> <Gold.Protein.ActiveResidues>
 VAL166  LYS551  ARG553  GLY616  TRP617  ASP618  TYR619  PRO620  LYS621  CYS622 
 ASP623  PHE694  ASN695  SER759  ASP760  ASP761  ALA762  ILE779  LEU786  VAL792 
 PHE793  MET794  SER795  GLU796  ALA797  LYS798  CYS799  TRP800  GLU811  SER814 

> <Gold.Protein.RotatedAtoms>
  151.8808  133.3495  159.3765 H   0  0  0  0  0  0  0  0  0  0  0  0  # atno 6907 bound_to 6896
  150.7128  134.5020  159.5575 H   0  0  0  0  0  0  0  0  0  0  0  0  # atno 6908 bound_to 6896
  152.2571  134.8073  160.0487 H   0  0  0  0  0  0  0  0  0  0  0  0  # atno 6909 bound_to 6896
  144.7131  140.0852  143.6424 H   0  0  0  0  0  0  0  0  0  0  0  0  # atno 7974 bound_to 7965
  155.5904  140.0652  157.2760 H   0  0  0  0  0  0  0  0  0  0  0  0  # atno 8008 bound_to 7997
  154.4307  140.1836  156.1115 H   0  0  0  0  0  0  0  0  0  0  0  0  # atno 8009 bound_to 7997
  156.0237  140.3314  155.7069 H   0  0  0  0  0  0  0  0  0  0  0  0  # atno 8010 bound_to 7997
  140.7054  143.3193  151.2831 H   0  0  0  0  0  0  0  0  0  0  0  0  # atno 10167 bound_to 10162
  156.2435  130.4182  149.8733 H   0  0  0  0  0  0  0  0  0  0  0  0  # atno 10718 bound_to 10713
  154.7460  135.3080  154.8643 H   0  0  0  0  0  0  0  0  0  0  0  0  # atno 10763 bound_to 10752
  153.9444  135.6771  153.4748 H   0  0  0  0  0  0  0  0  0  0  0  0  # atno 10764 bound_to 10752
  153.1057  135.4890  154.8873 H   0  0  0  0  0  0  0  0  0  0  0  0  # atno 10765 bound_to 10752
  140.8775  133.7677  156.0261 H   0  0  0  0  0  0  0  0  0  0  0  0  # atno 11005 bound_to 11000
  145.9668  139.2840  143.1123 LP  0  0  0  0  0  0  0  0  0  0  0  0  # atno 17320 bound_to 7965
  145.9161  140.9147  143.0429 LP  0  0  0  0  0  0  0  0  0  0  0  0  # atno 17321 bound_to 7965
  139.6642  144.0135  152.2712 LP  0  0  0  0  0  0  0  0  0  0  0  0  # atno 17342 bound_to 10162
  139.9712  144.6492  150.7987 LP  0  0  0  0  0  0  0  0  0  0  0  0  # atno 17343 bound_to 10162
  156.6306  130.8664  151.3494 LP  0  0  0  0  0  0  0  0  0  0  0  0  # atno 17370 bound_to 10713
  157.7185  130.9528  150.1347 LP  0  0  0  0  0  0  0  0  0  0  0  0  # atno 17371 bound_to 10713
  140.8501  134.2965  157.5279 LP  0  0  0  0  0  0  0  0  0  0  0  0  # atno 17394 bound_to 11000
  139.8717  134.9463  156.3934 LP  0  0  0  0  0  0  0  0  0  0  0  0  # atno 17395 bound_to 11000

$$$$
