#       Name:                AV-unprocessed.smi:1199
#       Creating user name   scv26
#       Creation time:       Fri Mar 27 04:03:16 2020


#       File generated by GOLD software.
#

@<TRIPOS>MOLECULE
AV-unprocessed.smi:1199
    50    51     1
SMALL
NO_CHARGES


@<TRIPOS>ATOM
      1 ****        -0.6237  -2.6695  -1.7026 C.3            1 S1                 0.0000
      2 ****        -0.4386  -1.3094  -1.0069 C.3            1 S1                 0.0000
      3 ****        -0.9310  -1.3183   0.4618 C.3            1 S1                 0.0000
      4 ****        -2.2856  -0.8095   0.6900 N.3            1 S1                 0.0000
      5 ****        -3.3255  -1.6168   0.0581 C.3            1 S1                 0.0000
      6 ****        -4.7379  -1.0832   0.3578 C.3            1 S1                 0.0000
      7 ****        -4.9352  -0.9984   1.7648 O.3            1 S1                 0.0000
      8 ****        -3.9732  -0.1633   2.3996 C.3            1 S1                 0.0000
      9 ****        -2.5619  -0.7067   2.1196 C.3            1 S1                 0.0000
     10 ****         0.9862  -0.9915  -1.0522 N.am           1 S1                 0.0000
     11 ****         1.5091   0.2439  -1.0092 C.2            1 S1                 0.0000
     12 ****         0.8210   1.2629  -0.9276 O.2            1 S1                 0.0000
     13 ****         3.0425   0.3203  -1.0791 C.3            1 S1                 0.0000
     14 ****         3.5963   1.6260  -0.6916 N.am           1 S1                 0.0000
     15 ****         4.0533   2.4317  -1.8203 N.pl3          1 S1                -1.0000
     16 ****         4.5546   3.6737  -1.5875 C.2            1 S1                 0.0000
     17 ****         4.9372   4.4173  -2.4879 O.2            1 S1                 0.0000
     18 ****         4.6429   4.1287  -0.2098 C.2            1 S1                 0.0000
     19 ****         4.2411   3.3514   0.8151 C.2            1 S1                 0.0000
     20 ****         3.6894   2.0173   0.6116 C.2            1 S1                 0.0000
     21 ****         3.3289   1.2980   1.5436 O.2            1 S1                 0.0000
     22 ****        -1.6659  -2.9804  -1.7378 H              1 S1                 0.0000
     23 ****        -0.0674  -3.4551  -1.1897 H              1 S1                 0.0000
     24 ****        -0.2658  -2.6313  -2.7321 H              1 S1                 0.0000
     25 ****        -0.9807  -0.5493  -1.5729 H              1 S1                 0.0000
     26 ****        -0.8339  -2.3222   0.8783 H              1 S1                 0.0000
     27 ****        -0.2502  -0.7020   1.0510 H              1 S1                 0.0000
     28 ****        -3.1911  -1.6179  -1.0223 H              1 S1                 0.0000
     29 ****        -3.2478  -2.6521   0.3935 H              1 S1                 0.0000
     30 ****        -4.8823  -0.1012  -0.0955 H              1 S1                 0.0000
     31 ****        -5.4914  -1.7452  -0.0687 H              1 S1                 0.0000
     32 ****        -4.0727   0.8616   2.0384 H              1 S1                 0.0000
     33 ****        -4.1676  -0.1460   3.4720 H              1 S1                 0.0000
     34 ****        -2.4556  -1.6866   2.5878 H              1 S1                 0.0000
     35 ****        -1.8273  -0.0543   2.5929 H              1 S1                 0.0000
     36 ****         1.6250  -1.7700  -1.1239 H              1 S1                 0.0000
     37 ****         3.4688  -0.4566  -0.4418 H              1 S1                 0.0000
     38 ****         3.3465   0.0638  -2.0954 H              1 S1                 0.0000
     39 ****         5.0422   5.1108  -0.0037 H              1 S1                 0.0000
     40 ****         4.3267   3.7294   1.8228 H              1 S1                 0.0000
     41 ****        -2.3110   0.0949   0.2640 LP             1 S1                 0.0000
     42 ****        -4.8693  -1.9171   2.1540 LP             1 S1                 0.0000
     43 ****        -5.8472  -0.6271   1.9391 LP             1 S1                 0.0000
     44 ****        -0.1757   1.1914  -0.8903 LP             1 S1                 0.0000
     45 ****         1.2593   2.1612  -0.8987 LP             1 S1                 0.0000
     46 ****         3.9983   2.0744  -2.7527 LP             1 S1                 0.0000
     47 ****         4.8868   4.1163  -3.4402 LP             1 S1                 0.0000
     48 ****         5.2990   5.3233  -2.2683 LP             1 S1                 0.0000
     49 ****         2.9516   0.3908   1.3580 LP             1 S1                 0.0000
     50 ****         3.4134   1.6212   2.4862 LP             1 S1                 0.0000
@<TRIPOS>BOND
    1    1    2 1     
    2    1   22 1     
    3    1   23 1     
    4    1   24 1     
    5    2    3 1     
    6    2   10 1     
    7    2   25 1     
    8    3    4 1     
    9    3   26 1     
   10    3   27 1     
   11    4    9 1     
   12    4    5 1     
   13    5    6 1     
   14    5   28 1     
   15    5   29 1     
   16    6    7 1     
   17    6   30 1     
   18    6   31 1     
   19    7    8 1     
   20    8    9 1     
   21    8   32 1     
   22    8   33 1     
   23    9   34 1     
   24    9   35 1     
   25   10   11 am    
   26   10   36 1     
   27   11   12 2     
   28   11   13 1     
   29   13   37 1     
   30   13   38 1     
   31   13   14 1     
   32   14   15 1     
   33   14   20 am    
   34   15   16 1     
   35   16   17 2     
   36   16   18 1     
   37   18   39 1     
   38   18   19 2     
   39   19   40 1     
   40   19   20 1     
   41   20   21 2     
   42    4   41 1     
   43    7   42 1     
   44    7   43 1     
   45   12   44 1     
   46   12   45 1     
   47   15   46 1     
   48   17   47 1     
   49   17   48 1     
   50   21   49 1     
   51   21   50 1     
@<TRIPOS>SUBSTRUCTURE
      1 S1             1
@<TRIPOS>SET
LONE_PAIRS      STATIC     ATOMS    <user>   **** ""
10 41 42 43 44 45 46 47 48 49 50
DONOR_HYDROGENS      STATIC     ATOMS    <user>   **** ""
1 36
ATOM$BLUE        STATIC     ATOMS    COLORGROUP SYSTEM
10 41 42 43 44 45 46 47 48 49 50
ATOM$RED        STATIC     ATOMS    COLORGROUP SYSTEM
1 36
