AV-unprocessed.smi:749|AV-procd|sdf|3586|dock9
  -GOLD-   22720 0583D 1   1.00000     0.00000
 Structure written by MMmdl.
 42 43  0  0  0  0  0  0  0  0  2 V2000
  154.0002  142.1328  159.3199 C   0  0  0  0  0  0  0  0  0  0  0  0
  152.7348  141.7628  158.6837 N   0  0  0  0  0  0  0  0  0  0  0  0
  152.2898  140.3857  158.9482 C   0  0  0  0  0  0  0  0  0  0  0  0
  151.1828  139.8895  158.0027 C   0  0  1  0  0  0  0  0  0  0  0  0
  150.6042  138.6563  158.5274 N   0  0  0  0  0  0  0  0  0  0  0  0
  150.6497  137.4401  157.9487 C   0  0  0  0  0  0  0  0  0  0  0  0
  151.2243  137.3163  156.8677 O   0  0  0  0  0  0  0  0  0  0  0  0
  150.0512  136.4055  158.5970 N   0  5  0  0  0  0  0  0  0  0  0  0
  149.0637  136.5819  159.4923 C   0  0  0  0  0  0  0  0  0  0  0  0
  149.0897  136.1728  160.8530 C   0  0  0  0  0  0  0  0  0  0  0  0
  147.8732  136.5776  161.3306 C   0  0  0  0  0  0  0  0  0  0  0  0
  147.2110  136.4950  162.6770 C   0  0  0  0  0  0  0  0  0  0  0  0
  147.9538  137.3692  163.7073 C   0  0  0  0  0  0  0  0  0  0  0  0
  147.2175  135.0389  163.1792 C   0  0  0  0  0  0  0  0  0  0  0  0
  145.7561  136.9909  162.5787 C   0  0  0  0  0  0  0  0  0  0  0  0
  147.1616  137.1748  160.3341 O   0  0  0  0  0  0  0  0  0  0  0  0
  147.9258  137.1677  159.1621 N   0  0  0  0  0  0  0  0  0  0  0  0
  150.1110  140.9737  157.8533 C   0  0  0  0  0  0  0  0  0  0  0  0
  150.7250  142.2583  157.2843 C   0  0  0  0  0  0  0  0  0  0  0  0
  152.0309  142.6795  157.9760 C   0  0  0  0  0  0  0  0  0  0  0  0
  152.4129  143.8417  157.8348 O   0  0  0  0  0  0  0  0  0  0  0  0
  154.7485  142.3784  158.5655 H   0  0  0  0  0  0  0  0  0  0  0  0
  154.4026  141.3276  159.9360 H   0  0  0  0  0  0  0  0  0  0  0  0
  153.8700  143.0008  159.9677 H   0  0  0  0  0  0  0  0  0  0  0  0
  153.1392  139.7034  158.8898 H   0  0  0  0  0  0  0  0  0  0  0  0
  151.9355  140.3527  159.9799 H   0  0  0  0  0  0  0  0  0  0  0  0
  151.6293  139.6927  157.0258 H   0  0  0  0  0  0  0  0  0  0  0  0
  150.1209  138.7262  159.4110 H   0  0  0  0  0  0  0  0  0  0  0  0
  149.8794  135.6698  161.3907 H   0  0  0  0  0  0  0  0  0  0  0  0
  147.4812  137.3172  164.6888 H   0  0  0  0  0  0  0  0  0  0  0  0
  147.9649  138.4175  163.4059 H   0  0  0  0  0  0  0  0  0  0  0  0
  148.9900  137.0499  163.8267 H   0  0  0  0  0  0  0  0  0  0  0  0
  148.2347  134.6554  163.2654 H   0  0  0  0  0  0  0  0  0  0  0  0
  146.6751  134.3798  162.5005 H   0  0  0  0  0  0  0  0  0  0  0  0
  146.7494  134.9529  164.1604 H   0  0  0  0  0  0  0  0  0  0  0  0
  145.2550  136.9519  163.5465 H   0  0  0  0  0  0  0  0  0  0  0  0
  145.1727  136.3836  161.8854 H   0  0  0  0  0  0  0  0  0  0  0  0
  145.7129  138.0224  162.2266 H   0  0  0  0  0  0  0  0  0  0  0  0
  149.3119  140.6308  157.1951 H   0  0  0  0  0  0  0  0  0  0  0  0
  149.6486  141.1801  158.8198 H   0  0  0  0  0  0  0  0  0  0  0  0
  150.9449  142.1160  156.2256 H   0  0  0  0  0  0  0  0  0  0  0  0
  150.0025  143.0729  157.3451 H   0  0  0  0  0  0  0  0  0  0  0  0
  1  2  1  0  0  0  0
  1 22  1  0  0  0  0
  1 23  1  0  0  0  0
  1 24  1  0  0  0  0
  2 20  1  0  0  0  0
  2  3  1  0  0  0  0
  3  4  1  0  0  0  0
  3 25  1  0  0  0  0
  3 26  1  0  0  0  0
  4  5  1  0  0  0  0
  4 18  1  0  0  0  0
  4 27  1  0  0  0  0
  5  6  1  0  0  0  0
  5 28  1  0  0  0  0
  6  7  2  0  0  0  0
  6  8  1  0  0  0  0
  8  9  1  0  0  0  0
  9 17  2  0  0  0  0
  9 10  1  0  0  0  0
 10 11  2  0  0  0  0
 10 29  1  0  0  0  0
 11 12  1  0  0  0  0
 11 16  1  0  0  0  0
 12 13  1  0  0  0  0
 12 14  1  0  0  0  0
 12 15  1  0  0  0  0
 13 30  1  0  0  0  0
 13 31  1  0  0  0  0
 13 32  1  0  0  0  0
 14 33  1  0  0  0  0
 14 34  1  0  0  0  0
 14 35  1  0  0  0  0
 15 36  1  0  0  0  0
 15 37  1  0  0  0  0
 15 38  1  0  0  0  0
 16 17  1  0  0  0  0
 18 19  1  0  0  0  0
 18 39  1  0  0  0  0
 18 40  1  0  0  0  0
 19 20  1  0  0  0  0
 19 41  1  0  0  0  0
 19 42  1  0  0  0  0
 20 21  2  0  0  0  0
M  CHG  1   8  -1
M  END
> <s_m_source_file>
AV-unprocessed.smi

> <i_m_source_file_index>
749

> <i_lp_mmshare_version>
43012

> <i_f3d_flags>
0

> <s_epik_input>
Tz1DMVtDSDJdW0NIMl1bQ0BASF0oW0NIMl1OMVtDSDNdKVtOSF1DKD1PKVtOSF1jMltjSF1jKG9uMilDKFtDSDNdKShbQ0gzXSlbQ0gzXQ==

> <s_epik_cmdline>
J2VwaWtfcHl0aG9uJywgJy1waCcsICc3LjAnLCAnLXRuJywgJzgnLCAnLW1hJywgJzIwMCcsICctbWV0YWxfYmluZGluZycsICctaW1hZScsICc8aW5maWxlLm1hZT4nLCAnLW9tYWUnLCAnPG91dGZpbGUubWFlPic=

> <r_lp_tautomer_probability>
1

> <r_epik_Ionization_Penalty>
6.47858

> <r_epik_Ionization_Penalty_Charging>
6.47844

> <r_epik_Ionization_Penalty_Neutral>
0.000138814

> <r_epik_State_Penalty>
6.47843

> <r_epik_Charging_Adjusted_Penalty>
12.9569

> <i_epik_Tot_Q>
-1

> <i_epik_Tot_abs_Q>
1

> <r_epik_Metal_State_Penalty>
2.40644

> <b_epik_Metal_Only>
1

> <s_lp_Force_Field>
OPLS_2005

> <r_lp_Energy>
10.0232

> <b_lp_Chiralities_Consistent>
1

> <s_lp_Variant>
AV-unprocessed.smi:749-3

> <Gold.Version>
5.8.1

> <Gold.Id.Protein>
6NUR|6NUR_protein|mol2

> <Gold.PLP.Fitness>
42.8279

> <Gold.PLP.PLP>
-36.6582

> <Gold.PLP.part.hbond>
-2.0000

> <Gold.PLP.part.metal>
0.0000

> <Gold.PLP.part.buried>
-5.9534

> <Gold.PLP.part.nonpolar>
-30.3685

> <Gold.PLP.part.repulsive>
0.1742

> <Gold.PLP.ligand.clash>
0.0000

> <Gold.PLP.ligand.torsion>
0.8084

> <Gold.PLP.Chemscore.Hbond>
2.5860

> <Gold.PLP.Chemscore.CHOScore>
0.0000

> <Gold.PLP.Chemscore.Metal>
0.0000

> <Gold.Chemscore.Hbonds>
donor molecule, donor type, donor heavy atom, donor atom, acceptor molecule, acceptor atom, score
      P1  H  6896  6908       L1     8  1.15
      P1  H  6934  6947       L1    16  1.00

> <Gold.PLP.Chemscore.Internal.Correction>
0.0285

> <Gold.Rescore>
     Score         DG    S(hbond)    S(metal)    S(lipo)     H(rot)  DE(clash)    DE(int)     intcor
     11.67     -13.37       0.49        0.00      80.00       1.22       0.43       1.27       ----

> <Gold.Chemscore.Fitness>
11.6721

> <Gold.Chemscore.DG>
-13.3694

> <Gold.Chemscore.ZeroCoef>
-5.4800

> <Gold.Chemscore.Hbond>
0.4946

> <Gold.Chemscore.Metal>
0.0000

> <Gold.Chemscore.Lipo>
80.0018

> <Gold.Chemscore.Internal_Hbond>
0.0000

> <Gold.Chemscore.DEClash>
0.4323

> <Gold.Chemscore.DEInternal>
1.2651

> <Gold.Chemscore.Rot>
1.2198

> <Gold.Chemscore.Internal.Correction>
   9.000000E+99

> <Gold.Chemscore.Hbonds>
donor molecule, donor type, donor heavy atom, donor atom, acceptor molecule, acceptor atom, score
      P1  H  6896  6908       L1     8  0.04
      P1  H  6934  6947       L1    16  0.13

> <Gold.Chemscore.Hbond.Weighted>
-1.6520

> <Gold.Chemscore.Metal.Weighted>
-0.0000

> <Gold.Chemscore.Lipo.Weighted>
-9.3602

> <Gold.Chemscore.Internal_Hbond.Weighted>
0.0000

> <Gold.Chemscore.DEClash.Weighted>
0.4323

> <Gold.Chemscore.DEInternal.Weighted>
1.2651

> <Gold.Chemscore.Rot.Weighted>
3.1228

> <Gold.Chemscore.Internal.Correction.Weighted>
   9.000000E+99

> <Gold.Protein.RotatedTorsions>
[ 6907 6896 6895 6894 ] final -169.62 input  -60.11 | X-H torsion
[ 7974 7965 7964 7962 ] final   12.59 input  175.53 | X-H torsion
[ 8008 7997 7996 7995 ] final  -68.30 input   59.86 | X-H torsion
[ 10167 10162 10161 10158 ] final    6.45 input  -65.29 | X-H torsion
[ 10718 10713 10712 10709 ] final   77.26 input   66.30 | X-H torsion
[ 10763 10752 10751 10750 ] final   69.17 input  -60.55 | X-H torsion
[ 11005 11000 10999 10996 ] final  163.10 input  -57.11 | X-H torsion

> <Gold.Protein.ActiveResidues>
 VAL166  LYS551  ARG553  GLY616  TRP617  ASP618  TYR619  PRO620  LYS621  CYS622 
 ASP623  PHE694  ASN695  SER759  ASP760  ASP761  ALA762  ILE779  LEU786  VAL792 
 PHE793  MET794  SER795  GLU796  ALA797  LYS798  CYS799  TRP800  GLU811  SER814 

> <Gold.Protein.RotatedAtoms>
  151.4946  133.3517  159.2858 H   0  0  0  0  0  0  0  0  0  0  0  0  # atno 6907 bound_to 6896
  150.8812  134.8205  159.7237 H   0  0  0  0  0  0  0  0  0  0  0  0  # atno 6908 bound_to 6896
  152.4764  134.4844  159.9727 H   0  0  0  0  0  0  0  0  0  0  0  0  # atno 6909 bound_to 6896
  146.2348  139.9314  142.8496 H   0  0  0  0  0  0  0  0  0  0  0  0  # atno 7974 bound_to 7965
  154.4858  140.0875  156.7483 H   0  0  0  0  0  0  0  0  0  0  0  0  # atno 8008 bound_to 7997
  155.4354  140.3451  155.4266 H   0  0  0  0  0  0  0  0  0  0  0  0  # atno 8009 bound_to 7997
  156.1259  140.1487  156.9125 H   0  0  0  0  0  0  0  0  0  0  0  0  # atno 8010 bound_to 7997
  140.6427  143.7736  150.7452 H   0  0  0  0  0  0  0  0  0  0  0  0  # atno 10167 bound_to 10162
  157.6704  130.9813  150.1616 H   0  0  0  0  0  0  0  0  0  0  0  0  # atno 10718 bound_to 10713
  153.0273  135.5220  154.7246 H   0  0  0  0  0  0  0  0  0  0  0  0  # atno 10763 bound_to 10752
  154.6292  135.2898  155.0239 H   0  0  0  0  0  0  0  0  0  0  0  0  # atno 10764 bound_to 10752
  154.1197  135.6609  153.4953 H   0  0  0  0  0  0  0  0  0  0  0  0  # atno 10765 bound_to 10752
  140.2324  134.8114  157.3330 H   0  0  0  0  0  0  0  0  0  0  0  0  # atno 11005 bound_to 11000
  145.2040  140.9867  143.4139 LP  0  0  0  0  0  0  0  0  0  0  0  0  # atno 17320 bound_to 7965
  144.9749  139.3842  143.6291 LP  0  0  0  0  0  0  0  0  0  0  0  0  # atno 17321 bound_to 7965
  140.1370  143.4474  152.2218 LP  0  0  0  0  0  0  0  0  0  0  0  0  # atno 17342 bound_to 10162
  139.5636  144.7421  151.4084 LP  0  0  0  0  0  0  0  0  0  0  0  0  # atno 17343 bound_to 10162
  156.2391  130.3689  149.8357 LP  0  0  0  0  0  0  0  0  0  0  0  0  # atno 17370 bound_to 10713
  156.6162  130.8607  151.3465 LP  0  0  0  0  0  0  0  0  0  0  0  0  # atno 17371 bound_to 10713
  140.1737  134.4577  155.7815 LP  0  0  0  0  0  0  0  0  0  0  0  0  # atno 17394 bound_to 11000
  141.2217  133.6953  156.7750 LP  0  0  0  0  0  0  0  0  0  0  0  0  # atno 17395 bound_to 11000

$$$$
