AV-unprocessed.smi:38|AV-procd|sdf|345|dock5
  -GOLD-   2262016183D 1   1.00000     0.00000
 Structure written by MMmdl.
 27 28  0  0  0  0  0  0  0  0  2 V2000
  152.6126  136.3690  156.7245 O   0  0  0  0  0  0  0  0  0  0  0  0
  151.9173  137.2032  156.1466 C   0  0  0  0  0  0  0  0  0  0  0  0
  152.1639  138.5440  156.2132 N   0  5  0  0  0  0  0  0  0  0  0  0
  151.3892  139.4691  155.5738 C   0  0  0  0  0  0  0  0  0  0  0  0
  151.6189  140.6781  155.6083 O   0  0  0  0  0  0  0  0  0  0  0  0
  150.2677  139.0229  154.8237 N   0  0  0  0  0  0  0  0  0  0  0  0
  149.4075  140.0300  154.0997 C   0  0  1  0  0  0  0  0  0  0  0  0
  148.2675  139.3450  153.3538 C   0  0  0  0  0  0  0  0  0  0  0  0
  147.1600  140.3921  153.4196 C   0  0  1  0  0  0  0  0  0  0  0  0
  145.9496  139.7911  153.8417 O   0  0  0  0  0  0  0  0  0  0  0  0
  147.6939  141.4816  154.3802 C   0  0  1  0  0  0  0  0  0  0  0  0
  146.6981  142.0134  155.4280 C   0  0  0  0  0  0  0  0  0  0  0  0
  147.3943  142.5731  156.5213 O   0  0  0  0  0  0  0  0  0  0  0  0
  148.8001  140.8661  155.0272 O   0  0  0  0  0  0  0  0  0  0  0  0
  150.0044  137.6675  154.7211 C   0  0  0  0  0  0  0  0  0  0  0  0
  150.7771  136.7569  155.3477 C   0  0  0  0  0  0  0  0  0  0  0  0
  150.4986  135.4470  155.2291 F   0  0  0  0  0  0  0  0  0  0  0  0
  150.0610  140.6265  153.4601 H   0  0  0  0  0  0  0  0  0  0  0  0
  146.9920  140.8275  152.4339 H   0  0  0  0  0  0  0  0  0  0  0  0
  148.0721  142.3075  153.7741 H   0  0  0  0  0  0  0  0  0  0  0  0
  148.5701  139.0863  152.3385 H   0  0  0  0  0  0  0  0  0  0  0  0
  147.9860  138.4326  153.8833 H   0  0  0  0  0  0  0  0  0  0  0  0
  145.3000  139.9172  153.1672 H   0  0  0  0  0  0  0  0  0  0  0  0
  146.0865  142.8093  155.0030 H   0  0  0  0  0  0  0  0  0  0  0  0
  146.0237  141.2271  155.7687 H   0  0  0  0  0  0  0  0  0  0  0  0
  148.0344  143.1834  156.1889 H   0  0  0  0  0  0  0  0  0  0  0  0
  149.1716  137.3239  154.1257 H   0  0  0  0  0  0  0  0  0  0  0  0
  1  2  2  0  0  0  0
  2 16  1  0  0  0  0
  2  3  1  0  0  0  0
  3  4  1  0  0  0  0
  4  5  2  0  0  0  0
  4  6  1  0  0  0  0
  6  7  1  0  0  0  0
  6 15  1  0  0  0  0
  7 18  1  0  0  0  0
  7 14  1  0  0  0  0
  7  8  1  0  0  0  0
  8  9  1  0  0  0  0
  8 21  1  0  0  0  0
  8 22  1  0  0  0  0
  9 19  1  0  0  0  0
  9 10  1  0  0  0  0
  9 11  1  0  0  0  0
 10 23  1  0  0  0  0
 11 20  1  0  0  0  0
 11 12  1  0  0  0  0
 11 14  1  0  0  0  0
 12 13  1  0  0  0  0
 12 24  1  0  0  0  0
 12 25  1  0  0  0  0
 13 26  1  0  0  0  0
 15 16  2  0  0  0  0
 15 27  1  0  0  0  0
 16 17  1  0  0  0  0
M  CHG  1   3  -1
M  END
> <s_m_source_file>
AV-unprocessed.smi

> <i_m_source_file_index>
38

> <i_lp_mmshare_version>
43012

> <i_f3d_flags>
0

> <s_epik_input>
Tz1jMVtuSF1jKD1PKW4oW2NIXWMxRilbQ0BIXTJbQ0gyXVtDQEhdKFtPSF0pW0NASF0oTzIpW0NIMl1bT0hd

> <s_epik_cmdline>
J2VwaWtfcHl0aG9uJywgJy1waCcsICc3LjAnLCAnLXRuJywgJzgnLCAnLW1hJywgJzIwMCcsICctbWV0YWxfYmluZGluZycsICctaW1hZScsICc8aW5maWxlLm1hZT4nLCAnLW9tYWUnLCAnPG91dGZpbGUubWFlPic=

> <r_epik_Ionization_Penalty>
1.68146

> <r_epik_Ionization_Penalty_Charging>
3.4211e-08

> <r_epik_Ionization_Penalty_Neutral>
1.68146

> <r_epik_State_Penalty>
1.78593

> <r_epik_Charging_Adjusted_Penalty>
1.78593

> <i_epik_Tot_Q>
-1

> <i_epik_Tot_abs_Q>
1

> <r_epik_Metal_State_Penalty>
0.0113696

> <b_epik_Metal_Only>
0

> <s_epik_Chemistry_Notes>
This compound contains an acetal/aminal-like group ( X-CH(R)-Y where X, Y are N, S, or O) that may be acid/base labile, releasing an aldehyde.

> <s_lp_Force_Field>
OPLS_2005

> <r_lp_Energy>
42.0277

> <b_lp_Chiralities_Consistent>
1

> <s_lp_Variant>
AV-unprocessed.smi:38-11

> <Gold.Version>
5.8.1

> <Gold.Id.Protein>
6NUR|6NUR_protein|mol2

> <Gold.PLP.Fitness>
36.2515

> <Gold.PLP.PLP>
-23.0668

> <Gold.PLP.part.hbond>
-4.0000

> <Gold.PLP.part.metal>
0.0000

> <Gold.PLP.part.buried>
4.5318

> <Gold.PLP.part.nonpolar>
-22.9507

> <Gold.PLP.part.repulsive>
0.1182

> <Gold.PLP.ligand.clash>
0.0000

> <Gold.PLP.ligand.torsion>
0.2284

> <Gold.PLP.Chemscore.Hbond>
3.5400

> <Gold.PLP.Chemscore.CHOScore>
1.0000

> <Gold.PLP.Chemscore.Metal>
0.0000

> <Gold.Chemscore.Hbonds>
donor molecule, donor type, donor heavy atom, donor atom, acceptor molecule, acceptor atom, score
      L1  H    10    23       P1 10175  1.00
      L1  H    13    26       P1  8028  1.00
      P1  H  7989  7998       L1     5  0.40
      P1  H 10752 10763       L1     1  0.90
      L1  C    15    27       P1  7948  1.00

> <Gold.PLP.Chemscore.Internal.Correction>
0.0215

> <Gold.Rescore>
     Score         DG    S(hbond)    S(metal)    S(lipo)     H(rot)  DE(clash)    DE(int)     intcor
      8.22     -10.50       2.65        0.00      30.31       2.88       0.86       1.42       ----

> <Gold.Chemscore.Fitness>
8.2167

> <Gold.Chemscore.DG>
-10.4989

> <Gold.Chemscore.ZeroCoef>
-5.4800

> <Gold.Chemscore.Hbond>
2.6494

> <Gold.Chemscore.Metal>
0.0000

> <Gold.Chemscore.Lipo>
30.3117

> <Gold.Chemscore.Internal_Hbond>
0.0000

> <Gold.Chemscore.DEClash>
0.8625

> <Gold.Chemscore.DEInternal>
1.4196

> <Gold.Chemscore.Rot>
2.8815

> <Gold.Chemscore.Internal.Correction>
   9.000000E+99

> <Gold.Chemscore.Hbonds>
donor molecule, donor type, donor heavy atom, donor atom, acceptor molecule, acceptor atom, score
      L1  H    10    23       P1 10175  0.98
      L1  H    13    26       P1  8028  0.40
      P1  H  7989  7998       L1     5  0.04
      P1  H 10752 10763       L1     1  0.18

> <Gold.Chemscore.Hbond.Weighted>
-8.8489

> <Gold.Chemscore.Metal.Weighted>
-0.0000

> <Gold.Chemscore.Lipo.Weighted>
-3.5465

> <Gold.Chemscore.Internal_Hbond.Weighted>
0.0000

> <Gold.Chemscore.DEClash.Weighted>
0.8625

> <Gold.Chemscore.DEInternal.Weighted>
1.4196

> <Gold.Chemscore.Rot.Weighted>
7.3765

> <Gold.Chemscore.Internal.Correction.Weighted>
   9.000000E+99

> <Gold.Protein.RotatedTorsions>
[ 6907 6896 6895 6894 ] final -124.72 input  -60.11 | X-H torsion
[ 7974 7965 7964 7962 ] final  102.41 input  175.53 | X-H torsion
[ 8008 7997 7996 7995 ] final  -36.11 input   59.86 | X-H torsion
[ 10167 10162 10161 10158 ] final  -32.05 input  -65.29 | X-H torsion
[ 10718 10713 10712 10709 ] final  115.99 input   66.30 | X-H torsion
[ 10763 10752 10751 10750 ] final   98.31 input  -60.55 | X-H torsion
[ 11005 11000 10999 10996 ] final   86.43 input  -57.11 | X-H torsion

> <Gold.Protein.ActiveResidues>
 VAL166  LYS551  ARG553  GLY616  TRP617  ASP618  TYR619  PRO620  LYS621  CYS622 
 ASP623  PHE694  ASN695  SER759  ASP760  ASP761  ALA762  ILE779  LEU786  VAL792 
 PHE793  MET794  SER795  GLU796  ALA797  LYS798  CYS799  TRP800  GLU811  SER814 

> <Gold.Protein.RotatedAtoms>
  150.8796  133.7391  159.2935 H   0  0  0  0  0  0  0  0  0  0  0  0  # atno 6907 bound_to 6896
  151.4976  135.1059  159.9830 H   0  0  0  0  0  0  0  0  0  0  0  0  # atno 6908 bound_to 6896
  152.4751  133.8073  159.7040 H   0  0  0  0  0  0  0  0  0  0  0  0  # atno 6909 bound_to 6896
  145.3595  139.2421  143.3514 H   0  0  0  0  0  0  0  0  0  0  0  0  # atno 7974 bound_to 7965
  154.4080  140.1639  156.2321 H   0  0  0  0  0  0  0  0  0  0  0  0  # atno 8008 bound_to 7997
  155.9273  140.3417  155.6198 H   0  0  0  0  0  0  0  0  0  0  0  0  # atno 8009 bound_to 7997
  155.7149  140.0761  157.2346 H   0  0  0  0  0  0  0  0  0  0  0  0  # atno 8010 bound_to 7997
  140.7227  143.3724  151.1753 H   0  0  0  0  0  0  0  0  0  0  0  0  # atno 10167 bound_to 10162
  157.6188  131.1019  150.7409 H   0  0  0  0  0  0  0  0  0  0  0  0  # atno 10718 bound_to 10713
  153.2875  135.4153  155.1136 H   0  0  0  0  0  0  0  0  0  0  0  0  # atno 10763 bound_to 10752
  154.8509  135.3510  154.6027 H   0  0  0  0  0  0  0  0  0  0  0  0  # atno 10764 bound_to 10752
  153.6449  135.7055  153.5286 H   0  0  0  0  0  0  0  0  0  0  0  0  # atno 10765 bound_to 10752
  139.8945  134.8355  156.2720 H   0  0  0  0  0  0  0  0  0  0  0  0  # atno 11005 bound_to 11000
  146.2933  140.4226  142.8731 LP  0  0  0  0  0  0  0  0  0  0  0  0  # atno 17320 bound_to 7965
  144.8657  140.7202  143.6079 LP  0  0  0  0  0  0  0  0  0  0  0  0  # atno 17321 bound_to 7965
  139.7298  143.9091  152.3015 LP  0  0  0  0  0  0  0  0  0  0  0  0  # atno 17342 bound_to 10162
  139.8876  144.6983  150.8807 LP  0  0  0  0  0  0  0  0  0  0  0  0  # atno 17343 bound_to 10162
  156.7771  130.4847  149.5408 LP  0  0  0  0  0  0  0  0  0  0  0  0  # atno 17370 bound_to 10713
  156.1323  130.6186  151.0351 LP  0  0  0  0  0  0  0  0  0  0  0  0  # atno 17371 bound_to 10713
  141.0095  133.7104  156.1088 LP  0  0  0  0  0  0  0  0  0  0  0  0  # atno 17394 bound_to 11000
  140.7387  134.4174  157.5557 LP  0  0  0  0  0  0  0  0  0  0  0  0  # atno 17395 bound_to 11000

$$$$
