#       Name:                AV-unprocessed.smi:1762
#       Creating user name   scv26
#       Creation time:       Fri Mar 27 08:32:46 2020


#       File generated by GOLD software.
#

@<TRIPOS>MOLECULE
AV-unprocessed.smi:1762
    58    59     1
SMALL
NO_CHARGES


@<TRIPOS>ATOM
      1 ****        -5.1390  -1.5976  -2.3494 C.3            1 S1                 0.0000
      2 ****        -3.6230  -1.5778  -2.1234 C.3            1 S1                 0.0000
      3 ****        -3.2489  -1.0570  -0.7233 C.3            1 S1                 0.0000
      4 ****        -1.7989  -0.9545  -0.5249 N.3            1 S1                 0.0000
      5 ****        -1.4275  -0.5205   0.8515 C.3            1 S1                 0.0000
      6 ****         0.0849  -0.2361   1.0111 C.2            1 S1                 0.0000
      7 ****         0.9140  -1.1147   0.7707 O.2            1 S1                 0.0000
      8 ****         0.4287   1.0053   1.3903 N.am           1 S1                 0.0000
      9 ****         1.7978   1.4723   1.5693 C.3            1 S1                 0.0000
     10 ****         2.4613   1.8033   0.2217 C.3            1 S1                 0.0000
     11 ****         3.8915   2.2780   0.3871 C.ar           1 S1                 0.0000
     12 ****         4.9935   1.4182   0.1883 C.ar           1 S1                 0.0000
     13 ****         6.2998   1.9209   0.3631 C.ar           1 S1                 0.0000
     14 ****         6.4760   3.2705   0.7333 C.ar           1 S1                 0.0000
     15 ****         5.3399   4.0841   0.9209 C.ar           1 S1                 0.0000
     16 ****         4.1046   3.5655   0.7441 N.pl3          1 S1                 1.0000
     17 ****        -1.9386  -1.4524   2.0018 C.3            1 S1                 0.0000
     18 ****        -1.5921  -0.9359   3.4132 C.3            1 S1                 0.0000
     19 ****        -1.5081  -2.9247   1.8501 C.3            1 S1                 0.0000
     20 ****        -1.2404  -0.1126  -1.5986 C.3            1 S1                 0.0000
     21 ****        -1.6291  -0.5838  -3.0143 C.3            1 S1                 0.0000
     22 ****        -0.8781  -1.8499  -3.4626 C.3            1 S1                 0.0000
     23 ****        -3.0425  -0.7390  -3.1158 O.3            1 S1                 0.0000
     24 ****        -5.6352  -2.2466  -1.6275 H              1 S1                 0.0000
     25 ****        -5.3787  -1.9670  -3.3468 H              1 S1                 0.0000
     26 ****        -5.5663  -0.5992  -2.2524 H              1 S1                 0.0000
     27 ****        -3.2496  -2.5952  -2.2440 H              1 S1                 0.0000
     28 ****        -3.7163  -0.0854  -0.5534 H              1 S1                 0.0000
     29 ****        -3.6902  -1.7465  -0.0069 H              1 S1                 0.0000
     30 ****        -1.9217   0.4397   1.0152 H              1 S1                 0.0000
     31 ****        -0.3114   1.6700   1.5648 H              1 S1                 0.0000
     32 ****         1.7736   2.3595   2.2027 H              1 S1                 0.0000
     33 ****         2.3783   0.7212   2.1083 H              1 S1                 0.0000
     34 ****         2.4562   0.9272  -0.4285 H              1 S1                 0.0000
     35 ****         1.8893   2.5728  -0.2986 H              1 S1                 0.0000
     36 ****         4.8414   0.3861  -0.0939 H              1 S1                 0.0000
     37 ****         7.1563   1.2793   0.2147 H              1 S1                 0.0000
     38 ****         7.4683   3.6751   0.8710 H              1 S1                 0.0000
     39 ****         5.3817   5.1259   1.2038 H              1 S1                 0.0000
     40 ****        -3.0271  -1.4378   1.9806 H              1 S1                 0.0000
     41 ****        -0.5245  -1.0020   3.6246 H              1 S1                 0.0000
     42 ****        -2.1071  -1.5195   4.1768 H              1 S1                 0.0000
     43 ****        -1.8957   0.1039   3.5381 H              1 S1                 0.0000
     44 ****        -0.4303  -3.0473   1.9531 H              1 S1                 0.0000
     45 ****        -1.7984  -3.3301   0.8808 H              1 S1                 0.0000
     46 ****        -1.9785  -3.5460   2.6125 H              1 S1                 0.0000
     47 ****        -1.5824   0.9151  -1.4640 H              1 S1                 0.0000
     48 ****        -0.1521  -0.0783  -1.5633 H              1 S1                 0.0000
     49 ****        -1.3610   0.2071  -3.7155 H              1 S1                 0.0000
     50 ****         0.1954  -1.6662  -3.5129 H              1 S1                 0.0000
     51 ****        -1.2057  -2.1657  -4.4531 H              1 S1                 0.0000
     52 ****        -1.0319  -2.6830  -2.7771 H              1 S1                 0.0000
     53 ****         3.2967   4.1726   0.8851 H              1 S1                 0.0000
     54 ****        -1.3860  -1.8627  -0.5938 LP             1 S1                 0.0000
     55 ****         0.6113  -2.0192   0.4702 LP             1 S1                 0.0000
     56 ****         1.8899  -0.9236   0.8761 LP             1 S1                 0.0000
     57 ****        -3.4611   0.1661  -3.0418 LP             1 S1                 0.0000
     58 ****        -3.2490  -1.1295  -4.0129 LP             1 S1                 0.0000
@<TRIPOS>BOND
    1    1    2 1     
    2    1   24 1     
    3    1   25 1     
    4    1   26 1     
    5    2   23 1     
    6    2    3 1     
    7    2   27 1     
    8    3    4 1     
    9    3   28 1     
   10    3   29 1     
   11    4    5 1     
   12    4   20 1     
   13    5    6 1     
   14    5   17 1     
   15    5   30 1     
   16    6    7 2     
   17    6    8 am    
   18    8    9 1     
   19    8   31 1     
   20    9   10 1     
   21    9   32 1     
   22    9   33 1     
   23   10   11 1     
   24   10   34 1     
   25   10   35 1     
   26   11   16 ar    
   27   11   12 ar    
   28   12   13 ar    
   29   12   36 1     
   30   13   14 ar    
   31   13   37 1     
   32   14   15 ar    
   33   14   38 1     
   34   15   16 ar    
   35   15   39 1     
   36   16   53 1     
   37   17   18 1     
   38   17   19 1     
   39   17   40 1     
   40   18   41 1     
   41   18   42 1     
   42   18   43 1     
   43   19   44 1     
   44   19   45 1     
   45   19   46 1     
   46   20   21 1     
   47   20   47 1     
   48   20   48 1     
   49   21   22 1     
   50   21   23 1     
   51   21   49 1     
   52   22   50 1     
   53   22   51 1     
   54   22   52 1     
   55    4   54 1     
   56    7   55 1     
   57    7   56 1     
   58   23   57 1     
   59   23   58 1     
@<TRIPOS>SUBSTRUCTURE
      1 S1             1
@<TRIPOS>SET
LONE_PAIRS      STATIC     ATOMS    <user>   **** ""
5 54 55 56 57 58
DONOR_HYDROGENS      STATIC     ATOMS    <user>   **** ""
2 31 53
ATOM$BLUE        STATIC     ATOMS    COLORGROUP SYSTEM
5 54 55 56 57 58
ATOM$RED        STATIC     ATOMS    COLORGROUP SYSTEM
2 31 53
