AV-unprocessed.smi:220|AV-procd|sdf|1684|dock5
  -GOLD-   2262020123D 1   1.00000     0.00000
 Structure written by MMmdl.
 51 55  0  0  0  0  0  0  0  0  1 V2000
  154.8714  141.1908  160.6784 N   0  0  0  0  0  0  0  0  0  0  0  0
  153.6689  141.7655  160.6004 C   0  0  0  0  0  0  0  0  0  0  0  0
  152.9174  141.8411  161.5714 O   0  0  0  0  0  0  0  0  0  0  0  0
  153.2652  142.3404  159.2292 C   0  0  2  0  0  0  0  0  0  0  0  0
  152.9124  143.8463  159.2811 C   0  0  2  0  0  0  0  0  0  0  0  0
  152.1986  144.3877  160.5321 C   0  0  0  0  0  0  0  0  0  0  0  0
  151.4211  145.6018  160.0226 C   0  0  0  0  0  0  0  0  0  0  0  0
  151.0119  145.2532  158.5850 C   0  0  0  0  0  0  0  0  0  0  0  0
  151.8740  144.0451  158.1796 C   0  0  2  0  0  0  0  0  0  0  0  0
  151.1253  142.7065  158.1554 C   0  0  0  0  0  0  0  0  0  0  0  0
  152.0767  141.7162  158.6450 N   0  0  0  0  0  0  0  0  0  0  0  0
  151.9890  140.4172  158.2475 C   0  0  0  0  0  0  0  0  0  0  0  0
  152.2580  139.4615  159.1759 N   0  0  0  0  0  0  0  0  0  0  0  0
  152.2078  138.1663  158.8564 C   0  0  0  0  0  0  0  0  0  0  0  0
  151.9084  137.6097  157.6833 N   0  0  0  0  0  0  0  0  0  0  0  0
  151.6258  138.5562  156.7441 C   0  0  0  0  0  0  0  0  0  0  0  0
  151.6430  139.9693  156.9358 C   0  0  0  0  0  0  0  0  0  0  0  0
  151.2941  140.5976  155.7448 N   0  0  0  0  0  0  0  0  0  0  0  0
  151.0978  139.6218  154.9027 C   0  0  0  0  0  0  0  0  0  0  0  0
  151.2593  138.3588  155.4228 N   0  0  0  0  0  0  0  0  0  0  0  0
  151.0997  137.0952  154.7165 C   0  0  0  0  0  0  0  0  0  0  0  0
  150.0282  136.1606  155.3191 C   0  0  0  0  0  0  0  0  0  0  0  0
  148.6864  136.8982  155.4672 C   0  0  0  0  0  0  0  0  0  0  0  0
  148.1958  137.3209  154.2113 O   0  0  0  0  0  0  0  0  0  0  0  0
  149.9342  134.7653  154.6835 C   0  0  0  0  0  0  0  0  0  0  0  0
  150.5285  134.1243  155.8311 O   0  0  0  0  0  0  0  0  0  0  0  0
  150.4808  135.3714  156.5551 C   0  0  0  0  0  0  0  0  0  0  0  0
  155.1830  140.8000  161.5558 H   0  0  0  0  0  0  0  0  0  0  0  0
  155.4649  141.1496  159.8628 H   0  0  0  0  0  0  0  0  0  0  0  0
  154.0890  142.2128  158.5261 H   0  0  0  0  0  0  0  0  0  0  0  0
  153.7943  144.4574  159.0831 H   0  0  0  0  0  0  0  0  0  0  0  0
  151.4945  143.6519  160.9241 H   0  0  0  0  0  0  0  0  0  0  0  0
  152.8922  144.6442  161.3337 H   0  0  0  0  0  0  0  0  0  0  0  0
  150.5645  145.8394  160.6540 H   0  0  0  0  0  0  0  0  0  0  0  0
  152.0757  146.4744  160.0141 H   0  0  0  0  0  0  0  0  0  0  0  0
  149.9484  145.0196  158.5241 H   0  0  0  0  0  0  0  0  0  0  0  0
  151.1910  146.1023  157.9246 H   0  0  0  0  0  0  0  0  0  0  0  0
  152.3688  144.2064  157.2208 H   0  0  0  0  0  0  0  0  0  0  0  0
  150.2654  142.7128  158.8265 H   0  0  0  0  0  0  0  0  0  0  0  0
  150.7677  142.4838  157.1489 H   0  0  0  0  0  0  0  0  0  0  0  0
  152.4418  137.4781  159.6551 H   0  0  0  0  0  0  0  0  0  0  0  0
  150.8276  139.8036  153.8734 H   0  0  0  0  0  0  0  0  0  0  0  0
  150.8581  137.3272  153.6785 H   0  0  0  0  0  0  0  0  0  0  0  0
  152.0686  136.5957  154.6819 H   0  0  0  0  0  0  0  0  0  0  0  0
  147.9351  136.2805  155.9587 H   0  0  0  0  0  0  0  0  0  0  0  0
  148.8020  137.7845  156.0918 H   0  0  0  0  0  0  0  0  0  0  0  0
  148.7796  137.0062  153.5381 H   0  0  0  0  0  0  0  0  0  0  0  0
  148.9125  134.4235  154.5122 H   0  0  0  0  0  0  0  0  0  0  0  0
  150.5385  134.6334  153.7869 H   0  0  0  0  0  0  0  0  0  0  0  0
  151.4588  135.6681  156.9360 H   0  0  0  0  0  0  0  0  0  0  0  0
  149.7442  135.3456  157.3595 H   0  0  0  0  0  0  0  0  0  0  0  0
  1  2  1  0  0  0  0
  1 28  1  0  0  0  0
  1 29  1  0  0  0  0
  2  3  2  0  0  0  0
  2  4  1  0  0  0  0
  4 11  1  0  0  0  0
  4  5  1  0  0  0  0
  4 30  1  0  0  0  0
  5  9  1  0  0  0  0
  5  6  1  0  0  0  0
  5 31  1  0  0  0  0
  6  7  1  0  0  0  0
  6 32  1  0  0  0  0
  6 33  1  0  0  0  0
  7  8  1  0  0  0  0
  7 34  1  0  0  0  0
  7 35  1  0  0  0  0
  8  9  1  0  0  0  0
  8 36  1  0  0  0  0
  8 37  1  0  0  0  0
  9 10  1  0  0  0  0
  9 38  1  0  0  0  0
 10 11  1  0  0  0  0
 10 39  1  0  0  0  0
 10 40  1  0  0  0  0
 11 12  1  0  0  0  0
 12 17  1  0  0  0  0
 12 13  2  0  0  0  0
 13 14  1  0  0  0  0
 14 15  2  0  0  0  0
 14 41  1  0  0  0  0
 15 16  1  0  0  0  0
 16 20  1  0  0  0  0
 16 17  2  0  0  0  0
 17 18  1  0  0  0  0
 18 19  2  0  0  0  0
 19 20  1  0  0  0  0
 19 42  1  0  0  0  0
 20 21  1  0  0  0  0
 21 22  1  0  0  0  0
 21 43  1  0  0  0  0
 21 44  1  0  0  0  0
 22 27  1  0  0  0  0
 22 23  1  0  0  0  0
 22 25  1  0  0  0  0
 23 24  1  0  0  0  0
 23 45  1  0  0  0  0
 23 46  1  0  0  0  0
 24 47  1  0  0  0  0
 25 26  1  0  0  0  0
 25 48  1  0  0  0  0
 25 49  1  0  0  0  0
 26 27  1  0  0  0  0
 27 50  1  0  0  0  0
 27 51  1  0  0  0  0
M  END
> <s_m_source_file>
AV-unprocessed.smi

> <i_m_source_file_index>
220

> <i_lp_mmshare_version>
43012

> <i_f3d_flags>
0

> <s_epik_input>
W0NIMl0xW0NIMl1bQ0gyXVtDQEhdKFtDQEhdMTIpW0NIMl1OKFtDQEBIXTJDKD1PKVtOSDJdKWMobltjSF1uMyljKGMzNCluW2NIXW40W0NIMl1DNShbQ0gyXVtPSF0pW0NIMl1PW0NIMl01

> <s_epik_cmdline>
J2VwaWtfcHl0aG9uJywgJy1waCcsICc3LjAnLCAnLXRuJywgJzgnLCAnLW1hJywgJzIwMCcsICctbWV0YWxfYmluZGluZycsICctaW1hZScsICc8aW5maWxlLm1hZT4nLCAnLW9tYWUnLCAnPG91dGZpbGUubWFlPic=

> <r_lp_tautomer_probability>
1

> <r_epik_Ionization_Penalty>
0.00118987

> <r_epik_Ionization_Penalty_Charging>
0

> <r_epik_Ionization_Penalty_Neutral>
0.00118987

> <r_epik_State_Penalty>
0.000654261

> <r_epik_Charging_Adjusted_Penalty>
0.000654261

> <i_epik_Tot_Q>
0

> <i_epik_Tot_abs_Q>
0

> <r_epik_Metal_State_Penalty>
-0

> <b_epik_Metal_Only>
0

> <s_lp_Force_Field>
OPLS_2005

> <r_lp_Energy>
60.6153

> <b_lp_Chiralities_Consistent>
1

> <s_lp_Variant>
AV-unprocessed.smi:220-3

> <Gold.Version>
5.8.1

> <Gold.Id.Protein>
6NUR|6NUR_protein|mol2

> <Gold.PLP.Fitness>
52.4995

> <Gold.PLP.PLP>
-51.1430

> <Gold.PLP.part.hbond>
-2.6479

> <Gold.PLP.part.metal>
0.0000

> <Gold.PLP.part.buried>
-6.3282

> <Gold.PLP.part.nonpolar>
-42.5261

> <Gold.PLP.part.repulsive>
0.1059

> <Gold.PLP.ligand.clash>
0.0000

> <Gold.PLP.ligand.torsion>
1.0187

> <Gold.PLP.Chemscore.Hbond>
0.9920

> <Gold.PLP.Chemscore.CHOScore>
0.0000

> <Gold.PLP.Chemscore.Metal>
0.0000

> <Gold.Chemscore.Hbonds>
donor molecule, donor type, donor heavy atom, donor atom, acceptor molecule, acceptor atom, score
      L1  H    24    47       P1  7948  0.96

> <Gold.PLP.Chemscore.Internal.Correction>
0.4179

> <Gold.Rescore>
     Score         DG    S(hbond)    S(metal)    S(lipo)     H(rot)  DE(clash)    DE(int)     intcor
      9.60     -14.05       0.98        0.00     108.54       2.89       0.01       4.44       ----

> <Gold.Chemscore.Fitness>
9.5965

> <Gold.Chemscore.DG>
-14.0469

> <Gold.Chemscore.ZeroCoef>
-5.4800

> <Gold.Chemscore.Hbond>
0.9755

> <Gold.Chemscore.Metal>
0.0000

> <Gold.Chemscore.Lipo>
108.5416

> <Gold.Chemscore.Internal_Hbond>
0.0000

> <Gold.Chemscore.DEClash>
0.0075

> <Gold.Chemscore.DEInternal>
4.4429

> <Gold.Chemscore.Rot>
2.8869

> <Gold.Chemscore.Internal.Correction>
   9.000000E+99

> <Gold.Chemscore.Hbonds>
donor molecule, donor type, donor heavy atom, donor atom, acceptor molecule, acceptor atom, score
      L1  H    24    47       P1  7948  0.92

> <Gold.Chemscore.Hbond.Weighted>
-3.2580

> <Gold.Chemscore.Metal.Weighted>
-0.0000

> <Gold.Chemscore.Lipo.Weighted>
-12.6994

> <Gold.Chemscore.Internal_Hbond.Weighted>
0.0000

> <Gold.Chemscore.DEClash.Weighted>
0.0075

> <Gold.Chemscore.DEInternal.Weighted>
4.4429

> <Gold.Chemscore.Rot.Weighted>
7.3905

> <Gold.Chemscore.Internal.Correction.Weighted>
   9.000000E+99

> <Gold.Protein.RotatedTorsions>
[ 6907 6896 6895 6894 ] final  102.18 input  -60.11 | X-H torsion
[ 7974 7965 7964 7962 ] final -153.07 input  175.53 | X-H torsion
[ 8008 7997 7996 7995 ] final  -89.07 input   59.86 | X-H torsion
[ 10167 10162 10161 10158 ] final   74.24 input  -65.29 | X-H torsion
[ 10718 10713 10712 10709 ] final   40.17 input   66.30 | X-H torsion
[ 10763 10752 10751 10750 ] final -165.99 input  -60.55 | X-H torsion
[ 11005 11000 10999 10996 ] final  127.59 input  -57.11 | X-H torsion

> <Gold.Protein.ActiveResidues>
 VAL166  LYS551  ARG553  GLY616  TRP617  ASP618  TYR619  PRO620  LYS621  CYS622 
 ASP623  PHE694  ASN695  SER759  ASP760  ASP761  ALA762  ILE779  LEU786  VAL792 
 PHE793  MET794  SER795  GLU796  ALA797  LYS798  CYS799  TRP800  GLU811  SER814 

> <Gold.Protein.RotatedAtoms>
  152.5330  134.0015  159.7896 H   0  0  0  0  0  0  0  0  0  0  0  0  # atno 6907 bound_to 6896
  151.0233  133.5849  159.2676 H   0  0  0  0  0  0  0  0  0  0  0  0  # atno 6908 bound_to 6896
  151.2881  135.0740  159.9247 H   0  0  0  0  0  0  0  0  0  0  0  0  # atno 6909 bound_to 6896
  144.7760  140.4575  143.5873 H   0  0  0  0  0  0  0  0  0  0  0  0  # atno 7974 bound_to 7965
  154.6822  140.0546  157.0277 H   0  0  0  0  0  0  0  0  0  0  0  0  # atno 8008 bound_to 7997
  155.0935  140.3221  155.4548 H   0  0  0  0  0  0  0  0  0  0  0  0  # atno 8009 bound_to 7997
  156.2698  140.2044  156.6062 H   0  0  0  0  0  0  0  0  0  0  0  0  # atno 8010 bound_to 7997
  140.0158  144.5579  150.7621 H   0  0  0  0  0  0  0  0  0  0  0  0  # atno 10167 bound_to 10162
  157.3790  130.7743  149.7178 H   0  0  0  0  0  0  0  0  0  0  0  0  # atno 10718 bound_to 10713
  154.6877  135.2965  154.9524 H   0  0  0  0  0  0  0  0  0  0  0  0  # atno 10763 bound_to 10752
  154.0497  135.6646  153.4803 H   0  0  0  0  0  0  0  0  0  0  0  0  # atno 10764 bound_to 10752
  153.0590  135.5127  154.7953 H   0  0  0  0  0  0  0  0  0  0  0  0  # atno 10765 bound_to 10752
  139.9516  134.9621  156.8878 H   0  0  0  0  0  0  0  0  0  0  0  0  # atno 11005 bound_to 11000
  145.6185  139.1521  143.3036 LP  0  0  0  0  0  0  0  0  0  0  0  0  # atno 17320 bound_to 7965
  146.1939  140.6297  142.9133 LP  0  0  0  0  0  0  0  0  0  0  0  0  # atno 17321 bound_to 7965
  140.7363  143.2751  151.3767 LP  0  0  0  0  0  0  0  0  0  0  0  0  # atno 17342 bound_to 10162
  139.6174  144.0976  152.2358 LP  0  0  0  0  0  0  0  0  0  0  0  0  # atno 17343 bound_to 10162
  155.9771  130.4066  150.3731 LP  0  0  0  0  0  0  0  0  0  0  0  0  # atno 17370 bound_to 10713
  157.1832  131.0397  151.2738 LP  0  0  0  0  0  0  0  0  0  0  0  0  # atno 17371 bound_to 10713
  140.5706  134.0446  155.7429 LP  0  0  0  0  0  0  0  0  0  0  0  0  # atno 17394 bound_to 11000
  141.1179  133.9509  157.2786 LP  0  0  0  0  0  0  0  0  0  0  0  0  # atno 17395 bound_to 11000

$$$$
