#       Name:                AV-unprocessed.smi:2551
#       Creating user name   scv26
#       Creation time:       Fri Mar 27 14:05:58 2020


#       File generated by GOLD software.
#

@<TRIPOS>MOLECULE
AV-unprocessed.smi:2551
    30    31     1
SMALL
NO_CHARGES


@<TRIPOS>ATOM
      1 ****        -2.2932  -2.0614   0.0475 O.2            1 S1                 0.0000
      2 ****        -1.0667  -1.9720   0.0089 C.2            1 S1                 0.0000
      3 ****        -0.2371  -3.0336   0.1886 N.pl3          1 S1                -1.0000
      4 ****         1.1034  -2.9242   0.1378 C.2            1 S1                 0.0000
      5 ****         1.8533  -2.7447   1.2371 N.2            1 S1                 0.0000
      6 ****         3.2111  -2.6547   0.9630 N.2            1 S1                 0.0000
      7 ****         3.4528  -2.7800  -0.3416 C.2            1 S1                 0.0000
      8 ****         2.0439  -3.0168  -1.3537 S.3            1 S1                 0.0000
      9 ****        -0.5084  -0.7672  -0.2204 N.am           1 S1                 0.0000
     10 ****        -1.2236   0.4873  -0.4406 C.3            1 S1                 0.0000
     11 ****        -0.3169   1.5133  -1.1471 C.3            1 S1                 0.0000
     12 ****        -0.4542   2.8153  -0.3565 C.3            1 S1                 0.0000
     13 ****        -0.7486   2.3604   1.0691 C.3            1 S1                 0.0000
     14 ****        -1.6472   1.1362   0.8922 C.3            1 S1                 0.0000
     15 ****         4.4668  -2.7339  -0.7101 H              1 S1                 0.0000
     16 ****         0.4998  -0.7210  -0.2383 H              1 S1                 0.0000
     17 ****        -2.1073   0.3041  -1.0545 H              1 S1                 0.0000
     18 ****         0.7251   1.1900  -1.1179 H              1 S1                 0.0000
     19 ****        -0.5828   1.6434  -2.1966 H              1 S1                 0.0000
     20 ****         0.4350   3.4427  -0.4229 H              1 S1                 0.0000
     21 ****        -1.2984   3.3907  -0.7388 H              1 S1                 0.0000
     22 ****         0.1801   2.0669   1.5602 H              1 S1                 0.0000
     23 ****        -1.2145   3.1399   1.6727 H              1 S1                 0.0000
     24 ****        -2.6861   1.4599   0.8176 H              1 S1                 0.0000
     25 ****        -1.5852   0.4586   1.7451 H              1 S1                 0.0000
     26 ****        -2.7249  -2.9472   0.2178 LP             1 S1                 0.0000
     27 ****        -2.8585  -1.2482  -0.0914 LP             1 S1                 0.0000
     28 ****        -0.6389  -3.9320   0.3656 LP             1 S1                 0.0000
     29 ****         1.4723  -2.6822   2.1595 LP             1 S1                 0.0000
     30 ****         3.9179  -2.5138   1.6562 LP             1 S1                 0.0000
@<TRIPOS>BOND
    1    1    2 2     
    2    2    3 1     
    3    2    9 am    
    4    3    4 1     
    5    4    8 1     
    6    4    5 2     
    7    5    6 1     
    8    6    7 2     
    9    7    8 1     
   10    7   15 1     
   11    9   10 1     
   12    9   16 1     
   13   10   14 1     
   14   10   11 1     
   15   10   17 1     
   16   11   12 1     
   17   11   18 1     
   18   11   19 1     
   19   12   13 1     
   20   12   20 1     
   21   12   21 1     
   22   13   14 1     
   23   13   22 1     
   24   13   23 1     
   25   14   24 1     
   26   14   25 1     
   27    1   26 1     
   28    1   27 1     
   29    3   28 1     
   30    5   29 1     
   31    6   30 1     
@<TRIPOS>SUBSTRUCTURE
      1 S1             1
@<TRIPOS>SET
LONE_PAIRS      STATIC     ATOMS    <user>   **** ""
5 26 27 28 29 30
DONOR_HYDROGENS      STATIC     ATOMS    <user>   **** ""
1 16
ATOM$BLUE        STATIC     ATOMS    COLORGROUP SYSTEM
5 26 27 28 29 30
ATOM$RED        STATIC     ATOMS    COLORGROUP SYSTEM
1 16
