AV-unprocessed.smi:21|AV-procd|sdf|166|dock8
  -GOLD-   2262015413D 1   1.00000     0.00000
 Structure written by MMmdl.
 61 64  0  0  0  0  0  0  0  0  1 V2000
  151.4975  144.6203  159.4632 C   0  0  0  0  0  0  0  0  0  0  0  0
  150.9211  143.4758  158.8541 O   0  0  0  0  0  0  0  0  0  0  0  0
  151.8355  142.7393  158.0544 C   0  0  2  0  0  0  0  0  0  0  0  0
  151.1501  141.6502  157.2080 C   0  0  0  0  0  0  0  0  0  0  0  0
  151.7486  140.3303  157.7177 C   0  0  1  0  0  0  0  0  0  0  0  0
  151.7952  139.2168  156.6470 C   0  0  0  0  0  0  0  0  0  0  0  0
  151.1066  137.9925  157.0569 N   0  0  0  0  0  0  0  0  0  0  0  0
  151.6292  136.7194  156.5631 C   0  0  0  0  0  0  0  0  0  0  0  0
  149.8109  138.0488  157.4845 C   0  0  0  0  0  0  0  0  0  0  0  0
  149.0095  139.0346  156.9958 N   0  0  0  0  0  0  0  0  0  0  0  0
  147.7421  139.1541  157.3975 C   0  0  0  0  0  0  0  0  0  0  0  0
  147.0722  138.4036  158.2709 N   0  0  0  0  0  0  0  0  0  0  0  0
  147.8550  137.4015  158.7605 C   0  0  0  0  0  0  0  0  0  0  0  0
  149.2181  137.1490  158.4251 C   0  0  0  0  0  0  0  0  0  0  0  0
  149.6626  136.0328  159.1275 N   0  0  0  0  0  0  0  0  0  0  0  0
  148.6360  135.6598  159.8395 C   0  0  0  0  0  0  0  0  0  0  0  0
  147.5052  136.4233  159.6750 N   0  0  0  0  0  0  0  0  0  0  0  0
  146.2292  136.2346  160.3438 C   0  0  0  0  0  0  0  0  0  0  0  0
  146.3571  135.5857  161.7438 C   0  0  1  0  0  0  0  0  0  0  0  0
  147.4762  136.2770  162.5581 C   0  0  0  0  0  0  0  0  0  0  0  0
  147.3319  137.6812  162.5083 O   0  0  0  0  0  0  0  0  0  0  0  0
  144.9989  135.5121  162.4971 C   0  0  1  0  0  0  0  0  0  0  0  0
  144.2005  136.8171  162.5360 C   0  0  0  0  0  0  0  0  0  0  0  0
  142.8166  136.4259  162.0197 C   0  0  0  0  0  0  0  0  0  0  0  0
  142.7316  135.0380  162.2961 O   0  0  0  0  0  0  0  0  0  0  0  0
  143.9926  134.4824  161.9627 C   0  0  0  0  0  0  0  0  0  0  0  0
  153.0434  140.6966  158.2663 N   0  0  0  0  0  0  0  0  0  0  0  0
  153.6122  139.6867  159.1494 C   0  0  0  0  0  0  0  0  0  0  0  0
  152.7828  141.9438  158.9580 C   0  0  0  0  0  0  0  0  0  0  0  0
  152.4198  143.4047  157.4162 H   0  0  0  0  0  0  0  0  0  0  0  0
  151.1214  139.9953  158.5455 H   0  0  0  0  0  0  0  0  0  0  0  0
  150.7434  145.1341  160.0586 H   0  0  0  0  0  0  0  0  0  0  0  0
  151.8750  145.3262  158.7227 H   0  0  0  0  0  0  0  0  0  0  0  0
  152.3160  144.3421  160.1281 H   0  0  0  0  0  0  0  0  0  0  0  0
  150.0646  141.6512  157.3095 H   0  0  0  0  0  0  0  0  0  0  0  0
  151.3855  141.8056  156.1543 H   0  0  0  0  0  0  0  0  0  0  0  0
  151.3397  139.5913  155.7298 H   0  0  0  0  0  0  0  0  0  0  0  0
  152.8183  138.9769  156.3658 H   0  0  0  0  0  0  0  0  0  0  0  0
  151.4898  135.9306  157.3032 H   0  0  0  0  0  0  0  0  0  0  0  0
  152.6970  136.7863  156.3542 H   0  0  0  0  0  0  0  0  0  0  0  0
  151.1249  136.4248  155.6423 H   0  0  0  0  0  0  0  0  0  0  0  0
  147.1874  139.9700  156.9584 H   0  0  0  0  0  0  0  0  0  0  0  0
  148.6738  134.8094  160.5047 H   0  0  0  0  0  0  0  0  0  0  0  0
  145.7525  137.2124  160.4199 H   0  0  0  0  0  0  0  0  0  0  0  0
  145.5834  135.6299  159.7063 H   0  0  0  0  0  0  0  0  0  0  0  0
  146.6684  134.5510  161.5904 H   0  0  0  0  0  0  0  0  0  0  0  0
  147.4572  135.9615  163.6013 H   0  0  0  0  0  0  0  0  0  0  0  0
  148.4648  136.0341  162.1711 H   0  0  0  0  0  0  0  0  0  0  0  0
  146.9937  137.9784  163.3394 H   0  0  0  0  0  0  0  0  0  0  0  0
  145.1915  135.2588  163.5402 H   0  0  0  0  0  0  0  0  0  0  0  0
  144.1287  137.1723  163.5648 H   0  0  0  0  0  0  0  0  0  0  0  0
  144.6370  137.6254  161.9497 H   0  0  0  0  0  0  0  0  0  0  0  0
  142.0134  136.9831  162.5020 H   0  0  0  0  0  0  0  0  0  0  0  0
  142.7465  136.5860  160.9424 H   0  0  0  0  0  0  0  0  0  0  0  0
  144.0472  134.3689  160.8803 H   0  0  0  0  0  0  0  0  0  0  0  0
  144.1215  133.4977  162.4112 H   0  0  0  0  0  0  0  0  0  0  0  0
  154.5490  140.0397  159.5814 H   0  0  0  0  0  0  0  0  0  0  0  0
  153.8278  138.7676  158.6053 H   0  0  0  0  0  0  0  0  0  0  0  0
  152.9311  139.4453  159.9667 H   0  0  0  0  0  0  0  0  0  0  0  0
  153.7040  142.4855  159.1740 H   0  0  0  0  0  0  0  0  0  0  0  0
  152.2890  141.7407  159.9102 H   0  0  0  0  0  0  0  0  0  0  0  0
  1  2  1  0  0  0  0
  1 32  1  0  0  0  0
  1 33  1  0  0  0  0
  1 34  1  0  0  0  0
  2  3  1  0  0  0  0
  3 30  1  0  0  0  0
  3 29  1  0  0  0  0
  3  4  1  0  0  0  0
  4  5  1  0  0  0  0
  4 35  1  0  0  0  0
  4 36  1  0  0  0  0
  5 31  1  0  0  0  0
  5  6  1  0  0  0  0
  5 27  1  0  0  0  0
  6  7  1  0  0  0  0
  6 37  1  0  0  0  0
  6 38  1  0  0  0  0
  7  8  1  0  0  0  0
  7  9  1  0  0  0  0
  8 39  1  0  0  0  0
  8 40  1  0  0  0  0
  8 41  1  0  0  0  0
  9 14  1  0  0  0  0
  9 10  2  0  0  0  0
 10 11  1  0  0  0  0
 11 12  2  0  0  0  0
 11 42  1  0  0  0  0
 12 13  1  0  0  0  0
 13 17  1  0  0  0  0
 13 14  2  0  0  0  0
 14 15  1  0  0  0  0
 15 16  2  0  0  0  0
 16 17  1  0  0  0  0
 16 43  1  0  0  0  0
 17 18  1  0  0  0  0
 18 19  1  0  0  0  0
 18 44  1  0  0  0  0
 18 45  1  0  0  0  0
 19 20  1  0  0  0  0
 19 22  1  0  0  0  0
 19 46  1  0  0  0  0
 20 21  1  0  0  0  0
 20 47  1  0  0  0  0
 20 48  1  0  0  0  0
 21 49  1  0  0  0  0
 22 26  1  0  0  0  0
 22 23  1  0  0  0  0
 22 50  1  0  0  0  0
 23 24  1  0  0  0  0
 23 51  1  0  0  0  0
 23 52  1  0  0  0  0
 24 25  1  0  0  0  0
 24 53  1  0  0  0  0
 24 54  1  0  0  0  0
 25 26  1  0  0  0  0
 26 55  1  0  0  0  0
 26 56  1  0  0  0  0
 27 28  1  0  0  0  0
 27 29  1  0  0  0  0
 28 57  1  0  0  0  0
 28 58  1  0  0  0  0
 28 59  1  0  0  0  0
 29 60  1  0  0  0  0
 29 61  1  0  0  0  0
M  END
> <s_m_source_file>
AV-unprocessed.smi

> <i_m_source_file_index>
21

> <i_lp_mmshare_version>
43012

> <i_f3d_flags>
0

> <s_epik_input>
W0NIM11PW0NASF0xW0NIMl1bQ0BIXShOKFtDSDNdKVtDSDJdMSlbQ0gyXU4oW0NIM10pYyhuW2NIXW4yKWMoYzIzKW5bY0hdbjNbQ0gyXVtDQEhdKFtDSDJdW09IXSlbQ0BASF00W0NIMl1bQ0gyXU9bQ0gyXTQ=

> <s_epik_cmdline>
J2VwaWtfcHl0aG9uJywgJy1waCcsICc3LjAnLCAnLXRuJywgJzgnLCAnLW1hJywgJzIwMCcsICctbWV0YWxfYmluZGluZycsICctaW1hZScsICc8aW5maWxlLm1hZT4nLCAnLW9tYWUnLCAnPG91dGZpbGUubWFlPic=

> <r_lp_tautomer_probability>
1

> <r_epik_Ionization_Penalty>
2.17574

> <r_epik_Ionization_Penalty_Charging>
0

> <r_epik_Ionization_Penalty_Neutral>
2.17574

> <r_epik_State_Penalty>
2.31336

> <r_epik_Charging_Adjusted_Penalty>
2.31336

> <i_epik_Tot_Q>
0

> <i_epik_Tot_abs_Q>
0

> <r_epik_Metal_State_Penalty>
2.31025

> <b_epik_Metal_Only>
0

> <s_lp_Force_Field>
OPLS_2005

> <r_lp_Energy>
69.2807

> <b_lp_Chiralities_Consistent>
1

> <s_lp_Variant>
AV-unprocessed.smi:21-46

> <Gold.Version>
5.8.1

> <Gold.Id.Protein>
6NUR|6NUR_protein|mol2

> <Gold.PLP.Fitness>
45.6127

> <Gold.PLP.PLP>
-42.1404

> <Gold.PLP.part.hbond>
-5.0000

> <Gold.PLP.part.metal>
0.0000

> <Gold.PLP.part.buried>
-5.6989

> <Gold.PLP.part.nonpolar>
-29.6790

> <Gold.PLP.part.repulsive>
0.0494

> <Gold.PLP.ligand.clash>
0.0000

> <Gold.PLP.ligand.torsion>
2.4084

> <Gold.PLP.Chemscore.Hbond>
2.5170

> <Gold.PLP.Chemscore.CHOScore>
0.0000

> <Gold.PLP.Chemscore.Metal>
0.0000

> <Gold.Chemscore.Hbonds>
donor molecule, donor type, donor heavy atom, donor atom, acceptor molecule, acceptor atom, score
      P1  H  6896  6909       L1    15  1.00
      P1  H  6931  6943       L1    21  0.54
      P1  H  6934  6947       L1    21  0.38
      P1  H  7997  8008       L1    27  0.03

> <Gold.PLP.Chemscore.Internal.Correction>
0.7380

> <Gold.Rescore>
     Score         DG    S(hbond)    S(metal)    S(lipo)     H(rot)  DE(clash)    DE(int)     intcor
      9.97     -13.62       1.32        0.00      97.63       3.00       0.02       3.63       ----

> <Gold.Chemscore.Fitness>
9.9651

> <Gold.Chemscore.DG>
-13.6171

> <Gold.Chemscore.ZeroCoef>
-5.4800

> <Gold.Chemscore.Hbond>
1.3180

> <Gold.Chemscore.Metal>
0.0000

> <Gold.Chemscore.Lipo>
97.6327

> <Gold.Chemscore.Internal_Hbond>
0.0000

> <Gold.Chemscore.DEClash>
0.0224

> <Gold.Chemscore.DEInternal>
3.6296

> <Gold.Chemscore.Rot>
3.0031

> <Gold.Chemscore.Internal.Correction>
   9.000000E+99

> <Gold.Chemscore.Hbonds>
donor molecule, donor type, donor heavy atom, donor atom, acceptor molecule, acceptor atom, score
      P1  H  6896  6909       L1    15  0.26
      P1  H  6931  6943       L1    21  0.23
      P1  H  6934  6947       L1    21  0.33

> <Gold.Chemscore.Hbond.Weighted>
-4.4021

> <Gold.Chemscore.Metal.Weighted>
-0.0000

> <Gold.Chemscore.Lipo.Weighted>
-11.4230

> <Gold.Chemscore.Internal_Hbond.Weighted>
0.0000

> <Gold.Chemscore.DEClash.Weighted>
0.0224

> <Gold.Chemscore.DEInternal.Weighted>
3.6296

> <Gold.Chemscore.Rot.Weighted>
7.6880

> <Gold.Chemscore.Internal.Correction.Weighted>
   9.000000E+99

> <Gold.Protein.RotatedTorsions>
[ 6907 6896 6895 6894 ] final   73.65 input  -60.11 | X-H torsion
[ 7974 7965 7964 7962 ] final -136.41 input  175.53 | X-H torsion
[ 8008 7997 7996 7995 ] final  -88.58 input   59.86 | X-H torsion
[ 10167 10162 10161 10158 ] final  -86.65 input  -65.29 | X-H torsion
[ 10718 10713 10712 10709 ] final   -0.83 input   66.30 | X-H torsion
[ 10763 10752 10751 10750 ] final   43.35 input  -60.55 | X-H torsion
[ 11005 11000 10999 10996 ] final   67.42 input  -57.11 | X-H torsion

> <Gold.Protein.ActiveResidues>
 VAL166  LYS551  ARG553  GLY616  TRP617  ASP618  TYR619  PRO620  LYS621  CYS622 
 ASP623  PHE694  ASN695  SER759  ASP760  ASP761  ALA762  ILE779  LEU786  VAL792 
 PHE793  MET794  SER795  GLU796  ALA797  LYS798  CYS799  TRP800  GLU811  SER814 

> <Gold.Protein.RotatedAtoms>
  152.4935  134.4389  159.9536 H   0  0  0  0  0  0  0  0  0  0  0  0  # atno 6907 bound_to 6896
  151.4372  133.3647  159.2784 H   0  0  0  0  0  0  0  0  0  0  0  0  # atno 6908 bound_to 6896
  150.9113  134.8553  159.7487 H   0  0  0  0  0  0  0  0  0  0  0  0  # atno 6909 bound_to 6896
  144.8930  140.6668  143.5133 H   0  0  0  0  0  0  0  0  0  0  0  0  # atno 7974 bound_to 7965
  154.6765  140.0552  157.0221 H   0  0  0  0  0  0  0  0  0  0  0  0  # atno 8008 bound_to 7997
  155.1013  140.3229  155.4527 H   0  0  0  0  0  0  0  0  0  0  0  0  # atno 8009 bound_to 7997
  156.2678  140.2030  156.6139 H   0  0  0  0  0  0  0  0  0  0  0  0  # atno 8010 bound_to 7997
  140.3921  143.2700  151.9251 H   0  0  0  0  0  0  0  0  0  0  0  0  # atno 10167 bound_to 10162
  156.8146  130.5436  149.5704 H   0  0  0  0  0  0  0  0  0  0  0  0  # atno 10718 bound_to 10713
  152.9862  135.6104  154.3097 H   0  0  0  0  0  0  0  0  0  0  0  0  # atno 10763 bound_to 10752
  154.2813  135.2777  155.2698 H   0  0  0  0  0  0  0  0  0  0  0  0  # atno 10764 bound_to 10752
  154.5035  135.5860  153.6606 H   0  0  0  0  0  0  0  0  0  0  0  0  # atno 10765 bound_to 10752
  139.9772  134.6803  156.0331 H   0  0  0  0  0  0  0  0  0  0  0  0  # atno 11005 bound_to 11000
  145.3750  139.1650  143.4311 LP  0  0  0  0  0  0  0  0  0  0  0  0  # atno 17320 bound_to 7965
  146.3065  140.3825  142.8685 LP  0  0  0  0  0  0  0  0  0  0  0  0  # atno 17321 bound_to 7965
  139.4788  144.5717  151.8077 LP  0  0  0  0  0  0  0  0  0  0  0  0  # atno 17342 bound_to 10162
  140.4829  144.1424  150.5936 LP  0  0  0  0  0  0  0  0  0  0  0  0  # atno 17343 bound_to 10162
  156.1024  130.5979  150.9916 LP  0  0  0  0  0  0  0  0  0  0  0  0  # atno 17370 bound_to 10713
  157.6488  131.0900  150.8095 LP  0  0  0  0  0  0  0  0  0  0  0  0  # atno 17371 bound_to 10713
  141.1448  133.6558  156.3835 LP  0  0  0  0  0  0  0  0  0  0  0  0  # atno 17394 bound_to 11000
  140.5170  134.6340  157.5305 LP  0  0  0  0  0  0  0  0  0  0  0  0  # atno 17395 bound_to 11000

$$$$
