AV-unprocessed.smi:3047|AV-procd|sdf|11624|dock4
  -GOLD-   2272017 13D 1   1.00000     0.00000
 Structure written by MMmdl.
 37 38  0  0  0  0  0  0  0  0  1 V2000
  154.2628  138.7943  161.7090 C   0  0  0  0  0  0  0  0  0  0  0  0
  155.1153  140.0845  160.7106 S   0  0  0  0  0  0  0  0  0  0  0  0
  156.3059  140.5204  161.4562 O   0  0  0  0  0  0  0  0  0  0  0  0
  155.2498  139.6004  159.3281 O   0  0  0  0  0  0  0  0  0  0  0  0
  153.9898  141.4055  160.7144 N   0  0  0  0  0  0  0  0  0  0  0  0
  153.6513  142.1381  161.9319 C   0  0  0  0  0  0  0  0  0  0  0  0
  152.8377  143.3298  161.4360 C   0  0  0  0  0  0  0  0  0  0  0  0
  152.1263  142.7988  160.1940 C   0  0  0  0  0  0  0  0  0  0  0  0
  153.0904  141.7502  159.5981 C   0  0  2  0  0  0  0  0  0  0  0  0
  152.3435  140.5631  158.9696 C   0  0  0  0  0  0  0  0  0  0  0  0
  152.4433  139.4326  159.4479 O   0  0  0  0  0  0  0  0  0  0  0  0
  151.6188  140.8303  157.8742 N   0  0  0  0  0  0  0  0  0  0  0  0
  150.9032  139.8302  157.0962 C   0  0  0  0  0  0  0  0  0  0  0  0
  151.0429  140.1174  155.5957 C   0  0  0  0  0  0  0  0  0  0  0  0
  149.7545  140.1183  154.9335 N   0  0  0  0  0  0  0  0  0  0  0  0
  149.0522  141.2217  154.4670 C   0  0  0  0  0  0  0  0  0  0  0  0
  147.8846  140.7406  153.9186 C   0  0  0  0  0  0  0  0  0  0  0  0
  147.8475  139.3530  154.0374 N   0  0  0  0  0  0  0  0  0  0  0  0
  148.9876  139.0570  154.6484 C   0  0  0  0  0  0  0  0  0  0  0  0
  154.9325  137.9456  161.8454 H   0  0  0  0  0  0  0  0  0  0  0  0
  153.3637  138.4556  161.1974 H   0  0  0  0  0  0  0  0  0  0  0  0
  153.9961  139.2024  162.6833 H   0  0  0  0  0  0  0  0  0  0  0  0
  153.0554  141.4959  162.5813 H   0  0  0  0  0  0  0  0  0  0  0  0
  154.5476  142.4467  162.4703 H   0  0  0  0  0  0  0  0  0  0  0  0
  152.1477  143.7133  162.1881 H   0  0  0  0  0  0  0  0  0  0  0  0
  153.5105  144.1410  161.1547 H   0  0  0  0  0  0  0  0  0  0  0  0
  151.1735  142.3603  160.4941 H   0  0  0  0  0  0  0  0  0  0  0  0
  151.9044  143.5983  159.4863 H   0  0  0  0  0  0  0  0  0  0  0  0
  153.7008  142.2317  158.8323 H   0  0  0  0  0  0  0  0  0  0  0  0
  151.5963  141.7816  157.5358 H   0  0  0  0  0  0  0  0  0  0  0  0
  151.3028  138.8409  157.3255 H   0  0  0  0  0  0  0  0  0  0  0  0
  149.8510  139.8303  157.3855 H   0  0  0  0  0  0  0  0  0  0  0  0
  151.5174  141.0863  155.4336 H   0  0  0  0  0  0  0  0  0  0  0  0
  151.6773  139.3678  155.1202 H   0  0  0  0  0  0  0  0  0  0  0  0
  149.4299  142.2291  154.5623 H   0  0  0  0  0  0  0  0  0  0  0  0
  147.0745  141.2817  153.4522 H   0  0  0  0  0  0  0  0  0  0  0  0
  149.2704  138.0442  154.8960 H   0  0  0  0  0  0  0  0  0  0  0  0
  1  2  1  0  0  0  0
  1 20  1  0  0  0  0
  1 21  1  0  0  0  0
  1 22  1  0  0  0  0
  2  3  2  0  0  0  0
  2  4  2  0  0  0  0
  2  5  1  0  0  0  0
  5  9  1  0  0  0  0
  5  6  1  0  0  0  0
  6  7  1  0  0  0  0
  6 23  1  0  0  0  0
  6 24  1  0  0  0  0
  7  8  1  0  0  0  0
  7 25  1  0  0  0  0
  7 26  1  0  0  0  0
  8  9  1  0  0  0  0
  8 27  1  0  0  0  0
  8 28  1  0  0  0  0
  9 10  1  0  0  0  0
  9 29  1  0  0  0  0
 10 11  2  0  0  0  0
 10 12  1  0  0  0  0
 12 13  1  0  0  0  0
 12 30  1  0  0  0  0
 13 14  1  0  0  0  0
 13 31  1  0  0  0  0
 13 32  1  0  0  0  0
 14 15  1  0  0  0  0
 14 33  1  0  0  0  0
 14 34  1  0  0  0  0
 15 19  1  0  0  0  0
 15 16  1  0  0  0  0
 16 17  2  0  0  0  0
 16 35  1  0  0  0  0
 17 18  1  0  0  0  0
 17 36  1  0  0  0  0
 18 19  2  0  0  0  0
 19 37  1  0  0  0  0
M  END
> <s_m_source_file>
AV-unprocessed.smi

> <i_m_source_file_index>
3047

> <i_lp_mmshare_version>
43012

> <i_f3d_flags>
0

> <s_epik_input>
W0NIM11TKD1PKSg9TylOMVtDSDJdW0NIMl1bQ0gyXVtDQEhdMUMoPU8pW05IXVtDSDJdW0NIMl1uMltjSF1bY0hdbltjSF0y

> <s_epik_cmdline>
J2VwaWtfcHl0aG9uJywgJy1waCcsICc3LjAnLCAnLXRuJywgJzgnLCAnLW1hJywgJzIwMCcsICctbWV0YWxfYmluZGluZycsICctaW1hZScsICc8aW5maWxlLm1hZT4nLCAnLW9tYWUnLCAnPG91dGZpbGUubWFlPic=

> <r_lp_tautomer_probability>
1

> <r_epik_Ionization_Penalty>
0.575721

> <r_epik_Ionization_Penalty_Charging>
0.575721

> <r_epik_Ionization_Penalty_Neutral>
1.33078e-07

> <r_epik_State_Penalty>
0.588056

> <r_epik_Charging_Adjusted_Penalty>
1.16378

> <i_epik_Tot_Q>
0

> <i_epik_Tot_abs_Q>
0

> <r_epik_Metal_State_Penalty>
0.294357

> <b_epik_Metal_Only>
0

> <s_lp_Force_Field>
OPLS_2005

> <r_lp_Energy>
9.27481

> <b_lp_Chiralities_Consistent>
1

> <s_lp_Variant>
AV-unprocessed.smi:3047-4

> <Gold.Version>
5.8.1

> <Gold.Id.Protein>
6NUR|6NUR_protein|mol2

> <Gold.PLP.Fitness>
45.5766

> <Gold.PLP.PLP>
-41.0228

> <Gold.PLP.part.hbond>
-2.0000

> <Gold.PLP.part.metal>
0.0000

> <Gold.PLP.part.buried>
-0.8978

> <Gold.PLP.part.nonpolar>
-36.2175

> <Gold.PLP.part.repulsive>
0.2399

> <Gold.PLP.ligand.clash>
0.0000

> <Gold.PLP.ligand.torsion>
1.7429

> <Gold.PLP.Chemscore.Hbond>
1.0000

> <Gold.PLP.Chemscore.CHOScore>
1.0000

> <Gold.PLP.Chemscore.Metal>
0.0000

> <Gold.Chemscore.Hbonds>
donor molecule, donor type, donor heavy atom, donor atom, acceptor molecule, acceptor atom, score
      P1  H  7997  8009       L1     4  1.00
      L1  C    16    35       P1  8028  0.42

> <Gold.PLP.Chemscore.Internal.Correction>
2.0395

> <Gold.Rescore>
     Score         DG    S(hbond)    S(metal)    S(lipo)     H(rot)  DE(clash)    DE(int)     intcor
      7.25     -12.53       1.00        0.00      76.10       2.03       0.05       5.23       ----

> <Gold.Chemscore.Fitness>
7.2544

> <Gold.Chemscore.DG>
-12.5321

> <Gold.Chemscore.ZeroCoef>
-5.4800

> <Gold.Chemscore.Hbond>
0.9983

> <Gold.Chemscore.Metal>
0.0000

> <Gold.Chemscore.Lipo>
76.1041

> <Gold.Chemscore.Internal_Hbond>
0.0000

> <Gold.Chemscore.DEClash>
0.0456

> <Gold.Chemscore.DEInternal>
5.2321

> <Gold.Chemscore.Rot>
2.0259

> <Gold.Chemscore.Internal.Correction>
   9.000000E+99

> <Gold.Chemscore.Hbonds>
donor molecule, donor type, donor heavy atom, donor atom, acceptor molecule, acceptor atom, score
      P1  H  7997  8009       L1     4  0.95

> <Gold.Chemscore.Hbond.Weighted>
-3.3342

> <Gold.Chemscore.Metal.Weighted>
-0.0000

> <Gold.Chemscore.Lipo.Weighted>
-8.9042

> <Gold.Chemscore.Internal_Hbond.Weighted>
0.0000

> <Gold.Chemscore.DEClash.Weighted>
0.0456

> <Gold.Chemscore.DEInternal.Weighted>
5.2321

> <Gold.Chemscore.Rot.Weighted>
5.1863

> <Gold.Chemscore.Internal.Correction.Weighted>
   9.000000E+99

> <Gold.Protein.RotatedTorsions>
[ 6907 6896 6895 6894 ] final   19.04 input  -60.11 | X-H torsion
[ 7974 7965 7964 7962 ] final  -22.01 input  175.53 | X-H torsion
[ 8008 7997 7996 7995 ] final  104.52 input   59.86 | X-H torsion
[ 10167 10162 10161 10158 ] final  122.13 input  -65.29 | X-H torsion
[ 10718 10713 10712 10709 ] final  -29.23 input   66.30 | X-H torsion
[ 10763 10752 10751 10750 ] final  145.97 input  -60.55 | X-H torsion
[ 11005 11000 10999 10996 ] final  129.11 input  -57.11 | X-H torsion

> <Gold.Protein.ActiveResidues>
 VAL166  LYS551  ARG553  GLY616  TRP617  ASP618  TYR619  PRO620  LYS621  CYS622 
 ASP623  PHE694  ASN695  SER759  ASP760  ASP761  ALA762  ILE779  LEU786  VAL792 
 PHE793  MET794  SER795  GLU796  ALA797  LYS798  CYS799  TRP800  GLU811  SER814 

> <Gold.Protein.RotatedAtoms>
  151.8747  135.0476  160.0482 H   0  0  0  0  0  0  0  0  0  0  0  0  # atno 6907 bound_to 6896
  152.2561  133.5252  159.5362 H   0  0  0  0  0  0  0  0  0  0  0  0  # atno 6908 bound_to 6896
  150.7100  134.0811  159.3940 H   0  0  0  0  0  0  0  0  0  0  0  0  # atno 6909 bound_to 6896
  146.1700  140.4420  142.8536 H   0  0  0  0  0  0  0  0  0  0  0  0  # atno 7974 bound_to 7965
  156.1580  140.3146  155.8759 H   0  0  0  0  0  0  0  0  0  0  0  0  # atno 8008 bound_to 7997
  155.3839  140.0489  157.3060 H   0  0  0  0  0  0  0  0  0  0  0  0  # atno 8009 bound_to 7997
  154.5119  140.2168  155.9150 H   0  0  0  0  0  0  0  0  0  0  0  0  # atno 8010 bound_to 7997
  139.5877  144.7013  151.3367 H   0  0  0  0  0  0  0  0  0  0  0  0  # atno 10167 bound_to 10162
  156.4151  130.4415  149.7224 H   0  0  0  0  0  0  0  0  0  0  0  0  # atno 10718 bound_to 10713
  154.0142  135.2911  155.3388 H   0  0  0  0  0  0  0  0  0  0  0  0  # atno 10763 bound_to 10752
  154.7085  135.5159  153.8634 H   0  0  0  0  0  0  0  0  0  0  0  0  # atno 10764 bound_to 10752
  153.0709  135.6647  154.0371 H   0  0  0  0  0  0  0  0  0  0  0  0  # atno 10765 bound_to 10752
  139.9597  134.9605  156.9101 H   0  0  0  0  0  0  0  0  0  0  0  0  # atno 11005 bound_to 11000
  144.8149  140.6450  143.6391 LP  0  0  0  0  0  0  0  0  0  0  0  0  # atno 17320 bound_to 7965
  145.4365  139.1541  143.3994 LP  0  0  0  0  0  0  0  0  0  0  0  0  # atno 17321 bound_to 7965
  140.7146  143.7300  150.7631 LP  0  0  0  0  0  0  0  0  0  0  0  0  # atno 17342 bound_to 10162
  140.0848  143.4934  152.2510 LP  0  0  0  0  0  0  0  0  0  0  0  0  # atno 17343 bound_to 10162
  156.4187  130.7758  151.2774 LP  0  0  0  0  0  0  0  0  0  0  0  0  # atno 17370 bound_to 10713
  157.7508  131.0189  150.3647 LP  0  0  0  0  0  0  0  0  0  0  0  0  # atno 17371 bound_to 10713
  140.5527  134.0611  155.7374 LP  0  0  0  0  0  0  0  0  0  0  0  0  # atno 17394 bound_to 11000
  141.1273  133.9361  157.2608 LP  0  0  0  0  0  0  0  0  0  0  0  0  # atno 17395 bound_to 11000

$$$$
