AV-unprocessed.smi:1684|AV-procd|sdf|6754|dock1
  -GOLD-   22720 7513D 1   1.00000     0.00000
 Structure written by MMmdl.
 42 43  0  0  0  0  0  0  0  0  1 V2000
  152.6271  143.2211  161.8780 C   0  0  0  0  0  0  0  0  0  0  0  0
  152.1000  143.4393  160.4691 C   0  0  0  0  0  0  0  0  0  0  0  0
  151.7146  144.7368  160.0697 C   0  0  0  0  0  0  0  0  0  0  0  0
  151.2259  144.9369  158.7674 C   0  0  0  0  0  0  0  0  0  0  0  0
  151.1417  143.8232  157.9144 C   0  0  0  0  0  0  0  0  0  0  0  0
  151.5082  142.5802  158.2874 N   0  0  0  0  0  0  0  0  0  0  0  0
  151.9828  142.3697  159.5410 C   0  0  0  0  0  0  0  0  0  0  0  0
  152.3939  141.0872  160.0016 N   0  0  0  0  0  0  0  0  0  0  0  0
  152.8858  140.0591  159.2881 C   0  0  0  0  0  0  0  0  0  0  0  0
  153.0489  140.0530  158.0675 O   0  0  0  0  0  0  0  0  0  0  0  0
  153.1733  139.0170  160.0825 N   0  0  0  0  0  0  0  0  0  0  0  0
  153.6769  137.7170  159.6412 C   0  0  1  0  0  0  0  0  0  0  0  0
  154.9937  137.9148  158.8782 C   0  0  0  0  0  0  0  0  0  0  0  0
  153.8643  136.7834  160.8555 C   0  0  0  0  0  0  0  0  0  0  0  0
  154.0660  137.4508  162.1429 N   0  0  0  0  0  0  0  0  0  0  0  0
  154.1183  136.5153  163.2646 C   0  0  0  0  0  0  0  0  0  0  0  0
  154.3483  137.2388  164.6028 C   0  0  0  0  0  0  0  0  0  0  0  0
  155.5403  138.0143  164.5301 O   0  0  0  0  0  0  0  0  0  0  0  0
  155.5093  138.9706  163.4758 C   0  0  0  0  0  0  0  0  0  0  0  0
  155.2853  138.2513  162.1345 C   0  0  0  0  0  0  0  0  0  0  0  0
  152.6451  144.1528  162.4441 H   0  0  0  0  0  0  0  0  0  0  0  0
  153.6433  142.8269  161.8488 H   0  0  0  0  0  0  0  0  0  0  0  0
  151.9952  142.5141  162.4161 H   0  0  0  0  0  0  0  0  0  0  0  0
  151.7916  145.5711  160.7515 H   0  0  0  0  0  0  0  0  0  0  0  0
  150.9232  145.9176  158.4313 H   0  0  0  0  0  0  0  0  0  0  0  0
  150.7713  143.9323  156.9058 H   0  0  0  0  0  0  0  0  0  0  0  0
  152.3006  140.9359  160.9948 H   0  0  0  0  0  0  0  0  0  0  0  0
  153.0016  139.1181  161.0719 H   0  0  0  0  0  0  0  0  0  0  0  0
  152.9778  137.2525  158.9452 H   0  0  0  0  0  0  0  0  0  0  0  0
  155.3819  136.9629  158.5151 H   0  0  0  0  0  0  0  0  0  0  0  0
  155.7582  138.3661  159.5113 H   0  0  0  0  0  0  0  0  0  0  0  0
  154.8519  138.5631  158.0127 H   0  0  0  0  0  0  0  0  0  0  0  0
  153.0105  136.1077  160.9264 H   0  0  0  0  0  0  0  0  0  0  0  0
  154.7277  136.1475  160.6542 H   0  0  0  0  0  0  0  0  0  0  0  0
  153.1891  135.9510  163.3326 H   0  0  0  0  0  0  0  0  0  0  0  0
  154.9162  135.7886  163.1046 H   0  0  0  0  0  0  0  0  0  0  0  0
  153.5007  137.8824  164.8432 H   0  0  0  0  0  0  0  0  0  0  0  0
  154.4417  136.5158  165.4136 H   0  0  0  0  0  0  0  0  0  0  0  0
  154.7193  139.7005  163.6599 H   0  0  0  0  0  0  0  0  0  0  0  0
  156.4532  139.5158  163.4603 H   0  0  0  0  0  0  0  0  0  0  0  0
  156.1449  137.6147  161.9189 H   0  0  0  0  0  0  0  0  0  0  0  0
  155.2372  138.9909  161.3343 H   0  0  0  0  0  0  0  0  0  0  0  0
  1  2  1  0  0  0  0
  1 21  1  0  0  0  0
  1 22  1  0  0  0  0
  1 23  1  0  0  0  0
  2  7  1  0  0  0  0
  2  3  2  0  0  0  0
  3  4  1  0  0  0  0
  3 24  1  0  0  0  0
  4  5  2  0  0  0  0
  4 25  1  0  0  0  0
  5  6  1  0  0  0  0
  5 26  1  0  0  0  0
  6  7  2  0  0  0  0
  7  8  1  0  0  0  0
  8  9  1  0  0  0  0
  8 27  1  0  0  0  0
  9 10  2  0  0  0  0
  9 11  1  0  0  0  0
 11 12  1  0  0  0  0
 11 28  1  0  0  0  0
 12 13  1  0  0  0  0
 12 14  1  0  0  0  0
 12 29  1  0  0  0  0
 13 30  1  0  0  0  0
 13 31  1  0  0  0  0
 13 32  1  0  0  0  0
 14 15  1  0  0  0  0
 14 33  1  0  0  0  0
 14 34  1  0  0  0  0
 15 20  1  0  0  0  0
 15 16  1  0  0  0  0
 16 17  1  0  0  0  0
 16 35  1  0  0  0  0
 16 36  1  0  0  0  0
 17 18  1  0  0  0  0
 17 37  1  0  0  0  0
 17 38  1  0  0  0  0
 18 19  1  0  0  0  0
 19 20  1  0  0  0  0
 19 39  1  0  0  0  0
 19 40  1  0  0  0  0
 20 41  1  0  0  0  0
 20 42  1  0  0  0  0
M  END
> <s_m_source_file>
AV-unprocessed.smi

> <i_m_source_file_index>
1684

> <i_lp_mmshare_version>
43012

> <i_f3d_flags>
0

> <s_epik_input>
W0NIM11jMVtjSF1bY0hdW2NIXW5jMVtOSF1DKD1PKVtOSF1bQ0BIXShbQ0gzXSlbQ0gyXU4yW0NIMl1bQ0gyXU9bQ0gyXVtDSDJdMg==

> <s_epik_cmdline>
J2VwaWtfcHl0aG9uJywgJy1waCcsICc3LjAnLCAnLXRuJywgJzgnLCAnLW1hJywgJzIwMCcsICctbWV0YWxfYmluZGluZycsICctaW1hZScsICc8aW5maWxlLm1hZT4nLCAnLW9tYWUnLCAnPG91dGZpbGUubWFlPic=

> <r_epik_Ionization_Penalty>
0.26605

> <r_epik_Ionization_Penalty_Charging>
0

> <r_epik_Ionization_Penalty_Neutral>
0.26605

> <r_epik_State_Penalty>
0.257924

> <r_epik_Charging_Adjusted_Penalty>
0.257924

> <i_epik_Tot_Q>
0

> <i_epik_Tot_abs_Q>
0

> <r_epik_Metal_State_Penalty>
0.257922

> <b_epik_Metal_Only>
0

> <s_lp_Force_Field>
OPLS_2005

> <r_lp_Energy>
28.5554

> <b_lp_Chiralities_Consistent>
1

> <s_lp_Variant>
AV-unprocessed.smi:1684-2

> <Gold.Version>
5.8.1

> <Gold.Id.Protein>
6NUR|6NUR_protein|mol2

> <Gold.PLP.Fitness>
44.5777

> <Gold.PLP.PLP>
-39.8615

> <Gold.PLP.part.hbond>
-1.0000

> <Gold.PLP.part.metal>
0.0000

> <Gold.PLP.part.buried>
-5.1940

> <Gold.PLP.part.nonpolar>
-33.7665

> <Gold.PLP.part.repulsive>
0.2891

> <Gold.PLP.ligand.clash>
0.0000

> <Gold.PLP.ligand.torsion>
0.6763

> <Gold.PLP.Chemscore.Hbond>
1.0000

> <Gold.PLP.Chemscore.CHOScore>
1.0000

> <Gold.PLP.Chemscore.Metal>
0.0000

> <Gold.Chemscore.Hbonds>
donor molecule, donor type, donor heavy atom, donor atom, acceptor molecule, acceptor atom, score
      P1  H  7997  8009       L1    10  1.00
      L1  C     5    26       P1  8028  1.00

> <Gold.PLP.Chemscore.Internal.Correction>
0.0689

> <Gold.Rescore>
     Score         DG    S(hbond)    S(metal)    S(lipo)     H(rot)  DE(clash)    DE(int)     intcor
     15.47     -17.24       1.00        0.00     103.90       1.46       0.00       1.77       ----

> <Gold.Chemscore.Fitness>
15.4715

> <Gold.Chemscore.DG>
-17.2400

> <Gold.Chemscore.ZeroCoef>
-5.4800

> <Gold.Chemscore.Hbond>
0.9988

> <Gold.Chemscore.Metal>
0.0000

> <Gold.Chemscore.Lipo>
103.9047

> <Gold.Chemscore.Internal_Hbond>
0.0000

> <Gold.Chemscore.DEClash>
0.0015

> <Gold.Chemscore.DEInternal>
1.7671

> <Gold.Chemscore.Rot>
1.4581

> <Gold.Chemscore.Internal.Correction>
   9.000000E+99

> <Gold.Chemscore.Hbonds>
donor molecule, donor type, donor heavy atom, donor atom, acceptor molecule, acceptor atom, score
      P1  H  7997  8009       L1    10  0.97

> <Gold.Chemscore.Hbond.Weighted>
-3.3359

> <Gold.Chemscore.Metal.Weighted>
-0.0000

> <Gold.Chemscore.Lipo.Weighted>
-12.1568

> <Gold.Chemscore.Internal_Hbond.Weighted>
0.0000

> <Gold.Chemscore.DEClash.Weighted>
0.0015

> <Gold.Chemscore.DEInternal.Weighted>
1.7671

> <Gold.Chemscore.Rot.Weighted>
3.7327

> <Gold.Chemscore.Internal.Correction.Weighted>
   9.000000E+99

> <Gold.Protein.RotatedTorsions>
[ 6907 6896 6895 6894 ] final   59.23 input  -60.11 | X-H torsion
[ 7974 7965 7964 7962 ] final  124.18 input  175.53 | X-H torsion
[ 8008 7997 7996 7995 ] final  162.15 input   59.86 | X-H torsion
[ 10167 10162 10161 10158 ] final  -57.57 input  -65.29 | X-H torsion
[ 10718 10713 10712 10709 ] final  -93.22 input   66.30 | X-H torsion
[ 10763 10752 10751 10750 ] final  -29.62 input  -60.55 | X-H torsion
[ 11005 11000 10999 10996 ] final  124.83 input  -57.11 | X-H torsion

> <Gold.Protein.ActiveResidues>
 VAL166  LYS551  ARG553  GLY616  TRP617  ASP618  TYR619  PRO620  LYS621  CYS622 
 ASP623  PHE694  ASN695  SER759  ASP760  ASP761  ALA762  ILE779  LEU786  VAL792 
 PHE793  MET794  SER795  GLU796  ALA797  LYS798  CYS799  TRP800  GLU811  SER814 

> <Gold.Protein.RotatedAtoms>
  152.3896  134.6463  160.0112 H   0  0  0  0  0  0  0  0  0  0  0  0  # atno 6907 bound_to 6896
  151.6701  133.3308  159.3202 H   0  0  0  0  0  0  0  0  0  0  0  0  # atno 6908 bound_to 6896
  150.7815  134.6807  159.6487 H   0  0  0  0  0  0  0  0  0  0  0  0  # atno 6909 bound_to 6896
  145.0874  139.3612  143.4878 H   0  0  0  0  0  0  0  0  0  0  0  0  # atno 7974 bound_to 7965
  156.2052  140.1758  156.7814 H   0  0  0  0  0  0  0  0  0  0  0  0  # atno 8008 bound_to 7997
  154.5645  140.0693  156.8901 H   0  0  0  0  0  0  0  0  0  0  0  0  # atno 8009 bound_to 7997
  155.2785  140.3347  155.4262 H   0  0  0  0  0  0  0  0  0  0  0  0  # atno 8010 bound_to 7997
  140.6250  143.2434  151.5386 H   0  0  0  0  0  0  0  0  0  0  0  0  # atno 10167 bound_to 10162
  156.0011  130.5018  150.5743 H   0  0  0  0  0  0  0  0  0  0  0  0  # atno 10718 bound_to 10713
  153.7676  135.6915  153.4913 H   0  0  0  0  0  0  0  0  0  0  0  0  # atno 10763 bound_to 10752
  153.1896  135.4476  155.0131 H   0  0  0  0  0  0  0  0  0  0  0  0  # atno 10764 bound_to 10752
  154.8130  135.3386  154.7187 H   0  0  0  0  0  0  0  0  0  0  0  0  # atno 10765 bound_to 10752
  139.9377  134.9638  156.8467 H   0  0  0  0  0  0  0  0  0  0  0  0  # atno 11005 bound_to 11000
  146.3531  140.0692  142.8624 LP  0  0  0  0  0  0  0  0  0  0  0  0  # atno 17320 bound_to 7965
  145.1107  140.9403  143.4658 LP  0  0  0  0  0  0  0  0  0  0  0  0  # atno 17321 bound_to 7965
  139.5472  144.2491  152.1464 LP  0  0  0  0  0  0  0  0  0  0  0  0  # atno 17342 bound_to 10162
  140.1720  144.4927  150.6574 LP  0  0  0  0  0  0  0  0  0  0  0  0  # atno 17343 bound_to 10162
  157.3633  131.0753  151.1618 LP  0  0  0  0  0  0  0  0  0  0  0  0  # atno 17370 bound_to 10713
  157.2396  130.6563  149.5884 LP  0  0  0  0  0  0  0  0  0  0  0  0  # atno 17371 bound_to 10713
  140.6032  134.0152  155.7546 LP  0  0  0  0  0  0  0  0  0  0  0  0  # atno 17394 bound_to 11000
  141.0998  133.9786  157.3098 LP  0  0  0  0  0  0  0  0  0  0  0  0  # atno 17395 bound_to 11000

$$$$
