AV-unprocessed.smi:2622|AV-procd|sdf|10228|dock4
  -GOLD-   2272014233D 1   1.00000     0.00000
 Structure written by MMmdl.
 27 28  0  0  0  0  0  0  0  0  3 V2000
  153.3980  139.9348  158.6614 O   0  0  0  0  0  0  0  0  0  0  0  0
  152.2291  140.3806  158.6517 C   0  0  0  0  0  0  0  0  0  0  0  0
  151.2447  139.6241  158.8019 O   0  5  0  0  0  0  0  0  0  0  0  0
  152.0291  141.8682  158.4523 C   0  0  0  0  0  0  0  0  0  0  0  0
  152.9257  142.7673  159.0839 C   0  0  0  0  0  0  0  0  0  0  0  0
  152.7756  144.1587  158.9246 C   0  0  0  0  0  0  0  0  0  0  0  0
  151.7236  144.6433  158.1297 C   0  0  0  0  0  0  0  0  0  0  0  0
  150.8818  143.7732  157.5374 N   0  3  0  0  0  0  0  0  0  0  0  0
  150.9805  142.4250  157.6573 C   0  0  0  0  0  0  0  0  0  0  0  0
  150.0205  141.6578  156.9770 N   0  0  0  0  0  0  0  0  0  0  0  0
  148.6566  141.8568  157.4472 C   0  0  0  0  0  0  0  0  0  0  0  0
  147.7187  140.8467  156.7649 C   0  0  0  0  0  0  0  0  0  0  0  0
  147.8382  140.9658  155.3495 O   0  0  0  0  0  0  0  0  0  0  0  0
  149.1613  140.6873  154.8987 C   0  0  0  0  0  0  0  0  0  0  0  0
  150.1406  141.6937  155.5259 C   0  0  0  0  0  0  0  0  0  0  0  0
  153.7373  142.4031  159.6969 H   0  0  0  0  0  0  0  0  0  0  0  0
  153.4595  144.8417  159.4068 H   0  0  0  0  0  0  0  0  0  0  0  0
  151.5298  145.6907  157.9504 H   0  0  0  0  0  0  0  0  0  0  0  0
  148.6175  141.7338  158.5302 H   0  0  0  0  0  0  0  0  0  0  0  0
  148.3334  142.8743  157.2238 H   0  0  0  0  0  0  0  0  0  0  0  0
  147.9534  139.8272  157.0757 H   0  0  0  0  0  0  0  0  0  0  0  0
  146.6852  141.0385  157.0532 H   0  0  0  0  0  0  0  0  0  0  0  0
  149.4370  139.6635  155.1577 H   0  0  0  0  0  0  0  0  0  0  0  0
  149.1909  140.7605  153.8116 H   0  0  0  0  0  0  0  0  0  0  0  0
  149.9249  142.6987  155.1610 H   0  0  0  0  0  0  0  0  0  0  0  0
  151.1640  141.4543  155.2342 H   0  0  0  0  0  0  0  0  0  0  0  0
  150.1256  144.1500  156.9658 H   0  0  0  0  0  0  0  0  0  0  0  0
  1  2  2  0  0  0  0
  2  3  1  0  0  0  0
  2  4  1  0  0  0  0
  4  9  1  0  0  0  0
  4  5  2  0  0  0  0
  5  6  1  0  0  0  0
  5 16  1  0  0  0  0
  6  7  2  0  0  0  0
  6 17  1  0  0  0  0
  7  8  1  0  0  0  0
  7 18  1  0  0  0  0
  8  9  2  0  0  0  0
  8 27  1  0  0  0  0
  9 10  1  0  0  0  0
 10 15  1  0  0  0  0
 10 11  1  0  0  0  0
 11 12  1  0  0  0  0
 11 19  1  0  0  0  0
 11 20  1  0  0  0  0
 12 13  1  0  0  0  0
 12 21  1  0  0  0  0
 12 22  1  0  0  0  0
 13 14  1  0  0  0  0
 14 15  1  0  0  0  0
 14 23  1  0  0  0  0
 14 24  1  0  0  0  0
 15 25  1  0  0  0  0
 15 26  1  0  0  0  0
M  CHG  1   3  -1
M  CHG  1   8   1
M  END
> <s_m_source_file>
AV-unprocessed.smi

> <i_m_source_file_index>
2622

> <i_lp_mmshare_version>
43012

> <i_f3d_flags>
0

> <s_epik_input>
Tz1DKFtPSF0pYzFbY0hdW2NIXVtjSF1uYzFOMltDSDJdW0NIMl1PW0NIMl1bQ0gyXTI=

> <s_epik_cmdline>
J2VwaWtfcHl0aG9uJywgJy1waCcsICc3LjAnLCAnLXRuJywgJzgnLCAnLW1hJywgJzIwMCcsICctbWV0YWxfYmluZGluZycsICctaW1hZScsICc8aW5maWxlLm1hZT4nLCAnLW9tYWUnLCAnPG91dGZpbGUubWFlPic=

> <r_epik_Ionization_Penalty>
2.51472

> <r_epik_Ionization_Penalty_Charging>
2.51472

> <r_epik_Ionization_Penalty_Neutral>
3.20239e-12

> <r_epik_State_Penalty>
2.68069

> <r_epik_Charging_Adjusted_Penalty>
5.19542

> <i_epik_Tot_Q>
0

> <i_epik_Tot_abs_Q>
2

> <r_epik_Metal_State_Penalty>
6.76699

> <b_epik_Metal_Only>
0

> <s_lp_Force_Field>
OPLS_2005

> <r_lp_Energy>
23.1971

> <b_lp_Chiralities_Consistent>
1

> <s_lp_Variant>
AV-unprocessed.smi:2622-2

> <Gold.Version>
5.8.1

> <Gold.Id.Protein>
6NUR|6NUR_protein|mol2

> <Gold.PLP.Fitness>
39.1412

> <Gold.PLP.PLP>
-28.3674

> <Gold.PLP.part.hbond>
-2.0000

> <Gold.PLP.part.metal>
0.0000

> <Gold.PLP.part.buried>
-4.3284

> <Gold.PLP.part.nonpolar>
-22.0777

> <Gold.PLP.part.repulsive>
0.1677

> <Gold.PLP.ligand.clash>
0.0000

> <Gold.PLP.ligand.torsion>
0.6940

> <Gold.PLP.Chemscore.Hbond>
4.0000

> <Gold.PLP.Chemscore.CHOScore>
0.0000

> <Gold.PLP.Chemscore.Metal>
0.0000

> <Gold.Chemscore.Hbonds>
donor molecule, donor type, donor heavy atom, donor atom, acceptor molecule, acceptor atom, score
      L1  H     8    27       P1  8028  2.00
      P1  H  7997  8009       L1     1  2.00

> <Gold.PLP.Chemscore.Internal.Correction>
0.1618

> <Gold.Rescore>
     Score         DG    S(hbond)    S(metal)    S(lipo)     H(rot)  DE(clash)    DE(int)     intcor
     16.54     -17.58       1.98        0.00      68.73       1.00       0.08       0.96       ----

> <Gold.Chemscore.Fitness>
16.5364

> <Gold.Chemscore.DG>
-17.5770

> <Gold.Chemscore.ZeroCoef>
-5.4800

> <Gold.Chemscore.Hbond>
1.9806

> <Gold.Chemscore.Metal>
0.0000

> <Gold.Chemscore.Lipo>
68.7327

> <Gold.Chemscore.Internal_Hbond>
0.0000

> <Gold.Chemscore.DEClash>
0.0799

> <Gold.Chemscore.DEInternal>
0.9607

> <Gold.Chemscore.Rot>
1.0000

> <Gold.Chemscore.Internal.Correction>
   9.000000E+99

> <Gold.Chemscore.Hbonds>
donor molecule, donor type, donor heavy atom, donor atom, acceptor molecule, acceptor atom, score
      L1  H     8    27       P1  8028  0.93
      P1  H  7997  8009       L1     1  0.93

> <Gold.Chemscore.Hbond.Weighted>
-6.6152

> <Gold.Chemscore.Metal.Weighted>
-0.0000

> <Gold.Chemscore.Lipo.Weighted>
-8.0417

> <Gold.Chemscore.Internal_Hbond.Weighted>
0.0000

> <Gold.Chemscore.DEClash.Weighted>
0.0799

> <Gold.Chemscore.DEInternal.Weighted>
0.9607

> <Gold.Chemscore.Rot.Weighted>
2.5600

> <Gold.Chemscore.Internal.Correction.Weighted>
   9.000000E+99

> <Gold.Protein.RotatedTorsions>
[ 6907 6896 6895 6894 ] final  -28.94 input  -60.11 | X-H torsion
[ 7974 7965 7964 7962 ] final -110.48 input  175.53 | X-H torsion
[ 8008 7997 7996 7995 ] final  149.52 input   59.86 | X-H torsion
[ 10167 10162 10161 10158 ] final  128.78 input  -65.29 | X-H torsion
[ 10718 10713 10712 10709 ] final  179.54 input   66.30 | X-H torsion
[ 10763 10752 10751 10750 ] final  -70.05 input  -60.55 | X-H torsion
[ 11005 11000 10999 10996 ] final   59.96 input  -57.11 | X-H torsion

> <Gold.Protein.ActiveResidues>
 VAL166  LYS551  ARG553  GLY616  TRP617  ASP618  TYR619  PRO620  LYS621  CYS622 
 ASP623  PHE694  ASN695  SER759  ASP760  ASP761  ALA762  ILE779  LEU786  VAL792 
 PHE793  MET794  SER795  GLU796  ALA797  LYS798  CYS799  TRP800  GLU811  SER814 

> <Gold.Protein.RotatedAtoms>
  151.1260  135.0105  159.8560 H   0  0  0  0  0  0  0  0  0  0  0  0  # atno 6907 bound_to 6896
  152.5449  134.1667  159.8590 H   0  0  0  0  0  0  0  0  0  0  0  0  # atno 6908 bound_to 6896
  151.1729  133.4728  159.2627 H   0  0  0  0  0  0  0  0  0  0  0  0  # atno 6909 bound_to 6896
  145.1677  140.8910  143.3553 H   0  0  0  0  0  0  0  0  0  0  0  0  # atno 7974 bound_to 7965
  156.2751  140.2099  156.5872 H   0  0  0  0  0  0  0  0  0  0  0  0  # atno 8008 bound_to 7997
  154.7011  140.0521  157.0482 H   0  0  0  0  0  0  0  0  0  0  0  0  # atno 8009 bound_to 7997
  155.0733  140.3179  155.4626 H   0  0  0  0  0  0  0  0  0  0  0  0  # atno 8010 bound_to 7997
  139.5510  144.6813  151.4325 H   0  0  0  0  0  0  0  0  0  0  0  0  # atno 10167 bound_to 10162
  156.8742  130.9794  151.3070 H   0  0  0  0  0  0  0  0  0  0  0  0  # atno 10718 bound_to 10713
  154.4121  135.6006  153.5959 H   0  0  0  0  0  0  0  0  0  0  0  0  # atno 10763 bound_to 10752
  152.9790  135.5932  154.4057 H   0  0  0  0  0  0  0  0  0  0  0  0  # atno 10764 bound_to 10752
  154.3871  135.2841  155.2155 H   0  0  0  0  0  0  0  0  0  0  0  0  # atno 10765 bound_to 10752
  140.0266  134.6073  155.9564 H   0  0  0  0  0  0  0  0  0  0  0  0  # atno 11005 bound_to 11000
  145.0265  139.3378  143.6046 LP  0  0  0  0  0  0  0  0  0  0  0  0  # atno 17320 bound_to 7965
  146.3473  139.9586  142.8720 LP  0  0  0  0  0  0  0  0  0  0  0  0  # atno 17321 bound_to 7965
  140.6772  143.8163  150.7074 LP  0  0  0  0  0  0  0  0  0  0  0  0  # atno 17342 bound_to 10162
  140.1605  143.4279  152.2070 LP  0  0  0  0  0  0  0  0  0  0  0  0  # atno 17343 bound_to 10162
  157.6178  130.8632  149.9057 LP  0  0  0  0  0  0  0  0  0  0  0  0  # atno 17370 bound_to 10713
  156.0710  130.3685  150.0775 LP  0  0  0  0  0  0  0  0  0  0  0  0  # atno 17371 bound_to 10713
  141.1806  133.6546  156.5006 LP  0  0  0  0  0  0  0  0  0  0  0  0  # atno 17394 bound_to 11000
  140.4296  134.7114  157.4934 LP  0  0  0  0  0  0  0  0  0  0  0  0  # atno 17395 bound_to 11000

$$$$
