AV-unprocessed.smi:670|AV-procd|sdf|3267|dock6
  -GOLD-   22720 0223D 1   1.00000     0.00000
 Structure written by MMmdl.
 44 45  0  0  0  0  0  0  0  0  2 V2000
  150.8508  138.7320  154.5602 C   0  0  0  0  0  0  0  0  0  0  0  0
  150.2395  140.0487  155.0626 C   0  0  2  0  0  0  0  0  0  0  0  0
  150.1714  140.0917  156.6023 C   0  0  0  0  0  0  0  0  0  0  0  0
  149.6075  141.4299  157.1057 C   0  0  0  0  0  0  0  0  0  0  0  0
  148.2326  141.7249  156.4876 C   0  0  0  0  0  0  0  0  0  0  0  0
  148.2884  141.6794  154.9512 C   0  0  0  0  0  0  0  0  0  0  0  0
  148.8563  140.3440  154.4354 C   0  0  2  0  0  0  0  0  0  0  0  0
  147.9343  139.3176  154.7841 O   0  0  0  0  0  0  0  0  0  0  0  0
  147.0294  138.9635  153.7493 C   0  0  0  0  0  0  0  0  0  0  0  0
  146.5672  137.5156  153.9659 C   0  0  0  0  0  0  0  0  0  0  0  0
  146.5394  136.7669  152.7149 N   0  0  0  0  0  0  0  0  0  0  0  0
  145.4367  136.4753  152.0087 C   0  0  0  0  0  0  0  0  0  0  0  0
  144.3029  136.8143  152.3490 O   0  0  0  0  0  0  0  0  0  0  0  0
  145.6517  135.6952  150.7072 C   0  0  0  0  0  0  0  0  0  0  0  0
  145.3286  134.2705  150.8578 N   0  0  0  0  0  0  0  0  0  0  0  0
  144.4930  133.7423  149.7823 N   0  5  0  0  0  0  0  0  0  0  0  0
  144.1481  132.4275  149.7955 C   0  0  0  0  0  0  0  0  0  0  0  0
  143.4599  131.9102  148.9187 O   0  0  0  0  0  0  0  0  0  0  0  0
  144.6173  131.6083  150.9006 C   0  0  0  0  0  0  0  0  0  0  0  0
  145.3747  132.1258  151.8878 C   0  0  0  0  0  0  0  0  0  0  0  0
  145.7739  133.5279  151.9115 C   0  0  0  0  0  0  0  0  0  0  0  0
  146.4626  134.0059  152.8127 O   0  0  0  0  0  0  0  0  0  0  0  0
  150.2640  137.8720  154.8830 H   0  0  0  0  0  0  0  0  0  0  0  0
  151.8633  138.6003  154.9426 H   0  0  0  0  0  0  0  0  0  0  0  0
  150.9044  138.7118  153.4715 H   0  0  0  0  0  0  0  0  0  0  0  0
  150.9125  140.8468  154.7452 H   0  0  0  0  0  0  0  0  0  0  0  0
  149.5505  139.2728  156.9684 H   0  0  0  0  0  0  0  0  0  0  0  0
  151.1649  139.9348  157.0237 H   0  0  0  0  0  0  0  0  0  0  0  0
  149.5294  141.4135  158.1931 H   0  0  0  0  0  0  0  0  0  0  0  0
  150.3003  142.2348  156.8578 H   0  0  0  0  0  0  0  0  0  0  0  0
  147.5064  140.9961  156.8498 H   0  0  0  0  0  0  0  0  0  0  0  0
  147.8786  142.7016  156.8177 H   0  0  0  0  0  0  0  0  0  0  0  0
  147.2929  141.8450  154.5378 H   0  0  0  0  0  0  0  0  0  0  0  0
  148.9098  142.4997  154.5897 H   0  0  0  0  0  0  0  0  0  0  0  0
  148.9613  140.4204  153.3511 H   0  0  0  0  0  0  0  0  0  0  0  0
  146.1706  139.6356  153.7742 H   0  0  0  0  0  0  0  0  0  0  0  0
  147.4960  139.0712  152.7695 H   0  0  0  0  0  0  0  0  0  0  0  0
  147.2409  137.0089  154.6572 H   0  0  0  0  0  0  0  0  0  0  0  0
  145.5789  137.5011  154.4278 H   0  0  0  0  0  0  0  0  0  0  0  0
  147.4250  136.4379  152.3575 H   0  0  0  0  0  0  0  0  0  0  0  0
  145.0436  136.1394  149.9173 H   0  0  0  0  0  0  0  0  0  0  0  0
  146.6855  135.8234  150.3801 H   0  0  0  0  0  0  0  0  0  0  0  0
  144.3511  130.5619  150.9312 H   0  0  0  0  0  0  0  0  0  0  0  0
  145.7002  131.4799  152.6896 H   0  0  0  0  0  0  0  0  0  0  0  0
  1  2  1  0  0  0  0
  1 23  1  0  0  0  0
  1 24  1  0  0  0  0
  1 25  1  0  0  0  0
  2  7  1  0  0  0  0
  2  3  1  0  0  0  0
  2 26  1  0  0  0  0
  3  4  1  0  0  0  0
  3 27  1  0  0  0  0
  3 28  1  0  0  0  0
  4  5  1  0  0  0  0
  4 29  1  0  0  0  0
  4 30  1  0  0  0  0
  5  6  1  0  0  0  0
  5 31  1  0  0  0  0
  5 32  1  0  0  0  0
  6  7  1  0  0  0  0
  6 33  1  0  0  0  0
  6 34  1  0  0  0  0
  7  8  1  0  0  0  0
  7 35  1  0  0  0  0
  8  9  1  0  0  0  0
  9 10  1  0  0  0  0
  9 36  1  0  0  0  0
  9 37  1  0  0  0  0
 10 11  1  0  0  0  0
 10 38  1  0  0  0  0
 10 39  1  0  0  0  0
 11 12  1  0  0  0  0
 11 40  1  0  0  0  0
 12 13  2  0  0  0  0
 12 14  1  0  0  0  0
 14 41  1  0  0  0  0
 14 42  1  0  0  0  0
 14 15  1  0  0  0  0
 15 16  1  0  0  0  0
 15 21  1  0  0  0  0
 16 17  1  0  0  0  0
 17 18  2  0  0  0  0
 17 19  1  0  0  0  0
 19 43  1  0  0  0  0
 19 20  2  0  0  0  0
 20 44  1  0  0  0  0
 20 21  1  0  0  0  0
 21 22  2  0  0  0  0
M  CHG  1  16  -1
M  END
> <s_m_source_file>
AV-unprocessed.smi

> <i_m_source_file_index>
670

> <i_lp_mmshare_version>
43012

> <i_f3d_flags>
0

> <s_epik_input>
W0NIM11bQ0BASF0xW0NIMl1bQ0gyXVtDSDJdW0NIMl1bQ0BIXTFPW0NIMl1bQ0gyXVtOSF1DKD1PKVtDSDJdbjJbbkhdYyg9TylbY0hdW2NIXWMyPU8=

> <s_epik_cmdline>
J2VwaWtfcHl0aG9uJywgJy1waCcsICc3LjAnLCAnLXRuJywgJzgnLCAnLW1hJywgJzIwMCcsICctbWV0YWxfYmluZGluZycsICctaW1hZScsICc8aW5maWxlLm1hZT4nLCAnLW9tYWUnLCAnPG91dGZpbGUubWFlPic=

> <r_lp_tautomer_probability>
1

> <r_epik_Ionization_Penalty>
0.0975638

> <r_epik_Ionization_Penalty_Charging>
0.0975637

> <r_epik_Ionization_Penalty_Neutral>
2.78599e-08

> <r_epik_State_Penalty>
0.0343507

> <r_epik_Charging_Adjusted_Penalty>
0.131914

> <i_epik_Tot_Q>
-1

> <i_epik_Tot_abs_Q>
1

> <r_epik_Metal_State_Penalty>
0.0343507

> <b_epik_Metal_Only>
0

> <s_lp_Force_Field>
OPLS_2005

> <r_lp_Energy>
29.4365

> <b_lp_Chiralities_Consistent>
1

> <s_lp_Variant>
AV-unprocessed.smi:670-3

> <Gold.Version>
5.8.1

> <Gold.Id.Protein>
6NUR|6NUR_protein|mol2

> <Gold.PLP.Fitness>
38.1779

> <Gold.PLP.PLP>
-35.1981

> <Gold.PLP.part.hbond>
-2.0000

> <Gold.PLP.part.metal>
0.0000

> <Gold.PLP.part.buried>
-6.1632

> <Gold.PLP.part.nonpolar>
-29.7376

> <Gold.PLP.part.repulsive>
2.6796

> <Gold.PLP.ligand.clash>
0.0000

> <Gold.PLP.ligand.torsion>
1.4835

> <Gold.PLP.Chemscore.Hbond>
1.9600

> <Gold.PLP.Chemscore.CHOScore>
0.0000

> <Gold.PLP.Chemscore.Metal>
0.0000

> <Gold.Chemscore.Hbonds>
donor molecule, donor type, donor heavy atom, donor atom, acceptor molecule, acceptor atom, score
      L1  H    11    40       P1  7948  1.00
      P1  H 10785 10796       L1    18  0.88

> <Gold.PLP.Chemscore.Internal.Correction>
0.0669

> <Gold.Rescore>
     Score         DG    S(hbond)    S(metal)    S(lipo)     H(rot)  DE(clash)    DE(int)     intcor
      9.40     -13.69       1.89        0.00      69.78       2.45       0.09       4.20       ----

> <Gold.Chemscore.Fitness>
9.3961

> <Gold.Chemscore.DG>
-13.6888

> <Gold.Chemscore.ZeroCoef>
-5.4800

> <Gold.Chemscore.Hbond>
1.8905

> <Gold.Chemscore.Metal>
0.0000

> <Gold.Chemscore.Lipo>
69.7771

> <Gold.Chemscore.Internal_Hbond>
0.0000

> <Gold.Chemscore.DEClash>
0.0936

> <Gold.Chemscore.DEInternal>
4.1991

> <Gold.Chemscore.Rot>
2.4490

> <Gold.Chemscore.Internal.Correction>
   9.000000E+99

> <Gold.Chemscore.Hbonds>
donor molecule, donor type, donor heavy atom, donor atom, acceptor molecule, acceptor atom, score
      L1  H    11    40       P1  7948  0.99
      P1  H 10785 10796       L1    18  0.86

> <Gold.Chemscore.Hbond.Weighted>
-6.3143

> <Gold.Chemscore.Metal.Weighted>
-0.0000

> <Gold.Chemscore.Lipo.Weighted>
-8.1639

> <Gold.Chemscore.Internal_Hbond.Weighted>
0.0000

> <Gold.Chemscore.DEClash.Weighted>
0.0936

> <Gold.Chemscore.DEInternal.Weighted>
4.1991

> <Gold.Chemscore.Rot.Weighted>
6.2694

> <Gold.Chemscore.Internal.Correction.Weighted>
   9.000000E+99

> <Gold.Protein.RotatedTorsions>
[ 6907 6896 6895 6894 ] final   71.10 input  -60.11 | X-H torsion
[ 7974 7965 7964 7962 ] final -118.41 input  175.53 | X-H torsion
[ 8008 7997 7996 7995 ] final  129.34 input   59.86 | X-H torsion
[ 10167 10162 10161 10158 ] final -170.42 input  -65.29 | X-H torsion
[ 10718 10713 10712 10709 ] final   18.41 input   66.30 | X-H torsion
[ 10763 10752 10751 10750 ] final  110.00 input  -60.55 | X-H torsion
[ 11005 11000 10999 10996 ] final  -66.27 input  -57.11 | X-H torsion

> <Gold.Protein.ActiveResidues>
 VAL166  LYS551  ARG553  GLY616  TRP617  ASP618  TYR619  PRO620  LYS621  CYS622 
 ASP623  PHE694  ASN695  SER759  ASP760  ASP761  ALA762  ILE779  LEU786  VAL792 
 PHE793  MET794  SER795  GLU796  ALA797  LYS798  CYS799  TRP800  GLU811  SER814 

> <Gold.Protein.RotatedAtoms>
  152.4789  134.4771  159.9653 H   0  0  0  0  0  0  0  0  0  0  0  0  # atno 6907 bound_to 6896
  151.4781  133.3547  159.2841 H   0  0  0  0  0  0  0  0  0  0  0  0  # atno 6908 bound_to 6896
  150.8848  134.8270  159.7312 H   0  0  0  0  0  0  0  0  0  0  0  0  # atno 6909 bound_to 6896
  145.0742  140.8380  143.4077 H   0  0  0  0  0  0  0  0  0  0  0  0  # atno 7974 bound_to 7965
  156.2934  140.2623  156.2583 H   0  0  0  0  0  0  0  0  0  0  0  0  # atno 8008 bound_to 7997
  154.9814  140.0389  157.2298 H   0  0  0  0  0  0  0  0  0  0  0  0  # atno 8009 bound_to 7997
  154.7768  140.2788  155.6099 H   0  0  0  0  0  0  0  0  0  0  0  0  # atno 8010 bound_to 7997
  139.5863  144.1311  152.1579 H   0  0  0  0  0  0  0  0  0  0  0  0  # atno 10167 bound_to 10162
  157.0959  130.6447  149.5860 H   0  0  0  0  0  0  0  0  0  0  0  0  # atno 10718 bound_to 10713
  153.4428  135.3762  155.2238 H   0  0  0  0  0  0  0  0  0  0  0  0  # atno 10763 bound_to 10752
  154.8754  135.3867  154.4132 H   0  0  0  0  0  0  0  0  0  0  0  0  # atno 10764 bound_to 10752
  153.4680  135.7087  153.6074 H   0  0  0  0  0  0  0  0  0  0  0  0  # atno 10765 bound_to 10752
  141.1477  133.6696  156.6113 H   0  0  0  0  0  0  0  0  0  0  0  0  # atno 11005 bound_to 11000
  145.1256  139.2665  143.5566 LP  0  0  0  0  0  0  0  0  0  0  0  0  # atno 17320 bound_to 7965
  146.3529  140.0892  142.8613 LP  0  0  0  0  0  0  0  0  0  0  0  0  # atno 17321 bound_to 7965
  140.0876  144.5648  150.7078 LP  0  0  0  0  0  0  0  0  0  0  0  0  # atno 17342 bound_to 10162
  140.7134  143.2524  151.4510 LP  0  0  0  0  0  0  0  0  0  0  0  0  # atno 17343 bound_to 10162
  155.9886  130.4930  150.7176 LP  0  0  0  0  0  0  0  0  0  0  0  0  # atno 17370 bound_to 10713
  157.4682  131.0890  151.0672 LP  0  0  0  0  0  0  0  0  0  0  0  0  # atno 17371 bound_to 10713
  140.3612  134.7686  157.4535 LP  0  0  0  0  0  0  0  0  0  0  0  0  # atno 17394 bound_to 11000
  140.0784  134.5766  155.8567 LP  0  0  0  0  0  0  0  0  0  0  0  0  # atno 17395 bound_to 11000

$$$$
