AV-unprocessed.smi:3290|AV-procd|sdf|12613|dock4
  -GOLD-   2272018543D 1   1.00000     0.00000
 Structure written by MMmdl.
 43 44  0  0  0  0  0  0  0  0  2 V2000
  152.1749  145.5008  160.1688 C   0  0  0  0  0  0  0  0  0  0  0  0
  151.4188  144.2038  160.5226 C   0  0  2  0  0  0  0  0  0  0  0  0
  151.8985  143.6160  161.8667 C   0  0  0  0  0  0  0  0  0  0  0  0
  153.2941  142.9786  161.7612 C   0  0  0  0  0  0  0  0  0  0  0  0
  153.3376  141.9158  160.6539 C   0  0  0  0  0  0  0  0  0  0  0  0
  152.8692  142.4865  159.3055 C   0  0  0  0  0  0  0  0  0  0  0  0
  151.4626  143.1182  159.4135 C   0  0  2  0  0  0  0  0  0  0  0  0
  150.9451  143.6339  158.0555 C   0  0  0  0  0  0  0  0  0  0  0  0
  149.7928  142.8444  157.5771 N   0  3  0  0  0  0  0  0  0  0  0  0
  150.1380  141.4759  157.1420 C   0  0  0  0  0  0  0  0  0  0  0  0
  150.6840  141.4623  155.7033 C   0  0  2  0  0  0  0  0  0  0  0  0
  149.6632  141.8959  154.8256 O   0  0  0  0  0  0  0  0  0  0  0  0
  151.2018  140.0844  155.3224 C   0  0  0  0  0  0  0  0  0  0  0  0
  152.3429  139.5480  155.9553 C   0  0  0  0  0  0  0  0  0  0  0  0
  152.7860  138.2661  155.5721 C   0  0  0  0  0  0  0  0  0  0  0  0
  152.1713  137.5202  154.6296 N   0  0  0  0  0  0  0  0  0  0  0  0
  151.0787  138.0369  154.0281 C   0  0  0  0  0  0  0  0  0  0  0  0
  150.5545  139.3081  154.3366 C   0  0  0  0  0  0  0  0  0  0  0  0
  153.2277  145.3199  159.9538 H   0  0  0  0  0  0  0  0  0  0  0  0
  152.1287  146.2128  160.9934 H   0  0  0  0  0  0  0  0  0  0  0  0
  151.7393  145.9945  159.3004 H   0  0  0  0  0  0  0  0  0  0  0  0
  150.3744  144.4879  160.6592 H   0  0  0  0  0  0  0  0  0  0  0  0
  151.8993  144.3865  162.6385 H   0  0  0  0  0  0  0  0  0  0  0  0
  151.1881  142.8586  162.2011 H   0  0  0  0  0  0  0  0  0  0  0  0
  154.0414  143.7477  161.5634 H   0  0  0  0  0  0  0  0  0  0  0  0
  153.5669  142.5284  162.7161 H   0  0  0  0  0  0  0  0  0  0  0  0
  154.3490  141.5196  160.5593 H   0  0  0  0  0  0  0  0  0  0  0  0
  152.7022  141.0745  160.9331 H   0  0  0  0  0  0  0  0  0  0  0  0
  153.5885  143.2243  158.9489 H   0  0  0  0  0  0  0  0  0  0  0  0
  152.8679  141.6856  158.5659 H   0  0  0  0  0  0  0  0  0  0  0  0
  150.7794  142.3288  159.7320 H   0  0  0  0  0  0  0  0  0  0  0  0
  150.6320  144.6746  158.1499 H   0  0  0  0  0  0  0  0  0  0  0  0
  151.7371  143.6029  157.3061 H   0  0  0  0  0  0  0  0  0  0  0  0
  149.1175  142.7763  158.3256 H   0  0  0  0  0  0  0  0  0  0  0  0
  150.8895  141.0756  157.8239 H   0  0  0  0  0  0  0  0  0  0  0  0
  149.2588  140.8343  157.2225 H   0  0  0  0  0  0  0  0  0  0  0  0
  151.5065  142.1748  155.6236 H   0  0  0  0  0  0  0  0  0  0  0  0
  149.3470  142.7352  155.1252 H   0  0  0  0  0  0  0  0  0  0  0  0
  152.8721  140.1018  156.7169 H   0  0  0  0  0  0  0  0  0  0  0  0
  153.6575  137.8285  156.0361 H   0  0  0  0  0  0  0  0  0  0  0  0
  150.6072  137.4186  153.2787 H   0  0  0  0  0  0  0  0  0  0  0  0
  149.6760  139.6740  153.8255 H   0  0  0  0  0  0  0  0  0  0  0  0
  149.3666  143.3313  156.8019 H   0  0  0  0  0  0  0  0  0  0  0  0
  1  2  1  0  0  0  0
  1 19  1  0  0  0  0
  1 20  1  0  0  0  0
  1 21  1  0  0  0  0
  2  7  1  0  0  0  0
  2  3  1  0  0  0  0
  2 22  1  0  0  0  0
  3  4  1  0  0  0  0
  3 23  1  0  0  0  0
  3 24  1  0  0  0  0
  4  5  1  0  0  0  0
  4 25  1  0  0  0  0
  4 26  1  0  0  0  0
  5  6  1  0  0  0  0
  5 27  1  0  0  0  0
  5 28  1  0  0  0  0
  6  7  1  0  0  0  0
  6 29  1  0  0  0  0
  6 30  1  0  0  0  0
  7  8  1  0  0  0  0
  7 31  1  0  0  0  0
  8  9  1  0  0  0  0
  8 32  1  0  0  0  0
  8 33  1  0  0  0  0
  9 10  1  0  0  0  0
  9 34  1  0  0  0  0
  9 43  1  0  0  0  0
 10 11  1  0  0  0  0
 10 35  1  0  0  0  0
 10 36  1  0  0  0  0
 11 12  1  0  0  0  0
 11 13  1  0  0  0  0
 11 37  1  0  0  0  0
 12 38  1  0  0  0  0
 13 18  1  0  0  0  0
 13 14  2  0  0  0  0
 14 15  1  0  0  0  0
 14 39  1  0  0  0  0
 15 16  2  0  0  0  0
 15 40  1  0  0  0  0
 16 17  1  0  0  0  0
 17 18  2  0  0  0  0
 17 41  1  0  0  0  0
 18 42  1  0  0  0  0
M  CHG  1   9   1
M  END
> <s_m_source_file>
AV-unprocessed.smi

> <i_m_source_file_index>
3290

> <i_lp_mmshare_version>
43012

> <i_f3d_flags>
0

> <s_epik_input>
W0NIM11bQ0BASF0xW0NIMl1bQ0gyXVtDSDJdW0NIMl1bQ0BIXTFbQ0gyXVtOSF1bQ0gyXVtDQEhdKFtPSF0pYzJbY0hdW2NIXW5bY0hdW2NIXTI=

> <s_epik_cmdline>
J2VwaWtfcHl0aG9uJywgJy1waCcsICc3LjAnLCAnLXRuJywgJzgnLCAnLW1hJywgJzIwMCcsICctbWV0YWxfYmluZGluZycsICctaW1hZScsICc8aW5maWxlLm1hZT4nLCAnLW9tYWUnLCAnPG91dGZpbGUubWFlPic=

> <r_lp_tautomer_probability>
1

> <r_epik_Ionization_Penalty>
0.00420552

> <r_epik_Ionization_Penalty_Charging>
0.00207255

> <r_epik_Ionization_Penalty_Neutral>
0.00213297

> <r_epik_State_Penalty>
-0

> <r_epik_Charging_Adjusted_Penalty>
0.00207255

> <i_epik_Tot_Q>
1

> <i_epik_Tot_abs_Q>
1

> <r_epik_Metal_State_Penalty>
-0

> <b_epik_Metal_Only>
0

> <s_lp_Force_Field>
OPLS_2005

> <r_lp_Energy>
18.6683

> <b_lp_Chiralities_Consistent>
1

> <s_lp_Variant>
AV-unprocessed.smi:3290-3

> <Gold.Version>
5.8.1

> <Gold.Id.Protein>
6NUR|6NUR_protein|mol2

> <Gold.PLP.Fitness>
56.4155

> <Gold.PLP.PLP>
-44.0442

> <Gold.PLP.part.hbond>
-3.7974

> <Gold.PLP.part.metal>
0.0000

> <Gold.PLP.part.buried>
-1.6222

> <Gold.PLP.part.nonpolar>
-37.8075

> <Gold.PLP.part.repulsive>
0.1443

> <Gold.PLP.ligand.clash>
0.0000

> <Gold.PLP.ligand.torsion>
1.0206

> <Gold.PLP.Chemscore.Hbond>
3.7134

> <Gold.PLP.Chemscore.CHOScore>
1.0745

> <Gold.PLP.Chemscore.Metal>
0.0000

> <Gold.Chemscore.Hbonds>
donor molecule, donor type, donor heavy atom, donor atom, acceptor molecule, acceptor atom, score
      L1  H     9    43       P1  8028  2.00
      L1  H    12    38       P1  8028  0.83
      P1  H 10752 10765       L1    16  0.78
      L1  C    17    41       P1  7948  0.45
      L1  C    17    41       P1  7949  0.60

> <Gold.PLP.Chemscore.Internal.Correction>
0.0488

> <Gold.Rescore>
     Score         DG    S(hbond)    S(metal)    S(lipo)     H(rot)  DE(clash)    DE(int)     intcor
     22.38     -24.60       2.51        0.00     136.78       2.05       1.36       0.86       ----

> <Gold.Chemscore.Fitness>
22.3790

> <Gold.Chemscore.DG>
-24.6042

> <Gold.Chemscore.ZeroCoef>
-5.4800

> <Gold.Chemscore.Hbond>
2.5056

> <Gold.Chemscore.Metal>
0.0000

> <Gold.Chemscore.Lipo>
136.7786

> <Gold.Chemscore.Internal_Hbond>
0.0000

> <Gold.Chemscore.DEClash>
1.3603

> <Gold.Chemscore.DEInternal>
0.8649

> <Gold.Chemscore.Rot>
2.0498

> <Gold.Chemscore.Internal.Correction>
   9.000000E+99

> <Gold.Chemscore.Hbonds>
donor molecule, donor type, donor heavy atom, donor atom, acceptor molecule, acceptor atom, score
      L1  H     9    43       P1  8028  0.98
      L1  H    12    38       P1  8028  0.82
      P1  H 10752 10765       L1    16  0.64

> <Gold.Chemscore.Hbond.Weighted>
-8.3686

> <Gold.Chemscore.Metal.Weighted>
-0.0000

> <Gold.Chemscore.Lipo.Weighted>
-16.0031

> <Gold.Chemscore.Internal_Hbond.Weighted>
0.0000

> <Gold.Chemscore.DEClash.Weighted>
1.3603

> <Gold.Chemscore.DEInternal.Weighted>
0.8649

> <Gold.Chemscore.Rot.Weighted>
5.2475

> <Gold.Chemscore.Internal.Correction.Weighted>
   9.000000E+99

> <Gold.Protein.RotatedTorsions>
[ 6907 6896 6895 6894 ] final  156.25 input  -60.11 | X-H torsion
[ 7974 7965 7964 7962 ] final -134.27 input  175.53 | X-H torsion
[ 8008 7997 7996 7995 ] final  115.35 input   59.86 | X-H torsion
[ 10167 10162 10161 10158 ] final  117.23 input  -65.29 | X-H torsion
[ 10718 10713 10712 10709 ] final  159.65 input   66.30 | X-H torsion
[ 10763 10752 10751 10750 ] final  167.08 input  -60.55 | X-H torsion
[ 11005 11000 10999 10996 ] final   12.64 input  -57.11 | X-H torsion

> <Gold.Protein.ActiveResidues>
 VAL166  LYS551  ARG553  GLY616  TRP617  ASP618  TYR619  PRO620  LYS621  CYS622 
 ASP623  PHE694  ASN695  SER759  ASP760  ASP761  ALA762  ILE779  LEU786  VAL792 
 PHE793  MET794  SER795  GLU796  ALA797  LYS798  CYS799  TRP800  GLU811  SER814 

> <Gold.Protein.RotatedAtoms>
  152.0324  133.3943  159.4302 H   0  0  0  0  0  0  0  0  0  0  0  0  # atno 6907 bound_to 6896
  150.6881  134.3505  159.4916 H   0  0  0  0  0  0  0  0  0  0  0  0  # atno 6908 bound_to 6896
  152.1293  134.9146  160.0610 H   0  0  0  0  0  0  0  0  0  0  0  0  # atno 6909 bound_to 6896
  144.9118  140.6904  143.5020 H   0  0  0  0  0  0  0  0  0  0  0  0  # atno 7974 bound_to 7965
  156.2376  140.2940  156.0356 H   0  0  0  0  0  0  0  0  0  0  0  0  # atno 8008 bound_to 7997
  155.2045  140.0410  157.2940 H   0  0  0  0  0  0  0  0  0  0  0  0  # atno 8009 bound_to 7997
  154.6108  140.2451  155.7679 H   0  0  0  0  0  0  0  0  0  0  0  0  # atno 8010 bound_to 7997
  139.6193  144.7098  151.2671 H   0  0  0  0  0  0  0  0  0  0  0  0  # atno 10167 bound_to 10162
  157.1613  131.0588  151.2230 H   0  0  0  0  0  0  0  0  0  0  0  0  # atno 10718 bound_to 10713
  154.3486  135.2753  155.2384 H   0  0  0  0  0  0  0  0  0  0  0  0  # atno 10763 bound_to 10752
  154.4623  135.5904  153.6268 H   0  0  0  0  0  0  0  0  0  0  0  0  # atno 10764 bound_to 10752
  152.9851  135.6068  154.3694 H   0  0  0  0  0  0  0  0  0  0  0  0  # atno 10765 bound_to 10752
  140.4897  134.0853  155.7768 H   0  0  0  0  0  0  0  0  0  0  0  0  # atno 11005 bound_to 11000
  145.3442  139.1724  143.4469 LP  0  0  0  0  0  0  0  0  0  0  0  0  # atno 17320 bound_to 7965
  146.3162  140.3487  142.8654 LP  0  0  0  0  0  0  0  0  0  0  0  0  # atno 17321 bound_to 7965
  140.7371  143.6687  150.8100 LP  0  0  0  0  0  0  0  0  0  0  0  0  # atno 17342 bound_to 10162
  140.0295  143.5458  152.2766 LP  0  0  0  0  0  0  0  0  0  0  0  0  # atno 17343 bound_to 10162
  157.4130  130.7395  149.6853 LP  0  0  0  0  0  0  0  0  0  0  0  0  # atno 17370 bound_to 10713
  155.9753  130.4090  150.3857 LP  0  0  0  0  0  0  0  0  0  0  0  0  # atno 17371 bound_to 10713
  141.1490  133.9003  157.2145 LP  0  0  0  0  0  0  0  0  0  0  0  0  # atno 17394 bound_to 11000
  139.9776  135.0108  156.9671 LP  0  0  0  0  0  0  0  0  0  0  0  0  # atno 17395 bound_to 11000

$$$$
