AV-unprocessed.smi:3308|AV-procd|sdf|12715|dock4
  -GOLD-   2272019 53D 1   1.00000     0.00000
 Structure written by MMmdl.
 40 41  0  0  0  0  0  0  0  0  1 V2000
  149.2061  142.1030  155.0337 C   0  0  0  0  0  0  0  0  0  0  0  0
  150.4586  142.3136  155.9020 C   0  0  1  0  0  0  0  0  0  0  0  0
  150.1470  143.4325  156.7951 N   0  0  0  0  0  0  0  0  0  0  0  0
  151.3186  144.0615  157.4291 C   0  0  0  0  0  0  0  0  0  0  0  0
  151.0200  144.6816  158.8073 C   0  0  0  0  0  0  0  0  0  0  0  0
  150.2603  145.6498  158.8610 O   0  0  0  0  0  0  0  0  0  0  0  0
  151.5957  144.1639  159.9142 N   0  0  0  0  0  0  0  0  0  0  0  0
  152.4748  142.9961  159.8832 C   0  0  0  0  0  0  0  0  0  0  0  0
  152.6671  142.5801  161.3413 C   0  0  0  0  0  0  0  0  0  0  0  0
  152.4496  143.8664  162.1245 C   0  0  0  0  0  0  0  0  0  0  0  0
  151.4395  144.6489  161.2853 C   0  0  0  0  0  0  0  0  0  0  0  0
  150.8424  141.0600  156.7376 C   0  0  1  0  0  0  0  0  0  0  0  0
  149.7671  140.6657  157.7699 C   0  0  0  0  0  0  0  0  0  0  0  0
  151.1513  139.9185  155.8828 N   0  0  0  0  0  0  0  0  0  0  0  0
  152.3715  139.3034  155.6917 C   0  0  0  0  0  0  0  0  0  0  0  0
  152.1873  138.3006  154.7834 C   0  0  0  0  0  0  0  0  0  0  0  0
  150.8028  138.3812  154.4673 C   0  0  0  0  0  0  0  0  0  0  0  0
  150.1861  139.3500  155.1237 N   0  0  0  0  0  0  0  0  0  0  0  0
  149.3759  141.3552  154.2595 H   0  0  0  0  0  0  0  0  0  0  0  0
  148.9231  143.0241  154.5223 H   0  0  0  0  0  0  0  0  0  0  0  0
  148.3535  141.7789  155.6318 H   0  0  0  0  0  0  0  0  0  0  0  0
  151.2843  142.5562  155.2317 H   0  0  0  0  0  0  0  0  0  0  0  0
  149.6009  144.1173  156.2919 H   0  0  0  0  0  0  0  0  0  0  0  0
  152.0808  143.2956  157.5718 H   0  0  0  0  0  0  0  0  0  0  0  0
  151.7476  144.7787  156.7337 H   0  0  0  0  0  0  0  0  0  0  0  0
  152.0551  142.1804  159.2924 H   0  0  0  0  0  0  0  0  0  0  0  0
  153.4286  143.2823  159.4373 H   0  0  0  0  0  0  0  0  0  0  0  0
  151.9034  141.8519  161.6176 H   0  0  0  0  0  0  0  0  0  0  0  0
  153.6422  142.1294  161.5278 H   0  0  0  0  0  0  0  0  0  0  0  0
  152.1047  143.6888  163.1436 H   0  0  0  0  0  0  0  0  0  0  0  0
  153.3869  144.4215  162.1808 H   0  0  0  0  0  0  0  0  0  0  0  0
  151.6155  145.7222  161.3679 H   0  0  0  0  0  0  0  0  0  0  0  0
  150.4240  144.4382  161.6227 H   0  0  0  0  0  0  0  0  0  0  0  0
  151.7503  141.2901  157.2978 H   0  0  0  0  0  0  0  0  0  0  0  0
  149.6518  141.4269  158.5409 H   0  0  0  0  0  0  0  0  0  0  0  0
  150.0356  139.7389  158.2780 H   0  0  0  0  0  0  0  0  0  0  0  0
  148.7945  140.5169  157.2995 H   0  0  0  0  0  0  0  0  0  0  0  0
  153.2613  139.6305  156.2091 H   0  0  0  0  0  0  0  0  0  0  0  0
  152.9296  137.6161  154.4005 H   0  0  0  0  0  0  0  0  0  0  0  0
  150.2318  137.7713  153.7829 H   0  0  0  0  0  0  0  0  0  0  0  0
  1  2  1  0  0  0  0
  1 19  1  0  0  0  0
  1 20  1  0  0  0  0
  1 21  1  0  0  0  0
  2  3  1  0  0  0  0
  2 12  1  0  0  0  0
  2 22  1  0  0  0  0
  3  4  1  0  0  0  0
  3 23  1  0  0  0  0
  4  5  1  0  0  0  0
  4 24  1  0  0  0  0
  4 25  1  0  0  0  0
  5  6  2  0  0  0  0
  5  7  1  0  0  0  0
  7 11  1  0  0  0  0
  7  8  1  0  0  0  0
  8  9  1  0  0  0  0
  8 26  1  0  0  0  0
  8 27  1  0  0  0  0
  9 10  1  0  0  0  0
  9 28  1  0  0  0  0
  9 29  1  0  0  0  0
 10 11  1  0  0  0  0
 10 30  1  0  0  0  0
 10 31  1  0  0  0  0
 11 32  1  0  0  0  0
 11 33  1  0  0  0  0
 12 13  1  0  0  0  0
 12 14  1  0  0  0  0
 12 34  1  0  0  0  0
 13 35  1  0  0  0  0
 13 36  1  0  0  0  0
 13 37  1  0  0  0  0
 14 18  1  0  0  0  0
 14 15  1  0  0  0  0
 15 16  2  0  0  0  0
 15 38  1  0  0  0  0
 16 17  1  0  0  0  0
 16 39  1  0  0  0  0
 17 18  2  0  0  0  0
 17 40  1  0  0  0  0
M  END
> <s_m_source_file>
AV-unprocessed.smi

> <i_m_source_file_index>
3308

> <i_lp_mmshare_version>
43012

> <i_f3d_flags>
0

> <s_epik_input>
bjFbY0hdW2NIXVtjSF1uMVtDQEBIXShbQ0gzXSlbQ0BIXShbQ0gzXSlbTkhdW0NIMl1DKD1PKU4yW0NIMl1bQ0gyXVtDSDJdW0NIMl0y

> <s_epik_cmdline>
J2VwaWtfcHl0aG9uJywgJy1waCcsICc3LjAnLCAnLXRuJywgJzgnLCAnLW1hJywgJzIwMCcsICctbWV0YWxfYmluZGluZycsICctaW1hZScsICc8aW5maWxlLm1hZT4nLCAnLW9tYWUnLCAnPG91dGZpbGUubWFlPic=

> <r_lp_tautomer_probability>
1

> <r_epik_Ionization_Penalty>
0.918676

> <r_epik_Ionization_Penalty_Charging>
0

> <r_epik_Ionization_Penalty_Neutral>
0.918676

> <r_epik_State_Penalty>
0.958258

> <r_epik_Charging_Adjusted_Penalty>
0.958258

> <i_epik_Tot_Q>
0

> <i_epik_Tot_abs_Q>
0

> <r_epik_Metal_State_Penalty>
0.956879

> <b_epik_Metal_Only>
0

> <s_lp_Force_Field>
OPLS_2005

> <r_lp_Energy>
35.595

> <b_lp_Chiralities_Consistent>
1

> <s_lp_Variant>
AV-unprocessed.smi:3308-8

> <Gold.Version>
5.8.1

> <Gold.Id.Protein>
6NUR|6NUR_protein|mol2

> <Gold.PLP.Fitness>
52.5788

> <Gold.PLP.PLP>
-46.9465

> <Gold.PLP.part.hbond>
-1.0000

> <Gold.PLP.part.metal>
0.0000

> <Gold.PLP.part.buried>
-4.1892

> <Gold.PLP.part.nonpolar>
-41.9004

> <Gold.PLP.part.repulsive>
0.2504

> <Gold.PLP.ligand.clash>
0.0000

> <Gold.PLP.ligand.torsion>
0.3982

> <Gold.PLP.Chemscore.Hbond>
1.0000

> <Gold.PLP.Chemscore.CHOScore>
1.1079

> <Gold.PLP.Chemscore.Metal>
0.0000

> <Gold.Chemscore.Hbonds>
donor molecule, donor type, donor heavy atom, donor atom, acceptor molecule, acceptor atom, score
      L1  C    17    40       P1  7948  0.50

> <Gold.PLP.Chemscore.Internal.Correction>
0.1050

> <Gold.Rescore>
     Score         DG    S(hbond)    S(metal)    S(lipo)     H(rot)  DE(clash)    DE(int)     intcor
     15.44     -17.15       1.00        0.00     108.91       1.72       0.09       1.63       ----

> <Gold.Chemscore.Fitness>
15.4367

> <Gold.Chemscore.DG>
-17.1509

> <Gold.Chemscore.ZeroCoef>
-5.4800

> <Gold.Chemscore.Hbond>
0.9975

> <Gold.Chemscore.Metal>
0.0000

> <Gold.Chemscore.Lipo>
108.9082

> <Gold.Chemscore.Internal_Hbond>
0.0000

> <Gold.Chemscore.DEClash>
0.0871

> <Gold.Chemscore.DEInternal>
1.6272

> <Gold.Chemscore.Rot>
1.7200

> <Gold.Chemscore.Internal.Correction>
   9.000000E+99

> <Gold.Chemscore.Hbonds>
donor molecule, donor type, donor heavy atom, donor atom, acceptor molecule, acceptor atom, score
      L1  H     3    23       P1  8028  0.05

> <Gold.Chemscore.Hbond.Weighted>
-3.3318

> <Gold.Chemscore.Metal.Weighted>
-0.0000

> <Gold.Chemscore.Lipo.Weighted>
-12.7423

> <Gold.Chemscore.Internal_Hbond.Weighted>
0.0000

> <Gold.Chemscore.DEClash.Weighted>
0.0871

> <Gold.Chemscore.DEInternal.Weighted>
1.6272

> <Gold.Chemscore.Rot.Weighted>
4.4031

> <Gold.Chemscore.Internal.Correction.Weighted>
   9.000000E+99

> <Gold.Protein.RotatedTorsions>
[ 6907 6896 6895 6894 ] final  -98.60 input  -60.11 | X-H torsion
[ 7974 7965 7964 7962 ] final -144.47 input  175.53 | X-H torsion
[ 8008 7997 7996 7995 ] final  126.24 input   59.86 | X-H torsion
[ 10167 10162 10161 10158 ] final  109.09 input  -65.29 | X-H torsion
[ 10718 10713 10712 10709 ] final    7.62 input   66.30 | X-H torsion
[ 10763 10752 10751 10750 ] final  -74.36 input  -60.55 | X-H torsion
[ 11005 11000 10999 10996 ] final   14.09 input  -57.11 | X-H torsion

> <Gold.Protein.ActiveResidues>
 VAL166  LYS551  ARG553  GLY616  TRP617  ASP618  TYR619  PRO620  LYS621  CYS622 
 ASP623  PHE694  ASN695  SER759  ASP760  ASP761  ALA762  ILE779  LEU786  VAL792 
 PHE793  MET794  SER795  GLU796  ALA797  LYS798  CYS799  TRP800  GLU811  SER814 

> <Gold.Protein.RotatedAtoms>
  150.7052  134.1170  159.4020 H   0  0  0  0  0  0  0  0  0  0  0  0  # atno 6907 bound_to 6896
  151.9156  135.0318  160.0527 H   0  0  0  0  0  0  0  0  0  0  0  0  # atno 6908 bound_to 6896
  152.2299  133.5014  159.5246 H   0  0  0  0  0  0  0  0  0  0  0  0  # atno 6909 bound_to 6896
  144.8295  140.5705  143.5524 H   0  0  0  0  0  0  0  0  0  0  0  0  # atno 7974 bound_to 7965
  156.2858  140.2697  156.2080 H   0  0  0  0  0  0  0  0  0  0  0  0  # atno 8008 bound_to 7997
  155.0293  140.0386  157.2486 H   0  0  0  0  0  0  0  0  0  0  0  0  # atno 8009 bound_to 7997
  154.7368  140.2717  155.6413 H   0  0  0  0  0  0  0  0  0  0  0  0  # atno 8010 bound_to 7997
  139.6794  144.7119  151.1543 H   0  0  0  0  0  0  0  0  0  0  0  0  # atno 10167 bound_to 10162
  156.9397  130.5856  149.5652 H   0  0  0  0  0  0  0  0  0  0  0  0  # atno 10718 bound_to 10713
  154.4720  135.5867  153.6328 H   0  0  0  0  0  0  0  0  0  0  0  0  # atno 10763 bound_to 10752
  152.9836  135.6069  154.3354 H   0  0  0  0  0  0  0  0  0  0  0  0  # atno 10764 bound_to 10752
  154.3237  135.2843  155.2486 H   0  0  0  0  0  0  0  0  0  0  0  0  # atno 10765 bound_to 10752
  140.4734  134.1008  155.7737 H   0  0  0  0  0  0  0  0  0  0  0  0  # atno 11005 bound_to 11000
  145.4926  139.1488  143.3701 LP  0  0  0  0  0  0  0  0  0  0  0  0  # atno 17320 bound_to 7965
  146.2599  140.5065  142.8858 LP  0  0  0  0  0  0  0  0  0  0  0  0  # atno 17321 bound_to 7965
  140.7647  143.5722  150.8983 LP  0  0  0  0  0  0  0  0  0  0  0  0  # atno 17342 bound_to 10162
  139.9393  143.6401  152.3057 LP  0  0  0  0  0  0  0  0  0  0  0  0  # atno 17343 bound_to 10162
  156.0410  130.5492  150.8770 LP  0  0  0  0  0  0  0  0  0  0  0  0  # atno 17370 bound_to 10713
  157.5793  131.0946  150.9296 LP  0  0  0  0  0  0  0  0  0  0  0  0  # atno 17371 bound_to 10713
  141.1566  133.8871  157.1961 LP  0  0  0  0  0  0  0  0  0  0  0  0  # atno 17394 bound_to 11000
  139.9871  135.0078  156.9887 LP  0  0  0  0  0  0  0  0  0  0  0  0  # atno 17395 bound_to 11000

$$$$
