AV-unprocessed.smi:3172|AV-procd|sdf|12113|dock6
  -GOLD-   2272017553D 1   1.00000     0.00000
 Structure written by MMmdl.
 44 45  0  0  0  0  0  0  0  0  3 V2000
  150.2294  135.4843  155.8863 C   0  0  0  0  0  0  0  0  0  0  0  0
  150.4694  136.9197  155.5576 C   0  0  0  0  0  0  0  0  0  0  0  0
  150.2186  137.4341  154.3134 N   0  3  0  0  0  0  0  0  0  0  0  0
  150.5142  138.7339  154.2752 C   0  0  0  0  0  0  0  0  0  0  0  0
  150.9667  139.0649  155.4903 N   0  0  0  0  0  0  0  0  0  0  0  0
  151.3920  140.4379  155.8074 C   0  0  0  0  0  0  0  0  0  0  0  0
  150.2060  141.4091  155.9725 C   0  0  2  0  0  0  0  0  0  0  0  0
  149.3652  141.4765  154.6891 C   0  0  0  0  0  0  0  0  0  0  0  0
  150.6909  142.7606  156.3385 N   0  3  0  0  0  0  0  0  0  0  0  0
  150.8533  143.0142  157.7874 C   0  0  0  0  0  0  0  0  0  0  0  0
  151.5183  144.3866  158.0050 C   0  0  0  0  0  0  0  0  0  0  0  0
  151.7416  144.6754  159.4984 C   0  0  0  0  0  0  0  0  0  0  0  0
  152.5683  143.5636  160.1621 C   0  0  0  0  0  0  0  0  0  0  0  0
  151.9183  142.1880  159.9484 C   0  0  0  0  0  0  0  0  0  0  0  0
  151.6928  141.9025  158.4548 C   0  0  0  0  0  0  0  0  0  0  0  0
  150.9436  137.9633  156.3192 C   0  0  0  0  0  0  0  0  0  0  0  0
  151.3746  137.9936  157.7506 C   0  0  0  0  0  0  0  0  0  0  0  0
  149.8889  135.3818  156.9168 H   0  0  0  0  0  0  0  0  0  0  0  0
  151.1502  134.9133  155.7658 H   0  0  0  0  0  0  0  0  0  0  0  0
  149.4682  135.0615  155.2299 H   0  0  0  0  0  0  0  0  0  0  0  0
  150.4085  139.3854  153.4258 H   0  0  0  0  0  0  0  0  0  0  0  0
  151.9999  140.4152  156.7136 H   0  0  0  0  0  0  0  0  0  0  0  0
  152.0505  140.7694  155.0040 H   0  0  0  0  0  0  0  0  0  0  0  0
  149.5664  141.0271  156.7670 H   0  0  0  0  0  0  0  0  0  0  0  0
  148.9886  140.4903  154.4161 H   0  0  0  0  0  0  0  0  0  0  0  0
  149.9509  141.8513  153.8490 H   0  0  0  0  0  0  0  0  0  0  0  0
  148.5022  142.1316  154.8111 H   0  0  0  0  0  0  0  0  0  0  0  0
  151.5896  142.9142  155.9044 H   0  0  0  0  0  0  0  0  0  0  0  0
  149.8650  143.0437  158.2490 H   0  0  0  0  0  0  0  0  0  0  0  0
  152.4759  144.4229  157.4833 H   0  0  0  0  0  0  0  0  0  0  0  0
  150.9007  145.1741  157.5711 H   0  0  0  0  0  0  0  0  0  0  0  0
  152.2448  145.6352  159.6211 H   0  0  0  0  0  0  0  0  0  0  0  0
  150.7784  144.7655  160.0023 H   0  0  0  0  0  0  0  0  0  0  0  0
  153.5775  143.5605  159.7478 H   0  0  0  0  0  0  0  0  0  0  0  0
  152.6733  143.7635  161.2290 H   0  0  0  0  0  0  0  0  0  0  0  0
  152.5446  141.4099  160.3858 H   0  0  0  0  0  0  0  0  0  0  0  0
  150.9642  142.1490  160.4757 H   0  0  0  0  0  0  0  0  0  0  0  0
  151.2068  140.9329  158.3499 H   0  0  0  0  0  0  0  0  0  0  0  0
  152.6579  141.8159  157.9534 H   0  0  0  0  0  0  0  0  0  0  0  0
  150.9073  137.1791  158.3040 H   0  0  0  0  0  0  0  0  0  0  0  0
  151.0887  138.9312  158.2272 H   0  0  0  0  0  0  0  0  0  0  0  0
  152.4558  137.8778  157.8213 H   0  0  0  0  0  0  0  0  0  0  0  0
  150.0372  143.4336  155.9635 H   0  0  0  0  0  0  0  0  0  0  0  0
  149.8524  136.9045  153.5318 H   0  0  0  0  0  0  0  0  0  0  0  0
  1  2  1  0  0  0  0
  1 18  1  0  0  0  0
  1 19  1  0  0  0  0
  1 20  1  0  0  0  0
  2 16  2  0  0  0  0
  2  3  1  0  0  0  0
  3  4  2  0  0  0  0
  3 44  1  0  0  0  0
  4  5  1  0  0  0  0
  4 21  1  0  0  0  0
  5  6  1  0  0  0  0
  5 16  1  0  0  0  0
  6  7  1  0  0  0  0
  6 22  1  0  0  0  0
  6 23  1  0  0  0  0
  7  8  1  0  0  0  0
  7  9  1  0  0  0  0
  7 24  1  0  0  0  0
  8 25  1  0  0  0  0
  8 26  1  0  0  0  0
  8 27  1  0  0  0  0
  9 10  1  0  0  0  0
  9 28  1  0  0  0  0
  9 43  1  0  0  0  0
 10 15  1  0  0  0  0
 10 11  1  0  0  0  0
 10 29  1  0  0  0  0
 11 12  1  0  0  0  0
 11 30  1  0  0  0  0
 11 31  1  0  0  0  0
 12 13  1  0  0  0  0
 12 32  1  0  0  0  0
 12 33  1  0  0  0  0
 13 14  1  0  0  0  0
 13 34  1  0  0  0  0
 13 35  1  0  0  0  0
 14 15  1  0  0  0  0
 14 36  1  0  0  0  0
 14 37  1  0  0  0  0
 15 38  1  0  0  0  0
 15 39  1  0  0  0  0
 16 17  1  0  0  0  0
 17 40  1  0  0  0  0
 17 41  1  0  0  0  0
 17 42  1  0  0  0  0
M  CHG  1   3   1
M  CHG  1   9   1
M  END
> <s_m_source_file>
AV-unprocessed.smi

> <i_m_source_file_index>
3172

> <i_lp_mmshare_version>
43012

> <i_f3d_flags>
0

> <s_epik_input>
W0NIM11jMW5bY0hdbihjMVtDSDNdKVtDSDJdW0NASF0oW0NIM10pW05IXVtDSF0yW0NIMl1bQ0gyXVtDSDJdW0NIMl1bQ0gyXTI=

> <s_epik_cmdline>
J2VwaWtfcHl0aG9uJywgJy1waCcsICc3LjAnLCAnLXRuJywgJzgnLCAnLW1hJywgJzIwMCcsICctbWV0YWxfYmluZGluZycsICctaW1hZScsICc8aW5maWxlLm1hZT4nLCAnLW9tYWUnLCAnPG91dGZpbGUubWFlPic=

> <r_lp_tautomer_probability>
1

> <r_epik_Ionization_Penalty>
0.509043

> <r_epik_Ionization_Penalty_Charging>
0.00159961

> <r_epik_Ionization_Penalty_Neutral>
0.507444

> <r_epik_State_Penalty>
0.272352

> <r_epik_Charging_Adjusted_Penalty>
0.273952

> <i_epik_Tot_Q>
2

> <i_epik_Tot_abs_Q>
2

> <r_epik_Metal_State_Penalty>
3.76994

> <b_epik_Metal_Only>
0

> <s_lp_Force_Field>
OPLS_2005

> <r_lp_Energy>
25.5447

> <b_lp_Chiralities_Consistent>
1

> <s_lp_Variant>
AV-unprocessed.smi:3172-1

> <Gold.Version>
5.8.1

> <Gold.Id.Protein>
6NUR|6NUR_protein|mol2

> <Gold.PLP.Fitness>
54.9980

> <Gold.PLP.PLP>
-41.1693

> <Gold.PLP.part.hbond>
-2.8314

> <Gold.PLP.part.metal>
0.0000

> <Gold.PLP.part.buried>
-2.7787

> <Gold.PLP.part.nonpolar>
-35.1253

> <Gold.PLP.part.repulsive>
0.1620

> <Gold.PLP.ligand.clash>
0.0000

> <Gold.PLP.ligand.torsion>
0.5927

> <Gold.PLP.Chemscore.Hbond>
4.0000

> <Gold.PLP.Chemscore.CHOScore>
1.0000

> <Gold.PLP.Chemscore.Metal>
0.0000

> <Gold.Chemscore.Hbonds>
donor molecule, donor type, donor heavy atom, donor atom, acceptor molecule, acceptor atom, score
      L1  H     3    44       P1  7948  2.00
      L1  H     9    43       P1  8028  2.00
      L1  C     4    21       P1  7957  1.00

> <Gold.PLP.Chemscore.Internal.Correction>
0.0141

> <Gold.Rescore>
     Score         DG    S(hbond)    S(metal)    S(lipo)     H(rot)  DE(clash)    DE(int)     intcor
     18.91     -20.60       1.94        0.00     108.03       1.56       0.02       1.68       ----

> <Gold.Chemscore.Fitness>
18.9056

> <Gold.Chemscore.DG>
-20.5981

> <Gold.Chemscore.ZeroCoef>
-5.4800

> <Gold.Chemscore.Hbond>
1.9353

> <Gold.Chemscore.Metal>
0.0000

> <Gold.Chemscore.Lipo>
108.0292

> <Gold.Chemscore.Internal_Hbond>
0.0000

> <Gold.Chemscore.DEClash>
0.0156

> <Gold.Chemscore.DEInternal>
1.6768

> <Gold.Chemscore.Rot>
1.5567

> <Gold.Chemscore.Internal.Correction>
   9.000000E+99

> <Gold.Chemscore.Hbonds>
donor molecule, donor type, donor heavy atom, donor atom, acceptor molecule, acceptor atom, score
      L1  H     3    44       P1  7948  0.44
      L1  H     9    43       P1  8028  1.00

> <Gold.Chemscore.Hbond.Weighted>
-6.4639

> <Gold.Chemscore.Metal.Weighted>
-0.0000

> <Gold.Chemscore.Lipo.Weighted>
-12.6394

> <Gold.Chemscore.Internal_Hbond.Weighted>
0.0000

> <Gold.Chemscore.DEClash.Weighted>
0.0156

> <Gold.Chemscore.DEInternal.Weighted>
1.6768

> <Gold.Chemscore.Rot.Weighted>
3.9852

> <Gold.Chemscore.Internal.Correction.Weighted>
   9.000000E+99

> <Gold.Protein.RotatedTorsions>
[ 6907 6896 6895 6894 ] final  -98.51 input  -60.11 | X-H torsion
[ 7974 7965 7964 7962 ] final -117.42 input  175.53 | X-H torsion
[ 8008 7997 7996 7995 ] final -170.09 input   59.86 | X-H torsion
[ 10167 10162 10161 10158 ] final  -32.84 input  -65.29 | X-H torsion
[ 10718 10713 10712 10709 ] final -139.44 input   66.30 | X-H torsion
[ 10763 10752 10751 10750 ] final   -0.19 input  -60.55 | X-H torsion
[ 11005 11000 10999 10996 ] final  111.37 input  -57.11 | X-H torsion

> <Gold.Protein.ActiveResidues>
 VAL166  LYS551  ARG553  GLY616  TRP617  ASP618  TYR619  PRO620  LYS621  CYS622 
 ASP623  PHE694  ASN695  SER759  ASP760  ASP761  ALA762  ILE779  LEU786  VAL792 
 PHE793  MET794  SER795  GLU796  ALA797  LYS798  CYS799  TRP800  GLU811  SER814 

> <Gold.Protein.RotatedAtoms>
  150.7049  134.1183  159.4025 H   0  0  0  0  0  0  0  0  0  0  0  0  # atno 6907 bound_to 6896
  151.9170  135.0312  160.0528 H   0  0  0  0  0  0  0  0  0  0  0  0  # atno 6908 bound_to 6896
  152.2288  133.5006  159.5241 H   0  0  0  0  0  0  0  0  0  0  0  0  # atno 6909 bound_to 6896
  145.0854  140.8454  143.4014 H   0  0  0  0  0  0  0  0  0  0  0  0  # atno 7974 bound_to 7965
  155.9137  140.1062  157.1259 H   0  0  0  0  0  0  0  0  0  0  0  0  # atno 8008 bound_to 7997
  154.4043  140.1269  156.4655 H   0  0  0  0  0  0  0  0  0  0  0  0  # atno 8009 bound_to 7997
  155.7279  140.3469  155.5048 H   0  0  0  0  0  0  0  0  0  0  0  0  # atno 8010 bound_to 7997
  140.7214  143.3665  151.1861 H   0  0  0  0  0  0  0  0  0  0  0  0  # atno 10167 bound_to 10162
  156.3107  130.7480  151.1555 H   0  0  0  0  0  0  0  0  0  0  0  0  # atno 10718 bound_to 10713
  153.3288  135.6974  153.6966 H   0  0  0  0  0  0  0  0  0  0  0  0  # atno 10763 bound_to 10752
  153.5777  135.3504  155.2863 H   0  0  0  0  0  0  0  0  0  0  0  0  # atno 10764 bound_to 10752
  154.8613  135.4287  154.2471 H   0  0  0  0  0  0  0  0  0  0  0  0  # atno 10765 bound_to 10752
  139.8902  134.9506  156.6422 H   0  0  0  0  0  0  0  0  0  0  0  0  # atno 11005 bound_to 11000
  145.1128  139.2745  143.5628 LP  0  0  0  0  0  0  0  0  0  0  0  0  # atno 17320 bound_to 7965
  146.3531  140.0729  142.8622 LP  0  0  0  0  0  0  0  0  0  0  0  0  # atno 17321 bound_to 7965
  139.7227  143.9197  152.2991 LP  0  0  0  0  0  0  0  0  0  0  0  0  # atno 17342 bound_to 10162
  139.8959  144.6939  150.8718 LP  0  0  0  0  0  0  0  0  0  0  0  0  # atno 17343 bound_to 10162
  157.7390  131.0534  150.5258 LP  0  0  0  0  0  0  0  0  0  0  0  0  # atno 17370 bound_to 10713
  156.5397  130.4205  149.6160 LP  0  0  0  0  0  0  0  0  0  0  0  0  # atno 17371 bound_to 10713
  140.7585  133.8838  155.8400 LP  0  0  0  0  0  0  0  0  0  0  0  0  # atno 17394 bound_to 11000
  140.9942  134.1238  157.4379 LP  0  0  0  0  0  0  0  0  0  0  0  0  # atno 17395 bound_to 11000

$$$$
