AV-unprocessed.smi:1737|AV-procd|sdf|6996|dock7
  -GOLD-   22720 8213D 1   1.00000     0.00000
 Structure written by MMmdl.
 43 44  0  0  0  0  0  0  0  0  2 V2000
  147.7195  133.1226  152.4326 C   0  0  0  0  0  0  0  0  0  0  0  0
  146.3313  133.0520  151.8167 C   0  0  0  0  0  0  0  0  0  0  0  0
  145.6947  131.7987  151.6919 C   0  0  0  0  0  0  0  0  0  0  0  0
  144.4118  131.7352  151.1217 C   0  0  0  0  0  0  0  0  0  0  0  0
  143.8157  132.9352  150.6975 C   0  0  0  0  0  0  0  0  0  0  0  0
  144.4168  134.1369  150.8134 N   0  0  0  0  0  0  0  0  0  0  0  0
  145.6558  134.2158  151.3603 C   0  0  0  0  0  0  0  0  0  0  0  0
  146.3477  135.4500  151.5169 N   0  0  0  0  0  0  0  0  0  0  0  0
  145.8341  136.6771  151.7136 C   0  0  0  0  0  0  0  0  0  0  0  0
  144.6349  136.9511  151.7556 O   0  0  0  0  0  0  0  0  0  0  0  0
  146.8049  137.5896  151.8638 N   0  0  0  0  0  0  0  0  0  0  0  0
  146.5971  139.0193  152.0914 C   0  0  0  0  0  0  0  0  0  0  0  0
  146.6456  139.4215  153.5902 C   0  0  1  0  0  0  0  0  0  0  0  0
  148.1010  139.3689  154.1044 C   0  0  0  0  0  0  0  0  0  0  0  0
  145.9864  140.7424  153.8521 N   0  3  0  0  0  0  0  0  0  0  0  0
  145.5918  140.9240  155.2758 C   0  0  0  0  0  0  0  0  0  0  0  0
  144.8733  142.2667  155.4856 C   0  0  0  0  0  0  0  0  0  0  0  0
  145.7170  143.3280  155.0648 O   0  0  0  0  0  0  0  0  0  0  0  0
  146.0181  143.2339  153.6806 C   0  0  0  0  0  0  0  0  0  0  0  0
  146.7709  141.9229  153.3966 C   0  0  0  0  0  0  0  0  0  0  0  0
  148.0785  132.1333  152.7183 H   0  0  0  0  0  0  0  0  0  0  0  0
  147.7095  133.7465  153.3269 H   0  0  0  0  0  0  0  0  0  0  0  0
  148.4310  133.5442  151.7220 H   0  0  0  0  0  0  0  0  0  0  0  0
  146.1807  130.8947  152.0284 H   0  0  0  0  0  0  0  0  0  0  0  0
  143.8977  130.7916  151.0123 H   0  0  0  0  0  0  0  0  0  0  0  0
  142.8311  132.9313  150.2541 H   0  0  0  0  0  0  0  0  0  0  0  0
  147.3541  135.3851  151.4840 H   0  0  0  0  0  0  0  0  0  0  0  0
  147.7619  137.2755  151.7976 H   0  0  0  0  0  0  0  0  0  0  0  0
  147.3737  139.5499  151.5411 H   0  0  0  0  0  0  0  0  0  0  0  0
  145.6626  139.3483  151.6336 H   0  0  0  0  0  0  0  0  0  0  0  0
  146.0939  138.6622  154.1470 H   0  0  0  0  0  0  0  0  0  0  0  0
  148.5999  138.4546  153.7821 H   0  0  0  0  0  0  0  0  0  0  0  0
  148.1487  139.3723  155.1932 H   0  0  0  0  0  0  0  0  0  0  0  0
  148.6891  140.2107  153.7382 H   0  0  0  0  0  0  0  0  0  0  0  0
  144.9233  140.1282  155.6007 H   0  0  0  0  0  0  0  0  0  0  0  0
  146.4786  140.8746  155.9096 H   0  0  0  0  0  0  0  0  0  0  0  0
  143.9282  142.2934  154.9404 H   0  0  0  0  0  0  0  0  0  0  0  0
  144.6356  142.4038  156.5407 H   0  0  0  0  0  0  0  0  0  0  0  0
  145.1018  143.2925  153.0906 H   0  0  0  0  0  0  0  0  0  0  0  0
  146.6331  144.0879  153.3960 H   0  0  0  0  0  0  0  0  0  0  0  0
  147.7414  141.9315  153.8951 H   0  0  0  0  0  0  0  0  0  0  0  0
  146.9569  141.8788  152.3243 H   0  0  0  0  0  0  0  0  0  0  0  0
  145.1339  140.7456  153.3104 H   0  0  0  0  0  0  0  0  0  0  0  0
  1  2  1  0  0  0  0
  1 21  1  0  0  0  0
  1 22  1  0  0  0  0
  1 23  1  0  0  0  0
  2  7  1  0  0  0  0
  2  3  2  0  0  0  0
  3  4  1  0  0  0  0
  3 24  1  0  0  0  0
  4  5  2  0  0  0  0
  4 25  1  0  0  0  0
  5  6  1  0  0  0  0
  5 26  1  0  0  0  0
  6  7  2  0  0  0  0
  7  8  1  0  0  0  0
  8  9  1  0  0  0  0
  8 27  1  0  0  0  0
  9 10  2  0  0  0  0
  9 11  1  0  0  0  0
 11 12  1  0  0  0  0
 11 28  1  0  0  0  0
 12 13  1  0  0  0  0
 12 29  1  0  0  0  0
 12 30  1  0  0  0  0
 13 14  1  0  0  0  0
 13 15  1  0  0  0  0
 13 31  1  0  0  0  0
 14 32  1  0  0  0  0
 14 33  1  0  0  0  0
 14 34  1  0  0  0  0
 15 20  1  0  0  0  0
 15 16  1  0  0  0  0
 15 43  1  0  0  0  0
 16 17  1  0  0  0  0
 16 35  1  0  0  0  0
 16 36  1  0  0  0  0
 17 18  1  0  0  0  0
 17 37  1  0  0  0  0
 17 38  1  0  0  0  0
 18 19  1  0  0  0  0
 19 20  1  0  0  0  0
 19 39  1  0  0  0  0
 19 40  1  0  0  0  0
 20 41  1  0  0  0  0
 20 42  1  0  0  0  0
M  CHG  1  15   1
M  END
> <s_m_source_file>
AV-unprocessed.smi

> <i_m_source_file_index>
1737

> <i_lp_mmshare_version>
43012

> <i_f3d_flags>
0

> <s_epik_input>
W0NIM11jMVtjSF1bY0hdW2NIXW5jMVtOSF1DKD1PKVtOSF1bQ0gyXVtDQEhdKFtDSDNdKU4yW0NIMl1bQ0gyXU9bQ0gyXVtDSDJdMg==

> <s_epik_cmdline>
J2VwaWtfcHl0aG9uJywgJy1waCcsICc3LjAnLCAnLXRuJywgJzgnLCAnLW1hJywgJzIwMCcsICctbWV0YWxfYmluZGluZycsICctaW1hZScsICc8aW5maWxlLm1hZT4nLCAnLW9tYWUnLCAnPG91dGZpbGUubWFlPic=

> <r_epik_Ionization_Penalty>
0.602573

> <r_epik_Ionization_Penalty_Charging>
0.602531

> <r_epik_Ionization_Penalty_Neutral>
4.25912e-05

> <r_epik_State_Penalty>
0.617039

> <r_epik_Charging_Adjusted_Penalty>
1.21957

> <i_epik_Tot_Q>
1

> <i_epik_Tot_abs_Q>
1

> <r_epik_Metal_State_Penalty>
0.617042

> <b_epik_Metal_Only>
0

> <s_lp_Force_Field>
OPLS_2005

> <r_lp_Energy>
29.9094

> <b_lp_Chiralities_Consistent>
1

> <s_lp_Variant>
AV-unprocessed.smi:1737-4

> <Gold.Version>
5.8.1

> <Gold.Id.Protein>
6NUR|6NUR_protein|mol2

> <Gold.PLP.Fitness>
47.3689

> <Gold.PLP.PLP>
-33.9190

> <Gold.PLP.part.hbond>
-2.9618

> <Gold.PLP.part.metal>
0.0000

> <Gold.PLP.part.buried>
-6.4815

> <Gold.PLP.part.nonpolar>
-27.6180

> <Gold.PLP.part.repulsive>
2.4637

> <Gold.PLP.ligand.clash>
0.0000

> <Gold.PLP.ligand.torsion>
0.7157

> <Gold.PLP.Chemscore.Hbond>
3.9440

> <Gold.PLP.Chemscore.CHOScore>
1.0000

> <Gold.PLP.Chemscore.Metal>
0.0000

> <Gold.Chemscore.Hbonds>
donor molecule, donor type, donor heavy atom, donor atom, acceptor molecule, acceptor atom, score
      L1  H     8    27       P1  7948  0.94
      L1  H    11    28       P1  7948  1.00
      L1  H    15    43       P1 10175  2.00
      L1  C     5    26       P1 10186  1.00

> <Gold.PLP.Chemscore.Internal.Correction>
0.0493

> <Gold.Rescore>
     Score         DG    S(hbond)    S(metal)    S(lipo)     H(rot)  DE(clash)    DE(int)     intcor
     17.60     -19.64       2.86        0.00      72.54       1.51       0.32       1.72       ----

> <Gold.Chemscore.Fitness>
17.5956

> <Gold.Chemscore.DG>
-19.6403

> <Gold.Chemscore.ZeroCoef>
-5.4800

> <Gold.Chemscore.Hbond>
2.8580

> <Gold.Chemscore.Metal>
0.0000

> <Gold.Chemscore.Lipo>
72.5418

> <Gold.Chemscore.Internal_Hbond>
0.0000

> <Gold.Chemscore.DEClash>
0.3214

> <Gold.Chemscore.DEInternal>
1.7233

> <Gold.Chemscore.Rot>
1.5128

> <Gold.Chemscore.Internal.Correction>
   9.000000E+99

> <Gold.Chemscore.Hbonds>
donor molecule, donor type, donor heavy atom, donor atom, acceptor molecule, acceptor atom, score
      L1  H     8    27       P1  7948  0.82
      L1  H    11    28       P1  7948  0.95
      L1  H    15    43       P1 10175  0.85

> <Gold.Chemscore.Hbond.Weighted>
-9.5456

> <Gold.Chemscore.Metal.Weighted>
-0.0000

> <Gold.Chemscore.Lipo.Weighted>
-8.4874

> <Gold.Chemscore.Internal_Hbond.Weighted>
0.0000

> <Gold.Chemscore.DEClash.Weighted>
0.3214

> <Gold.Chemscore.DEInternal.Weighted>
1.7233

> <Gold.Chemscore.Rot.Weighted>
3.8726

> <Gold.Chemscore.Internal.Correction.Weighted>
   9.000000E+99

> <Gold.Protein.RotatedTorsions>
[ 6907 6896 6895 6894 ] final -110.81 input  -60.11 | X-H torsion
[ 7974 7965 7964 7962 ] final   98.13 input  175.53 | X-H torsion
[ 8008 7997 7996 7995 ] final   53.12 input   59.86 | X-H torsion
[ 10167 10162 10161 10158 ] final  -74.45 input  -65.29 | X-H torsion
[ 10718 10713 10712 10709 ] final  172.07 input   66.30 | X-H torsion
[ 10763 10752 10751 10750 ] final  109.57 input  -60.55 | X-H torsion
[ 11005 11000 10999 10996 ] final  108.11 input  -57.11 | X-H torsion

> <Gold.Protein.ActiveResidues>
 VAL166  LYS551  ARG553  GLY616  TRP617  ASP618  TYR619  PRO620  LYS621  CYS622 
 ASP623  PHE694  ASN695  SER759  ASP760  ASP761  ALA762  ILE779  LEU786  VAL792 
 PHE793  MET794  SER795  GLU796  ALA797  LYS798  CYS799  TRP800  GLU811  SER814 

> <Gold.Protein.RotatedAtoms>
  150.7649  133.9327  159.3431 H   0  0  0  0  0  0  0  0  0  0  0  0  # atno 6907 bound_to 6896
  151.7227  135.0889  160.0296 H   0  0  0  0  0  0  0  0  0  0  0  0  # atno 6908 bound_to 6896
  152.3639  133.6294  159.6072 H   0  0  0  0  0  0  0  0  0  0  0  0  # atno 6909 bound_to 6896
  145.4163  139.2327  143.3221 H   0  0  0  0  0  0  0  0  0  0  0  0  # atno 7974 bound_to 7965
  155.4630  140.3462  155.4315 H   0  0  0  0  0  0  0  0  0  0  0  0  # atno 8008 bound_to 7997
  156.1149  140.1471  156.9316 H   0  0  0  0  0  0  0  0  0  0  0  0  # atno 8009 bound_to 7997
  154.4782  140.0878  156.7292 H   0  0  0  0  0  0  0  0  0  0  0  0  # atno 8010 bound_to 7997
  140.5026  143.2358  151.7727 H   0  0  0  0  0  0  0  0  0  0  0  0  # atno 10167 bound_to 10162
  156.9843  131.0128  151.2873 H   0  0  0  0  0  0  0  0  0  0  0  0  # atno 10718 bound_to 10713
  153.4367  135.3776  155.2203 H   0  0  0  0  0  0  0  0  0  0  0  0  # atno 10763 bound_to 10752
  154.8752  135.3853  154.4203 H   0  0  0  0  0  0  0  0  0  0  0  0  # atno 10764 bound_to 10752
  153.4743  135.7087  153.6038 H   0  0  0  0  0  0  0  0  0  0  0  0  # atno 10765 bound_to 10752
  139.8839  134.9421  156.5922 H   0  0  0  0  0  0  0  0  0  0  0  0  # atno 11005 bound_to 11000
  146.2679  140.4881  142.8826 LP  0  0  0  0  0  0  0  0  0  0  0  0  # atno 17320 bound_to 7965
  144.8275  140.6653  143.6312 LP  0  0  0  0  0  0  0  0  0  0  0  0  # atno 17321 bound_to 7965
  139.4876  144.4501  151.9663 LP  0  0  0  0  0  0  0  0  0  0  0  0  # atno 17342 bound_to 10162
  140.3591  144.2995  150.5936 LP  0  0  0  0  0  0  0  0  0  0  0  0  # atno 17343 bound_to 10162
  157.5504  130.8178  149.8137 LP  0  0  0  0  0  0  0  0  0  0  0  0  # atno 17370 bound_to 10713
  156.0232  130.3788  150.1900 LP  0  0  0  0  0  0  0  0  0  0  0  0  # atno 17371 bound_to 10713
  140.7947  133.8554  155.8675 LP  0  0  0  0  0  0  0  0  0  0  0  0  # atno 17394 bound_to 11000
  140.9646  134.1611  157.4626 LP  0  0  0  0  0  0  0  0  0  0  0  0  # atno 17395 bound_to 11000

$$$$
