AV-unprocessed.smi:2496|AV-procd|sdf|9825|dock1
  -GOLD-   2272013453D 1   1.00000     0.00000
 Structure written by MMmdl.
 40 40  0  0  0  0  0  0  0  0  1 V2000
  151.4240  138.9389  155.1926 C   0  0  0  0  0  0  0  0  0  0  0  0
  150.4156  140.0353  154.9991 C   0  0  0  0  0  0  0  0  0  0  0  0
  150.7252  141.2686  155.3668 N   0  0  0  0  0  0  0  0  0  0  0  0
  149.6236  141.9783  155.0724 N   0  0  0  0  0  0  0  0  0  0  0  0
  148.6176  141.2168  154.5261 C   0  0  0  0  0  0  0  0  0  0  0  0
  147.3066  141.8188  154.1413 C   0  0  0  0  0  0  0  0  0  0  0  0
  149.0972  139.9331  154.4559 C   0  0  0  0  0  0  0  0  0  0  0  0
  148.4231  138.6736  153.9507 C   0  0  2  0  0  0  0  0  0  0  0  0
  146.9482  138.9131  153.5759 C   0  0  0  0  0  0  0  0  0  0  0  0
  148.6076  137.5518  154.9839 C   0  0  0  0  0  0  0  0  0  0  0  0
  148.3303  137.7355  156.1697 O   0  0  0  0  0  0  0  0  0  0  0  0
  149.0951  136.3922  154.5071 N   0  0  0  0  0  0  0  0  0  0  0  0
  149.4373  135.1872  155.2680 C   0  0  2  0  0  0  0  0  0  0  0  0
  150.5197  135.4975  156.3223 C   0  0  0  0  0  0  0  0  0  0  0  0
  149.7757  133.9801  154.3468 C   0  0  0  0  0  0  0  0  0  0  0  0
  148.5809  133.5580  153.4691 C   0  0  0  0  0  0  0  0  0  0  0  0
  150.2810  132.7647  155.1445 C   0  0  0  0  0  0  0  0  0  0  0  0
  149.5700  142.9711  155.2507 H   0  0  0  0  0  0  0  0  0  0  0  0
  151.0618  138.2015  155.9091 H   0  0  0  0  0  0  0  0  0  0  0  0
  152.3750  139.3222  155.5641 H   0  0  0  0  0  0  0  0  0  0  0  0
  151.6217  138.4215  154.2537 H   0  0  0  0  0  0  0  0  0  0  0  0
  146.4791  141.1717  154.4311 H   0  0  0  0  0  0  0  0  0  0  0  0
  147.2548  141.9741  153.0637 H   0  0  0  0  0  0  0  0  0  0  0  0
  147.1584  142.7837  154.6266 H   0  0  0  0  0  0  0  0  0  0  0  0
  148.9177  138.3301  153.0414 H   0  0  0  0  0  0  0  0  0  0  0  0
  146.3518  139.2305  154.4312 H   0  0  0  0  0  0  0  0  0  0  0  0
  146.4921  138.0070  153.1756 H   0  0  0  0  0  0  0  0  0  0  0  0
  146.8638  139.6852  152.8108 H   0  0  0  0  0  0  0  0  0  0  0  0
  149.2869  136.3543  153.5166 H   0  0  0  0  0  0  0  0  0  0  0  0
  148.5275  134.9362  155.8146 H   0  0  0  0  0  0  0  0  0  0  0  0
  150.6097  134.6929  157.0514 H   0  0  0  0  0  0  0  0  0  0  0  0
  150.2762  136.4027  156.8796 H   0  0  0  0  0  0  0  0  0  0  0  0
  151.5000  135.6404  155.8671 H   0  0  0  0  0  0  0  0  0  0  0  0
  150.5814  134.2749  153.6738 H   0  0  0  0  0  0  0  0  0  0  0  0
  147.7187  133.2879  154.0794 H   0  0  0  0  0  0  0  0  0  0  0  0
  148.8326  132.6955  152.8515 H   0  0  0  0  0  0  0  0  0  0  0  0
  148.2719  134.3523  152.7899 H   0  0  0  0  0  0  0  0  0  0  0  0
  149.5497  132.4466  155.8880 H   0  0  0  0  0  0  0  0  0  0  0  0
  151.2149  132.9811  155.6627 H   0  0  0  0  0  0  0  0  0  0  0  0
  150.4747  131.9167  154.4871 H   0  0  0  0  0  0  0  0  0  0  0  0
  1  2  1  0  0  0  0
  1 19  1  0  0  0  0
  1 20  1  0  0  0  0
  1 21  1  0  0  0  0
  2  7  1  0  0  0  0
  2  3  2  0  0  0  0
  3  4  1  0  0  0  0
  4 18  1  0  0  0  0
  4  5  1  0  0  0  0
  5  6  1  0  0  0  0
  5  7  2  0  0  0  0
  6 22  1  0  0  0  0
  6 23  1  0  0  0  0
  6 24  1  0  0  0  0
  7  8  1  0  0  0  0
  8  9  1  0  0  0  0
  8 10  1  0  0  0  0
  8 25  1  0  0  0  0
  9 26  1  0  0  0  0
  9 27  1  0  0  0  0
  9 28  1  0  0  0  0
 10 11  2  0  0  0  0
 10 12  1  0  0  0  0
 12 13  1  0  0  0  0
 12 29  1  0  0  0  0
 13 14  1  0  0  0  0
 13 15  1  0  0  0  0
 13 30  1  0  0  0  0
 14 31  1  0  0  0  0
 14 32  1  0  0  0  0
 14 33  1  0  0  0  0
 15 16  1  0  0  0  0
 15 17  1  0  0  0  0
 15 34  1  0  0  0  0
 16 35  1  0  0  0  0
 16 36  1  0  0  0  0
 16 37  1  0  0  0  0
 17 38  1  0  0  0  0
 17 39  1  0  0  0  0
 17 40  1  0  0  0  0
M  END
> <s_m_source_file>
AV-unprocessed.smi

> <i_m_source_file_index>
2496

> <i_lp_mmshare_version>
43012

> <i_f3d_flags>
0

> <s_epik_input>
W0NIM11jMW5bbkhdYyhbQ0gzXSljMVtDQEhdKFtDSDNdKUMoPU8pW05IXVtDQEhdKFtDSDNdKVtDSF0oW0NIM10pW0NIM10=

> <s_epik_cmdline>
J2VwaWtfcHl0aG9uJywgJy1waCcsICc3LjAnLCAnLXRuJywgJzgnLCAnLW1hJywgJzIwMCcsICctbWV0YWxfYmluZGluZycsICctaW1hZScsICc8aW5maWxlLm1hZT4nLCAnLW9tYWUnLCAnPG91dGZpbGUubWFlPic=

> <r_lp_tautomer_probability>
1

> <r_epik_Ionization_Penalty>
0.000456212

> <r_epik_Ionization_Penalty_Charging>
0

> <r_epik_Ionization_Penalty_Neutral>
0.000456212

> <r_epik_State_Penalty>
-0

> <r_epik_Charging_Adjusted_Penalty>
0

> <i_epik_Tot_Q>
0

> <i_epik_Tot_abs_Q>
0

> <r_epik_Metal_State_Penalty>
-0

> <b_epik_Metal_Only>
0

> <s_lp_Force_Field>
OPLS_2005

> <r_lp_Energy>
1.67244

> <b_lp_Chiralities_Consistent>
1

> <s_lp_Variant>
AV-unprocessed.smi:2496-1

> <Gold.Version>
5.8.1

> <Gold.Id.Protein>
6NUR|6NUR_protein|mol2

> <Gold.PLP.Fitness>
33.6093

> <Gold.PLP.PLP>
-29.0782

> <Gold.PLP.part.hbond>
-3.0000

> <Gold.PLP.part.metal>
0.0000

> <Gold.PLP.part.buried>
-0.1356

> <Gold.PLP.part.nonpolar>
-25.7007

> <Gold.PLP.part.repulsive>
0.3145

> <Gold.PLP.ligand.clash>
0.6041

> <Gold.PLP.ligand.torsion>
0.5240

> <Gold.PLP.Chemscore.Hbond>
2.0000

> <Gold.PLP.Chemscore.CHOScore>
0.0000

> <Gold.PLP.Chemscore.Metal>
0.0000

> <Gold.Chemscore.Hbonds>
donor molecule, donor type, donor heavy atom, donor atom, acceptor molecule, acceptor atom, score
      L1  H     4    18       P1  8028  1.00
      L1  H    12    29       P1  7948  1.00

> <Gold.PLP.Chemscore.Internal.Correction>
0.1833

> <Gold.Rescore>
     Score         DG    S(hbond)    S(metal)    S(lipo)     H(rot)  DE(clash)    DE(int)     intcor
     14.65     -16.38       1.93        0.00      70.03       1.47       0.01       1.71       ----

> <Gold.Chemscore.Fitness>
14.6508

> <Gold.Chemscore.DG>
-16.3763

> <Gold.Chemscore.ZeroCoef>
-5.4800

> <Gold.Chemscore.Hbond>
1.9329

> <Gold.Chemscore.Metal>
0.0000

> <Gold.Chemscore.Lipo>
70.0334

> <Gold.Chemscore.Internal_Hbond>
0.0000

> <Gold.Chemscore.DEClash>
0.0127

> <Gold.Chemscore.DEInternal>
1.7127

> <Gold.Chemscore.Rot>
1.4662

> <Gold.Chemscore.Internal.Correction>
   9.000000E+99

> <Gold.Chemscore.Hbonds>
donor molecule, donor type, donor heavy atom, donor atom, acceptor molecule, acceptor atom, score
      L1  H     4    18       P1  8028  0.99
      L1  H    12    29       P1  7948  0.88

> <Gold.Chemscore.Hbond.Weighted>
-6.4558

> <Gold.Chemscore.Metal.Weighted>
-0.0000

> <Gold.Chemscore.Lipo.Weighted>
-8.1939

> <Gold.Chemscore.Internal_Hbond.Weighted>
0.0000

> <Gold.Chemscore.DEClash.Weighted>
0.0127

> <Gold.Chemscore.DEInternal.Weighted>
1.7127

> <Gold.Chemscore.Rot.Weighted>
3.7534

> <Gold.Chemscore.Internal.Correction.Weighted>
   9.000000E+99

> <Gold.Protein.RotatedTorsions>
[ 6907 6896 6895 6894 ] final -143.34 input  -60.11 | X-H torsion
[ 7974 7965 7964 7962 ] final  -64.30 input  175.53 | X-H torsion
[ 8008 7997 7996 7995 ] final   97.22 input   59.86 | X-H torsion
[ 10167 10162 10161 10158 ] final   93.56 input  -65.29 | X-H torsion
[ 10718 10713 10712 10709 ] final  -18.03 input   66.30 | X-H torsion
[ 10763 10752 10751 10750 ] final -149.78 input  -60.55 | X-H torsion
[ 11005 11000 10999 10996 ] final  168.53 input  -57.11 | X-H torsion

> <Gold.Protein.ActiveResidues>
 VAL166  LYS551  ARG553  GLY616  TRP617  ASP618  TYR619  PRO620  LYS621  CYS622 
 ASP623  PHE694  ASN695  SER759  ASP760  ASP761  ALA762  ILE779  LEU786  VAL792 
 PHE793  MET794  SER795  GLU796  ALA797  LYS798  CYS799  TRP800  GLU811  SER814 

> <Gold.Protein.RotatedAtoms>
  151.0991  133.5257  159.2610 H   0  0  0  0  0  0  0  0  0  0  0  0  # atno 6907 bound_to 6896
  151.2095  135.0475  159.8915 H   0  0  0  0  0  0  0  0  0  0  0  0  # atno 6908 bound_to 6896
  152.5441  134.0809  159.8288 H   0  0  0  0  0  0  0  0  0  0  0  0  # atno 6909 bound_to 6896
  145.7683  140.8826  143.0393 H   0  0  0  0  0  0  0  0  0  0  0  0  # atno 7974 bound_to 7965
  156.0879  140.3261  155.7777 H   0  0  0  0  0  0  0  0  0  0  0  0  # atno 8008 bound_to 7997
  155.5045  140.0572  157.2951 H   0  0  0  0  0  0  0  0  0  0  0  0  # atno 8009 bound_to 7997
  154.4620  140.1971  156.0235 H   0  0  0  0  0  0  0  0  0  0  0  0  # atno 8010 bound_to 7997
  139.8168  144.6749  150.9570 H   0  0  0  0  0  0  0  0  0  0  0  0  # atno 10167 bound_to 10162
  156.5652  130.4735  149.6388 H   0  0  0  0  0  0  0  0  0  0  0  0  # atno 10718 bound_to 10713
  154.8157  135.3300  154.7182 H   0  0  0  0  0  0  0  0  0  0  0  0  # atno 10763 bound_to 10752
  153.7823  135.6917  153.4890 H   0  0  0  0  0  0  0  0  0  0  0  0  # atno 10764 bound_to 10752
  153.1972  135.4529  155.0170 H   0  0  0  0  0  0  0  0  0  0  0  0  # atno 10765 bound_to 10752
  140.2882  134.7695  157.3816 H   0  0  0  0  0  0  0  0  0  0  0  0  # atno 11005 bound_to 11000
  144.6817  139.9820  143.7483 LP  0  0  0  0  0  0  0  0  0  0  0  0  # atno 17320 bound_to 7965
  146.0195  139.3238  143.0821 LP  0  0  0  0  0  0  0  0  0  0  0  0  # atno 17321 bound_to 7965
  140.7815  143.4131  151.0961 LP  0  0  0  0  0  0  0  0  0  0  0  0  # atno 17342 bound_to 10162
  139.7794  143.8377  152.3135 LP  0  0  0  0  0  0  0  0  0  0  0  0  # atno 17343 bound_to 10162
  156.2763  130.7045  151.1857 LP  0  0  0  0  0  0  0  0  0  0  0  0  # atno 17370 bound_to 10713
  157.7360  131.0567  150.5438 LP  0  0  0  0  0  0  0  0  0  0  0  0  # atno 17371 bound_to 10713
  140.1220  134.5207  155.8176 LP  0  0  0  0  0  0  0  0  0  0  0  0  # atno 17394 bound_to 11000
  141.2151  133.6759  156.6883 LP  0  0  0  0  0  0  0  0  0  0  0  0  # atno 17395 bound_to 11000

$$$$
