AV-unprocessed.smi:1033|AV-procd|sdf|4505|dock2
  -GOLD-   22720 2503D 1   1.00000     0.00000
 Structure written by MMmdl.
 57 59  0  0  0  0  0  0  0  0  3 V2000
  151.9372  145.3765  160.4257 C   0  0  0  0  0  0  0  0  0  0  0  0
  151.8813  144.0815  159.6333 C   0  0  0  0  0  0  0  0  0  0  0  0
  151.2274  144.0854  158.3802 C   0  0  0  0  0  0  0  0  0  0  0  0
  151.1947  142.8863  157.6782 C   0  0  0  0  0  0  0  0  0  0  0  0
  150.6387  142.5662  156.4376 N   0  3  0  0  0  0  0  0  0  0  0  0
  150.8632  141.2510  156.1644 C   0  0  0  0  0  0  0  0  0  0  0  0
  151.5500  140.7258  157.2154 N   0  0  0  0  0  0  0  0  0  0  0  0
  152.0440  139.3601  157.4341 C   0  0  0  0  0  0  0  0  0  0  0  0
  150.9249  138.3766  157.8372 C   0  0  1  0  0  0  0  0  0  0  0  0
  150.3717  138.7094  159.0950 O   0  0  0  0  0  0  0  0  0  0  0  0
  149.8084  138.2128  156.7828 C   0  0  0  0  0  0  0  0  0  0  0  0
  150.1959  137.6297  155.4903 N   0  0  0  0  0  0  0  0  0  0  0  0
  149.3549  136.4942  155.1124 C   0  0  0  0  0  0  0  0  0  0  0  0
  147.9244  136.9044  154.7037 C   0  0  0  0  0  0  0  0  0  0  0  0
  147.9616  137.8894  153.5916 N   0  3  0  0  0  0  0  0  0  0  0  0
  146.6030  138.2677  153.1270 C   0  0  0  0  0  0  0  0  0  0  0  0
  145.9782  137.2234  152.1799 C   0  0  1  0  0  0  0  0  0  0  0  0
  144.4424  137.2378  152.1934 C   0  0  0  0  0  0  0  0  0  0  0  0
  146.4091  137.5032  150.8649 O   0  0  0  0  0  0  0  0  0  0  0  0
  148.8161  139.0535  153.9485 C   0  0  0  0  0  0  0  0  0  0  0  0
  150.2189  138.5747  154.3712 C   0  0  0  0  0  0  0  0  0  0  0  0
  151.7831  141.7101  158.1815 C   0  0  0  0  0  0  0  0  0  0  0  0
  152.4321  141.6883  159.4134 C   0  0  0  0  0  0  0  0  0  0  0  0
  152.4762  142.8980  160.1429 C   0  0  0  0  0  0  0  0  0  0  0  0
  153.1778  142.9059  161.4904 C   0  0  0  0  0  0  0  0  0  0  0  0
  151.4124  146.1821  159.9111 H   0  0  0  0  0  0  0  0  0  0  0  0
  152.9708  145.6915  160.5703 H   0  0  0  0  0  0  0  0  0  0  0  0
  151.4730  145.2495  161.4040 H   0  0  0  0  0  0  0  0  0  0  0  0
  150.7734  144.9825  157.9853 H   0  0  0  0  0  0  0  0  0  0  0  0
  150.5509  140.7208  155.2760 H   0  0  0  0  0  0  0  0  0  0  0  0
  152.5238  139.0410  156.5083 H   0  0  0  0  0  0  0  0  0  0  0  0
  152.8271  139.3931  158.1925 H   0  0  0  0  0  0  0  0  0  0  0  0
  151.3711  137.3915  157.9756 H   0  0  0  0  0  0  0  0  0  0  0  0
  150.9081  139.3797  159.4897 H   0  0  0  0  0  0  0  0  0  0  0  0
  149.0626  137.5532  157.2284 H   0  0  0  0  0  0  0  0  0  0  0  0
  149.2973  139.1652  156.6448 H   0  0  0  0  0  0  0  0  0  0  0  0
  149.8228  135.9683  154.2789 H   0  0  0  0  0  0  0  0  0  0  0  0
  149.3143  135.7734  155.9299 H   0  0  0  0  0  0  0  0  0  0  0  0
  147.3760  136.0172  154.3853 H   0  0  0  0  0  0  0  0  0  0  0  0
  147.3793  137.3208  155.5517 H   0  0  0  0  0  0  0  0  0  0  0  0
  145.9462  138.3872  153.9905 H   0  0  0  0  0  0  0  0  0  0  0  0
  146.6509  139.2451  152.6432 H   0  0  0  0  0  0  0  0  0  0  0  0
  146.3344  136.2226  152.4218 H   0  0  0  0  0  0  0  0  0  0  0  0
  144.0530  136.9860  153.1800 H   0  0  0  0  0  0  0  0  0  0  0  0
  144.0378  136.5103  151.4887 H   0  0  0  0  0  0  0  0  0  0  0  0
  144.0498  138.2182  151.9212 H   0  0  0  0  0  0  0  0  0  0  0  0
  145.7505  138.0261  150.4329 H   0  0  0  0  0  0  0  0  0  0  0  0
  148.9188  139.7210  153.0941 H   0  0  0  0  0  0  0  0  0  0  0  0
  148.3475  139.6348  154.7436 H   0  0  0  0  0  0  0  0  0  0  0  0
  150.8524  139.4292  154.6037 H   0  0  0  0  0  0  0  0  0  0  0  0
  150.6944  138.0937  153.5152 H   0  0  0  0  0  0  0  0  0  0  0  0
  152.8846  140.7874  159.8008 H   0  0  0  0  0  0  0  0  0  0  0  0
  153.5878  141.9250  161.7328 H   0  0  0  0  0  0  0  0  0  0  0  0
  152.4823  143.1814  162.2835 H   0  0  0  0  0  0  0  0  0  0  0  0
  154.0020  143.6195  161.4884 H   0  0  0  0  0  0  0  0  0  0  0  0
  148.4122  137.4208  152.8186 H   0  0  0  0  0  0  0  0  0  0  0  0
  150.1445  143.1973  155.8197 H   0  0  0  0  0  0  0  0  0  0  0  0
  1  2  1  0  0  0  0
  1 26  1  0  0  0  0
  1 27  1  0  0  0  0
  1 28  1  0  0  0  0
  2 24  1  0  0  0  0
  2  3  2  0  0  0  0
  3  4  1  0  0  0  0
  3 29  1  0  0  0  0
  4 22  2  0  0  0  0
  4  5  1  0  0  0  0
  5  6  2  0  0  0  0
  5 57  1  0  0  0  0
  6  7  1  0  0  0  0
  6 30  1  0  0  0  0
  7  8  1  0  0  0  0
  7 22  1  0  0  0  0
  8  9  1  0  0  0  0
  8 31  1  0  0  0  0
  8 32  1  0  0  0  0
  9 10  1  0  0  0  0
  9 11  1  0  0  0  0
  9 33  1  0  0  0  0
 10 34  1  0  0  0  0
 11 12  1  0  0  0  0
 11 35  1  0  0  0  0
 11 36  1  0  0  0  0
 12 21  1  0  0  0  0
 12 13  1  0  0  0  0
 13 14  1  0  0  0  0
 13 37  1  0  0  0  0
 13 38  1  0  0  0  0
 14 15  1  0  0  0  0
 14 39  1  0  0  0  0
 14 40  1  0  0  0  0
 15 16  1  0  0  0  0
 15 20  1  0  0  0  0
 15 56  1  0  0  0  0
 16 17  1  0  0  0  0
 16 41  1  0  0  0  0
 16 42  1  0  0  0  0
 17 18  1  0  0  0  0
 17 19  1  0  0  0  0
 17 43  1  0  0  0  0
 18 44  1  0  0  0  0
 18 45  1  0  0  0  0
 18 46  1  0  0  0  0
 19 47  1  0  0  0  0
 20 21  1  0  0  0  0
 20 48  1  0  0  0  0
 20 49  1  0  0  0  0
 21 50  1  0  0  0  0
 21 51  1  0  0  0  0
 22 23  1  0  0  0  0
 23 24  2  0  0  0  0
 23 52  1  0  0  0  0
 24 25  1  0  0  0  0
 25 53  1  0  0  0  0
 25 54  1  0  0  0  0
 25 55  1  0  0  0  0
M  CHG  1   5   1
M  CHG  1  15   1
M  END
> <s_m_source_file>
AV-unprocessed.smi

> <i_m_source_file_index>
1033

> <i_lp_mmshare_version>
43012

> <i_f3d_flags>
0

> <s_epik_input>
W0NIM11jKFtjSF0xKWMoW0NIM10pW2NIXWMoYzEyKW4oW2NIXW4yKVtDSDJdW0NASF0oW09IXSlbQ0gyXU4zW0NIMl1bQ0gyXU4oW0NIMl1bQ0gyXTMpW0NIMl1bQ0BIXShbQ0gzXSlbT0hd

> <s_epik_cmdline>
J2VwaWtfcHl0aG9uJywgJy1waCcsICc3LjAnLCAnLXRuJywgJzgnLCAnLW1hJywgJzIwMCcsICctbWV0YWxfYmluZGluZycsICctaW1hZScsICc8aW5maWxlLm1hZT4nLCAnLW9tYWUnLCAnPG91dGZpbGUubWFlPic=

> <r_epik_Ionization_Penalty>
1.28617

> <r_epik_Ionization_Penalty_Charging>
1.23646

> <r_epik_Ionization_Penalty_Neutral>
0.0497112

> <r_epik_State_Penalty>
1.79157

> <r_epik_Charging_Adjusted_Penalty>
3.02803

> <i_epik_Tot_Q>
2

> <i_epik_Tot_abs_Q>
2

> <r_epik_Metal_State_Penalty>
5.81739

> <b_epik_Metal_Only>
0

> <s_lp_Force_Field>
OPLS_2005

> <r_lp_Energy>
43.5011

> <b_lp_Chiralities_Consistent>
1

> <s_lp_Variant>
AV-unprocessed.smi:1033-16

> <Gold.Version>
5.8.1

> <Gold.Id.Protein>
6NUR|6NUR_protein|mol2

> <Gold.PLP.Fitness>
61.0182

> <Gold.PLP.PLP>
-46.0144

> <Gold.PLP.part.hbond>
-5.9724

> <Gold.PLP.part.metal>
0.0000

> <Gold.PLP.part.buried>
-1.3451

> <Gold.PLP.part.nonpolar>
-39.7065

> <Gold.PLP.part.repulsive>
0.1751

> <Gold.PLP.ligand.clash>
0.0000

> <Gold.PLP.ligand.torsion>
1.4982

> <Gold.PLP.Chemscore.Hbond>
5.9183

> <Gold.PLP.Chemscore.CHOScore>
0.0000

> <Gold.PLP.Chemscore.Metal>
0.0000

> <Gold.Chemscore.Hbonds>
donor molecule, donor type, donor heavy atom, donor atom, acceptor molecule, acceptor atom, score
      L1  H     5    57       P1  8028  1.89
      L1  H    15    56       P1  7948  2.00
      L1  H    19    47       P1 10171  0.98
      P1  H  7954  7966       L1    19  0.99

> <Gold.PLP.Chemscore.Internal.Correction>
0.2455

> <Gold.Rescore>
     Score         DG    S(hbond)    S(metal)    S(lipo)     H(rot)  DE(clash)    DE(int)     intcor
     21.63     -24.08       3.45        0.00     129.30       3.15       0.96       1.49       ----

> <Gold.Chemscore.Fitness>
21.6271

> <Gold.Chemscore.DG>
-24.0797

> <Gold.Chemscore.ZeroCoef>
-5.4800

> <Gold.Chemscore.Hbond>
3.4525

> <Gold.Chemscore.Metal>
0.0000

> <Gold.Chemscore.Lipo>
129.3006

> <Gold.Chemscore.Internal_Hbond>
0.0000

> <Gold.Chemscore.DEClash>
0.9609

> <Gold.Chemscore.DEInternal>
1.4917

> <Gold.Chemscore.Rot>
3.1483

> <Gold.Chemscore.Internal.Correction>
   9.000000E+99

> <Gold.Chemscore.Hbonds>
donor molecule, donor type, donor heavy atom, donor atom, acceptor molecule, acceptor atom, score
      L1  H     5    57       P1  8028  0.89
      L1  H    15    56       P1  7948  0.99
      L1  H    19    47       P1 10171  0.91
      P1  H  7954  7966       L1    19  0.50

> <Gold.Chemscore.Hbond.Weighted>
-11.5312

> <Gold.Chemscore.Metal.Weighted>
-0.0000

> <Gold.Chemscore.Lipo.Weighted>
-15.1282

> <Gold.Chemscore.Internal_Hbond.Weighted>
0.0000

> <Gold.Chemscore.DEClash.Weighted>
0.9609

> <Gold.Chemscore.DEInternal.Weighted>
1.4917

> <Gold.Chemscore.Rot.Weighted>
8.0597

> <Gold.Chemscore.Internal.Correction.Weighted>
   9.000000E+99

> <Gold.Protein.RotatedTorsions>
[ 6907 6896 6895 6894 ] final  176.50 input  -60.11 | X-H torsion
[ 7974 7965 7964 7962 ] final  -87.57 input  175.53 | X-H torsion
[ 8008 7997 7996 7995 ] final -148.55 input   59.86 | X-H torsion
[ 10167 10162 10161 10158 ] final   25.78 input  -65.29 | X-H torsion
[ 10718 10713 10712 10709 ] final  -22.68 input   66.30 | X-H torsion
[ 10763 10752 10751 10750 ] final  145.82 input  -60.55 | X-H torsion
[ 11005 11000 10999 10996 ] final  170.37 input  -57.11 | X-H torsion

> <Gold.Protein.ActiveResidues>
 VAL166  LYS551  ARG553  GLY616  TRP617  ASP618  TYR619  PRO620  LYS621  CYS622 
 ASP623  PHE694  ASN695  SER759  ASP760  ASP761  ALA762  ILE779  LEU786  VAL792 
 PHE793  MET794  SER795  GLU796  ALA797  LYS798  CYS799  TRP800  GLU811  SER814 

> <Gold.Protein.RotatedAtoms>
  151.7191  133.3314  159.3310 H   0  0  0  0  0  0  0  0  0  0  0  0  # atno 6907 bound_to 6896
  150.7660  134.6464  159.6274 H   0  0  0  0  0  0  0  0  0  0  0  0  # atno 6908 bound_to 6896
  152.3663  134.6802  160.0242 H   0  0  0  0  0  0  0  0  0  0  0  0  # atno 6909 bound_to 6896
  145.4648  140.9560  143.1949 H   0  0  0  0  0  0  0  0  0  0  0  0  # atno 7974 bound_to 7965
  155.5934  140.0655  157.2752 H   0  0  0  0  0  0  0  0  0  0  0  0  # atno 8008 bound_to 7997
  154.4299  140.1831  156.1145 H   0  0  0  0  0  0  0  0  0  0  0  0  # atno 8009 bound_to 7997
  156.0215  140.3316  155.7047 H   0  0  0  0  0  0  0  0  0  0  0  0  # atno 8010 bound_to 7997
  140.5078  144.0210  150.6359 H   0  0  0  0  0  0  0  0  0  0  0  0  # atno 10167 bound_to 10162
  156.5012  130.4588  149.6700 H   0  0  0  0  0  0  0  0  0  0  0  0  # atno 10718 bound_to 10713
  154.0117  135.2914  155.3391 H   0  0  0  0  0  0  0  0  0  0  0  0  # atno 10763 bound_to 10752
  154.7099  135.5153  153.8654 H   0  0  0  0  0  0  0  0  0  0  0  0  # atno 10764 bound_to 10752
  153.0720  135.6651  154.0348 H   0  0  0  0  0  0  0  0  0  0  0  0  # atno 10765 bound_to 10752
  140.3076  134.7544  157.3966 H   0  0  0  0  0  0  0  0  0  0  0  0  # atno 11005 bound_to 11000
  144.7981  139.6195  143.7084 LP  0  0  0  0  0  0  0  0  0  0  0  0  # atno 17320 bound_to 7965
  146.2430  139.6041  142.9478 LP  0  0  0  0  0  0  0  0  0  0  0  0  # atno 17321 bound_to 7965
  140.3524  143.2955  152.0472 LP  0  0  0  0  0  0  0  0  0  0  0  0  # atno 17342 bound_to 10162
  139.4888  144.6364  151.6967 LP  0  0  0  0  0  0  0  0  0  0  0  0  # atno 17343 bound_to 10162
  156.3331  130.7342  151.2275 LP  0  0  0  0  0  0  0  0  0  0  0  0  # atno 17370 bound_to 10713
  157.7462  131.0424  150.4695 LP  0  0  0  0  0  0  0  0  0  0  0  0  # atno 17371 bound_to 10713
  140.1053  134.5417  155.8315 LP  0  0  0  0  0  0  0  0  0  0  0  0  # atno 17394 bound_to 11000
  141.2115  133.6707  156.6588 LP  0  0  0  0  0  0  0  0  0  0  0  0  # atno 17395 bound_to 11000

$$$$
