#       Name:                AV-unprocessed.smi:1815
#       Creating user name   scv26
#       Creation time:       Fri Mar 27 09:02:15 2020


#       File generated by GOLD software.
#

@<TRIPOS>MOLECULE
AV-unprocessed.smi:1815
    45    46     1
SMALL
NO_CHARGES


@<TRIPOS>ATOM
      1 ****        -3.7776  -2.6443   2.7692 C.3            1 S1                 0.0000
      2 ****        -3.2307  -1.5923   1.7978 C.3            1 S1                 0.0000
      3 ****        -1.6930  -1.5329   1.8174 C.3            1 S1                 0.0000
      4 ****        -1.2060  -0.4512   0.9309 N.4            1 S1                 1.0000
      5 ****         0.2738  -0.4231   0.8285 C.3            1 S1                 0.0000
      6 ****         0.7546   0.3037  -0.4366 C.3            1 S1                 0.0000
      7 ****         2.2067   0.2564  -0.5275 N.am           1 S1                 0.0000
      8 ****         2.9306   0.7515  -1.5395 C.2            1 S1                 0.0000
      9 ****         2.3648   1.3057  -2.4848 O.2            1 S1                 0.0000
     10 ****         4.2624   0.5728  -1.3919 N.pl3          1 S1                -1.0000
     11 ****         5.1085   1.0128  -2.3375 C.2            1 S1                 0.0000
     12 ****         5.6248   0.2175  -3.2814 N.2            1 S1                 0.0000
     13 ****         6.4864   0.8813  -4.1563 C.2            1 S1                 0.0000
     14 ****         6.6366   2.2114  -3.8663 C.2            1 S1                 0.0000
     15 ****         5.6930   2.6730  -2.4787 S.3            1 S1                 0.0000
     16 ****        -1.7981   0.8482   1.3336 C.3            1 S1                 0.0000
     17 ****        -3.3371   0.7709   1.3677 C.3            1 S1                 0.0000
     18 ****        -3.9827   0.7460  -0.0294 C.3            1 S1                 0.0000
     19 ****        -3.7596  -0.3251   2.1795 O.3            1 S1                 0.0000
     20 ****        -3.4143  -3.6404   2.5148 H              1 S1                 0.0000
     21 ****        -4.8671  -2.6715   2.7408 H              1 S1                 0.0000
     22 ****        -3.4770  -2.4300   3.7951 H              1 S1                 0.0000
     23 ****        -3.5751  -1.8487   0.7957 H              1 S1                 0.0000
     24 ****        -1.3306  -1.3630   2.8329 H              1 S1                 0.0000
     25 ****        -1.2877  -2.4908   1.4882 H              1 S1                 0.0000
     26 ****         0.7004   0.0308   1.7245 H              1 S1                 0.0000
     27 ****         0.6484  -1.4474   0.7927 H              1 S1                 0.0000
     28 ****         0.3205  -0.1616  -1.3232 H              1 S1                 0.0000
     29 ****         0.4433   1.3483  -0.4320 H              1 S1                 0.0000
     30 ****         2.7062  -0.1884   0.2289 H              1 S1                 0.0000
     31 ****         6.9521   0.3270  -4.9574 H              1 S1                 0.0000
     32 ****         7.2413   2.9436  -4.3794 H              1 S1                 0.0000
     33 ****        -1.4252   1.1162   2.3233 H              1 S1                 0.0000
     34 ****        -1.4886   1.6440   0.6571 H              1 S1                 0.0000
     35 ****        -3.7016   1.6705   1.8646 H              1 S1                 0.0000
     36 ****        -3.7436   1.6559  -0.5804 H              1 S1                 0.0000
     37 ****        -5.0685   0.6832   0.0450 H              1 S1                 0.0000
     38 ****        -3.6390  -0.0948  -0.6312 H              1 S1                 0.0000
     39 ****        -1.5524  -0.6634   0.0059 H              1 S1                 0.0000
     40 ****         1.3680   1.3844  -2.4943 LP             1 S1                 0.0000
     41 ****         2.9029   1.6763  -3.2419 LP             1 S1                 0.0000
     42 ****         4.6178   0.1127  -0.5782 LP             1 S1                 0.0000
     43 ****         5.4140  -0.7574  -3.3531 LP             1 S1                 0.0000
     44 ****        -3.4774  -0.1414   3.1211 LP             1 S1                 0.0000
     45 ****        -4.7572  -0.3785   2.1349 LP             1 S1                 0.0000
@<TRIPOS>BOND
    1    1    2 1     
    2    1   20 1     
    3    1   21 1     
    4    1   22 1     
    5    2   19 1     
    6    2    3 1     
    7    2   23 1     
    8    3    4 1     
    9    3   24 1     
   10    3   25 1     
   11    4    5 1     
   12    4   16 1     
   13    4   39 1     
   14    5    6 1     
   15    5   26 1     
   16    5   27 1     
   17    6    7 1     
   18    6   28 1     
   19    6   29 1     
   20    7    8 am    
   21    7   30 1     
   22    8    9 2     
   23    8   10 1     
   24   10   11 1     
   25   11   15 1     
   26   11   12 2     
   27   12   13 1     
   28   13   14 2     
   29   13   31 1     
   30   14   15 1     
   31   14   32 1     
   32   16   17 1     
   33   16   33 1     
   34   16   34 1     
   35   17   18 1     
   36   17   19 1     
   37   17   35 1     
   38   18   36 1     
   39   18   37 1     
   40   18   38 1     
   41    9   40 1     
   42    9   41 1     
   43   10   42 1     
   44   12   43 1     
   45   19   44 1     
   46   19   45 1     
@<TRIPOS>SUBSTRUCTURE
      1 S1             1
@<TRIPOS>SET
LONE_PAIRS      STATIC     ATOMS    <user>   **** ""
6 40 41 42 43 44 45
DONOR_HYDROGENS      STATIC     ATOMS    <user>   **** ""
2 39 30
ATOM$BLUE        STATIC     ATOMS    COLORGROUP SYSTEM
6 40 41 42 43 44 45
ATOM$RED        STATIC     ATOMS    COLORGROUP SYSTEM
2 39 30
