AV-unprocessed.smi:779|AV-procd|sdf|3704|dock8
  -GOLD-   22720 1123D 1   1.00000     0.00000
 Structure written by MMmdl.
 21 21  0  0  0  0  0  0  0  0  2 V2000
  152.7055  139.9823  154.9212 O   0  0  0  0  0  0  0  0  0  0  0  0
  152.3862  138.7794  154.7932 C   0  0  0  0  0  0  0  0  0  0  0  0
  153.1792  137.8115  154.8151 O   0  5  0  0  0  0  0  0  0  0  0  0
  150.8343  138.5068  154.5811 C   0  0  0  0  0  0  0  0  0  0  0  0
  149.9194  139.4871  154.3588 C   0  0  0  0  0  0  0  0  0  0  0  0
  148.5675  139.2472  154.1693 N   0  0  0  0  0  0  0  0  0  0  0  0
  147.6215  140.3055  153.9137 C   0  0  0  0  0  0  0  0  0  0  0  0
  147.7191  141.4485  154.9378 C   0  0  0  0  0  0  0  0  0  0  0  0
  148.8279  142.2678  154.6363 O   0  0  0  0  0  0  0  0  0  0  0  0
  148.0843  137.9213  154.1868 C   0  0  0  0  0  0  0  0  0  0  0  0
  146.9016  137.6294  154.0066 O   0  0  0  0  0  0  0  0  0  0  0  0
  149.0202  136.9156  154.4185 N   0  0  0  0  0  0  0  0  0  0  0  0
  150.3918  137.0962  154.6260 C   0  0  0  0  0  0  0  0  0  0  0  0
  151.0783  136.0931  154.8199 O   0  0  0  0  0  0  0  0  0  0  0  0
  148.6778  135.9663  154.4360 H   0  0  0  0  0  0  0  0  0  0  0  0
  150.2560  140.5135  154.3227 H   0  0  0  0  0  0  0  0  0  0  0  0
  147.7686  140.6438  152.8856 H   0  0  0  0  0  0  0  0  0  0  0  0
  146.6341  139.8417  153.9424 H   0  0  0  0  0  0  0  0  0  0  0  0
  146.8154  142.0584  154.9184 H   0  0  0  0  0  0  0  0  0  0  0  0
  147.8302  141.0619  155.9511 H   0  0  0  0  0  0  0  0  0  0  0  0
  148.6292  143.1516  154.9055 H   0  0  0  0  0  0  0  0  0  0  0  0
  1  2  2  0  0  0  0
  2  3  1  0  0  0  0
  2  4  1  0  0  0  0
  4 13  1  0  0  0  0
  4  5  2  0  0  0  0
  5  6  1  0  0  0  0
  5 16  1  0  0  0  0
  6  7  1  0  0  0  0
  6 10  1  0  0  0  0
  7  8  1  0  0  0  0
  7 17  1  0  0  0  0
  7 18  1  0  0  0  0
  8  9  1  0  0  0  0
  8 19  1  0  0  0  0
  8 20  1  0  0  0  0
  9 21  1  0  0  0  0
 10 11  2  0  0  0  0
 10 12  1  0  0  0  0
 12 15  1  0  0  0  0
 12 13  1  0  0  0  0
 13 14  2  0  0  0  0
M  CHG  1   3  -1
M  END
> <s_m_source_file>
AV-unprocessed.smi

> <i_m_source_file_index>
779

> <i_lp_mmshare_version>
43012

> <i_f3d_flags>
0

> <s_epik_input>
Tz1DKFtPSF0pYzFbY0hdbihbQ0gyXVtDSDJdW09IXSljKD1PKVtuSF1jMT1P

> <s_epik_cmdline>
J2VwaWtfcHl0aG9uJywgJy1waCcsICc3LjAnLCAnLXRuJywgJzgnLCAnLW1hJywgJzIwMCcsICctbWV0YWxfYmluZGluZycsICctaW1hZScsICc8aW5maWxlLm1hZT4nLCAnLW9tYWUnLCAnPG91dGZpbGUubWFlPic=

> <r_lp_tautomer_probability>
1

> <r_epik_Ionization_Penalty>
0.00105006

> <r_epik_Ionization_Penalty_Charging>
0.0010499

> <r_epik_Ionization_Penalty_Neutral>
1.56052e-07

> <r_epik_State_Penalty>
-0

> <r_epik_Charging_Adjusted_Penalty>
0.0010499

> <i_epik_Tot_Q>
-1

> <i_epik_Tot_abs_Q>
1

> <r_epik_Metal_State_Penalty>
0.521421

> <b_epik_Metal_Only>
0

> <s_lp_Force_Field>
OPLS_2005

> <r_lp_Energy>
14.2726

> <b_lp_Chiralities_Consistent>
1

> <s_lp_Variant>
AV-unprocessed.smi:779-1

> <Gold.Version>
5.8.1

> <Gold.Id.Protein>
6NUR|6NUR_protein|mol2

> <Gold.PLP.Fitness>
38.0511

> <Gold.PLP.PLP>
-24.8184

> <Gold.PLP.part.hbond>
-7.0000

> <Gold.PLP.part.metal>
0.0000

> <Gold.PLP.part.buried>
0.0276

> <Gold.PLP.part.nonpolar>
-16.8785

> <Gold.PLP.part.repulsive>
0.3330

> <Gold.PLP.ligand.clash>
0.0000

> <Gold.PLP.ligand.torsion>
0.2031

> <Gold.PLP.Chemscore.Hbond>
4.5456

> <Gold.PLP.Chemscore.CHOScore>
0.0000

> <Gold.PLP.Chemscore.Metal>
0.0000

> <Gold.Chemscore.Hbonds>
donor molecule, donor type, donor heavy atom, donor atom, acceptor molecule, acceptor atom, score
      L1  H     9    21       P1  8028  1.00
      P1  H  7989  7998       L1     1  0.46
      P1  H  7997  8009       L1     1  2.00
      P1  H 10752 10765       L1    14  1.00

> <Gold.PLP.Chemscore.Internal.Correction>
0.0022

> <Gold.Rescore>
     Score         DG    S(hbond)    S(metal)    S(lipo)     H(rot)  DE(clash)    DE(int)     intcor
     12.23     -13.95       3.21        0.00      28.66       2.19       0.05       1.67       ----

> <Gold.Chemscore.Fitness>
12.2263

> <Gold.Chemscore.DG>
-13.9501

> <Gold.Chemscore.ZeroCoef>
-5.4800

> <Gold.Chemscore.Hbond>
3.2108

> <Gold.Chemscore.Metal>
0.0000

> <Gold.Chemscore.Lipo>
28.6567

> <Gold.Chemscore.Internal_Hbond>
0.0000

> <Gold.Chemscore.DEClash>
0.0542

> <Gold.Chemscore.DEInternal>
1.6696

> <Gold.Chemscore.Rot>
2.1902

> <Gold.Chemscore.Internal.Correction>
   9.000000E+99

> <Gold.Chemscore.Hbonds>
donor molecule, donor type, donor heavy atom, donor atom, acceptor molecule, acceptor atom, score
      L1  H     9    21       P1  8028  0.99
      P1  H  7989  7998       L1     1  0.18
      P1  H  7997  8009       L1     1  0.81
      P1  H 10752 10765       L1    14  0.99

> <Gold.Chemscore.Hbond.Weighted>
-10.7241

> <Gold.Chemscore.Metal.Weighted>
-0.0000

> <Gold.Chemscore.Lipo.Weighted>
-3.3528

> <Gold.Chemscore.Internal_Hbond.Weighted>
0.0000

> <Gold.Chemscore.DEClash.Weighted>
0.0542

> <Gold.Chemscore.DEInternal.Weighted>
1.6696

> <Gold.Chemscore.Rot.Weighted>
5.6069

> <Gold.Chemscore.Internal.Correction.Weighted>
   9.000000E+99

> <Gold.Protein.RotatedTorsions>
[ 6907 6896 6895 6894 ] final -124.90 input  -60.11 | X-H torsion
[ 7974 7965 7964 7962 ] final  172.21 input  175.53 | X-H torsion
[ 8008 7997 7996 7995 ] final -131.01 input   59.86 | X-H torsion
[ 10167 10162 10161 10158 ] final  -83.40 input  -65.29 | X-H torsion
[ 10718 10713 10712 10709 ] final -100.04 input   66.30 | X-H torsion
[ 10763 10752 10751 10750 ] final  179.52 input  -60.55 | X-H torsion
[ 11005 11000 10999 10996 ] final -142.75 input  -57.11 | X-H torsion

> <Gold.Protein.ActiveResidues>
 VAL166  LYS551  ARG553  GLY616  TRP617  ASP618  TYR619  PRO620  LYS621  CYS622 
 ASP623  PHE694  ASN695  SER759  ASP760  ASP761  ALA762  ILE779  LEU786  VAL792 
 PHE793  MET794  SER795  GLU796  ALA797  LYS798  CYS799  TRP800  GLU811  SER814 

> <Gold.Protein.RotatedAtoms>
  150.8814  133.7367  159.2930 H   0  0  0  0  0  0  0  0  0  0  0  0  # atno 6907 bound_to 6896
  151.4948  135.1058  159.9822 H   0  0  0  0  0  0  0  0  0  0  0  0  # atno 6908 bound_to 6896
  152.4762  133.8097  159.7052 H   0  0  0  0  0  0  0  0  0  0  0  0  # atno 6909 bound_to 6896
  144.7274  139.9465  143.6430 H   0  0  0  0  0  0  0  0  0  0  0  0  # atno 7974 bound_to 7965
  155.3052  140.0454  157.3032 H   0  0  0  0  0  0  0  0  0  0  0  0  # atno 8008 bound_to 7997
  154.5464  140.2304  155.8523 H   0  0  0  0  0  0  0  0  0  0  0  0  # atno 8009 bound_to 7997
  156.1928  140.3046  155.9372 H   0  0  0  0  0  0  0  0  0  0  0  0  # atno 8010 bound_to 7997
  140.4230  143.2577  151.8864 H   0  0  0  0  0  0  0  0  0  0  0  0  # atno 10167 bound_to 10162
  156.0151  130.5310  150.6759 H   0  0  0  0  0  0  0  0  0  0  0  0  # atno 10718 bound_to 10713
  154.5217  135.2794  155.1256 H   0  0  0  0  0  0  0  0  0  0  0  0  # atno 10763 bound_to 10752
  154.2811  135.6285  153.5351 H   0  0  0  0  0  0  0  0  0  0  0  0  # atno 10764 bound_to 10752
  152.9938  135.5651  154.5708 H   0  0  0  0  0  0  0  0  0  0  0  0  # atno 10765 bound_to 10752
  140.8194  134.2649  157.4907 H   0  0  0  0  0  0  0  0  0  0  0  0  # atno 11005 bound_to 11000
  146.0744  139.3732  143.0503 LP  0  0  0  0  0  0  0  0  0  0  0  0  # atno 17320 bound_to 7965
  145.7925  140.9808  143.1041 LP  0  0  0  0  0  0  0  0  0  0  0  0  # atno 17321 bound_to 7965
  139.4783  144.5417  151.8518 LP  0  0  0  0  0  0  0  0  0  0  0  0  # atno 17342 bound_to 10162
  140.4513  144.1852  150.5897 LP  0  0  0  0  0  0  0  0  0  0  0  0  # atno 17343 bound_to 10162
  157.4471  131.0868  151.0884 LP  0  0  0  0  0  0  0  0  0  0  0  0  # atno 17370 bound_to 10713
  157.1410  130.6143  149.5555 LP  0  0  0  0  0  0  0  0  0  0  0  0  # atno 17371 bound_to 10713
  139.8709  134.9527  156.4123 LP  0  0  0  0  0  0  0  0  0  0  0  0  # atno 17394 bound_to 11000
  140.9115  133.7708  155.9797 LP  0  0  0  0  0  0  0  0  0  0  0  0  # atno 17395 bound_to 11000

$$$$
