AV-unprocessed.smi:2252|AV-procd|sdf|9112|dock2
  -GOLD-   2272012313D 1   1.00000     0.00000
 Structure written by MMmdl.
 44 46  0  0  0  0  0  0  0  0  3 V2000
  152.6628  141.3903  159.8153 C   0  0  0  0  0  0  0  0  0  0  0  0
  152.1285  142.5918  159.2025 N   0  0  0  0  0  0  0  0  0  0  0  0
  152.6922  143.8588  159.2764 C   0  0  0  0  0  0  0  0  0  0  0  0
  151.8743  144.6970  158.5590 C   0  0  0  0  0  0  0  0  0  0  0  0
  150.8099  143.9691  158.0395 N   0  0  0  0  0  0  0  0  0  0  0  0
  151.0098  142.7195  158.4572 C   0  0  0  0  0  0  0  0  0  0  0  0
  150.0977  141.5679  158.1269 C   0  0  0  0  0  0  0  0  0  0  0  0
  148.7912  141.9733  157.4077 C   0  0  0  0  0  0  0  0  0  0  0  0
  148.4985  141.0370  156.3244 N   0  5  0  0  0  0  0  0  0  0  0  0
  148.1631  141.4183  155.0584 C   0  0  0  0  0  0  0  0  0  0  0  0
  148.8757  141.7903  154.1208 O   0  0  0  0  0  0  0  0  0  0  0  0
  146.6404  141.3514  154.8302 C   0  0  1  0  0  0  0  0  0  0  0  0
  146.1005  142.7510  154.4521 C   0  0  0  0  0  0  0  0  0  0  0  0
  145.6487  143.7207  155.5232 C   0  0  0  0  0  0  0  0  0  0  0  0
  144.6341  143.0955  154.6012 C   0  0  0  0  0  0  0  0  0  0  0  0
  146.2669  140.3188  153.8217 N   0  3  0  0  0  0  0  0  0  0  0  0
  147.1628  140.2189  152.6496 C   0  0  0  0  0  0  0  0  0  0  0  0
  146.8259  138.8718  152.0213 C   0  0  0  0  0  0  0  0  0  0  0  0
  146.5337  137.9804  153.2262 C   0  0  0  0  0  0  0  0  0  0  0  0
  146.1031  138.9413  154.3446 C   0  0  0  0  0  0  0  0  0  0  0  0
  153.5531  141.6285  160.3975 H   0  0  0  0  0  0  0  0  0  0  0  0
  152.9297  140.6693  159.0425 H   0  0  0  0  0  0  0  0  0  0  0  0
  151.9177  140.9491  160.4776 H   0  0  0  0  0  0  0  0  0  0  0  0
  153.6057  144.0544  159.8182 H   0  0  0  0  0  0  0  0  0  0  0  0
  151.9688  145.7574  158.3773 H   0  0  0  0  0  0  0  0  0  0  0  0
  150.6573  140.8711  157.5013 H   0  0  0  0  0  0  0  0  0  0  0  0
  149.8662  141.0207  159.0413 H   0  0  0  0  0  0  0  0  0  0  0  0
  147.9793  141.9821  158.1352 H   0  0  0  0  0  0  0  0  0  0  0  0
  148.8738  143.0015  157.0531 H   0  0  0  0  0  0  0  0  0  0  0  0
  146.1841  141.0576  155.7774 H   0  0  0  0  0  0  0  0  0  0  0  0
  146.6149  143.2058  153.6069 H   0  0  0  0  0  0  0  0  0  0  0  0
  145.6647  143.3792  156.5566 H   0  0  0  0  0  0  0  0  0  0  0  0
  145.8845  144.7727  155.3767 H   0  0  0  0  0  0  0  0  0  0  0  0
  144.1890  143.7297  153.8374 H   0  0  0  0  0  0  0  0  0  0  0  0
  143.9731  142.3421  155.0248 H   0  0  0  0  0  0  0  0  0  0  0  0
  147.0213  141.0441  151.9509 H   0  0  0  0  0  0  0  0  0  0  0  0
  148.2034  140.2254  152.9782 H   0  0  0  0  0  0  0  0  0  0  0  0
  145.9300  138.9674  151.4064 H   0  0  0  0  0  0  0  0  0  0  0  0
  147.6271  138.4856  151.3905 H   0  0  0  0  0  0  0  0  0  0  0  0
  145.7714  137.2324  153.0053 H   0  0  0  0  0  0  0  0  0  0  0  0
  147.4390  137.4502  153.5251 H   0  0  0  0  0  0  0  0  0  0  0  0
  146.7321  138.7780  155.2203 H   0  0  0  0  0  0  0  0  0  0  0  0
  145.0665  138.7797  154.6421 H   0  0  0  0  0  0  0  0  0  0  0  0
  145.3663  140.5958  153.4566 H   0  0  0  0  0  0  0  0  0  0  0  0
  1  2  1  0  0  0  0
  1 21  1  0  0  0  0
  1 22  1  0  0  0  0
  1 23  1  0  0  0  0
  2  6  1  0  0  0  0
  2  3  1  0  0  0  0
  3  4  2  0  0  0  0
  3 24  1  0  0  0  0
  4  5  1  0  0  0  0
  4 25  1  0  0  0  0
  5  6  2  0  0  0  0
  6  7  1  0  0  0  0
  7  8  1  0  0  0  0
  7 26  1  0  0  0  0
  7 27  1  0  0  0  0
  8  9  1  0  0  0  0
  8 28  1  0  0  0  0
  8 29  1  0  0  0  0
  9 10  1  0  0  0  0
 10 11  2  0  0  0  0
 10 12  1  0  0  0  0
 12 13  1  0  0  0  0
 12 16  1  0  0  0  0
 12 30  1  0  0  0  0
 13 15  1  0  0  0  0
 13 14  1  0  0  0  0
 13 31  1  0  0  0  0
 14 15  1  0  0  0  0
 14 32  1  0  0  0  0
 14 33  1  0  0  0  0
 15 34  1  0  0  0  0
 15 35  1  0  0  0  0
 16 20  1  0  0  0  0
 16 17  1  0  0  0  0
 16 44  1  0  0  0  0
 17 18  1  0  0  0  0
 17 36  1  0  0  0  0
 17 37  1  0  0  0  0
 18 19  1  0  0  0  0
 18 38  1  0  0  0  0
 18 39  1  0  0  0  0
 19 20  1  0  0  0  0
 19 40  1  0  0  0  0
 19 41  1  0  0  0  0
 20 42  1  0  0  0  0
 20 43  1  0  0  0  0
M  CHG  1   9  -1
M  CHG  1  16   1
M  END
> <s_m_source_file>
AV-unprocessed.smi

> <i_m_source_file_index>
2252

> <i_lp_mmshare_version>
43012

> <i_f3d_flags>
0

> <s_epik_input>
W0NIM11uMVtjSF1bY0hdbmMxW0NIMl1bQ0gyXVtOSF1DKD1PKVtDQEhdKFtDSF0yW0NIMl1bQ0gyXTIpTjNbQ0gyXVtDSDJdW0NIMl1bQ0gyXTM=

> <s_epik_cmdline>
J2VwaWtfcHl0aG9uJywgJy1waCcsICc3LjAnLCAnLXRuJywgJzgnLCAnLW1hJywgJzIwMCcsICctbWV0YWxfYmluZGluZycsICctaW1hZScsICc8aW5maWxlLm1hZT4nLCAnLW9tYWUnLCAnPG91dGZpbGUubWFlPic=

> <r_lp_tautomer_probability>
1

> <r_epik_Ionization_Penalty>
7.86289

> <r_epik_Ionization_Penalty_Charging>
7.86289

> <r_epik_Ionization_Penalty_Neutral>
4.79398e-13

> <r_epik_State_Penalty>
7.18546

> <r_epik_Charging_Adjusted_Penalty>
15.0484

> <i_epik_Tot_Q>
0

> <i_epik_Tot_abs_Q>
2

> <r_epik_Metal_State_Penalty>
3.4294

> <b_epik_Metal_Only>
1

> <s_lp_Force_Field>
OPLS_2005

> <r_lp_Energy>
30.1163

> <b_lp_Chiralities_Consistent>
1

> <s_lp_Variant>
AV-unprocessed.smi:2252-10

> <Gold.Version>
5.8.1

> <Gold.Id.Protein>
6NUR|6NUR_protein|mol2

> <Gold.PLP.Fitness>
42.5836

> <Gold.PLP.PLP>
-38.4235

> <Gold.PLP.part.hbond>
-2.0000

> <Gold.PLP.part.metal>
0.0000

> <Gold.PLP.part.buried>
-2.5846

> <Gold.PLP.part.nonpolar>
-34.5249

> <Gold.PLP.part.repulsive>
0.4243

> <Gold.PLP.ligand.clash>
0.0000

> <Gold.PLP.ligand.torsion>
2.2852

> <Gold.PLP.Chemscore.Hbond>
2.4758

> <Gold.PLP.Chemscore.CHOScore>
0.0000

> <Gold.PLP.Chemscore.Metal>
0.0000

> <Gold.Chemscore.Hbonds>
donor molecule, donor type, donor heavy atom, donor atom, acceptor molecule, acceptor atom, score
      L1  H    16    44       P1 10175  2.00
      P1  H  8011  8017       L1    11  0.42

> <Gold.PLP.Chemscore.Internal.Correction>
1.3030

> <Gold.Rescore>
     Score         DG    S(hbond)    S(metal)    S(lipo)     H(rot)  DE(clash)    DE(int)     intcor
     11.80     -15.79       1.46        0.00      87.57       1.88       0.20       3.78       ----

> <Gold.Chemscore.Fitness>
11.8006

> <Gold.Chemscore.DG>
-15.7884

> <Gold.Chemscore.ZeroCoef>
-5.4800

> <Gold.Chemscore.Hbond>
1.4607

> <Gold.Chemscore.Metal>
0.0000

> <Gold.Chemscore.Lipo>
87.5726

> <Gold.Chemscore.Internal_Hbond>
0.0000

> <Gold.Chemscore.DEClash>
0.2045

> <Gold.Chemscore.DEInternal>
3.7833

> <Gold.Chemscore.Rot>
1.8814

> <Gold.Chemscore.Internal.Correction>
   9.000000E+99

> <Gold.Chemscore.Hbonds>
donor molecule, donor type, donor heavy atom, donor atom, acceptor molecule, acceptor atom, score
      L1  H    16    44       P1 10175  0.93
      P1  H  8011  8017       L1    11  0.42

> <Gold.Chemscore.Hbond.Weighted>
-4.8787

> <Gold.Chemscore.Metal.Weighted>
-0.0000

> <Gold.Chemscore.Lipo.Weighted>
-10.2460

> <Gold.Chemscore.Internal_Hbond.Weighted>
0.0000

> <Gold.Chemscore.DEClash.Weighted>
0.2045

> <Gold.Chemscore.DEInternal.Weighted>
3.7833

> <Gold.Chemscore.Rot.Weighted>
4.8163

> <Gold.Chemscore.Internal.Correction.Weighted>
   9.000000E+99

> <Gold.Protein.RotatedTorsions>
[ 6907 6896 6895 6894 ] final  179.88 input  -60.11 | X-H torsion
[ 7974 7965 7964 7962 ] final  108.15 input  175.53 | X-H torsion
[ 8008 7997 7996 7995 ] final  -66.98 input   59.86 | X-H torsion
[ 10167 10162 10161 10158 ] final  -56.98 input  -65.29 | X-H torsion
[ 10718 10713 10712 10709 ] final   88.85 input   66.30 | X-H torsion
[ 10763 10752 10751 10750 ] final  -99.22 input  -60.55 | X-H torsion
[ 11005 11000 10999 10996 ] final -117.59 input  -57.11 | X-H torsion

> <Gold.Protein.ActiveResidues>
 VAL166  LYS551  ARG553  GLY616  TRP617  ASP618  TYR619  PRO620  LYS621  CYS622 
 ASP623  PHE694  ASN695  SER759  ASP760  ASP761  ALA762  ILE779  LEU786  VAL792 
 PHE793  MET794  SER795  GLU796  ALA797  LYS798  CYS799  TRP800  GLU811  SER814 

> <Gold.Protein.RotatedAtoms>
  151.6645  133.3316  159.3181 H   0  0  0  0  0  0  0  0  0  0  0  0  # atno 6907 bound_to 6896
  150.7897  134.6915  159.6509 H   0  0  0  0  0  0  0  0  0  0  0  0  # atno 6908 bound_to 6896
  152.3975  134.6345  160.0135 H   0  0  0  0  0  0  0  0  0  0  0  0  # atno 6909 bound_to 6896
  145.2844  139.2621  143.3898 H   0  0  0  0  0  0  0  0  0  0  0  0  # atno 7974 bound_to 7965
  154.4770  140.0902  156.7285 H   0  0  0  0  0  0  0  0  0  0  0  0  # atno 8008 bound_to 7997
  155.4571  140.3459  155.4290 H   0  0  0  0  0  0  0  0  0  0  0  0  # atno 8009 bound_to 7997
  156.1131  140.1453  156.9298 H   0  0  0  0  0  0  0  0  0  0  0  0  # atno 8010 bound_to 7997
  140.6285  143.2449  151.5302 H   0  0  0  0  0  0  0  0  0  0  0  0  # atno 10167 bound_to 10162
  157.6952  131.0311  150.3337 H   0  0  0  0  0  0  0  0  0  0  0  0  # atno 10718 bound_to 10713
  154.7480  135.4980  153.9238 H   0  0  0  0  0  0  0  0  0  0  0  0  # atno 10763 bound_to 10752
  153.1112  135.6710  153.9504 H   0  0  0  0  0  0  0  0  0  0  0  0  # atno 10764 bound_to 10752
  153.9263  135.3083  155.3426 H   0  0  0  0  0  0  0  0  0  0  0  0  # atno 10765 bound_to 10752
  141.0344  133.9932  157.3093 H   0  0  0  0  0  0  0  0  0  0  0  0  # atno 11005 bound_to 11000
  146.3206  140.3320  142.8641 LP  0  0  0  0  0  0  0  0  0  0  0  0  # atno 17320 bound_to 7965
  144.9226  140.7885  143.5739 LP  0  0  0  0  0  0  0  0  0  0  0  0  # atno 17321 bound_to 7965
  139.5502  144.2415  152.1516 LP  0  0  0  0  0  0  0  0  0  0  0  0  # atno 17342 bound_to 10162
  140.1653  144.4987  150.6609 LP  0  0  0  0  0  0  0  0  0  0  0  0  # atno 17343 bound_to 10162
  156.3807  130.3880  149.7104 LP  0  0  0  0  0  0  0  0  0  0  0  0  # atno 17370 bound_to 10713
  156.4487  130.7896  151.2917 LP  0  0  0  0  0  0  0  0  0  0  0  0  # atno 17371 bound_to 10713
  139.9230  135.0201  156.8134 LP  0  0  0  0  0  0  0  0  0  0  0  0  # atno 17394 bound_to 11000
  140.6348  133.9872  155.7679 LP  0  0  0  0  0  0  0  0  0  0  0  0  # atno 17395 bound_to 11000

$$$$
