AV-unprocessed.smi:3314|AV-procd|sdf|12736|dock7
  -GOLD-   2272019 83D 1   1.00000     0.00000
 Structure written by MMmdl.
 37 38  0  0  0  0  0  0  0  0  1 V2000
  151.9230  145.7103  159.9033 C   0  0  0  0  0  0  0  0  0  0  0  0
  151.9308  144.3128  159.3200 C   0  0  0  0  0  0  0  0  0  0  0  0
  152.7844  143.3180  159.8342 C   0  0  0  0  0  0  0  0  0  0  0  0
  152.7453  142.0390  159.2446 C   0  0  0  0  0  0  0  0  0  0  0  0
  153.6331  140.9205  159.7482 C   0  0  0  0  0  0  0  0  0  0  0  0
  151.9312  141.7276  158.2136 N   0  0  0  0  0  0  0  0  0  0  0  0
  151.1051  142.6780  157.7104 C   0  0  0  0  0  0  0  0  0  0  0  0
  150.2139  142.4545  156.6281 N   0  0  0  0  0  0  0  0  0  0  0  0
  149.9083  141.2914  156.0228 C   0  0  0  0  0  0  0  0  0  0  0  0
  150.3778  140.1966  156.3370 O   0  0  0  0  0  0  0  0  0  0  0  0
  148.9103  141.4055  154.8643 C   0  0  1  0  0  0  0  0  0  0  0  0
  148.4570  140.0374  154.3062 C   0  0  0  0  0  0  0  0  0  0  0  0
  147.4655  140.1918  153.2497 N   0  0  0  0  0  0  0  0  0  0  0  0
  147.0439  138.9052  152.7171 C   0  0  0  0  0  0  0  0  0  0  0  0
  146.3362  140.9639  153.7511 C   0  0  0  0  0  0  0  0  0  0  0  0
  146.7834  142.3226  154.3176 C   0  0  0  0  0  0  0  0  0  0  0  0
  147.7680  142.1233  155.3283 O   0  0  0  0  0  0  0  0  0  0  0  0
  151.0799  143.9854  158.2454 C   0  0  0  0  0  0  0  0  0  0  0  0
  152.6180  145.7961  160.7392 H   0  0  0  0  0  0  0  0  0  0  0  0
  150.9253  145.9648  160.2616 H   0  0  0  0  0  0  0  0  0  0  0  0
  152.2115  146.4372  159.1437 H   0  0  0  0  0  0  0  0  0  0  0  0
  153.4507  143.5289  160.6582 H   0  0  0  0  0  0  0  0  0  0  0  0
  154.2990  141.2688  160.5383 H   0  0  0  0  0  0  0  0  0  0  0  0
  154.2458  140.5265  158.9367 H   0  0  0  0  0  0  0  0  0  0  0  0
  153.0265  140.1071  160.1472 H   0  0  0  0  0  0  0  0  0  0  0  0
  149.7570  143.2776  156.2637 H   0  0  0  0  0  0  0  0  0  0  0  0
  149.3875  141.9777  154.0662 H   0  0  0  0  0  0  0  0  0  0  0  0
  149.3215  139.4955  153.9202 H   0  0  0  0  0  0  0  0  0  0  0  0
  148.0405  139.4291  155.1114 H   0  0  0  0  0  0  0  0  0  0  0  0
  146.3275  139.0394  151.9060 H   0  0  0  0  0  0  0  0  0  0  0  0
  146.5743  138.2931  153.4884 H   0  0  0  0  0  0  0  0  0  0  0  0
  147.8964  138.3544  152.3186 H   0  0  0  0  0  0  0  0  0  0  0  0
  145.6123  141.1240  152.9512 H   0  0  0  0  0  0  0  0  0  0  0  0
  145.8204  140.4014  154.5309 H   0  0  0  0  0  0  0  0  0  0  0  0
  147.1893  142.9554  153.5271 H   0  0  0  0  0  0  0  0  0  0  0  0
  145.9335  142.8525  154.7481 H   0  0  0  0  0  0  0  0  0  0  0  0
  150.4169  144.7336  157.8353 H   0  0  0  0  0  0  0  0  0  0  0  0
  1  2  1  0  0  0  0
  1 19  1  0  0  0  0
  1 20  1  0  0  0  0
  1 21  1  0  0  0  0
  2 18  1  0  0  0  0
  2  3  2  0  0  0  0
  3  4  1  0  0  0  0
  3 22  1  0  0  0  0
  4  5  1  0  0  0  0
  4  6  2  0  0  0  0
  5 23  1  0  0  0  0
  5 24  1  0  0  0  0
  5 25  1  0  0  0  0
  6  7  1  0  0  0  0
  7  8  1  0  0  0  0
  7 18  2  0  0  0  0
  8  9  1  0  0  0  0
  8 26  1  0  0  0  0
  9 10  2  0  0  0  0
  9 11  1  0  0  0  0
 11 17  1  0  0  0  0
 11 12  1  0  0  0  0
 11 27  1  0  0  0  0
 12 13  1  0  0  0  0
 12 28  1  0  0  0  0
 12 29  1  0  0  0  0
 13 14  1  0  0  0  0
 13 15  1  0  0  0  0
 14 30  1  0  0  0  0
 14 31  1  0  0  0  0
 14 32  1  0  0  0  0
 15 16  1  0  0  0  0
 15 33  1  0  0  0  0
 15 34  1  0  0  0  0
 16 17  1  0  0  0  0
 16 35  1  0  0  0  0
 16 36  1  0  0  0  0
 18 37  1  0  0  0  0
M  END
> <s_m_source_file>
AV-unprocessed.smi

> <i_m_source_file_index>
3314

> <i_lp_mmshare_version>
43012

> <i_f3d_flags>
0

> <s_epik_input>
W0NIM11jMVtjSF1jKFtDSDNdKW5jKFtjSF0xKVtOSF1DKD1PKVtDQEBIXTJbQ0gyXU4oW0NIM10pW0NIMl1bQ0gyXU8y

> <s_epik_cmdline>
J2VwaWtfcHl0aG9uJywgJy1waCcsICc3LjAnLCAnLXRuJywgJzgnLCAnLW1hJywgJzIwMCcsICctbWV0YWxfYmluZGluZycsICctaW1hZScsICc8aW5maWxlLm1hZT4nLCAnLW9tYWUnLCAnPG91dGZpbGUubWFlPic=

> <r_epik_Ionization_Penalty>
0.55509

> <r_epik_Ionization_Penalty_Charging>
0

> <r_epik_Ionization_Penalty_Neutral>
0.55509

> <r_epik_State_Penalty>
0.632277

> <r_epik_Charging_Adjusted_Penalty>
0.632277

> <i_epik_Tot_Q>
0

> <i_epik_Tot_abs_Q>
0

> <r_epik_Metal_State_Penalty>
0.606221

> <b_epik_Metal_Only>
0

> <s_lp_Force_Field>
OPLS_2005

> <r_lp_Energy>
21.1919

> <b_lp_Chiralities_Consistent>
1

> <s_lp_Variant>
AV-unprocessed.smi:3314-6

> <Gold.Version>
5.8.1

> <Gold.Id.Protein>
6NUR|6NUR_protein|mol2

> <Gold.PLP.Fitness>
40.2169

> <Gold.PLP.PLP>
-37.4746

> <Gold.PLP.part.hbond>
-1.0000

> <Gold.PLP.part.metal>
0.0000

> <Gold.PLP.part.buried>
-3.9629

> <Gold.PLP.part.nonpolar>
-37.0504

> <Gold.PLP.part.repulsive>
3.4848

> <Gold.PLP.ligand.clash>
0.0000

> <Gold.PLP.ligand.torsion>
0.1299

> <Gold.PLP.Chemscore.Hbond>
1.0000

> <Gold.PLP.Chemscore.CHOScore>
0.0000

> <Gold.PLP.Chemscore.Metal>
0.0000

> <Gold.Chemscore.Hbonds>
donor molecule, donor type, donor heavy atom, donor atom, acceptor molecule, acceptor atom, score
      L1  H     8    26       P1  8028  1.00

> <Gold.PLP.Chemscore.Internal.Correction>
0.0020

> <Gold.Rescore>
     Score         DG    S(hbond)    S(metal)    S(lipo)     H(rot)  DE(clash)    DE(int)     intcor
     14.97     -18.00       1.00        0.00     100.31       1.00       1.54       1.48       ----

> <Gold.Chemscore.Fitness>
14.9745

> <Gold.Chemscore.DG>
-17.9967

> <Gold.Chemscore.ZeroCoef>
-5.4800

> <Gold.Chemscore.Hbond>
1.0000

> <Gold.Chemscore.Metal>
0.0000

> <Gold.Chemscore.Lipo>
100.3133

> <Gold.Chemscore.Internal_Hbond>
0.0000

> <Gold.Chemscore.DEClash>
1.5394

> <Gold.Chemscore.DEInternal>
1.4828

> <Gold.Chemscore.Rot>
1.0000

> <Gold.Chemscore.Internal.Correction>
   9.000000E+99

> <Gold.Chemscore.Hbonds>
donor molecule, donor type, donor heavy atom, donor atom, acceptor molecule, acceptor atom, score
      L1  H     8    26       P1  8028  1.00

> <Gold.Chemscore.Hbond.Weighted>
-3.3400

> <Gold.Chemscore.Metal.Weighted>
-0.0000

> <Gold.Chemscore.Lipo.Weighted>
-11.7367

> <Gold.Chemscore.Internal_Hbond.Weighted>
0.0000

> <Gold.Chemscore.DEClash.Weighted>
1.5394

> <Gold.Chemscore.DEInternal.Weighted>
1.4828

> <Gold.Chemscore.Rot.Weighted>
2.5600

> <Gold.Chemscore.Internal.Correction.Weighted>
   9.000000E+99

> <Gold.Protein.RotatedTorsions>
[ 6907 6896 6895 6894 ] final  -41.36 input  -60.11 | X-H torsion
[ 7974 7965 7964 7962 ] final   63.35 input  175.53 | X-H torsion
[ 8008 7997 7996 7995 ] final  -17.93 input   59.86 | X-H torsion
[ 10167 10162 10161 10158 ] final  -63.64 input  -65.29 | X-H torsion
[ 10718 10713 10712 10709 ] final   49.80 input   66.30 | X-H torsion
[ 10763 10752 10751 10750 ] final   89.77 input  -60.55 | X-H torsion
[ 11005 11000 10999 10996 ] final   21.28 input  -57.11 | X-H torsion

> <Gold.Protein.ActiveResidues>
 VAL166  LYS551  ARG553  GLY616  TRP617  ASP618  TYR619  PRO620  LYS621  CYS622 
 ASP623  PHE694  ASN695  SER759  ASP760  ASP761  ALA762  ILE779  LEU786  VAL792 
 PHE793  MET794  SER795  GLU796  ALA797  LYS798  CYS799  TRP800  GLU811  SER814 

> <Gold.Protein.RotatedAtoms>
  150.9677  134.9055  159.7768 H   0  0  0  0  0  0  0  0  0  0  0  0  # atno 6907 bound_to 6896
  152.5179  134.3584  159.9286 H   0  0  0  0  0  0  0  0  0  0  0  0  # atno 6908 bound_to 6896
  151.3594  133.3854  159.2723 H   0  0  0  0  0  0  0  0  0  0  0  0  # atno 6909 bound_to 6896
  145.8629  139.3326  143.0808 H   0  0  0  0  0  0  0  0  0  0  0  0  # atno 7974 bound_to 7965
  154.4943  140.2129  155.9481 H   0  0  0  0  0  0  0  0  0  0  0  0  # atno 8008 bound_to 7997
  156.1348  140.3190  155.8372 H   0  0  0  0  0  0  0  0  0  0  0  0  # atno 8009 bound_to 7997
  155.4229  140.0498  157.3015 H   0  0  0  0  0  0  0  0  0  0  0  0  # atno 8010 bound_to 7997
  140.5857  143.2333  151.6248 H   0  0  0  0  0  0  0  0  0  0  0  0  # atno 10167 bound_to 10162
  157.4822  130.8322  149.8106 H   0  0  0  0  0  0  0  0  0  0  0  0  # atno 10718 bound_to 10713
  153.1906  135.4458  155.0144 H   0  0  0  0  0  0  0  0  0  0  0  0  # atno 10763 bound_to 10752
  154.8087  135.3285  154.7364 H   0  0  0  0  0  0  0  0  0  0  0  0  # atno 10764 bound_to 10752
  153.7819  135.6977  153.4942 H   0  0  0  0  0  0  0  0  0  0  0  0  # atno 10765 bound_to 10752
  140.3933  134.1796  155.7663 H   0  0  0  0  0  0  0  0  0  0  0  0  # atno 11005 bound_to 11000
  145.9227  140.9104  143.0397 LP  0  0  0  0  0  0  0  0  0  0  0  0  # atno 17320 bound_to 7965
  144.6726  140.1311  143.7443 LP  0  0  0  0  0  0  0  0  0  0  0  0  # atno 17321 bound_to 7965
  139.5196  144.3248  152.0878 LP  0  0  0  0  0  0  0  0  0  0  0  0  # atno 17342 bound_to 10162
  140.2405  144.4274  150.6262 LP  0  0  0  0  0  0  0  0  0  0  0  0  # atno 17343 bound_to 10162
  156.0127  130.3826  150.2210 LP  0  0  0  0  0  0  0  0  0  0  0  0  # atno 17370 bound_to 10713
  157.0396  131.0031  151.3287 LP  0  0  0  0  0  0  0  0  0  0  0  0  # atno 17371 bound_to 10713
  141.1883  133.8263  157.1000 LP  0  0  0  0  0  0  0  0  0  0  0  0  # atno 17394 bound_to 11000
  140.0390  134.9864  157.0926 LP  0  0  0  0  0  0  0  0  0  0  0  0  # atno 17395 bound_to 11000

$$$$
