AV-unprocessed.smi:2226|AV-procd|sdf|9020|dock9
  -GOLD-   2272012223D 1   1.00000     0.00000
 Structure written by MMmdl.
 39 41  0  0  0  0  0  0  0  0  3 V2000
  146.8163  139.1812  152.4317 C   0  0  0  0  0  0  0  0  0  0  0  0
  146.4206  140.0997  153.5258 N   0  3  2  0  0  0  0  0  0  0  0  0
  147.0502  141.4403  153.4715 C   0  0  1  0  0  0  0  0  0  0  0  0
  146.2505  142.4105  154.3712 C   0  0  0  0  0  0  0  0  0  0  0  0
  146.0445  141.9037  155.8117 C   0  0  0  0  0  0  0  0  0  0  0  0
  145.7191  140.3983  155.8718 C   0  0  0  0  0  0  0  0  0  0  0  0
  146.5453  139.5345  154.8903 C   0  0  2  0  0  0  0  0  0  0  0  0
  148.0293  139.3216  155.2827 C   0  0  0  0  0  0  0  0  0  0  0  0
  148.9811  140.5079  154.9926 C   0  0  2  0  0  0  0  0  0  0  0  0
  149.2198  141.3037  156.1943 N   0  0  0  0  0  0  0  0  0  0  0  0
  150.3843  141.4484  156.8433 C   0  0  0  0  0  0  0  0  0  0  0  0
  151.3912  140.8611  156.4412 O   0  0  0  0  0  0  0  0  0  0  0  0
  150.3075  142.2727  157.9114 N   0  5  0  0  0  0  0  0  0  0  0  0
  151.3986  142.4967  158.6612 C   0  0  0  0  0  0  0  0  0  0  0  0
  152.6193  142.0021  158.4492 N   0  0  0  0  0  0  0  0  0  0  0  0
  153.4118  142.4983  159.4730 C   0  0  0  0  0  0  0  0  0  0  0  0
  152.6228  143.2766  160.2752 C   0  0  0  0  0  0  0  0  0  0  0  0
  151.3500  143.2808  159.7754 O   0  0  0  0  0  0  0  0  0  0  0  0
  148.5690  141.3668  153.7666 C   0  0  0  0  0  0  0  0  0  0  0  0
  147.8760  138.9289  152.4665 H   0  0  0  0  0  0  0  0  0  0  0  0
  146.6091  139.6344  151.4619 H   0  0  0  0  0  0  0  0  0  0  0  0
  146.2464  138.2536  152.4897 H   0  0  0  0  0  0  0  0  0  0  0  0
  146.9414  141.8151  152.4528 H   0  0  0  0  0  0  0  0  0  0  0  0
  146.7220  143.3938  154.3853 H   0  0  0  0  0  0  0  0  0  0  0  0
  145.2679  142.5585  153.9210 H   0  0  0  0  0  0  0  0  0  0  0  0
  146.9154  142.1281  156.4179 H   0  0  0  0  0  0  0  0  0  0  0  0
  145.2386  142.4675  156.2823 H   0  0  0  0  0  0  0  0  0  0  0  0
  145.8335  140.0315  156.8924 H   0  0  0  0  0  0  0  0  0  0  0  0
  144.6635  140.2718  155.6277 H   0  0  0  0  0  0  0  0  0  0  0  0
  146.0734  138.5509  154.8840 H   0  0  0  0  0  0  0  0  0  0  0  0
  148.1033  139.0138  156.3267 H   0  0  0  0  0  0  0  0  0  0  0  0
  148.3972  138.4639  154.7187 H   0  0  0  0  0  0  0  0  0  0  0  0
  149.9508  140.0639  154.7585 H   0  0  0  0  0  0  0  0  0  0  0  0
  148.4265  141.8018  156.5708 H   0  0  0  0  0  0  0  0  0  0  0  0
  154.4624  142.2603  159.5488 H   0  0  0  0  0  0  0  0  0  0  0  0
  152.7966  143.8538  161.1708 H   0  0  0  0  0  0  0  0  0  0  0  0
  149.0518  140.9317  152.8910 H   0  0  0  0  0  0  0  0  0  0  0  0
  148.9836  142.3732  153.8318 H   0  0  0  0  0  0  0  0  0  0  0  0
  145.4330  140.2578  153.3854 H   0  0  0  0  0  0  0  0  0  0  0  0
  1  2  1  0  0  0  0
  1 20  1  0  0  0  0
  1 21  1  0  0  0  0
  1 22  1  0  0  0  0
  2  7  1  0  0  0  0
  2  3  1  0  0  0  0
  2 39  1  0  0  0  0
  3 19  1  0  0  0  0
  3  4  1  0  0  0  0
  3 23  1  0  0  0  0
  4  5  1  0  0  0  0
  4 24  1  0  0  0  0
  4 25  1  0  0  0  0
  5  6  1  0  0  0  0
  5 26  1  0  0  0  0
  5 27  1  0  0  0  0
  6  7  1  0  0  0  0
  6 28  1  0  0  0  0
  6 29  1  0  0  0  0
  7  8  1  0  0  0  0
  7 30  1  0  0  0  0
  8  9  1  0  0  0  0
  8 31  1  0  0  0  0
  8 32  1  0  0  0  0
  9 10  1  0  0  0  0
  9 19  1  0  0  0  0
  9 33  1  0  0  0  0
 10 34  1  0  0  0  0
 10 11  1  0  0  0  0
 11 13  1  0  0  0  0
 11 12  2  0  0  0  0
 13 14  1  0  0  0  0
 14 18  1  0  0  0  0
 14 15  2  0  0  0  0
 15 16  1  0  0  0  0
 16 35  1  0  0  0  0
 16 17  2  0  0  0  0
 17 36  1  0  0  0  0
 17 18  1  0  0  0  0
 19 37  1  0  0  0  0
 19 38  1  0  0  0  0
M  CHG  1   2   1
M  CHG  1  13  -1
M  END
> <s_m_source_file>
AV-unprocessed.smi

> <i_m_source_file_index>
2226

> <i_lp_mmshare_version>
43012

> <i_f3d_flags>
0

> <s_epik_input>
W0NIMl0xW0NIMl1bQ0gyXVtDQEhdKE4oW0NIM10pW0NIXTEyKVtDSDJdW0NASF0oW0NIMl0yKVtOSF1DKD1PKVtOSF1jM25bY0hdW2NIXW8z

> <s_epik_cmdline>
J2VwaWtfcHl0aG9uJywgJy1waCcsICc3LjAnLCAnLXRuJywgJzgnLCAnLW1hJywgJzIwMCcsICctbWV0YWxfYmluZGluZycsICctaW1hZScsICc8aW5maWxlLm1hZT4nLCAnLW9tYWUnLCAnPG91dGZpbGUubWFlPic=

> <r_lp_tautomer_probability>
0.107061

> <r_epik_Ionization_Penalty>
10.5612

> <r_epik_Ionization_Penalty_Charging>
7.48913

> <r_epik_Ionization_Penalty_Neutral>
3.07202

> <r_epik_State_Penalty>
5.6431

> <r_epik_Charging_Adjusted_Penalty>
13.1322

> <i_epik_Tot_Q>
0

> <i_epik_Tot_abs_Q>
2

> <r_epik_Metal_State_Penalty>
1.58163

> <b_epik_Metal_Only>
1

> <s_lp_Force_Field>
OPLS_2005

> <r_lp_Energy>
26.6809

> <b_lp_Chiralities_Consistent>
1

> <s_lp_Variant>
AV-unprocessed.smi:2226-20

> <Gold.Version>
5.8.1

> <Gold.Id.Protein>
6NUR|6NUR_protein|mol2

> <Gold.PLP.Fitness>
36.1790

> <Gold.PLP.PLP>
-30.1816

> <Gold.PLP.part.hbond>
-1.7311

> <Gold.PLP.part.metal>
0.0000

> <Gold.PLP.part.buried>
-2.9722

> <Gold.PLP.part.nonpolar>
-24.8392

> <Gold.PLP.part.repulsive>
0.1429

> <Gold.PLP.ligand.clash>
0.0000

> <Gold.PLP.ligand.torsion>
0.0268

> <Gold.PLP.Chemscore.Hbond>
2.0000

> <Gold.PLP.Chemscore.CHOScore>
0.0000

> <Gold.PLP.Chemscore.Metal>
0.0000

> <Gold.Chemscore.Hbonds>
donor molecule, donor type, donor heavy atom, donor atom, acceptor molecule, acceptor atom, score
      L1  H     2    39       P1 10175  2.00

> <Gold.PLP.Chemscore.Internal.Correction>
0.0510

> <Gold.Rescore>
     Score         DG    S(hbond)    S(metal)    S(lipo)     H(rot)  DE(clash)    DE(int)     intcor
     12.33     -14.06       0.99        0.00      67.00       1.00       0.05       1.68       ----

> <Gold.Chemscore.Fitness>
12.3283

> <Gold.Chemscore.DG>
-14.0635

> <Gold.Chemscore.ZeroCoef>
-5.4800

> <Gold.Chemscore.Hbond>
0.9892

> <Gold.Chemscore.Metal>
0.0000

> <Gold.Chemscore.Lipo>
67.0041

> <Gold.Chemscore.Internal_Hbond>
0.0000

> <Gold.Chemscore.DEClash>
0.0502

> <Gold.Chemscore.DEInternal>
1.6850

> <Gold.Chemscore.Rot>
1.0000

> <Gold.Chemscore.Internal.Correction>
   9.000000E+99

> <Gold.Chemscore.Hbonds>
donor molecule, donor type, donor heavy atom, donor atom, acceptor molecule, acceptor atom, score
      L1  H     2    39       P1 10175  0.97

> <Gold.Chemscore.Hbond.Weighted>
-3.3040

> <Gold.Chemscore.Metal.Weighted>
-0.0000

> <Gold.Chemscore.Lipo.Weighted>
-7.8395

> <Gold.Chemscore.Internal_Hbond.Weighted>
0.0000

> <Gold.Chemscore.DEClash.Weighted>
0.0502

> <Gold.Chemscore.DEInternal.Weighted>
1.6850

> <Gold.Chemscore.Rot.Weighted>
2.5600

> <Gold.Chemscore.Internal.Correction.Weighted>
   9.000000E+99

> <Gold.Protein.RotatedTorsions>
[ 6907 6896 6895 6894 ] final -136.35 input  -60.11 | X-H torsion
[ 7974 7965 7964 7962 ] final -177.89 input  175.53 | X-H torsion
[ 8008 7997 7996 7995 ] final  143.28 input   59.86 | X-H torsion
[ 10167 10162 10161 10158 ] final   73.58 input  -65.29 | X-H torsion
[ 10718 10713 10712 10709 ] final  -70.44 input   66.30 | X-H torsion
[ 10763 10752 10751 10750 ] final   68.86 input  -60.55 | X-H torsion
[ 11005 11000 10999 10996 ] final -129.97 input  -57.11 | X-H torsion

> <Gold.Protein.ActiveResidues>
 VAL166  LYS551  ARG553  GLY616  TRP617  ASP618  TYR619  PRO620  LYS621  CYS622 
 ASP623  PHE694  ASN695  SER759  ASP760  ASP761  ALA762  ILE779  LEU786  VAL792 
 PHE793  MET794  SER795  GLU796  ALA797  LYS798  CYS799  TRP800  GLU811  SER814 

> <Gold.Protein.RotatedAtoms>
  151.0090  133.5983  159.2684 H   0  0  0  0  0  0  0  0  0  0  0  0  # atno 6907 bound_to 6896
  151.3142  135.0801  159.9293 H   0  0  0  0  0  0  0  0  0  0  0  0  # atno 6908 bound_to 6896
  152.5294  133.9749  159.7833 H   0  0  0  0  0  0  0  0  0  0  0  0  # atno 6909 bound_to 6896
  144.7129  140.0951  143.6419 H   0  0  0  0  0  0  0  0  0  0  0  0  # atno 7974 bound_to 7965
  156.2933  140.2266  156.4865 H   0  0  0  0  0  0  0  0  0  0  0  0  # atno 8008 bound_to 7997
  154.7808  140.0460  157.1147 H   0  0  0  0  0  0  0  0  0  0  0  0  # atno 8009 bound_to 7997
  154.9761  140.3072  155.4970 H   0  0  0  0  0  0  0  0  0  0  0  0  # atno 8010 bound_to 7997
  140.0230  144.5526  150.7567 H   0  0  0  0  0  0  0  0  0  0  0  0  # atno 10167 bound_to 10162
  156.0408  130.4331  150.2296 H   0  0  0  0  0  0  0  0  0  0  0  0  # atno 10718 bound_to 10713
  153.0257  135.5232  154.7199 H   0  0  0  0  0  0  0  0  0  0  0  0  # atno 10763 bound_to 10752
  154.6257  135.2894  155.0277 H   0  0  0  0  0  0  0  0  0  0  0  0  # atno 10764 bound_to 10752
  154.1247  135.6602  153.4962 H   0  0  0  0  0  0  0  0  0  0  0  0  # atno 10765 bound_to 10752
  140.9386  134.1224  157.4171 H   0  0  0  0  0  0  0  0  0  0  0  0  # atno 11005 bound_to 11000
  145.9586  139.2784  143.1169 LP  0  0  0  0  0  0  0  0  0  0  0  0  # atno 17320 bound_to 7965
  145.9245  140.9092  143.0388 LP  0  0  0  0  0  0  0  0  0  0  0  0  # atno 17321 bound_to 7965
  140.7334  143.2717  151.3867 LP  0  0  0  0  0  0  0  0  0  0  0  0  # atno 17342 bound_to 10162
  139.6127  144.1066  152.2315 LP  0  0  0  0  0  0  0  0  0  0  0  0  # atno 17343 bound_to 10162
  157.0391  131.0030  151.3289 LP  0  0  0  0  0  0  0  0  0  0  0  0  # atno 17370 bound_to 10713
  157.5222  130.8005  149.7822 LP  0  0  0  0  0  0  0  0  0  0  0  0  # atno 17371 bound_to 10713
  139.8814  135.0029  156.6154 LP  0  0  0  0  0  0  0  0  0  0  0  0  # atno 17394 bound_to 11000
  140.7766  133.8695  155.8534 LP  0  0  0  0  0  0  0  0  0  0  0  0  # atno 17395 bound_to 11000

$$$$
