AV-unprocessed.smi:2198|AV-procd|sdf|8919|dock1
  -GOLD-   2272012133D 1   1.00000     0.00000
 Structure written by MMmdl.
 42 43  0  0  0  0  0  0  0  0  2 V2000
  154.5725  140.3348  161.1893 C   0  0  0  0  0  0  0  0  0  0  0  0
  153.5440  140.9074  160.2378 C   0  0  0  0  0  0  0  0  0  0  0  0
  153.6220  142.1388  159.9031 N   0  0  0  0  0  0  0  0  0  0  0  0
  152.6707  142.6766  159.0200 C   0  0  0  0  0  0  0  0  0  0  0  0
  152.8378  144.1476  158.6806 C   0  0  0  0  0  0  0  0  0  0  0  0
  151.6658  141.9078  158.5110 C   0  0  0  0  0  0  0  0  0  0  0  0
  150.6074  142.4476  157.5494 C   0  0  0  0  0  0  0  0  0  0  0  0
  150.4088  141.6527  156.2568 C   0  0  0  0  0  0  0  0  0  0  0  0
  151.1993  140.7636  155.9401 O   0  0  0  0  0  0  0  0  0  0  0  0
  149.3410  141.9874  155.5170 N   0  0  0  0  0  0  0  0  0  0  0  0
  148.9598  141.3705  154.2478 C   0  0  2  0  0  0  0  0  0  0  0  0
  147.6621  142.0074  153.7143 C   0  0  0  0  0  0  0  0  0  0  0  0
  146.4330  141.6081  154.5492 C   0  0  0  0  0  0  0  0  0  0  0  0
  146.3005  140.0808  154.6544 C   0  0  0  0  0  0  0  0  0  0  0  0
  147.5785  139.4400  155.2285 C   0  0  1  0  0  0  0  0  0  0  0  0
  147.4430  137.9146  155.3339 C   0  0  0  0  0  0  0  0  0  0  0  0
  148.8075  139.8395  154.3854 C   0  0  0  0  0  0  0  0  0  0  0  0
  151.6139  140.4920  158.9179 C   0  0  0  0  0  0  0  0  0  0  0  0
  150.7358  139.7508  158.4778 O   0  0  0  0  0  0  0  0  0  0  0  0
  152.5678  140.0481  159.7857 N   0  5  0  0  0  0  0  0  0  0  0  0
  155.4156  141.0159  161.3115 H   0  0  0  0  0  0  0  0  0  0  0  0
  154.9552  139.3859  160.8120 H   0  0  0  0  0  0  0  0  0  0  0  0
  154.1243  140.1633  162.1681 H   0  0  0  0  0  0  0  0  0  0  0  0
  151.9892  144.7231  159.0506 H   0  0  0  0  0  0  0  0  0  0  0  0
  152.9111  144.2887  157.6023 H   0  0  0  0  0  0  0  0  0  0  0  0
  153.7428  144.5561  159.1320 H   0  0  0  0  0  0  0  0  0  0  0  0
  149.6406  142.5371  158.0456 H   0  0  0  0  0  0  0  0  0  0  0  0
  150.8785  143.4711  157.2888 H   0  0  0  0  0  0  0  0  0  0  0  0
  148.7468  142.7290  155.8579 H   0  0  0  0  0  0  0  0  0  0  0  0
  149.7513  141.5766  153.5249 H   0  0  0  0  0  0  0  0  0  0  0  0
  147.7577  143.0935  153.6845 H   0  0  0  0  0  0  0  0  0  0  0  0
  147.5074  141.6886  152.6828 H   0  0  0  0  0  0  0  0  0  0  0  0
  146.5082  142.0385  155.5486 H   0  0  0  0  0  0  0  0  0  0  0  0
  145.5313  142.0275  154.1022 H   0  0  0  0  0  0  0  0  0  0  0  0
  145.4435  139.8323  155.2812 H   0  0  0  0  0  0  0  0  0  0  0  0
  146.0906  139.6663  153.6673 H   0  0  0  0  0  0  0  0  0  0  0  0
  147.7217  139.8225  156.2402 H   0  0  0  0  0  0  0  0  0  0  0  0
  147.2962  137.4600  154.3536 H   0  0  0  0  0  0  0  0  0  0  0  0
  146.5940  137.6381  155.9599 H   0  0  0  0  0  0  0  0  0  0  0  0
  148.3354  137.4716  155.7767 H   0  0  0  0  0  0  0  0  0  0  0  0
  148.7144  139.4056  153.3889 H   0  0  0  0  0  0  0  0  0  0  0  0
  149.7130  139.4082  154.8141 H   0  0  0  0  0  0  0  0  0  0  0  0
  1  2  1  0  0  0  0
  1 21  1  0  0  0  0
  1 22  1  0  0  0  0
  1 23  1  0  0  0  0
  2 20  1  0  0  0  0
  2  3  2  0  0  0  0
  3  4  1  0  0  0  0
  4  5  1  0  0  0  0
  4  6  2  0  0  0  0
  5 24  1  0  0  0  0
  5 25  1  0  0  0  0
  5 26  1  0  0  0  0
  6  7  1  0  0  0  0
  6 18  1  0  0  0  0
  7  8  1  0  0  0  0
  7 27  1  0  0  0  0
  7 28  1  0  0  0  0
  8  9  2  0  0  0  0
  8 10  1  0  0  0  0
 10 11  1  0  0  0  0
 10 29  1  0  0  0  0
 11 17  1  0  0  0  0
 11 12  1  0  0  0  0
 11 30  1  0  0  0  0
 12 13  1  0  0  0  0
 12 31  1  0  0  0  0
 12 32  1  0  0  0  0
 13 14  1  0  0  0  0
 13 33  1  0  0  0  0
 13 34  1  0  0  0  0
 14 15  1  0  0  0  0
 14 35  1  0  0  0  0
 14 36  1  0  0  0  0
 15 16  1  0  0  0  0
 15 17  1  0  0  0  0
 15 37  1  0  0  0  0
 16 38  1  0  0  0  0
 16 39  1  0  0  0  0
 16 40  1  0  0  0  0
 17 41  1  0  0  0  0
 17 42  1  0  0  0  0
 18 19  2  0  0  0  0
 18 20  1  0  0  0  0
M  CHG  1  20  -1
M  END
> <s_m_source_file>
AV-unprocessed.smi

> <i_m_source_file_index>
2198

> <i_lp_mmshare_version>
43012

> <i_f3d_flags>
0

> <s_epik_input>
W0NIM11jMW5jKFtDSDNdKWMoYyg9TylbbkhdMSlbQ0gyXUMoPU8pW05IXVtDQEBIXTJbQ0gyXVtDSDJdW0NIMl1bQ0BASF0oW0NIM10pW0NIMl0y

> <s_epik_cmdline>
J2VwaWtfcHl0aG9uJywgJy1waCcsICc3LjAnLCAnLXRuJywgJzgnLCAnLW1hJywgJzIwMCcsICctbWV0YWxfYmluZGluZycsICctaW1hZScsICc8aW5maWxlLm1hZT4nLCAnLW9tYWUnLCAnPG91dGZpbGUubWFlPic=

> <r_lp_tautomer_probability>
0.839158

> <r_epik_Ionization_Penalty>
6.67193

> <r_epik_Ionization_Penalty_Charging>
7.66837e-08

> <r_epik_Ionization_Penalty_Neutral>
6.67193

> <r_epik_State_Penalty>
4.51643

> <r_epik_Charging_Adjusted_Penalty>
4.51643

> <i_epik_Tot_Q>
-1

> <i_epik_Tot_abs_Q>
1

> <r_epik_Metal_State_Penalty>
0.851582

> <b_epik_Metal_Only>
1

> <s_lp_Force_Field>
OPLS_2005

> <r_lp_Energy>
13.1445

> <b_lp_Chiralities_Consistent>
1

> <s_lp_Variant>
AV-unprocessed.smi:2198-9

> <Gold.Version>
5.8.1

> <Gold.Id.Protein>
6NUR|6NUR_protein|mol2

> <Gold.PLP.Fitness>
38.9731

> <Gold.PLP.PLP>
-37.3586

> <Gold.PLP.part.hbond>
-1.6655

> <Gold.PLP.part.metal>
0.0000

> <Gold.PLP.part.buried>
-4.5753

> <Gold.PLP.part.nonpolar>
-31.1057

> <Gold.PLP.part.repulsive>
0.1805

> <Gold.PLP.ligand.clash>
0.0000

> <Gold.PLP.ligand.torsion>
0.1798

> <Gold.PLP.Chemscore.Hbond>
0.6544

> <Gold.PLP.Chemscore.CHOScore>
0.0000

> <Gold.PLP.Chemscore.Metal>
0.0000

> <Gold.Chemscore.Hbonds>
donor molecule, donor type, donor heavy atom, donor atom, acceptor molecule, acceptor atom, score
      L1  H    10    29       P1  8028  0.62

> <Gold.PLP.Chemscore.Internal.Correction>
0.0108

> <Gold.Rescore>
     Score         DG    S(hbond)    S(metal)    S(lipo)     H(rot)  DE(clash)    DE(int)     intcor
     13.10     -13.42       0.62        0.00      81.81       1.45       0.08       0.24       ----

> <Gold.Chemscore.Fitness>
13.0977

> <Gold.Chemscore.DG>
-13.4162

> <Gold.Chemscore.ZeroCoef>
-5.4800

> <Gold.Chemscore.Hbond>
0.6180

> <Gold.Chemscore.Metal>
0.0000

> <Gold.Chemscore.Lipo>
81.8061

> <Gold.Chemscore.Internal_Hbond>
0.0000

> <Gold.Chemscore.DEClash>
0.0787

> <Gold.Chemscore.DEInternal>
0.2398

> <Gold.Chemscore.Rot>
1.4450

> <Gold.Chemscore.Internal.Correction>
   9.000000E+99

> <Gold.Chemscore.Hbonds>
donor molecule, donor type, donor heavy atom, donor atom, acceptor molecule, acceptor atom, score
      L1  H    10    29       P1  8028  0.60
      P1  H  7989  7998       L1     9  0.02

> <Gold.Chemscore.Hbond.Weighted>
-2.0641

> <Gold.Chemscore.Metal.Weighted>
-0.0000

> <Gold.Chemscore.Lipo.Weighted>
-9.5713

> <Gold.Chemscore.Internal_Hbond.Weighted>
0.0000

> <Gold.Chemscore.DEClash.Weighted>
0.0787

> <Gold.Chemscore.DEInternal.Weighted>
0.2398

> <Gold.Chemscore.Rot.Weighted>
3.6992

> <Gold.Chemscore.Internal.Correction.Weighted>
   9.000000E+99

> <Gold.Protein.RotatedTorsions>
[ 6907 6896 6895 6894 ] final   77.75 input  -60.11 | X-H torsion
[ 7974 7965 7964 7962 ] final -135.62 input  175.53 | X-H torsion
[ 8008 7997 7996 7995 ] final   28.30 input   59.86 | X-H torsion
[ 10167 10162 10161 10158 ] final   17.67 input  -65.29 | X-H torsion
[ 10718 10713 10712 10709 ] final    7.53 input   66.30 | X-H torsion
[ 10763 10752 10751 10750 ] final -148.64 input  -60.55 | X-H torsion
[ 11005 11000 10999 10996 ] final  -32.69 input  -57.11 | X-H torsion

> <Gold.Protein.ActiveResidues>
 VAL166  LYS551  ARG553  GLY616  TRP617  ASP618  TYR619  PRO620  LYS621  CYS622 
 ASP623  PHE694  ASN695  SER759  ASP760  ASP761  ALA762  ILE779  LEU786  VAL792 
 PHE793  MET794  SER795  GLU796  ALA797  LYS798  CYS799  TRP800  GLU811  SER814 

> <Gold.Protein.RotatedAtoms>
  152.5131  134.3769  159.9337 H   0  0  0  0  0  0  0  0  0  0  0  0  # atno 6907 bound_to 6896
  151.3725  133.3843  159.2709 H   0  0  0  0  0  0  0  0  0  0  0  0  # atno 6908 bound_to 6896
  150.9567  134.8980  159.7764 H   0  0  0  0  0  0  0  0  0  0  0  0  # atno 6909 bound_to 6896
  144.8998  140.6755  143.5092 H   0  0  0  0  0  0  0  0  0  0  0  0  # atno 7974 bound_to 7965
  155.0565  140.3185  155.4674 H   0  0  0  0  0  0  0  0  0  0  0  0  # atno 8008 bound_to 7997
  156.2823  140.2136  156.5636 H   0  0  0  0  0  0  0  0  0  0  0  0  # atno 8009 bound_to 7997
  154.7167  140.0493  157.0589 H   0  0  0  0  0  0  0  0  0  0  0  0  # atno 8010 bound_to 7997
  140.5709  143.9162  150.6712 H   0  0  0  0  0  0  0  0  0  0  0  0  # atno 10167 bound_to 10162
  156.9382  130.5851  149.5651 H   0  0  0  0  0  0  0  0  0  0  0  0  # atno 10718 bound_to 10713
  154.8222  135.3329  154.7005 H   0  0  0  0  0  0  0  0  0  0  0  0  # atno 10763 bound_to 10752
  153.7636  135.6931  153.4925 H   0  0  0  0  0  0  0  0  0  0  0  0  # atno 10764 bound_to 10752
  153.2093  135.4488  155.0310 H   0  0  0  0  0  0  0  0  0  0  0  0  # atno 10765 bound_to 10752
  140.9573  133.7185  156.1313 H   0  0  0  0  0  0  0  0  0  0  0  0  # atno 11005 bound_to 11000
  145.3637  139.1675  143.4369 LP  0  0  0  0  0  0  0  0  0  0  0  0  # atno 17320 bound_to 7965
  146.3102  140.3702  142.8673 LP  0  0  0  0  0  0  0  0  0  0  0  0  # atno 17321 bound_to 7965
  140.2637  143.3505  152.1300 LP  0  0  0  0  0  0  0  0  0  0  0  0  # atno 17342 bound_to 10162
  139.5117  144.6905  151.5772 LP  0  0  0  0  0  0  0  0  0  0  0  0  # atno 17343 bound_to 10162
  156.0416  130.5498  150.8784 LP  0  0  0  0  0  0  0  0  0  0  0  0  # atno 17370 bound_to 10713
  157.5802  131.0946  150.9283 LP  0  0  0  0  0  0  0  0  0  0  0  0  # atno 17371 bound_to 10713
  140.7518  134.4036  157.5540 LP  0  0  0  0  0  0  0  0  0  0  0  0  # atno 17394 bound_to 11000
  139.8866  134.8905  156.2574 LP  0  0  0  0  0  0  0  0  0  0  0  0  # atno 17395 bound_to 11000

$$$$
