AV-unprocessed.smi:239|AV-procd|sdf|1820|dock1
  -GOLD-   2262020413D 1   1.00000     0.00000
 Structure written by MMmdl.
 54 58  0  0  0  0  0  0  0  0  1 V2000
  143.6992  133.4785  160.3245 C   0  0  0  0  0  0  0  0  0  0  0  0
  145.1582  133.9374  160.2353 C   0  0  2  0  0  0  0  0  0  0  0  0
  145.8919  133.2892  159.0486 C   0  0  0  0  0  0  0  0  0  0  0  0
  147.3009  133.6662  159.0634 N   0  0  0  0  0  0  0  0  0  0  0  0
  147.9736  133.4289  157.9082 C   0  0  0  0  0  0  0  0  0  0  0  0
  149.3279  133.5537  157.8733 N   0  0  0  0  0  0  0  0  0  0  0  0
  150.0012  133.3090  156.7455 C   0  0  0  0  0  0  0  0  0  0  0  0
  149.5278  132.9348  155.5558 N   0  0  0  0  0  0  0  0  0  0  0  0
  148.1696  132.8167  155.5798 C   0  0  0  0  0  0  0  0  0  0  0  0
  147.3224  133.0462  156.7009 C   0  0  0  0  0  0  0  0  0  0  0  0
  145.9958  132.8437  156.3378 N   0  0  0  0  0  0  0  0  0  0  0  0
  146.0573  132.4965  155.0814 C   0  0  0  0  0  0  0  0  0  0  0  0
  147.3248  132.4469  154.5478 N   0  0  0  0  0  0  0  0  0  0  0  0
  147.6818  132.0866  153.1840 C   0  0  0  0  0  0  0  0  0  0  0  0
  146.6853  132.6069  152.1184 C   0  0  0  0  0  0  0  0  0  0  0  0
  147.3735  132.6689  150.8806 O   0  0  0  0  0  0  0  0  0  0  0  0
  145.5003  131.6321  151.9678 C   0  0  0  0  0  0  0  0  0  0  0  0
  144.4019  132.1908  151.0455 C   0  0  0  0  0  0  0  0  0  0  0  0
  143.9699  133.4615  151.5165 O   0  0  0  0  0  0  0  0  0  0  0  0
  145.0064  134.4355  151.4989 C   0  0  0  0  0  0  0  0  0  0  0  0
  146.1434  134.0155  152.4473 C   0  0  0  0  0  0  0  0  0  0  0  0
  147.9645  133.3473  160.3256 C   0  0  0  0  0  0  0  0  0  0  0  0
  147.1916  133.9459  161.5163 C   0  0  1  0  0  0  0  0  0  0  0  0
  147.3721  135.4517  161.6481 C   0  0  0  0  0  0  0  0  0  0  0  0
  147.6606  136.0859  162.9884 C   0  0  0  0  0  0  0  0  0  0  0  0
  146.3188  136.2947  162.3268 C   0  0  0  0  0  0  0  0  0  0  0  0
  145.8125  133.5765  161.4511 O   0  0  0  0  0  0  0  0  0  0  0  0
  143.1494  133.7419  159.4207 H   0  0  0  0  0  0  0  0  0  0  0  0
  143.1943  133.9476  161.1693 H   0  0  0  0  0  0  0  0  0  0  0  0
  143.6326  132.3978  160.4536 H   0  0  0  0  0  0  0  0  0  0  0  0
  145.1657  135.0220  160.1214 H   0  0  0  0  0  0  0  0  0  0  0  0
  145.8197  132.2024  159.1111 H   0  0  0  0  0  0  0  0  0  0  0  0
  145.4062  133.5826  158.1190 H   0  0  0  0  0  0  0  0  0  0  0  0
  151.0730  133.4278  156.8062 H   0  0  0  0  0  0  0  0  0  0  0  0
  145.1742  132.2603  154.5056 H   0  0  0  0  0  0  0  0  0  0  0  0
  148.6847  132.4658  152.9826 H   0  0  0  0  0  0  0  0  0  0  0  0
  147.7534  130.9995  153.1293 H   0  0  0  0  0  0  0  0  0  0  0  0
  147.6532  131.7965  150.6488 H   0  0  0  0  0  0  0  0  0  0  0  0
  145.8443  130.6653  151.5979 H   0  0  0  0  0  0  0  0  0  0  0  0
  145.0617  131.4448  152.9490 H   0  0  0  0  0  0  0  0  0  0  0  0
  144.7545  132.2723  150.0163 H   0  0  0  0  0  0  0  0  0  0  0  0
  143.5475  131.5136  151.0327 H   0  0  0  0  0  0  0  0  0  0  0  0
  145.3734  134.5738  150.4806 H   0  0  0  0  0  0  0  0  0  0  0  0
  144.5930  135.3928  151.8164 H   0  0  0  0  0  0  0  0  0  0  0  0
  145.7613  134.0228  153.4690 H   0  0  0  0  0  0  0  0  0  0  0  0
  146.9407  134.7588  152.4133 H   0  0  0  0  0  0  0  0  0  0  0  0
  148.0156  132.2629  160.4326 H   0  0  0  0  0  0  0  0  0  0  0  0
  148.9898  133.7198  160.3242 H   0  0  0  0  0  0  0  0  0  0  0  0
  147.5834  133.4941  162.4283 H   0  0  0  0  0  0  0  0  0  0  0  0
  147.8625  135.9169  160.7952 H   0  0  0  0  0  0  0  0  0  0  0  0
  147.6940  135.4379  163.8621 H   0  0  0  0  0  0  0  0  0  0  0  0
  148.3487  136.9285  163.0067 H   0  0  0  0  0  0  0  0  0  0  0  0
  146.1127  137.2761  161.9046 H   0  0  0  0  0  0  0  0  0  0  0  0
  145.4606  135.7826  162.7573 H   0  0  0  0  0  0  0  0  0  0  0  0
  1  2  1  0  0  0  0
  1 28  1  0  0  0  0
  1 29  1  0  0  0  0
  1 30  1  0  0  0  0
  2 27  1  0  0  0  0
  2  3  1  0  0  0  0
  2 31  1  0  0  0  0
  3  4  1  0  0  0  0
  3 32  1  0  0  0  0
  3 33  1  0  0  0  0
  4  5  1  0  0  0  0
  4 22  1  0  0  0  0
  5 10  1  0  0  0  0
  5  6  2  0  0  0  0
  6  7  1  0  0  0  0
  7  8  2  0  0  0  0
  7 34  1  0  0  0  0
  8  9  1  0  0  0  0
  9 13  1  0  0  0  0
  9 10  2  0  0  0  0
 10 11  1  0  0  0  0
 11 12  2  0  0  0  0
 12 13  1  0  0  0  0
 12 35  1  0  0  0  0
 13 14  1  0  0  0  0
 14 15  1  0  0  0  0
 14 36  1  0  0  0  0
 14 37  1  0  0  0  0
 15 21  1  0  0  0  0
 15 16  1  0  0  0  0
 15 17  1  0  0  0  0
 16 38  1  0  0  0  0
 17 18  1  0  0  0  0
 17 39  1  0  0  0  0
 17 40  1  0  0  0  0
 18 19  1  0  0  0  0
 18 41  1  0  0  0  0
 18 42  1  0  0  0  0
 19 20  1  0  0  0  0
 20 21  1  0  0  0  0
 20 43  1  0  0  0  0
 20 44  1  0  0  0  0
 21 45  1  0  0  0  0
 21 46  1  0  0  0  0
 22 23  1  0  0  0  0
 22 47  1  0  0  0  0
 22 48  1  0  0  0  0
 23 24  1  0  0  0  0
 23 27  1  0  0  0  0
 23 49  1  0  0  0  0
 24 26  1  0  0  0  0
 24 25  1  0  0  0  0
 24 50  1  0  0  0  0
 25 26  1  0  0  0  0
 25 51  1  0  0  0  0
 25 52  1  0  0  0  0
 26 53  1  0  0  0  0
 26 54  1  0  0  0  0
M  END
> <s_m_source_file>
AV-unprocessed.smi

> <i_m_source_file_index>
239

> <i_lp_mmshare_version>
43012

> <i_f3d_flags>
0

> <s_epik_input>
W0NIMl0xW0NIMl1bQ0hdMVtDQEBIXShPMilbQ0gyXU4oW0NIMl1bQ0BIXTJbQ0gzXSljKG5bY0hdbjMpYyhjMzQpbltjSF1uNFtDSDJdQzUoW09IXSlbQ0gyXVtDSDJdT1tDSDJdW0NIMl01

> <s_epik_cmdline>
J2VwaWtfcHl0aG9uJywgJy1waCcsICc3LjAnLCAnLXRuJywgJzgnLCAnLW1hJywgJzIwMCcsICctbWV0YWxfYmluZGluZycsICctaW1hZScsICc8aW5maWxlLm1hZT4nLCAnLW9tYWUnLCAnPG91dGZpbGUubWFlPic=

> <r_lp_tautomer_probability>
1

> <r_epik_Ionization_Penalty>
9.13091e-05

> <r_epik_Ionization_Penalty_Charging>
0

> <r_epik_Ionization_Penalty_Neutral>
9.13091e-05

> <r_epik_State_Penalty>
-0

> <r_epik_Charging_Adjusted_Penalty>
0

> <i_epik_Tot_Q>
0

> <i_epik_Tot_abs_Q>
0

> <r_epik_Metal_State_Penalty>
-0

> <b_epik_Metal_Only>
0

> <s_lp_Force_Field>
OPLS_2005

> <r_lp_Energy>
39.9708

> <b_lp_Chiralities_Consistent>
1

> <s_lp_Variant>
AV-unprocessed.smi:239-1

> <Gold.Version>
5.8.1

> <Gold.Id.Protein>
6NUR|6NUR_protein|mol2

> <Gold.PLP.Fitness>
38.6791

> <Gold.PLP.PLP>
-32.8877

> <Gold.PLP.part.hbond>
-2.0000

> <Gold.PLP.part.metal>
0.0000

> <Gold.PLP.part.buried>
-6.8127

> <Gold.PLP.part.nonpolar>
-25.2360

> <Gold.PLP.part.repulsive>
0.2508

> <Gold.PLP.ligand.clash>
0.0343

> <Gold.PLP.ligand.torsion>
2.0918

> <Gold.PLP.Chemscore.Hbond>
1.9120

> <Gold.PLP.Chemscore.CHOScore>
0.9523

> <Gold.PLP.Chemscore.Metal>
0.0000

> <Gold.Chemscore.Hbonds>
donor molecule, donor type, donor heavy atom, donor atom, acceptor molecule, acceptor atom, score
      L1  H    16    38       P1 10747  0.88
      P1  H  6896  6908       L1     6  1.00
      L1  C    12    35       P1 10957  0.96

> <Gold.PLP.Chemscore.Internal.Correction>
1.4163

> <Gold.Rescore>
     Score         DG    S(hbond)    S(metal)    S(lipo)     H(rot)  DE(clash)    DE(int)     intcor
     11.88     -15.46       1.79        0.00      83.06       2.24       0.13       3.46       ----

> <Gold.Chemscore.Fitness>
11.8760

> <Gold.Chemscore.DG>
-15.4608

> <Gold.Chemscore.ZeroCoef>
-5.4800

> <Gold.Chemscore.Hbond>
1.7947

> <Gold.Chemscore.Metal>
0.0000

> <Gold.Chemscore.Lipo>
83.0563

> <Gold.Chemscore.Internal_Hbond>
0.0000

> <Gold.Chemscore.DEClash>
0.1252

> <Gold.Chemscore.DEInternal>
3.4596

> <Gold.Chemscore.Rot>
2.2387

> <Gold.Chemscore.Internal.Correction>
   9.000000E+99

> <Gold.Chemscore.Hbonds>
donor molecule, donor type, donor heavy atom, donor atom, acceptor molecule, acceptor atom, score
      L1  H    16    38       P1 10747  0.86
      P1  H  6896  6908       L1     6  0.42

> <Gold.Chemscore.Hbond.Weighted>
-5.9944

> <Gold.Chemscore.Metal.Weighted>
-0.0000

> <Gold.Chemscore.Lipo.Weighted>
-9.7176

> <Gold.Chemscore.Internal_Hbond.Weighted>
0.0000

> <Gold.Chemscore.DEClash.Weighted>
0.1252

> <Gold.Chemscore.DEInternal.Weighted>
3.4596

> <Gold.Chemscore.Rot.Weighted>
5.7311

> <Gold.Chemscore.Internal.Correction.Weighted>
   9.000000E+99

> <Gold.Protein.RotatedTorsions>
[ 6907 6896 6895 6894 ] final  119.31 input  -60.11 | X-H torsion
[ 7974 7965 7964 7962 ] final   97.08 input  175.53 | X-H torsion
[ 8008 7997 7996 7995 ] final   68.70 input   59.86 | X-H torsion
[ 10167 10162 10161 10158 ] final   94.06 input  -65.29 | X-H torsion
[ 10718 10713 10712 10709 ] final -159.00 input   66.30 | X-H torsion
[ 10763 10752 10751 10750 ] final   -8.53 input  -60.55 | X-H torsion
[ 11005 11000 10999 10996 ] final -143.29 input  -57.11 | X-H torsion

> <Gold.Protein.ActiveResidues>
 VAL166  LYS551  ARG553  GLY616  TRP617  ASP618  TYR619  PRO620  LYS621  CYS622 
 ASP623  PHE694  ASN695  SER759  ASP760  ASP761  ALA762  ILE779  LEU786  VAL792 
 PHE793  MET794  SER795  GLU796  ALA797  LYS798  CYS799  TRP800  GLU811  SER814 

> <Gold.Protein.RotatedAtoms>
  152.4481  133.7575  159.6727 H   0  0  0  0  0  0  0  0  0  0  0  0  # atno 6907 bound_to 6896
  150.8385  133.7964  159.3076 H   0  0  0  0  0  0  0  0  0  0  0  0  # atno 6908 bound_to 6896
  151.5596  135.1068  160.0021 H   0  0  0  0  0  0  0  0  0  0  0  0  # atno 6909 bound_to 6896
  145.4303  139.2311  143.3148 H   0  0  0  0  0  0  0  0  0  0  0  0  # atno 7974 bound_to 7965
  155.7124  140.3494  155.4979 H   0  0  0  0  0  0  0  0  0  0  0  0  # atno 8008 bound_to 7997
  155.9344  140.1090  157.1128 H   0  0  0  0  0  0  0  0  0  0  0  0  # atno 8009 bound_to 7997
  154.4091  140.1225  156.4831 H   0  0  0  0  0  0  0  0  0  0  0  0  # atno 8010 bound_to 7997
  139.8120  144.6769  150.9628 H   0  0  0  0  0  0  0  0  0  0  0  0  # atno 10167 bound_to 10162
  156.5619  130.8651  151.2812 H   0  0  0  0  0  0  0  0  0  0  0  0  # atno 10718 bound_to 10713
  153.4418  135.7014  153.6164 H   0  0  0  0  0  0  0  0  0  0  0  0  # atno 10763 bound_to 10752
  153.4536  135.3752  155.2298 H   0  0  0  0  0  0  0  0  0  0  0  0  # atno 10764 bound_to 10752
  154.8727  135.4003  154.3817 H   0  0  0  0  0  0  0  0  0  0  0  0  # atno 10765 bound_to 10752
  140.8140  134.2711  157.4929 H   0  0  0  0  0  0  0  0  0  0  0  0  # atno 11005 bound_to 11000
  146.2611  140.5039  142.8853 LP  0  0  0  0  0  0  0  0  0  0  0  0  # atno 17320 bound_to 7965
  144.8187  140.6513  143.6367 LP  0  0  0  0  0  0  0  0  0  0  0  0  # atno 17321 bound_to 7965
  140.7817  143.4176  151.0893 LP  0  0  0  0  0  0  0  0  0  0  0  0  # atno 17342 bound_to 10162
  139.7842  143.8312  152.3142 LP  0  0  0  0  0  0  0  0  0  0  0  0  # atno 17343 bound_to 10162
  157.7366  130.9782  150.2148 LP  0  0  0  0  0  0  0  0  0  0  0  0  # atno 17370 bound_to 10713
  156.2791  130.3731  149.7953 LP  0  0  0  0  0  0  0  0  0  0  0  0  # atno 17371 bound_to 10713
  139.8712  134.9499  156.4038 LP  0  0  0  0  0  0  0  0  0  0  0  0  # atno 17394 bound_to 11000
  140.9168  133.7673  155.9858 LP  0  0  0  0  0  0  0  0  0  0  0  0  # atno 17395 bound_to 11000

$$$$
