AV-unprocessed.smi:1815|AV-procd|sdf|7363|dock9
  -GOLD-   22720 9 23D 1   1.00000     0.00000
 Structure written by MMmdl.
 39 40  0  0  0  0  0  0  0  0  3 V2000
  147.4305  133.5341  152.8120 C   0  0  0  0  0  0  0  0  0  0  0  0
  146.0767  134.1019  153.2747 C   0  0  1  0  0  0  0  0  0  0  0  0
  146.2000  135.4113  154.0789 C   0  0  0  0  0  0  0  0  0  0  0  0
  146.5366  136.5532  153.1961 N   0  3  2  0  0  0  0  0  0  0  0  0
  146.7273  137.8159  153.9515 C   0  0  0  0  0  0  0  0  0  0  0  0
  147.1320  138.9842  153.0398 C   0  0  0  0  0  0  0  0  0  0  0  0
  148.5414  139.3023  153.2182 N   0  0  0  0  0  0  0  0  0  0  0  0
  149.1192  139.6059  154.3876 C   0  0  0  0  0  0  0  0  0  0  0  0
  148.4430  139.6254  155.4188 O   0  0  0  0  0  0  0  0  0  0  0  0
  150.4417  139.8671  154.2881 N   0  5  0  0  0  0  0  0  0  0  0  0
  151.3274  139.1188  154.9658 C   0  0  0  0  0  0  0  0  0  0  0  0
  152.6512  139.2807  154.8591 N   0  0  0  0  0  0  0  0  0  0  0  0
  153.3847  138.3919  155.6469 C   0  0  0  0  0  0  0  0  0  0  0  0
  152.6011  137.5270  156.3638 C   0  0  0  0  0  0  0  0  0  0  0  0
  150.9086  137.8053  156.0693 S   0  0  0  0  0  0  0  0  0  0  0  0
  145.5468  136.6617  152.0974 C   0  0  0  0  0  0  0  0  0  0  0  0
  145.4766  135.3436  151.3055 C   0  0  2  0  0  0  0  0  0  0  0  0
  144.3996  135.3850  150.2157 C   0  0  0  0  0  0  0  0  0  0  0  0
  145.1625  134.2721  152.1915 O   0  0  0  0  0  0  0  0  0  0  0  0
  148.0585  133.2886  153.6686 H   0  0  0  0  0  0  0  0  0  0  0  0
  147.9874  134.2386  152.1948 H   0  0  0  0  0  0  0  0  0  0  0  0
  147.2912  132.6199  152.2347 H   0  0  0  0  0  0  0  0  0  0  0  0
  145.6303  133.3526  153.9293 H   0  0  0  0  0  0  0  0  0  0  0  0
  145.2564  135.6214  154.5857 H   0  0  0  0  0  0  0  0  0  0  0  0
  146.9570  135.2988  154.8562 H   0  0  0  0  0  0  0  0  0  0  0  0
  145.8219  138.0545  154.5122 H   0  0  0  0  0  0  0  0  0  0  0  0
  147.5193  137.6736  154.6888 H   0  0  0  0  0  0  0  0  0  0  0  0
  146.9484  138.7251  151.9956 H   0  0  0  0  0  0  0  0  0  0  0  0
  146.5462  139.8766  153.2609 H   0  0  0  0  0  0  0  0  0  0  0  0
  149.1277  139.2966  152.3961 H   0  0  0  0  0  0  0  0  0  0  0  0
  154.4630  138.4448  155.6347 H   0  0  0  0  0  0  0  0  0  0  0  0
  152.9134  136.7475  157.0422 H   0  0  0  0  0  0  0  0  0  0  0  0
  144.5675  136.9071  152.5120 H   0  0  0  0  0  0  0  0  0  0  0  0
  145.8172  137.4713  151.4203 H   0  0  0  0  0  0  0  0  0  0  0  0
  146.4361  135.1548  150.8235 H   0  0  0  0  0  0  0  0  0  0  0  0
  144.5955  136.1842  149.5004 H   0  0  0  0  0  0  0  0  0  0  0  0
  143.4103  135.5530  150.6425 H   0  0  0  0  0  0  0  0  0  0  0  0
  144.3684  134.4459  149.6630 H   0  0  0  0  0  0  0  0  0  0  0  0
  147.4285  136.3341  152.7752 H   0  0  0  0  0  0  0  0  0  0  0  0
  1  2  1  0  0  0  0
  1 20  1  0  0  0  0
  1 21  1  0  0  0  0
  1 22  1  0  0  0  0
  2 19  1  0  0  0  0
  2  3  1  0  0  0  0
  2 23  1  0  0  0  0
  3  4  1  0  0  0  0
  3 24  1  0  0  0  0
  3 25  1  0  0  0  0
  4  5  1  0  0  0  0
  4 16  1  0  0  0  0
  4 39  1  0  0  0  0
  5  6  1  0  0  0  0
  5 26  1  0  0  0  0
  5 27  1  0  0  0  0
  6  7  1  0  0  0  0
  6 28  1  0  0  0  0
  6 29  1  0  0  0  0
  7  8  1  0  0  0  0
  7 30  1  0  0  0  0
  8  9  2  0  0  0  0
  8 10  1  0  0  0  0
 10 11  1  0  0  0  0
 11 15  1  0  0  0  0
 11 12  2  0  0  0  0
 12 13  1  0  0  0  0
 13 14  2  0  0  0  0
 13 31  1  0  0  0  0
 14 15  1  0  0  0  0
 14 32  1  0  0  0  0
 16 17  1  0  0  0  0
 16 33  1  0  0  0  0
 16 34  1  0  0  0  0
 17 18  1  0  0  0  0
 17 19  1  0  0  0  0
 17 35  1  0  0  0  0
 18 36  1  0  0  0  0
 18 37  1  0  0  0  0
 18 38  1  0  0  0  0
M  CHG  1   4   1
M  CHG  1  10  -1
M  END
> <s_m_source_file>
AV-unprocessed.smi

> <i_m_source_file_index>
1815

> <i_lp_mmshare_version>
43012

> <i_f3d_flags>
0

> <s_epik_input>
W0NIM11bQ0BASF0xW0NIMl1OKFtDSDJdW0NASF0oTzEpW0NIM10pW0NIMl1bQ0gyXVtOSF1DKD1PKVtOSF1jMm5bY0hdW2NIXXMy

> <s_epik_cmdline>
J2VwaWtfcHl0aG9uJywgJy1waCcsICc3LjAnLCAnLXRuJywgJzgnLCAnLW1hJywgJzIwMCcsICctbWV0YWxfYmluZGluZycsICctaW1hZScsICc8aW5maWxlLm1hZT4nLCAnLW9tYWUnLCAnPG91dGZpbGUubWFlPic=

> <r_lp_tautomer_probability>
0.999

> <r_epik_Ionization_Penalty>
6.71699

> <r_epik_Ionization_Penalty_Charging>
5.88592

> <r_epik_Ionization_Penalty_Neutral>
0.831074

> <r_epik_State_Penalty>
6.08365

> <r_epik_Charging_Adjusted_Penalty>
11.9696

> <i_epik_Tot_Q>
0

> <i_epik_Tot_abs_Q>
2

> <r_epik_Metal_State_Penalty>
2.0947

> <b_epik_Metal_Only>
1

> <s_lp_Force_Field>
OPLS_2005

> <r_lp_Energy>
8.63778

> <b_lp_Chiralities_Consistent>
1

> <s_lp_Variant>
AV-unprocessed.smi:1815-14

> <Gold.Version>
5.8.1

> <Gold.Id.Protein>
6NUR|6NUR_protein|mol2

> <Gold.PLP.Fitness>
35.9239

> <Gold.PLP.PLP>
-26.2369

> <Gold.PLP.part.hbond>
-3.7623

> <Gold.PLP.part.metal>
0.0000

> <Gold.PLP.part.buried>
-1.4062

> <Gold.PLP.part.nonpolar>
-21.2456

> <Gold.PLP.part.repulsive>
0.3574

> <Gold.PLP.ligand.clash>
0.0000

> <Gold.PLP.ligand.torsion>
0.9050

> <Gold.PLP.Chemscore.Hbond>
3.8175

> <Gold.PLP.Chemscore.CHOScore>
0.0000

> <Gold.PLP.Chemscore.Metal>
0.0000

> <Gold.Chemscore.Hbonds>
donor molecule, donor type, donor heavy atom, donor atom, acceptor molecule, acceptor atom, score
      L1  H     4    39       P1  7948  2.00
      L1  H     7    30       P1  7957  0.92
      P1  H  7989  7998       L1    10  0.80

> <Gold.PLP.Chemscore.Internal.Correction>
0.0446

> <Gold.Rescore>
     Score         DG    S(hbond)    S(metal)    S(lipo)     H(rot)  DE(clash)    DE(int)     intcor
     13.61     -16.18       2.65        0.00      51.07       1.61       0.40       2.18       ----

> <Gold.Chemscore.Fitness>
13.6056

> <Gold.Chemscore.DG>
-16.1814

> <Gold.Chemscore.ZeroCoef>
-5.4800

> <Gold.Chemscore.Hbond>
2.6459

> <Gold.Chemscore.Metal>
0.0000

> <Gold.Chemscore.Lipo>
51.0716

> <Gold.Chemscore.Internal_Hbond>
0.0000

> <Gold.Chemscore.DEClash>
0.3969

> <Gold.Chemscore.DEInternal>
2.1789

> <Gold.Chemscore.Rot>
1.6060

> <Gold.Chemscore.Internal.Correction>
   9.000000E+99

> <Gold.Chemscore.Hbonds>
donor molecule, donor type, donor heavy atom, donor atom, acceptor molecule, acceptor atom, score
      L1  H     4    39       P1  7948  1.00
      L1  H     7    30       P1  7957  0.83
      P1  H  7989  7998       L1    10  0.12

> <Gold.Chemscore.Hbond.Weighted>
-8.8373

> <Gold.Chemscore.Metal.Weighted>
-0.0000

> <Gold.Chemscore.Lipo.Weighted>
-5.9754

> <Gold.Chemscore.Internal_Hbond.Weighted>
0.0000

> <Gold.Chemscore.DEClash.Weighted>
0.3969

> <Gold.Chemscore.DEInternal.Weighted>
2.1789

> <Gold.Chemscore.Rot.Weighted>
4.1112

> <Gold.Chemscore.Internal.Correction.Weighted>
   9.000000E+99

> <Gold.Protein.RotatedTorsions>
[ 6907 6896 6895 6894 ] final -108.80 input  -60.11 | X-H torsion
[ 7974 7965 7964 7962 ] final   -8.30 input  175.53 | X-H torsion
[ 8008 7997 7996 7995 ] final   53.31 input   59.86 | X-H torsion
[ 10167 10162 10161 10158 ] final   64.14 input  -65.29 | X-H torsion
[ 10718 10713 10712 10709 ] final  -80.24 input   66.30 | X-H torsion
[ 10763 10752 10751 10750 ] final  151.40 input  -60.55 | X-H torsion
[ 11005 11000 10999 10996 ] final  -20.52 input  -57.11 | X-H torsion

> <Gold.Protein.ActiveResidues>
 VAL166  LYS551  ARG553  GLY616  TRP617  ASP618  TYR619  PRO620  LYS621  CYS622 
 ASP623  PHE694  ASN695  SER759  ASP760  ASP761  ALA762  ILE779  LEU786  VAL792 
 PHE793  MET794  SER795  GLU796  ALA797  LYS798  CYS799  TRP800  GLU811  SER814 

> <Gold.Protein.RotatedAtoms>
  150.7523  133.9624  159.3519 H   0  0  0  0  0  0  0  0  0  0  0  0  # atno 6907 bound_to 6896
  151.7551  135.0821  160.0346 H   0  0  0  0  0  0  0  0  0  0  0  0  # atno 6908 bound_to 6896
  152.3440  133.6063  159.5933 H   0  0  0  0  0  0  0  0  0  0  0  0  # atno 6909 bound_to 6896
  146.2284  140.2447  142.8345 H   0  0  0  0  0  0  0  0  0  0  0  0  # atno 7974 bound_to 7965
  155.4661  140.3463  155.4319 H   0  0  0  0  0  0  0  0  0  0  0  0  # atno 8008 bound_to 7997
  156.1130  140.1466  156.9341 H   0  0  0  0  0  0  0  0  0  0  0  0  # atno 8009 bound_to 7997
  154.4769  140.0882  156.7263 H   0  0  0  0  0  0  0  0  0  0  0  0  # atno 8010 bound_to 7997
  140.1254  144.4693  150.6896 H   0  0  0  0  0  0  0  0  0  0  0  0  # atno 10167 bound_to 10162
  156.0074  130.4568  150.3770 H   0  0  0  0  0  0  0  0  0  0  0  0  # atno 10718 bound_to 10713
  154.1032  135.2844  155.3247 H   0  0  0  0  0  0  0  0  0  0  0  0  # atno 10763 bound_to 10752
  154.6541  135.5358  153.7940 H   0  0  0  0  0  0  0  0  0  0  0  0  # atno 10764 bound_to 10752
  153.0371  135.6517  154.1195 H   0  0  0  0  0  0  0  0  0  0  0  0  # atno 10765 bound_to 10752
  140.8473  133.7883  155.9926 H   0  0  0  0  0  0  0  0  0  0  0  0  # atno 11005 bound_to 11000
  144.9457  140.8126  143.5603 LP  0  0  0  0  0  0  0  0  0  0  0  0  # atno 17320 bound_to 7965
  145.2403  139.2075  143.4996 LP  0  0  0  0  0  0  0  0  0  0  0  0  # atno 17321 bound_to 7965
  140.6848  143.2344  151.5289 LP  0  0  0  0  0  0  0  0  0  0  0  0  # atno 17342 bound_to 10162
  139.5547  144.2306  152.1592 LP  0  0  0  0  0  0  0  0  0  0  0  0  # atno 17343 bound_to 10162
  157.1852  131.0402  151.2728 LP  0  0  0  0  0  0  0  0  0  0  0  0  # atno 17370 bound_to 10713
  157.4110  130.7385  149.6839 LP  0  0  0  0  0  0  0  0  0  0  0  0  # atno 17371 bound_to 10713
  140.8830  134.2589  157.5134 LP  0  0  0  0  0  0  0  0  0  0  0  0  # atno 17394 bound_to 11000
  139.8703  134.9624  156.4428 LP  0  0  0  0  0  0  0  0  0  0  0  0  # atno 17395 bound_to 11000

$$$$
