AV-unprocessed.smi:2539|AV-procd|sdf|9985|dock5
  -GOLD-   2272014 33D 1   1.00000     0.00000
 Structure written by MMmdl.
 40 41  0  0  0  0  0  0  0  0  1 V2000
  150.0048  133.8868  157.7106 O   0  0  0  0  0  0  0  0  0  0  0  0
  148.9286  134.3705  157.3565 C   0  0  0  0  0  0  0  0  0  0  0  0
  148.2122  133.8595  156.3395 N   0  0  0  0  0  0  0  0  0  0  0  0
  148.5297  132.6400  155.6006 C   0  0  0  0  0  0  0  0  0  0  0  0
  148.8645  132.9300  154.1237 C   0  0  0  0  0  0  0  0  0  0  0  0
  147.6381  133.0857  153.2406 C   0  0  0  0  0  0  0  0  0  0  0  0
  146.6850  134.0957  153.4894 C   0  0  0  0  0  0  0  0  0  0  0  0
  145.5491  134.1747  152.6614 C   0  0  0  0  0  0  0  0  0  0  0  0
  145.4151  133.2399  151.6156 C   0  0  0  0  0  0  0  0  0  0  0  0
  146.3234  132.2729  151.3643 N   0  0  0  0  0  0  0  0  0  0  0  0
  147.4093  132.2028  152.1638 C   0  0  0  0  0  0  0  0  0  0  0  0
  148.3378  135.4107  157.9962 N   0  0  0  0  0  0  0  0  0  0  0  0
  146.8925  135.6486  158.1270 C   0  0  0  0  0  0  0  0  0  0  0  0
  146.4638  135.2860  159.5617 C   0  0  0  0  0  0  0  0  0  0  0  0
  147.2800  136.0577  160.6321 C   0  0  0  0  0  0  0  0  0  0  0  0
  146.8719  137.4139  160.5882 O   0  0  0  0  0  0  0  0  0  0  0  0
  146.9796  135.5383  162.0586 C   0  0  0  0  0  0  0  0  0  0  0  0
  147.6824  136.2291  162.9565 F   0  0  0  0  0  0  0  0  0  0  0  0
  145.6849  135.6796  162.3466 F   0  0  0  0  0  0  0  0  0  0  0  0
  147.3139  134.2520  162.1720 F   0  0  0  0  0  0  0  0  0  0  0  0
  148.7986  136.0150  160.3142 C   0  0  0  0  0  0  0  0  0  0  0  0
  149.0993  136.3394  158.8371 C   0  0  0  0  0  0  0  0  0  0  0  0
  147.3391  134.3114  156.1107 H   0  0  0  0  0  0  0  0  0  0  0  0
  149.3839  132.1632  156.0813 H   0  0  0  0  0  0  0  0  0  0  0  0
  147.7078  131.9249  155.6661 H   0  0  0  0  0  0  0  0  0  0  0  0
  149.4677  133.8364  154.0560 H   0  0  0  0  0  0  0  0  0  0  0  0
  149.4827  132.1256  153.7237 H   0  0  0  0  0  0  0  0  0  0  0  0
  146.8134  134.7904  154.3063 H   0  0  0  0  0  0  0  0  0  0  0  0
  144.7966  134.9316  152.8248 H   0  0  0  0  0  0  0  0  0  0  0  0
  144.5557  133.2706  150.9623 H   0  0  0  0  0  0  0  0  0  0  0  0
  148.1111  131.4114  151.9448 H   0  0  0  0  0  0  0  0  0  0  0  0
  146.6823  136.7004  157.9276 H   0  0  0  0  0  0  0  0  0  0  0  0
  146.2913  135.0988  157.4028 H   0  0  0  0  0  0  0  0  0  0  0  0
  145.3970  135.4737  159.6888 H   0  0  0  0  0  0  0  0  0  0  0  0
  146.6005  134.2132  159.7025 H   0  0  0  0  0  0  0  0  0  0  0  0
  146.0162  137.4808  160.9840 H   0  0  0  0  0  0  0  0  0  0  0  0
  149.3443  136.7008  160.9632 H   0  0  0  0  0  0  0  0  0  0  0  0
  149.1873  135.0196  160.5343 H   0  0  0  0  0  0  0  0  0  0  0  0
  150.1742  136.2876  158.6582 H   0  0  0  0  0  0  0  0  0  0  0  0
  148.8125  137.3659  158.6047 H   0  0  0  0  0  0  0  0  0  0  0  0
  1  2  2  0  0  0  0
  2  3  1  0  0  0  0
  2 12  1  0  0  0  0
  3  4  1  0  0  0  0
  3 23  1  0  0  0  0
  4  5  1  0  0  0  0
  4 24  1  0  0  0  0
  4 25  1  0  0  0  0
  5  6  1  0  0  0  0
  5 26  1  0  0  0  0
  5 27  1  0  0  0  0
  6 11  1  0  0  0  0
  6  7  2  0  0  0  0
  7  8  1  0  0  0  0
  7 28  1  0  0  0  0
  8  9  2  0  0  0  0
  8 29  1  0  0  0  0
  9 10  1  0  0  0  0
  9 30  1  0  0  0  0
 10 11  2  0  0  0  0
 11 31  1  0  0  0  0
 12 22  1  0  0  0  0
 12 13  1  0  0  0  0
 13 14  1  0  0  0  0
 13 32  1  0  0  0  0
 13 33  1  0  0  0  0
 14 15  1  0  0  0  0
 14 34  1  0  0  0  0
 14 35  1  0  0  0  0
 15 16  1  0  0  0  0
 15 17  1  0  0  0  0
 15 21  1  0  0  0  0
 16 36  1  0  0  0  0
 17 18  1  0  0  0  0
 17 19  1  0  0  0  0
 17 20  1  0  0  0  0
 21 22  1  0  0  0  0
 21 37  1  0  0  0  0
 21 38  1  0  0  0  0
 22 39  1  0  0  0  0
 22 40  1  0  0  0  0
M  END
> <s_m_source_file>
AV-unprocessed.smi

> <i_m_source_file_index>
2539

> <i_lp_mmshare_version>
43012

> <i_f3d_flags>
0

> <s_epik_input>
RkMoRikoRilDMShbT0hdKVtDSDJdW0NIMl1OKFtDSDJdW0NIMl0xKUMoPU8pW05IXVtDSDJdW0NIMl1jMltjSF1bY0hdW2NIXW5bY0hdMg==

> <s_epik_cmdline>
J2VwaWtfcHl0aG9uJywgJy1waCcsICc3LjAnLCAnLXRuJywgJzgnLCAnLW1hJywgJzIwMCcsICctbWV0YWxfYmluZGluZycsICctaW1hZScsICc8aW5maWxlLm1hZT4nLCAnLW9tYWUnLCAnPG91dGZpbGUubWFlPic=

> <r_epik_Ionization_Penalty>
0.0144431

> <r_epik_Ionization_Penalty_Charging>
0

> <r_epik_Ionization_Penalty_Neutral>
0.0144431

> <r_epik_State_Penalty>
0.0112443

> <r_epik_Charging_Adjusted_Penalty>
0.0112443

> <i_epik_Tot_Q>
0

> <i_epik_Tot_abs_Q>
0

> <r_epik_Metal_State_Penalty>
0.0109773

> <b_epik_Metal_Only>
0

> <s_lp_Force_Field>
OPLS_2005

> <r_lp_Energy>
34.3491

> <b_lp_Chiralities_Consistent>
1

> <s_lp_Variant>
AV-unprocessed.smi:2539-1

> <Gold.Version>
5.8.1

> <Gold.Id.Protein>
6NUR|6NUR_protein|mol2

> <Gold.PLP.Fitness>
41.3366

> <Gold.PLP.PLP>
-33.7841

> <Gold.PLP.part.hbond>
-2.0000

> <Gold.PLP.part.metal>
0.0000

> <Gold.PLP.part.buried>
-2.4767

> <Gold.PLP.part.nonpolar>
-29.5300

> <Gold.PLP.part.repulsive>
0.1690

> <Gold.PLP.ligand.clash>
0.0000

> <Gold.PLP.ligand.torsion>
0.4248

> <Gold.PLP.Chemscore.Hbond>
1.7840

> <Gold.PLP.Chemscore.CHOScore>
1.0000

> <Gold.PLP.Chemscore.Metal>
0.0000

> <Gold.Chemscore.Hbonds>
donor molecule, donor type, donor heavy atom, donor atom, acceptor molecule, acceptor atom, score
      P1  H  6896  6909       L1     1  0.75
      P1  H  6934  6947       L1    16  0.55
      L1  C    11    31       P1 10747  0.81

> <Gold.PLP.Chemscore.Internal.Correction>
0.0503

> <Gold.Rescore>
     Score         DG    S(hbond)    S(metal)    S(lipo)     H(rot)  DE(clash)    DE(int)     intcor
     13.16     -13.68       1.82        0.00      61.42       1.97       0.09       0.43       ----

> <Gold.Chemscore.Fitness>
13.1597

> <Gold.Chemscore.DG>
-13.6792

> <Gold.Chemscore.ZeroCoef>
-5.4800

> <Gold.Chemscore.Hbond>
1.8162

> <Gold.Chemscore.Metal>
0.0000

> <Gold.Chemscore.Lipo>
61.4161

> <Gold.Chemscore.Internal_Hbond>
0.0000

> <Gold.Chemscore.DEClash>
0.0925

> <Gold.Chemscore.DEInternal>
0.4270

> <Gold.Chemscore.Rot>
1.9737

> <Gold.Chemscore.Internal.Correction>
   9.000000E+99

> <Gold.Chemscore.Hbonds>
donor molecule, donor type, donor heavy atom, donor atom, acceptor molecule, acceptor atom, score
      P1  H  6896  6909       L1     1  0.72
      P1  H  6934  6947       L1    16  0.03

> <Gold.Chemscore.Hbond.Weighted>
-6.0663

> <Gold.Chemscore.Metal.Weighted>
-0.0000

> <Gold.Chemscore.Lipo.Weighted>
-7.1857

> <Gold.Chemscore.Internal_Hbond.Weighted>
0.0000

> <Gold.Chemscore.DEClash.Weighted>
0.0925

> <Gold.Chemscore.DEInternal.Weighted>
0.4270

> <Gold.Chemscore.Rot.Weighted>
5.0528

> <Gold.Chemscore.Internal.Correction.Weighted>
   9.000000E+99

> <Gold.Protein.RotatedTorsions>
[ 6907 6896 6895 6894 ] final   29.97 input  -60.11 | X-H torsion
[ 7974 7965 7964 7962 ] final  -51.24 input  175.53 | X-H torsion
[ 8008 7997 7996 7995 ] final  175.93 input   59.86 | X-H torsion
[ 10167 10162 10161 10158 ] final  -50.59 input  -65.29 | X-H torsion
[ 10718 10713 10712 10709 ] final  115.75 input   66.30 | X-H torsion
[ 10763 10752 10751 10750 ] final   41.96 input  -60.55 | X-H torsion
[ 11005 11000 10999 10996 ] final   -2.63 input  -57.11 | X-H torsion

> <Gold.Protein.ActiveResidues>
 VAL166  LYS551  ARG553  GLY616  TRP617  ASP618  TYR619  PRO620  LYS621  CYS622 
 ASP623  PHE694  ASN695  SER759  ASP760  ASP761  ALA762  ILE779  LEU786  VAL792 
 PHE793  MET794  SER795  GLU796  ALA797  LYS798  CYS799  TRP800  GLU811  SER814 

> <Gold.Protein.RotatedAtoms>
  152.0393  134.9721  160.0573 H   0  0  0  0  0  0  0  0  0  0  0  0  # atno 6907 bound_to 6896
  152.1166  133.4325  159.4664 H   0  0  0  0  0  0  0  0  0  0  0  0  # atno 6908 bound_to 6896
  150.6846  134.2503  159.4551 H   0  0  0  0  0  0  0  0  0  0  0  0  # atno 6909 bound_to 6896
  145.9211  140.7833  142.9647 H   0  0  0  0  0  0  0  0  0  0  0  0  # atno 7974 bound_to 7965
  156.0818  140.1396  156.9702 H   0  0  0  0  0  0  0  0  0  0  0  0  # atno 8008 bound_to 7997
  154.4590  140.0950  156.6888 H   0  0  0  0  0  0  0  0  0  0  0  0  # atno 8009 bound_to 7997
  155.5062  140.3452  155.4382 H   0  0  0  0  0  0  0  0  0  0  0  0  # atno 8010 bound_to 7997
  140.6630  143.2652  151.4382 H   0  0  0  0  0  0  0  0  0  0  0  0  # atno 10167 bound_to 10162
  157.6203  131.1016  150.7375 H   0  0  0  0  0  0  0  0  0  0  0  0  # atno 10718 bound_to 10713
  152.9895  135.6146  154.2871 H   0  0  0  0  0  0  0  0  0  0  0  0  # atno 10763 bound_to 10752
  154.2598  135.2782  155.2784 H   0  0  0  0  0  0  0  0  0  0  0  0  # atno 10764 bound_to 10752
  154.5215  135.5813  153.6742 H   0  0  0  0  0  0  0  0  0  0  0  0  # atno 10765 bound_to 10752
  140.6604  133.9325  155.8433 H   0  0  0  0  0  0  0  0  0  0  0  0  # atno 11005 bound_to 11000
  144.6753  140.1977  143.7390 LP  0  0  0  0  0  0  0  0  0  0  0  0  # atno 17320 bound_to 7965
  145.8549  139.2194  143.1750 LP  0  0  0  0  0  0  0  0  0  0  0  0  # atno 17321 bound_to 7965
  139.5869  144.1584  152.2040 LP  0  0  0  0  0  0  0  0  0  0  0  0  # atno 17342 bound_to 10162
  140.0926  144.5607  150.7044 LP  0  0  0  0  0  0  0  0  0  0  0  0  # atno 17343 bound_to 10162
  156.7733  130.4836  149.5414 LP  0  0  0  0  0  0  0  0  0  0  0  0  # atno 17370 bound_to 10713
  156.1345  130.6201  151.0380 LP  0  0  0  0  0  0  0  0  0  0  0  0  # atno 17371 bound_to 10713
  141.0469  134.0540  157.3832 LP  0  0  0  0  0  0  0  0  0  0  0  0  # atno 17394 bound_to 11000
  139.9015  135.0166  156.7289 LP  0  0  0  0  0  0  0  0  0  0  0  0  # atno 17395 bound_to 11000

$$$$
