AV-unprocessed.smi:1658|AV-procd|sdf|6649|dock7
  -GOLD-   22720 7353D 1   1.00000     0.00000
 Structure written by MMmdl.
 47 48  0  0  0  0  0  0  0  0  2 V2000
  145.9939  128.2907  153.0499 C   0  0  0  0  0  0  0  0  0  0  0  0
  145.6970  129.4625  152.2982 O   0  0  0  0  0  0  0  0  0  0  0  0
  146.3941  130.6185  152.5840 C   0  0  0  0  0  0  0  0  0  0  0  0
  146.1034  131.7812  151.8432 C   0  0  0  0  0  0  0  0  0  0  0  0
  146.8144  132.9620  152.1283 C   0  0  0  0  0  0  0  0  0  0  0  0
  147.7857  132.9511  153.1495 C   0  0  0  0  0  0  0  0  0  0  0  0
  148.5063  134.1499  153.3988 N   0  0  0  0  0  0  0  0  0  0  0  0
  149.1735  134.5078  154.5089 C   0  0  0  0  0  0  0  0  0  0  0  0
  149.2097  133.8637  155.5571 O   0  0  0  0  0  0  0  0  0  0  0  0
  149.7971  135.6828  154.3404 N   0  0  0  0  0  0  0  0  0  0  0  0
  150.6072  136.3742  155.3440 C   0  0  0  0  0  0  0  0  0  0  0  0
  150.9973  137.8367  154.9612 C   0  0  0  0  0  0  0  0  0  0  0  0
  152.0156  137.8474  153.7944 C   0  0  0  0  0  0  0  0  0  0  0  0
  149.7112  138.5563  154.4738 C   0  0  0  0  0  0  0  0  0  0  0  0
  151.5675  138.5182  156.1830 N   0  3  0  0  0  0  0  0  0  0  0  0
  152.7688  137.8638  156.7788 C   0  0  0  0  0  0  0  0  0  0  0  0
  153.1466  138.5261  158.1128 C   0  0  0  0  0  0  0  0  0  0  0  0
  153.4035  139.9055  157.8966 O   0  0  0  0  0  0  0  0  0  0  0  0
  152.2515  140.5807  157.4145 C   0  0  0  0  0  0  0  0  0  0  0  0
  151.8141  139.9849  156.0647 C   0  0  0  0  0  0  0  0  0  0  0  0
  148.0119  131.7301  153.8306 C   0  0  0  0  0  0  0  0  0  0  0  0
  147.3352  130.5935  153.5600 N   0  0  0  0  0  0  0  0  0  0  0  0
  145.3688  127.4697  152.6994 H   0  0  0  0  0  0  0  0  0  0  0  0
  145.7871  128.4345  154.1113 H   0  0  0  0  0  0  0  0  0  0  0  0
  147.0350  127.9890  152.9253 H   0  0  0  0  0  0  0  0  0  0  0  0
  145.3511  131.7667  151.0684 H   0  0  0  0  0  0  0  0  0  0  0  0
  146.6117  133.8643  151.5697 H   0  0  0  0  0  0  0  0  0  0  0  0
  148.4858  134.8292  152.6522 H   0  0  0  0  0  0  0  0  0  0  0  0
  149.7038  136.1392  153.4446 H   0  0  0  0  0  0  0  0  0  0  0  0
  150.0295  136.3844  156.2691 H   0  0  0  0  0  0  0  0  0  0  0  0
  151.4828  135.7619  155.5543 H   0  0  0  0  0  0  0  0  0  0  0  0
  151.5685  137.4779  152.8713 H   0  0  0  0  0  0  0  0  0  0  0  0
  152.8803  137.2156  153.9988 H   0  0  0  0  0  0  0  0  0  0  0  0
  152.3801  138.8523  153.5825 H   0  0  0  0  0  0  0  0  0  0  0  0
  149.2247  138.0215  153.6581 H   0  0  0  0  0  0  0  0  0  0  0  0
  149.9195  139.5503  154.0778 H   0  0  0  0  0  0  0  0  0  0  0  0
  148.9799  138.6566  155.2765 H   0  0  0  0  0  0  0  0  0  0  0  0
  152.6038  136.8050  156.9637 H   0  0  0  0  0  0  0  0  0  0  0  0
  153.6159  137.9397  156.0965 H   0  0  0  0  0  0  0  0  0  0  0  0
  152.3563  138.3964  158.8540 H   0  0  0  0  0  0  0  0  0  0  0  0
  154.0449  138.0621  158.5207 H   0  0  0  0  0  0  0  0  0  0  0  0
  151.4453  140.5164  158.1471 H   0  0  0  0  0  0  0  0  0  0  0  0
  152.4881  141.6383  157.2965 H   0  0  0  0  0  0  0  0  0  0  0  0
  152.5777  140.1762  155.3104 H   0  0  0  0  0  0  0  0  0  0  0  0
  150.9165  140.5216  155.7628 H   0  0  0  0  0  0  0  0  0  0  0  0
  148.7647  131.6346  154.5974 H   0  0  0  0  0  0  0  0  0  0  0  0
  150.8420  138.4369  156.8812 H   0  0  0  0  0  0  0  0  0  0  0  0
  1  2  1  0  0  0  0
  1 23  1  0  0  0  0
  1 24  1  0  0  0  0
  1 25  1  0  0  0  0
  2  3  1  0  0  0  0
  3 22  1  0  0  0  0
  3  4  2  0  0  0  0
  4  5  1  0  0  0  0
  4 26  1  0  0  0  0
  5  6  2  0  0  0  0
  5 27  1  0  0  0  0
  6  7  1  0  0  0  0
  6 21  1  0  0  0  0
  7  8  1  0  0  0  0
  7 28  1  0  0  0  0
  8  9  2  0  0  0  0
  8 10  1  0  0  0  0
 10 11  1  0  0  0  0
 10 29  1  0  0  0  0
 11 12  1  0  0  0  0
 11 30  1  0  0  0  0
 11 31  1  0  0  0  0
 12 13  1  0  0  0  0
 12 14  1  0  0  0  0
 12 15  1  0  0  0  0
 13 32  1  0  0  0  0
 13 33  1  0  0  0  0
 13 34  1  0  0  0  0
 14 35  1  0  0  0  0
 14 36  1  0  0  0  0
 14 37  1  0  0  0  0
 15 20  1  0  0  0  0
 15 16  1  0  0  0  0
 15 47  1  0  0  0  0
 16 17  1  0  0  0  0
 16 38  1  0  0  0  0
 16 39  1  0  0  0  0
 17 18  1  0  0  0  0
 17 40  1  0  0  0  0
 17 41  1  0  0  0  0
 18 19  1  0  0  0  0
 19 20  1  0  0  0  0
 19 42  1  0  0  0  0
 19 43  1  0  0  0  0
 20 44  1  0  0  0  0
 20 45  1  0  0  0  0
 21 22  2  0  0  0  0
 21 46  1  0  0  0  0
M  CHG  1  15   1
M  END
> <s_m_source_file>
AV-unprocessed.smi

> <i_m_source_file_index>
1658

> <i_lp_mmshare_version>
43012

> <i_f3d_flags>
0

> <s_epik_input>
W0NIM11PYzFbY0hdW2NIXWMoW2NIXW4xKVtOSF1DKD1PKVtOSF1bQ0gyXUMoW0NIM10pKFtDSDNdKU4yW0NIMl1bQ0gyXU9bQ0gyXVtDSDJdMg==

> <s_epik_cmdline>
J2VwaWtfcHl0aG9uJywgJy1waCcsICc3LjAnLCAnLXRuJywgJzgnLCAnLW1hJywgJzIwMCcsICctbWV0YWxfYmluZGluZycsICctaW1hZScsICc8aW5maWxlLm1hZT4nLCAnLW9tYWUnLCAnPG91dGZpbGUubWFlPic=

> <r_lp_tautomer_probability>
1

> <r_epik_Ionization_Penalty>
0.602608

> <r_epik_Ionization_Penalty_Charging>
0.602531

> <r_epik_Ionization_Penalty_Neutral>
7.74737e-05

> <r_epik_State_Penalty>
0.617039

> <r_epik_Charging_Adjusted_Penalty>
1.21957

> <i_epik_Tot_Q>
1

> <i_epik_Tot_abs_Q>
1

> <r_epik_Metal_State_Penalty>
0.617043

> <b_epik_Metal_Only>
0

> <s_lp_Force_Field>
OPLS_2005

> <r_lp_Energy>
28.7753

> <b_lp_Chiralities_Consistent>
1

> <s_lp_Variant>
AV-unprocessed.smi:1658-2

> <Gold.Version>
5.8.1

> <Gold.Id.Protein>
6NUR|6NUR_protein|mol2

> <Gold.PLP.Fitness>
40.3460

> <Gold.PLP.PLP>
-31.8437

> <Gold.PLP.part.hbond>
-3.0000

> <Gold.PLP.part.metal>
0.0000

> <Gold.PLP.part.buried>
-4.5025

> <Gold.PLP.part.nonpolar>
-25.5658

> <Gold.PLP.part.repulsive>
0.3663

> <Gold.PLP.ligand.clash>
0.0000

> <Gold.PLP.ligand.torsion>
0.2972

> <Gold.PLP.Chemscore.Hbond>
3.0000

> <Gold.PLP.Chemscore.CHOScore>
0.0000

> <Gold.PLP.Chemscore.Metal>
0.0000

> <Gold.Chemscore.Hbonds>
donor molecule, donor type, donor heavy atom, donor atom, acceptor molecule, acceptor atom, score
      L1  H     7    28       P1  7948  1.00
      L1  H    10    29       P1  7948  0.95
      P1  H  7997  8010       L1    18  0.89

> <Gold.PLP.Chemscore.Internal.Correction>
0.0968

> <Gold.Rescore>
     Score         DG    S(hbond)    S(metal)    S(lipo)     H(rot)  DE(clash)    DE(int)     intcor
     16.80     -18.09       2.59        0.00      72.42       1.76       0.07       1.22       ----

> <Gold.Chemscore.Fitness>
16.7967

> <Gold.Chemscore.DG>
-18.0883

> <Gold.Chemscore.ZeroCoef>
-5.4800

> <Gold.Chemscore.Hbond>
2.5853

> <Gold.Chemscore.Metal>
0.0000

> <Gold.Chemscore.Lipo>
72.4198

> <Gold.Chemscore.Internal_Hbond>
0.0000

> <Gold.Chemscore.DEClash>
0.0668

> <Gold.Chemscore.DEInternal>
1.2249

> <Gold.Chemscore.Rot>
1.7577

> <Gold.Chemscore.Internal.Correction>
   9.000000E+99

> <Gold.Chemscore.Hbonds>
donor molecule, donor type, donor heavy atom, donor atom, acceptor molecule, acceptor atom, score
      L1  H     7    28       P1  7948  0.29
      L1  H    10    29       P1  7948  0.20
      P1  H  7997  8010       L1    18  0.42

> <Gold.Chemscore.Hbond.Weighted>
-8.6350

> <Gold.Chemscore.Metal.Weighted>
-0.0000

> <Gold.Chemscore.Lipo.Weighted>
-8.4731

> <Gold.Chemscore.Internal_Hbond.Weighted>
0.0000

> <Gold.Chemscore.DEClash.Weighted>
0.0668

> <Gold.Chemscore.DEInternal.Weighted>
1.2249

> <Gold.Chemscore.Rot.Weighted>
4.4997

> <Gold.Chemscore.Internal.Correction.Weighted>
   9.000000E+99

> <Gold.Protein.RotatedTorsions>
[ 6907 6896 6895 6894 ] final  100.15 input  -60.11 | X-H torsion
[ 7974 7965 7964 7962 ] final  -88.53 input  175.53 | X-H torsion
[ 8008 7997 7996 7995 ] final   46.24 input   59.86 | X-H torsion
[ 10167 10162 10161 10158 ] final -178.68 input  -65.29 | X-H torsion
[ 10718 10713 10712 10709 ] final  -57.40 input   66.30 | X-H torsion
[ 10763 10752 10751 10750 ] final   20.95 input  -60.55 | X-H torsion
[ 11005 11000 10999 10996 ] final -130.52 input  -57.11 | X-H torsion

> <Gold.Protein.ActiveResidues>
 VAL166  LYS551  ARG553  GLY616  TRP617  ASP618  TYR619  PRO620  LYS621  CYS622 
 ASP623  PHE694  ASN695  SER759  ASP760  ASP761  ALA762  ILE779  LEU786  VAL792 
 PHE793  MET794  SER795  GLU796  ALA797  LYS798  CYS799  TRP800  GLU811  SER814 

> <Gold.Protein.RotatedAtoms>
  152.5378  134.0320  159.8028 H   0  0  0  0  0  0  0  0  0  0  0  0  # atno 6907 bound_to 6896
  151.0490  133.5633  159.2651 H   0  0  0  0  0  0  0  0  0  0  0  0  # atno 6908 bound_to 6896
  151.2574  135.0650  159.9139 H   0  0  0  0  0  0  0  0  0  0  0  0  # atno 6909 bound_to 6896
  145.4519  140.9560  143.2018 H   0  0  0  0  0  0  0  0  0  0  0  0  # atno 7974 bound_to 7965
  155.3493  140.3412  155.4239 H   0  0  0  0  0  0  0  0  0  0  0  0  # atno 8008 bound_to 7997
  156.1772  140.1652  156.8375 H   0  0  0  0  0  0  0  0  0  0  0  0  # atno 8009 bound_to 7997
  154.5295  140.0748  156.8302 H   0  0  0  0  0  0  0  0  0  0  0  0  # atno 8010 bound_to 7997
  139.5421  144.2334  152.0916 H   0  0  0  0  0  0  0  0  0  0  0  0  # atno 10167 bound_to 10162
  156.1214  130.4166  150.0435 H   0  0  0  0  0  0  0  0  0  0  0  0  # atno 10718 bound_to 10713
  153.1035  135.6678  153.9629 H   0  0  0  0  0  0  0  0  0  0  0  0  # atno 10763 bound_to 10752
  153.9193  135.3016  155.3449 H   0  0  0  0  0  0  0  0  0  0  0  0  # atno 10764 bound_to 10752
  154.7456  135.5059  153.9274 H   0  0  0  0  0  0  0  0  0  0  0  0  # atno 10765 bound_to 10752
  140.9338  134.1284  157.4211 H   0  0  0  0  0  0  0  0  0  0  0  0  # atno 11005 bound_to 11000
  144.8056  139.6057  143.7052 LP  0  0  0  0  0  0  0  0  0  0  0  0  # atno 17320 bound_to 7965
  146.2500  139.6178  142.9434 LP  0  0  0  0  0  0  0  0  0  0  0  0  # atno 17321 bound_to 7965
  140.1814  144.4840  150.6526 LP  0  0  0  0  0  0  0  0  0  0  0  0  # atno 17342 bound_to 10162
  140.6655  143.2266  151.5752 LP  0  0  0  0  0  0  0  0  0  0  0  0  # atno 17343 bound_to 10162
  156.8372  130.9413  151.3634 LP  0  0  0  0  0  0  0  0  0  0  0  0  # atno 17370 bound_to 10713
  157.6397  130.8795  149.9425 LP  0  0  0  0  0  0  0  0  0  0  0  0  # atno 17371 bound_to 10713
  139.8803  135.0014  156.6066 LP  0  0  0  0  0  0  0  0  0  0  0  0  # atno 17394 bound_to 11000
  140.7826  133.8647  155.8580 LP  0  0  0  0  0  0  0  0  0  0  0  0  # atno 17395 bound_to 11000

$$$$
