AV-unprocessed.smi:865|AV-procd|sdf|3991|dock4
  -GOLD-   22720 1473D 1   1.00000     0.00000
 Structure written by MMmdl.
 36 36  0  0  0  0  0  0  0  0  1 V2000
  152.8565  142.3350  161.2495 C   0  0  0  0  0  0  0  0  0  0  0  0
  153.4247  142.3695  159.8228 C   0  0  0  0  0  0  0  0  0  0  0  0
  152.3819  142.6682  158.7151 C   0  0  0  0  0  0  0  0  0  0  0  0
  151.4465  143.8376  159.1190 C   0  0  0  0  0  0  0  0  0  0  0  0
  152.1566  145.1892  159.2877 C   0  0  0  0  0  0  0  0  0  0  0  0
  151.5934  141.3989  158.2840 C   0  0  1  0  0  0  0  0  0  0  0  0
  150.6331  141.7599  157.3094 O   0  0  0  0  0  0  0  0  0  0  0  0
  152.4931  140.2801  157.7121 C   0  0  0  0  0  0  0  0  0  0  0  0
  151.7431  139.3795  156.8440 N   0  0  0  0  0  0  0  0  0  0  0  0
  151.8907  139.2871  155.5136 C   0  0  0  0  0  0  0  0  0  0  0  0
  152.7170  139.9352  154.8721 O   0  0  0  0  0  0  0  0  0  0  0  0
  150.9513  138.3227  154.7911 C   0  0  0  0  0  0  0  0  0  0  0  0
  151.1640  136.9633  155.2489 N   0  0  0  0  0  0  0  0  0  0  0  0
  150.5086  135.8334  154.9751 C   0  0  0  0  0  0  0  0  0  0  0  0
  151.0248  134.8001  155.6230 N   0  0  0  0  0  0  0  0  0  0  0  0
  152.0680  135.3656  156.3375 N   0  0  0  0  0  0  0  0  0  0  0  0
  152.1552  136.6491  156.1200 N   0  0  0  0  0  0  0  0  0  0  0  0
  153.6143  141.9921  161.9541 H   0  0  0  0  0  0  0  0  0  0  0  0
  152.0080  141.6544  161.3209 H   0  0  0  0  0  0  0  0  0  0  0  0
  152.5320  143.3197  161.5837 H   0  0  0  0  0  0  0  0  0  0  0  0
  154.2433  143.0881  159.7744 H   0  0  0  0  0  0  0  0  0  0  0  0
  153.8782  141.3965  159.6408 H   0  0  0  0  0  0  0  0  0  0  0  0
  152.9411  142.9984  157.8383 H   0  0  0  0  0  0  0  0  0  0  0  0
  150.6777  143.9779  158.3604 H   0  0  0  0  0  0  0  0  0  0  0  0
  150.9140  143.5902  160.0380 H   0  0  0  0  0  0  0  0  0  0  0  0
  151.4316  145.9812  159.4759 H   0  0  0  0  0  0  0  0  0  0  0  0
  152.7114  145.4581  158.3885 H   0  0  0  0  0  0  0  0  0  0  0  0
  152.8522  145.1851  160.1259 H   0  0  0  0  0  0  0  0  0  0  0  0
  151.0657  140.9980  159.1488 H   0  0  0  0  0  0  0  0  0  0  0  0
  150.8660  142.6056  156.9582 H   0  0  0  0  0  0  0  0  0  0  0  0
  153.3730  140.6822  157.2065 H   0  0  0  0  0  0  0  0  0  0  0  0
  152.8697  139.6629  158.5282 H   0  0  0  0  0  0  0  0  0  0  0  0
  151.0357  138.8082  157.2832 H   0  0  0  0  0  0  0  0  0  0  0  0
  149.9141  138.5999  154.9829 H   0  0  0  0  0  0  0  0  0  0  0  0
  151.1054  138.3729  153.7118 H   0  0  0  0  0  0  0  0  0  0  0  0
  149.6595  135.7697  154.3105 H   0  0  0  0  0  0  0  0  0  0  0  0
  1  2  1  0  0  0  0
  1 18  1  0  0  0  0
  1 19  1  0  0  0  0
  1 20  1  0  0  0  0
  2  3  1  0  0  0  0
  2 21  1  0  0  0  0
  2 22  1  0  0  0  0
  3  4  1  0  0  0  0
  3  6  1  0  0  0  0
  3 23  1  0  0  0  0
  4  5  1  0  0  0  0
  4 24  1  0  0  0  0
  4 25  1  0  0  0  0
  5 26  1  0  0  0  0
  5 27  1  0  0  0  0
  5 28  1  0  0  0  0
  6  7  1  0  0  0  0
  6  8  1  0  0  0  0
  6 29  1  0  0  0  0
  7 30  1  0  0  0  0
  8  9  1  0  0  0  0
  8 31  1  0  0  0  0
  8 32  1  0  0  0  0
  9 10  1  0  0  0  0
  9 33  1  0  0  0  0
 10 11  2  0  0  0  0
 10 12  1  0  0  0  0
 12 13  1  0  0  0  0
 12 34  1  0  0  0  0
 12 35  1  0  0  0  0
 13 17  1  0  0  0  0
 13 14  1  0  0  0  0
 14 15  2  0  0  0  0
 14 36  1  0  0  0  0
 15 16  1  0  0  0  0
 16 17  2  0  0  0  0
M  END
> <s_m_source_file>
AV-unprocessed.smi

> <i_m_source_file_index>
865

> <i_lp_mmshare_version>
43012

> <i_f3d_flags>
0

> <s_epik_input>
W0NIM11bQ0gyXVtDSF0oW0NIMl1bQ0gzXSlbQ0BIXShbT0hdKVtDSDJdW05IXUMoPU8pW0NIMl1uMVtjSF1ubm4x

> <s_epik_cmdline>
J2VwaWtfcHl0aG9uJywgJy1waCcsICc3LjAnLCAnLXRuJywgJzgnLCAnLW1hJywgJzIwMCcsICctbWV0YWxfYmluZGluZycsICctaW1hZScsICc8aW5maWxlLm1hZT4nLCAnLW9tYWUnLCAnPG91dGZpbGUubWFlPic=

> <r_lp_tautomer_probability>
1

> <r_epik_Ionization_Penalty>
9.39891e-07

> <r_epik_Ionization_Penalty_Charging>
0

> <r_epik_Ionization_Penalty_Neutral>
9.39891e-07

> <r_epik_State_Penalty>
-0

> <r_epik_Charging_Adjusted_Penalty>
0

> <i_epik_Tot_Q>
0

> <i_epik_Tot_abs_Q>
0

> <r_epik_Metal_State_Penalty>
-0

> <b_epik_Metal_Only>
0

> <s_lp_Force_Field>
OPLS_2005

> <r_lp_Energy>
13.5174

> <b_lp_Chiralities_Consistent>
1

> <s_lp_Variant>
AV-unprocessed.smi:865-2

> <Gold.Version>
5.8.1

> <Gold.Id.Protein>
6NUR|6NUR_protein|mol2

> <Gold.PLP.Fitness>
42.1695

> <Gold.PLP.PLP>
-35.6706

> <Gold.PLP.part.hbond>
-4.2823

> <Gold.PLP.part.metal>
0.0000

> <Gold.PLP.part.buried>
-3.2208

> <Gold.PLP.part.nonpolar>
-28.1246

> <Gold.PLP.part.repulsive>
0.1785

> <Gold.PLP.ligand.clash>
0.0000

> <Gold.PLP.ligand.torsion>
0.5798

> <Gold.PLP.Chemscore.Hbond>
1.4852

> <Gold.PLP.Chemscore.CHOScore>
1.0000

> <Gold.PLP.Chemscore.Metal>
0.0000

> <Gold.Chemscore.Hbonds>
donor molecule, donor type, donor heavy atom, donor atom, acceptor molecule, acceptor atom, score
      P1  H  7989  7998       L1    11  0.46
      P1  H  7997  8010       L1    11  0.89
      P1  H 10752 10763       L1    16  0.07
      L1  C    14    36       P1  7948  0.93

> <Gold.PLP.Chemscore.Internal.Correction>
0.2029

> <Gold.Rescore>
     Score         DG    S(hbond)    S(metal)    S(lipo)     H(rot)  DE(clash)    DE(int)     intcor
      7.25      -9.09       1.20        0.00      79.80       3.80       0.02       1.82       ----

> <Gold.Chemscore.Fitness>
7.2535

> <Gold.Chemscore.DG>
-9.0911

> <Gold.Chemscore.ZeroCoef>
-5.4800

> <Gold.Chemscore.Hbond>
1.1956

> <Gold.Chemscore.Metal>
0.0000

> <Gold.Chemscore.Lipo>
79.7999

> <Gold.Chemscore.Internal_Hbond>
0.0000

> <Gold.Chemscore.DEClash>
0.0174

> <Gold.Chemscore.DEInternal>
1.8201

> <Gold.Chemscore.Rot>
3.7964

> <Gold.Chemscore.Internal.Correction>
   9.000000E+99

> <Gold.Chemscore.Hbonds>
donor molecule, donor type, donor heavy atom, donor atom, acceptor molecule, acceptor atom, score
      P1  H  7989  7998       L1    11  0.25
      P1  H  7997  8010       L1    11  0.83

> <Gold.Chemscore.Hbond.Weighted>
-3.9933

> <Gold.Chemscore.Metal.Weighted>
-0.0000

> <Gold.Chemscore.Lipo.Weighted>
-9.3366

> <Gold.Chemscore.Internal_Hbond.Weighted>
0.0000

> <Gold.Chemscore.DEClash.Weighted>
0.0174

> <Gold.Chemscore.DEInternal.Weighted>
1.8201

> <Gold.Chemscore.Rot.Weighted>
9.7188

> <Gold.Chemscore.Internal.Correction.Weighted>
   9.000000E+99

> <Gold.Protein.RotatedTorsions>
[ 6907 6896 6895 6894 ] final  113.81 input  -60.11 | X-H torsion
[ 7974 7965 7964 7962 ] final  -29.94 input  175.53 | X-H torsion
[ 8008 7997 7996 7995 ] final  119.95 input   59.86 | X-H torsion
[ 10167 10162 10161 10158 ] final   60.97 input  -65.29 | X-H torsion
[ 10718 10713 10712 10709 ] final   -6.00 input   66.30 | X-H torsion
[ 10763 10752 10751 10750 ] final  138.49 input  -60.55 | X-H torsion
[ 11005 11000 10999 10996 ] final   95.35 input  -57.11 | X-H torsion

> <Gold.Protein.ActiveResidues>
 VAL166  LYS551  ARG553  GLY616  TRP617  ASP618  TYR619  PRO620  LYS621  CYS622 
 ASP623  PHE694  ASN695  SER759  ASP760  ASP761  ALA762  ILE779  LEU786  VAL792 
 PHE793  MET794  SER795  GLU796  ALA797  LYS798  CYS799  TRP800  GLU811  SER814 

> <Gold.Protein.RotatedAtoms>
  152.4839  133.8323  159.7109 H   0  0  0  0  0  0  0  0  0  0  0  0  # atno 6907 bound_to 6896
  150.8910  133.7234  159.2911 H   0  0  0  0  0  0  0  0  0  0  0  0  # atno 6908 bound_to 6896
  151.4707  135.1049  159.9803 H   0  0  0  0  0  0  0  0  0  0  0  0  # atno 6909 bound_to 6896
  146.1180  140.5477  142.8748 H   0  0  0  0  0  0  0  0  0  0  0  0  # atno 7974 bound_to 7965
  156.2620  140.2841  156.1072 H   0  0  0  0  0  0  0  0  0  0  0  0  # atno 8008 bound_to 7997
  155.1296  140.0393  157.2789 H   0  0  0  0  0  0  0  0  0  0  0  0  # atno 8009 bound_to 7997
  154.6609  140.2566  155.7116 H   0  0  0  0  0  0  0  0  0  0  0  0  # atno 8010 bound_to 7997
  140.1598  144.4381  150.6715 H   0  0  0  0  0  0  0  0  0  0  0  0  # atno 10167 bound_to 10162
  156.7382  130.5201  149.5830 H   0  0  0  0  0  0  0  0  0  0  0  0  # atno 10718 bound_to 10713
  153.8905  135.3033  155.3447 H   0  0  0  0  0  0  0  0  0  0  0  0  # atno 10763 bound_to 10752
  154.7719  135.4881  153.9668 H   0  0  0  0  0  0  0  0  0  0  0  0  # atno 10764 bound_to 10752
  153.1300  135.6802  153.9292 H   0  0  0  0  0  0  0  0  0  0  0  0  # atno 10765 bound_to 10752
  139.8790  134.8894  156.3998 H   0  0  0  0  0  0  0  0  0  0  0  0  # atno 11005 bound_to 11000
  144.7570  140.5332  143.6762 LP  0  0  0  0  0  0  0  0  0  0  0  0  # atno 17320 bound_to 7965
  145.5527  139.1477  143.3385 LP  0  0  0  0  0  0  0  0  0  0  0  0  # atno 17321 bound_to 7965
  140.6650  143.2265  151.5764 LP  0  0  0  0  0  0  0  0  0  0  0  0  # atno 17342 bound_to 10162
  139.5386  144.2710  152.1305 LP  0  0  0  0  0  0  0  0  0  0  0  0  # atno 17343 bound_to 10162
  156.1482  130.6292  151.0560 LP  0  0  0  0  0  0  0  0  0  0  0  0  # atno 17370 bound_to 10713
  157.6830  131.0833  150.7320 LP  0  0  0  0  0  0  0  0  0  0  0  0  # atno 17371 bound_to 10713
  140.9275  133.7602  155.9983 LP  0  0  0  0  0  0  0  0  0  0  0  0  # atno 17394 bound_to 11000
  140.8369  134.3112  157.5328 LP  0  0  0  0  0  0  0  0  0  0  0  0  # atno 17395 bound_to 11000

$$$$
