AV-unprocessed.smi:90|AV-procd|sdf|829|dock4
  -GOLD-   2262017243D 1   1.00000     0.00000
 Structure written by MMmdl.
 64 67  0  0  0  0  0  0  0  0  2 V2000
  148.4580  140.8184  154.4969 C   0  0  0  0  0  0  0  0  0  0  0  0
  149.7754  140.5903  155.0791 N   0  0  0  0  0  0  0  0  0  0  0  0
  150.3139  141.6159  155.9743 C   0  0  0  0  0  0  0  0  0  0  0  0
  149.6674  141.5756  157.3739 C   0  0  0  0  0  0  0  0  0  0  0  0
  150.5522  142.1506  158.5100 C   0  0  2  0  0  0  0  0  0  0  0  0
  150.5965  143.6982  158.4523 C   0  0  0  0  0  0  0  0  0  0  0  0
  151.4818  144.2952  159.5521 C   0  0  0  0  0  0  0  0  0  0  0  0
  152.8829  143.6888  159.4751 C   0  0  0  0  0  0  0  0  0  0  0  0
  152.8040  142.1591  159.5545 C   0  0  0  0  0  0  0  0  0  0  0  0
  151.9457  141.5980  158.4773 N   0  3  1  0  0  0  0  0  0  0  0  0
  152.0203  140.1162  158.4719 C   0  0  0  0  0  0  0  0  0  0  0  0
  150.3119  139.3349  155.0543 C   0  0  0  0  0  0  0  0  0  0  0  0
  151.1458  139.0012  154.0318 N   0  0  0  0  0  0  0  0  0  0  0  0
  151.7052  137.7907  153.9677 C   0  0  0  0  0  0  0  0  0  0  0  0
  151.5668  136.7652  154.8065 N   0  0  0  0  0  0  0  0  0  0  0  0
  150.7208  137.0742  155.8291 C   0  0  0  0  0  0  0  0  0  0  0  0
  150.0601  138.3221  156.0322 C   0  0  0  0  0  0  0  0  0  0  0  0
  149.2879  138.2491  157.1875 N   0  0  0  0  0  0  0  0  0  0  0  0
  149.4873  137.0433  157.6410 C   0  0  0  0  0  0  0  0  0  0  0  0
  150.3211  136.2604  156.8765 N   0  0  0  0  0  0  0  0  0  0  0  0
  150.7114  134.8830  157.1502 C   0  0  0  0  0  0  0  0  0  0  0  0
  149.9653  133.7998  156.3119 C   0  0  0  0  0  0  0  0  0  0  0  0
  150.1561  132.4242  157.0199 C   0  0  0  0  0  0  0  0  0  0  0  0
  149.8537  132.4083  158.3973 O   0  0  0  0  0  0  0  0  0  0  0  0
  148.4674  134.1863  156.1934 C   0  0  0  0  0  0  0  0  0  0  0  0
  147.7310  133.4876  155.0373 C   0  0  0  0  0  0  0  0  0  0  0  0
  148.4138  133.7277  153.8145 O   0  0  0  0  0  0  0  0  0  0  0  0
  149.7201  133.1695  153.8000 C   0  0  0  0  0  0  0  0  0  0  0  0
  150.5916  133.8220  154.8912 C   0  0  0  0  0  0  0  0  0  0  0  0
  147.7557  140.0413  154.8003 H   0  0  0  0  0  0  0  0  0  0  0  0
  148.5191  140.8345  153.4087 H   0  0  0  0  0  0  0  0  0  0  0  0
  148.0479  141.7767  154.8167 H   0  0  0  0  0  0  0  0  0  0  0  0
  151.3976  141.5178  156.0338 H   0  0  0  0  0  0  0  0  0  0  0  0
  150.1331  142.5914  155.5214 H   0  0  0  0  0  0  0  0  0  0  0  0
  148.7416  142.1449  157.3072 H   0  0  0  0  0  0  0  0  0  0  0  0
  149.3806  140.5523  157.6180 H   0  0  0  0  0  0  0  0  0  0  0  0
  150.1063  141.8579  159.4623 H   0  0  0  0  0  0  0  0  0  0  0  0
  150.9610  144.0206  157.4759 H   0  0  0  0  0  0  0  0  0  0  0  0
  149.5972  144.1179  158.5619 H   0  0  0  0  0  0  0  0  0  0  0  0
  151.5333  145.3795  159.4494 H   0  0  0  0  0  0  0  0  0  0  0  0
  151.0440  144.0935  160.5307 H   0  0  0  0  0  0  0  0  0  0  0  0
  153.3660  143.9878  158.5440 H   0  0  0  0  0  0  0  0  0  0  0  0
  153.5018  144.0749  160.2856 H   0  0  0  0  0  0  0  0  0  0  0  0
  153.8120  141.7504  159.4734 H   0  0  0  0  0  0  0  0  0  0  0  0
  152.4168  141.8517  160.5274 H   0  0  0  0  0  0  0  0  0  0  0  0
  151.4570  139.6917  159.3039 H   0  0  0  0  0  0  0  0  0  0  0  0
  153.0536  139.7777  158.5568 H   0  0  0  0  0  0  0  0  0  0  0  0
  151.6397  139.6987  157.5406 H   0  0  0  0  0  0  0  0  0  0  0  0
  152.3564  137.6192  153.1233 H   0  0  0  0  0  0  0  0  0  0  0  0
  149.0201  136.6864  158.5472 H   0  0  0  0  0  0  0  0  0  0  0  0
  151.7892  134.8078  156.9991 H   0  0  0  0  0  0  0  0  0  0  0  0
  150.5525  134.7006  158.2142 H   0  0  0  0  0  0  0  0  0  0  0  0
  149.5320  131.6688  156.5418 H   0  0  0  0  0  0  0  0  0  0  0  0
  151.1866  132.0832  156.9237 H   0  0  0  0  0  0  0  0  0  0  0  0
  149.0142  131.9914  158.5161 H   0  0  0  0  0  0  0  0  0  0  0  0
  147.9456  133.9975  157.1322 H   0  0  0  0  0  0  0  0  0  0  0  0
  148.3896  135.2594  156.0154 H   0  0  0  0  0  0  0  0  0  0  0  0
  147.6193  132.4175  155.2094 H   0  0  0  0  0  0  0  0  0  0  0  0
  146.7215  133.8902  154.9513 H   0  0  0  0  0  0  0  0  0  0  0  0
  149.6694  132.0866  153.9033 H   0  0  0  0  0  0  0  0  0  0  0  0
  150.1617  133.3573  152.8212 H   0  0  0  0  0  0  0  0  0  0  0  0
  150.7534  134.8572  154.5875 H   0  0  0  0  0  0  0  0  0  0  0  0
  151.5794  133.3599  154.9045 H   0  0  0  0  0  0  0  0  0  0  0  0
  152.3542  141.9037  157.6055 H   0  0  0  0  0  0  0  0  0  0  0  0
  1  2  1  0  0  0  0
  1 30  1  0  0  0  0
  1 31  1  0  0  0  0
  1 32  1  0  0  0  0
  2  3  1  0  0  0  0
  2 12  1  0  0  0  0
  3  4  1  0  0  0  0
  3 33  1  0  0  0  0
  3 34  1  0  0  0  0
  4  5  1  0  0  0  0
  4 35  1  0  0  0  0
  4 36  1  0  0  0  0
  5 10  1  0  0  0  0
  5  6  1  0  0  0  0
  5 37  1  0  0  0  0
  6  7  1  0  0  0  0
  6 38  1  0  0  0  0
  6 39  1  0  0  0  0
  7  8  1  0  0  0  0
  7 40  1  0  0  0  0
  7 41  1  0  0  0  0
  8  9  1  0  0  0  0
  8 42  1  0  0  0  0
  8 43  1  0  0  0  0
  9 10  1  0  0  0  0
  9 44  1  0  0  0  0
  9 45  1  0  0  0  0
 10 11  1  0  0  0  0
 10 64  1  0  0  0  0
 11 46  1  0  0  0  0
 11 47  1  0  0  0  0
 11 48  1  0  0  0  0
 12 17  1  0  0  0  0
 12 13  2  0  0  0  0
 13 14  1  0  0  0  0
 14 15  2  0  0  0  0
 14 49  1  0  0  0  0
 15 16  1  0  0  0  0
 16 20  1  0  0  0  0
 16 17  2  0  0  0  0
 17 18  1  0  0  0  0
 18 19  2  0  0  0  0
 19 20  1  0  0  0  0
 19 50  1  0  0  0  0
 20 21  1  0  0  0  0
 21 22  1  0  0  0  0
 21 51  1  0  0  0  0
 21 52  1  0  0  0  0
 22 29  1  0  0  0  0
 22 23  1  0  0  0  0
 22 25  1  0  0  0  0
 23 24  1  0  0  0  0
 23 53  1  0  0  0  0
 23 54  1  0  0  0  0
 24 55  1  0  0  0  0
 25 26  1  0  0  0  0
 25 56  1  0  0  0  0
 25 57  1  0  0  0  0
 26 27  1  0  0  0  0
 26 58  1  0  0  0  0
 26 59  1  0  0  0  0
 27 28  1  0  0  0  0
 28 29  1  0  0  0  0
 28 60  1  0  0  0  0
 28 61  1  0  0  0  0
 29 62  1  0  0  0  0
 29 63  1  0  0  0  0
M  CHG  1  10   1
M  END
> <s_m_source_file>
AV-unprocessed.smi

> <i_m_source_file_index>
90

> <i_lp_mmshare_version>
43012

> <i_f3d_flags>
0

> <s_epik_input>
W0NIM11OMVtDSDJdW0NIMl1bQ0gyXVtDSDJdW0NASF0xW0NIMl1bQ0gyXU4oW0NIM10pYyhuW2NIXW4yKWMoYzIzKW5bY0hdbjNbQ0gyXUM0KFtDSDJdW09IXSlbQ0gyXVtDSDJdT1tDSDJdW0NIMl00

> <s_epik_cmdline>
J2VwaWtfcHl0aG9uJywgJy1waCcsICc3LjAnLCAnLXRuJywgJzgnLCAnLW1hJywgJzIwMCcsICctbWV0YWxfYmluZGluZycsICctaW1hZScsICc8aW5maWxlLm1hZT4nLCAnLW9tYWUnLCAnPG91dGZpbGUubWFlPic=

> <r_lp_tautomer_probability>
1

> <r_epik_Ionization_Penalty>
0.00234895

> <r_epik_Ionization_Penalty_Charging>
0.00106647

> <r_epik_Ionization_Penalty_Neutral>
0.00128248

> <r_epik_State_Penalty>
-0

> <r_epik_Charging_Adjusted_Penalty>
0.00106647

> <i_epik_Tot_Q>
1

> <i_epik_Tot_abs_Q>
1

> <r_epik_Metal_State_Penalty>
-0

> <b_epik_Metal_Only>
0

> <s_lp_Force_Field>
OPLS_2005

> <r_lp_Energy>
43.9513

> <b_lp_Chiralities_Consistent>
1

> <s_lp_Variant>
AV-unprocessed.smi:90-1

> <Gold.Version>
5.8.1

> <Gold.Id.Protein>
6NUR|6NUR_protein|mol2

> <Gold.PLP.Fitness>
47.4347

> <Gold.PLP.PLP>
-41.4511

> <Gold.PLP.part.hbond>
-3.0000

> <Gold.PLP.part.metal>
0.0000

> <Gold.PLP.part.buried>
-3.0519

> <Gold.PLP.part.nonpolar>
-37.0507

> <Gold.PLP.part.repulsive>
0.5545

> <Gold.PLP.ligand.clash>
0.0000

> <Gold.PLP.ligand.torsion>
2.5608

> <Gold.PLP.Chemscore.Hbond>
2.8413

> <Gold.PLP.Chemscore.CHOScore>
0.6941

> <Gold.PLP.Chemscore.Metal>
0.0000

> <Gold.Chemscore.Hbonds>
donor molecule, donor type, donor heavy atom, donor atom, acceptor molecule, acceptor atom, score
      P1  H  6896  6909       L1    24  1.00
      P1  H  7989  7998       L1    13  0.90
      P1  H 10752 10765       L1    15  1.00
      L1  C    14    49       P1  7949  0.50

> <Gold.PLP.Chemscore.Internal.Correction>
0.4992

> <Gold.Rescore>
     Score         DG    S(hbond)    S(metal)    S(lipo)     H(rot)  DE(clash)    DE(int)     intcor
     15.15     -18.07       2.11        0.00     107.22       2.73       0.25       2.67       ----

> <Gold.Chemscore.Fitness>
15.1481

> <Gold.Chemscore.DG>
-18.0677

> <Gold.Chemscore.ZeroCoef>
-5.4800

> <Gold.Chemscore.Hbond>
2.1088

> <Gold.Chemscore.Metal>
0.0000

> <Gold.Chemscore.Lipo>
107.2227

> <Gold.Chemscore.Internal_Hbond>
0.0000

> <Gold.Chemscore.DEClash>
0.2455

> <Gold.Chemscore.DEInternal>
2.6740

> <Gold.Chemscore.Rot>
2.7347

> <Gold.Chemscore.Internal.Correction>
   9.000000E+99

> <Gold.Chemscore.Hbonds>
donor molecule, donor type, donor heavy atom, donor atom, acceptor molecule, acceptor atom, score
      P1  H  6896  6909       L1    24  0.70
      P1  H  7989  7998       L1    13  0.17
      P1  H 10752 10765       L1    15  0.65

> <Gold.Chemscore.Hbond.Weighted>
-7.0435

> <Gold.Chemscore.Metal.Weighted>
-0.0000

> <Gold.Chemscore.Lipo.Weighted>
-12.5451

> <Gold.Chemscore.Internal_Hbond.Weighted>
0.0000

> <Gold.Chemscore.DEClash.Weighted>
0.2455

> <Gold.Chemscore.DEInternal.Weighted>
2.6740

> <Gold.Chemscore.Rot.Weighted>
7.0009

> <Gold.Chemscore.Internal.Correction.Weighted>
   9.000000E+99

> <Gold.Protein.RotatedTorsions>
[ 6907 6896 6895 6894 ] final  -13.57 input  -60.11 | X-H torsion
[ 7974 7965 7964 7962 ] final -178.35 input  175.53 | X-H torsion
[ 8008 7997 7996 7995 ] final -130.24 input   59.86 | X-H torsion
[ 10167 10162 10161 10158 ] final -154.69 input  -65.29 | X-H torsion
[ 10718 10713 10712 10709 ] final  -27.29 input   66.30 | X-H torsion
[ 10763 10752 10751 10750 ] final  175.79 input  -60.55 | X-H torsion
[ 11005 11000 10999 10996 ] final -119.76 input  -57.11 | X-H torsion

> <Gold.Protein.ActiveResidues>
 VAL166  LYS551  ARG553  GLY616  TRP617  ASP618  TYR619  PRO620  LYS621  CYS622 
 ASP623  PHE694  ASN695  SER759  ASP760  ASP761  ALA762  ILE779  LEU786  VAL792 
 PHE793  MET794  SER795  GLU796  ALA797  LYS798  CYS799  TRP800  GLU811  SER814 

> <Gold.Protein.RotatedAtoms>
  151.3529  135.0888  159.9408 H   0  0  0  0  0  0  0  0  0  0  0  0  # atno 6907 bound_to 6896
  152.5182  133.9334  159.7602 H   0  0  0  0  0  0  0  0  0  0  0  0  # atno 6908 bound_to 6896
  150.9713  133.6287  159.2767 H   0  0  0  0  0  0  0  0  0  0  0  0  # atno 6909 bound_to 6896
  144.7130  140.0882  143.6422 H   0  0  0  0  0  0  0  0  0  0  0  0  # atno 7974 bound_to 7965
  155.2926  140.0449  157.3024 H   0  0  0  0  0  0  0  0  0  0  0  0  # atno 8008 bound_to 7997
  154.5533  140.2324  155.8418 H   0  0  0  0  0  0  0  0  0  0  0  0  # atno 8009 bound_to 7997
  156.1985  140.3032  155.9484 H   0  0  0  0  0  0  0  0  0  0  0  0  # atno 8010 bound_to 7997
  139.6993  143.9290  152.2421 H   0  0  0  0  0  0  0  0  0  0  0  0  # atno 10167 bound_to 10162
  156.4401  130.4462  149.7058 H   0  0  0  0  0  0  0  0  0  0  0  0  # atno 10718 bound_to 10713
  154.4723  135.2771  155.1633 H   0  0  0  0  0  0  0  0  0  0  0  0  # atno 10763 bound_to 10752
  154.3377  135.6177  153.5585 H   0  0  0  0  0  0  0  0  0  0  0  0  # atno 10764 bound_to 10752
  152.9865  135.5781  154.5107 H   0  0  0  0  0  0  0  0  0  0  0  0  # atno 10765 bound_to 10752
  141.0192  134.0150  157.3306 H   0  0  0  0  0  0  0  0  0  0  0  0  # atno 11005 bound_to 11000
  145.9643  139.2823  143.1137 LP  0  0  0  0  0  0  0  0  0  0  0  0  # atno 17320 bound_to 7965
  145.9186  140.9131  143.0416 LP  0  0  0  0  0  0  0  0  0  0  0  0  # atno 17321 bound_to 7965
  139.9128  144.6846  150.8544 LP  0  0  0  0  0  0  0  0  0  0  0  0  # atno 17342 bound_to 10162
  140.7705  143.3431  151.2167 LP  0  0  0  0  0  0  0  0  0  0  0  0  # atno 17343 bound_to 10162
  156.3926  130.7635  151.2637 LP  0  0  0  0  0  0  0  0  0  0  0  0  # atno 17370 bound_to 10713
  157.7506  131.0263  150.3957 LP  0  0  0  0  0  0  0  0  0  0  0  0  # atno 17371 bound_to 10713
  139.9135  135.0194  156.7790 LP  0  0  0  0  0  0  0  0  0  0  0  0  # atno 17394 bound_to 11000
  140.6602  133.9652  155.7801 LP  0  0  0  0  0  0  0  0  0  0  0  0  # atno 17395 bound_to 11000

$$$$
