#       Name:                AV-unprocessed.smi:334
#       Creating user name   scv26
#       Creation time:       Thu Mar 26 22:28:23 2020


#       File generated by GOLD software.
#

@<TRIPOS>MOLECULE
AV-unprocessed.smi:334
    50    52     1
SMALL
NO_CHARGES


@<TRIPOS>ATOM
      1 ****        -1.0915  -1.7203   2.1332 C.3            1 S1                 0.0000
      2 ****        -0.9557  -0.3998   1.3575 C.3            1 S1                 0.0000
      3 ****         0.4527  -0.0371   1.2410 N.am           1 S1                 0.0000
      4 ****         1.1666   0.6711   2.1324 C.2            1 S1                 0.0000
      5 ****         0.7090   1.0411   3.2128 O.2            1 S1                 0.0000
      6 ****         2.6137   1.0433   1.7646 C.3            1 S1                 0.0000
      7 ****         3.0043   0.7130   0.3809 N.am           1 S1                 0.0000
      8 ****         3.6997  -0.4963   0.1843 C.2            1 S1                 0.0000
      9 ****         4.0914  -0.9065  -1.0379 C.2            1 S1                 0.0000
     10 ****         4.7983  -2.1548  -1.2217 N.pl3          1 S1                 1.0000
     11 ****         5.1416  -2.4749  -2.3550 O.2            1 S1                 0.0000
     12 ****         5.0330  -2.8560  -0.2420 O.2            1 S1                -1.0000
     13 ****         3.7744  -0.0556  -2.1685 C.2            1 S1                 0.0000
     14 ****         3.1072   1.1010  -1.9878 C.2            1 S1                 0.0000
     15 ****         2.6787   1.5436  -0.6572 C.2            1 S1                 0.0000
     16 ****         2.0556   2.5913  -0.4871 O.2            1 S1                 0.0000
     17 ****        -1.5641  -0.4818  -0.0619 C.3            1 S1                 0.0000
     18 ****        -1.4620   0.8210  -0.8894 C.3            1 S1                 0.0000
     19 ****        -2.8948   1.0044  -1.4230 C.3            1 S1                 0.0000
     20 ****        -3.8009   1.4779  -0.2722 C.3            1 S1                 0.0000
     21 ****        -3.9470   0.2082   0.5862 C.3            1 S1                 0.0000
     22 ****        -3.0726  -0.8174  -0.1650 C.3            1 S1                 0.0000
     23 ****        -3.3562  -0.4360  -1.6150 C.3            1 S1                 0.0000
     24 ****        -2.1384  -1.9862   2.2805 H              1 S1                 0.0000
     25 ****        -0.6354  -1.6467   3.1208 H              1 S1                 0.0000
     26 ****        -0.6095  -2.5431   1.6045 H              1 S1                 0.0000
     27 ****        -1.4618   0.3878   1.9162 H              1 S1                 0.0000
     28 ****         0.9129  -0.3065   0.3838 H              1 S1                 0.0000
     29 ****         2.7531   2.1102   1.9477 H              1 S1                 0.0000
     30 ****         3.2783   0.5490   2.4746 H              1 S1                 0.0000
     31 ****         3.8810  -1.0609   1.0876 H              1 S1                 0.0000
     32 ****         4.0684  -0.3400  -3.1680 H              1 S1                 0.0000
     33 ****         2.8806   1.7192  -2.8441 H              1 S1                 0.0000
     34 ****        -1.0230  -1.2600  -0.6039 H              1 S1                 0.0000
     35 ****        -1.1402   1.6801  -0.2990 H              1 S1                 0.0000
     36 ****        -0.7496   0.6996  -1.7064 H              1 S1                 0.0000
     37 ****        -2.9536   1.6320  -2.3127 H              1 S1                 0.0000
     38 ****        -3.3646   2.3083   0.2842 H              1 S1                 0.0000
     39 ****        -4.7725   1.8008  -0.6482 H              1 S1                 0.0000
     40 ****        -3.6493   0.3604   1.6226 H              1 S1                 0.0000
     41 ****        -4.9875  -0.1190   0.5973 H              1 S1                 0.0000
     42 ****        -3.3078  -1.8534   0.0805 H              1 S1                 0.0000
     43 ****        -4.4096  -0.5198  -1.8883 H              1 S1                 0.0000
     44 ****        -2.7549  -0.9909  -2.3376 H              1 S1                 0.0000
     45 ****        -0.2335   0.8164   3.4599 LP             1 S1                 0.0000
     46 ****         1.2797   1.5666   3.8439 LP             1 S1                 0.0000
     47 ****         4.9317  -1.8771  -3.1287 LP             1 S1                 0.0000
     48 ****         5.6315  -3.3337  -2.5053 LP             1 S1                 0.0000
     49 ****         1.7703   2.8596   0.4330 LP             1 S1                 0.0000
     50 ****         1.8348   3.1743  -1.2690 LP             1 S1                 0.0000
@<TRIPOS>BOND
    1    1    2 1     
    2    1   24 1     
    3    1   25 1     
    4    1   26 1     
    5    2    3 1     
    6    2   17 1     
    7    2   27 1     
    8    3    4 am    
    9    3   28 1     
   10    4    5 2     
   11    4    6 1     
   12    6    7 1     
   13    6   29 1     
   14    6   30 1     
   15    7   15 am    
   16    7    8 1     
   17    8    9 2     
   18    8   31 1     
   19    9   10 1     
   20    9   13 1     
   21   10   11 2     
   22   10   12 1     
   23   13   14 2     
   24   13   32 1     
   25   14   15 1     
   26   14   33 1     
   27   15   16 2     
   28   17   22 1     
   29   17   18 1     
   30   17   34 1     
   31   18   19 1     
   32   18   35 1     
   33   18   36 1     
   34   19   23 1     
   35   19   20 1     
   36   19   37 1     
   37   20   21 1     
   38   20   38 1     
   39   20   39 1     
   40   21   22 1     
   41   21   40 1     
   42   21   41 1     
   43   22   23 1     
   44   22   42 1     
   45   23   43 1     
   46   23   44 1     
   47    5   45 1     
   48    5   46 1     
   49   11   47 1     
   50   11   48 1     
   51   16   49 1     
   52   16   50 1     
@<TRIPOS>SUBSTRUCTURE
      1 S1             1
@<TRIPOS>SET
LONE_PAIRS      STATIC     ATOMS    <user>   **** ""
7 45 46 47 48 12 49 50
DONOR_HYDROGENS      STATIC     ATOMS    <user>   **** ""
1 28
ATOM$BLUE        STATIC     ATOMS    COLORGROUP SYSTEM
7 45 46 47 48 12 49 50
ATOM$RED        STATIC     ATOMS    COLORGROUP SYSTEM
1 28
