AV-unprocessed.smi:112|AV-procd|sdf|1090|dock7
  -GOLD-   2262018193D 1   1.00000     0.00000
 Structure written by MMmdl.
 54 57  0  0  0  0  0  0  0  0  3 V2000
  151.6641  138.7714  157.7266 C   0  0  0  0  0  0  0  0  0  0  0  0
  152.1984  139.4866  158.9573 C   0  0  0  0  0  0  0  0  0  0  0  0
  151.8770  140.7697  159.2409 C   0  0  0  0  0  0  0  0  0  0  0  0
  152.3407  141.4504  160.3505 N   0  0  0  0  0  0  0  0  0  0  0  0
  151.9590  142.9045  160.5402 C   0  0  1  0  0  0  0  0  0  0  0  0
  152.5659  143.8461  159.4898 C   0  0  0  0  0  0  0  0  0  0  0  0
  151.4643  144.8748  159.3257 C   0  0  2  0  0  0  0  0  0  0  0  0
  151.6070  145.9059  160.2858 O   0  0  0  0  0  0  0  0  0  0  0  0
  150.1951  144.0367  159.5494 C   0  0  2  0  0  0  0  0  0  0  0  0
  148.9365  144.7834  160.0251 C   0  0  0  0  0  0  0  0  0  0  0  0
  147.8605  144.5492  159.1412 O   0  0  0  0  0  0  0  0  0  0  0  0
  150.5677  143.0222  160.4803 O   0  0  0  0  0  0  0  0  0  0  0  0
  153.2360  140.8078  161.2345 C   0  0  0  0  0  0  0  0  0  0  0  0
  153.7166  141.4029  162.2003 O   0  0  0  0  0  0  0  0  0  0  0  0
  153.5787  139.4610  160.9762 N   0  0  0  0  0  0  0  0  0  0  0  0
  154.5156  138.7777  161.8974 C   0  0  0  0  0  0  0  0  0  0  0  0
  153.9334  137.5003  162.5427 C   0  0  0  0  0  0  0  0  0  0  0  0
  153.1040  137.6151  163.4458 O   0  0  0  0  0  0  0  0  0  0  0  0
  154.3674  136.3015  162.0796 N   0  0  0  0  0  0  0  0  0  0  0  0
  155.3683  136.1582  161.0081 C   0  0  0  0  0  0  0  0  0  0  0  0
  155.5770  134.6410  160.8095 C   0  0  0  0  0  0  0  0  0  0  0  0
  154.6318  134.0354  161.8048 C   0  0  0  0  0  0  0  0  0  0  0  0
  154.4159  132.6655  162.0305 C   0  0  0  0  0  0  0  0  0  0  0  0
  153.4770  132.2740  163.0171 C   0  0  0  0  0  0  0  0  0  0  0  0
  153.2244  130.8438  163.2822 N   0  3  0  0  0  0  0  0  0  0  0  0
  153.9591  130.0156  162.7536 O   0  0  0  0  0  0  0  0  0  0  0  0
  152.2902  130.5459  164.0194 O   0  5  0  0  0  0  0  0  0  0  0  0
  152.7836  133.2762  163.7464 C   0  0  0  0  0  0  0  0  0  0  0  0
  153.0134  134.6487  163.5068 C   0  0  0  0  0  0  0  0  0  0  0  0
  153.9535  135.0160  162.5194 C   0  0  0  0  0  0  0  0  0  0  0  0
  153.0942  138.7500  159.8510 C   0  0  0  0  0  0  0  0  0  0  0  0
  153.4328  137.5814  159.6527 O   0  0  0  0  0  0  0  0  0  0  0  0
  151.0120  139.4138  157.1342 H   0  0  0  0  0  0  0  0  0  0  0  0
  151.0903  137.8907  158.0167 H   0  0  0  0  0  0  0  0  0  0  0  0
  152.4860  138.4497  157.0861 H   0  0  0  0  0  0  0  0  0  0  0  0
  151.2171  141.2872  158.5591 H   0  0  0  0  0  0  0  0  0  0  0  0
  152.2712  143.1762  161.5490 H   0  0  0  0  0  0  0  0  0  0  0  0
  153.5165  144.2573  159.8312 H   0  0  0  0  0  0  0  0  0  0  0  0
  152.7379  143.3277  158.5478 H   0  0  0  0  0  0  0  0  0  0  0  0
  151.4787  145.3268  158.3336 H   0  0  0  0  0  0  0  0  0  0  0  0
  151.7346  146.7252  159.8327 H   0  0  0  0  0  0  0  0  0  0  0  0
  149.9598  143.5226  158.6165 H   0  0  0  0  0  0  0  0  0  0  0  0
  148.6463  144.4227  161.0120 H   0  0  0  0  0  0  0  0  0  0  0  0
  149.1133  145.8547  160.1213 H   0  0  0  0  0  0  0  0  0  0  0  0
  147.8586  145.2243  158.4802 H   0  0  0  0  0  0  0  0  0  0  0  0
  155.4389  138.5197  161.3769 H   0  0  0  0  0  0  0  0  0  0  0  0
  154.8369  139.4603  162.6850 H   0  0  0  0  0  0  0  0  0  0  0  0
  155.0100  136.6152  160.0848 H   0  0  0  0  0  0  0  0  0  0  0  0
  156.3087  136.6364  161.2855 H   0  0  0  0  0  0  0  0  0  0  0  0
  155.3239  134.3237  159.7975 H   0  0  0  0  0  0  0  0  0  0  0  0
  156.6020  134.3401  161.0283 H   0  0  0  0  0  0  0  0  0  0  0  0
  154.9633  131.9350  161.4532 H   0  0  0  0  0  0  0  0  0  0  0  0
  152.0633  133.0001  164.5022 H   0  0  0  0  0  0  0  0  0  0  0  0
  152.4645  135.3768  164.0825 H   0  0  0  0  0  0  0  0  0  0  0  0
  1  2  1  0  0  0  0
  1 33  1  0  0  0  0
  1 34  1  0  0  0  0
  1 35  1  0  0  0  0
  2 31  1  0  0  0  0
  2  3  2  0  0  0  0
  3  4  1  0  0  0  0
  3 36  1  0  0  0  0
  4  5  1  0  0  0  0
  4 13  1  0  0  0  0
  5 12  1  0  0  0  0
  5  6  1  0  0  0  0
  5 37  1  0  0  0  0
  6  7  1  0  0  0  0
  6 38  1  0  0  0  0
  6 39  1  0  0  0  0
  7  8  1  0  0  0  0
  7  9  1  0  0  0  0
  7 40  1  0  0  0  0
  8 41  1  0  0  0  0
  9 10  1  0  0  0  0
  9 12  1  0  0  0  0
  9 42  1  0  0  0  0
 10 11  1  0  0  0  0
 10 43  1  0  0  0  0
 10 44  1  0  0  0  0
 11 45  1  0  0  0  0
 13 14  2  0  0  0  0
 13 15  1  0  0  0  0
 15 16  1  0  0  0  0
 15 31  1  0  0  0  0
 16 17  1  0  0  0  0
 16 46  1  0  0  0  0
 16 47  1  0  0  0  0
 17 18  2  0  0  0  0
 17 19  1  0  0  0  0
 19 30  1  0  0  0  0
 19 20  1  0  0  0  0
 20 21  1  0  0  0  0
 20 48  1  0  0  0  0
 20 49  1  0  0  0  0
 21 22  1  0  0  0  0
 21 50  1  0  0  0  0
 21 51  1  0  0  0  0
 22 30  2  0  0  0  0
 22 23  1  0  0  0  0
 23 24  2  0  0  0  0
 23 52  1  0  0  0  0
 24 25  1  0  0  0  0
 24 28  1  0  0  0  0
 25 26  2  0  0  0  0
 25 27  1  0  0  0  0
 28 29  2  0  0  0  0
 28 53  1  0  0  0  0
 29 30  1  0  0  0  0
 29 54  1  0  0  0  0
 31 32  2  0  0  0  0
M  CHG  1  25   1
M  CHG  1  27  -1
M  END
> <s_m_source_file>
AV-unprocessed.smi

> <i_m_source_file_index>
112

> <i_lp_mmshare_version>
43012

> <i_f3d_flags>
0

> <s_epik_input>
W09IXVtDSDJdW0NAQEhdKE8xKVtDQEhdKFtPSF0pW0NIMl1bQ0BIXTFuKFtjSF1jMltDSDNdKWMoPU8pbihjMj1PKVtDSDJdQyg9TylOKFtDSDJdW0NIMl0zKWMoYzM0KVtjSF1bY0hdYyhbY0hdNClbTitdKD1PKVtPLV0=

> <s_epik_cmdline>
J2VwaWtfcHl0aG9uJywgJy1waCcsICc3LjAnLCAnLXRuJywgJzgnLCAnLW1hJywgJzIwMCcsICctbWV0YWxfYmluZGluZycsICctaW1hZScsICc8aW5maWxlLm1hZT4nLCAnLW9tYWUnLCAnPG91dGZpbGUubWFlPic=

> <r_lp_tautomer_probability>
1

> <r_epik_Ionization_Penalty>
2.5696e-07

> <r_epik_Ionization_Penalty_Charging>
1.04886e-08

> <r_epik_Ionization_Penalty_Neutral>
2.46472e-07

> <r_epik_State_Penalty>
-0

> <r_epik_Charging_Adjusted_Penalty>
1.04886e-08

> <i_epik_Tot_Q>
0

> <i_epik_Tot_abs_Q>
2

> <r_epik_Metal_State_Penalty>
-0

> <b_epik_Metal_Only>
0

> <s_epik_Chemistry_Notes>
This compound contains an acetal/aminal-like group ( X-CH(R)-Y where X, Y are N, S, or O) that may be acid/base labile, releasing an aldehyde.

> <s_lp_Force_Field>
OPLS_2005

> <r_lp_Energy>
55.491

> <b_lp_Chiralities_Consistent>
1

> <s_lp_Variant>
AV-unprocessed.smi:112-8

> <Gold.Version>
5.8.1

> <Gold.Id.Protein>
6NUR|6NUR_protein|mol2

> <Gold.PLP.Fitness>
51.6995

> <Gold.PLP.PLP>
-50.9063

> <Gold.PLP.part.hbond>
-4.0000

> <Gold.PLP.part.metal>
0.0000

> <Gold.PLP.part.buried>
-4.8655

> <Gold.PLP.part.nonpolar>
-42.1841

> <Gold.PLP.part.repulsive>
0.1061

> <Gold.PLP.ligand.clash>
0.0000

> <Gold.PLP.ligand.torsion>
1.1247

> <Gold.PLP.Chemscore.Hbond>
1.0000

> <Gold.PLP.Chemscore.CHOScore>
0.0000

> <Gold.PLP.Chemscore.Metal>
0.0000

> <Gold.Chemscore.Hbonds>
donor molecule, donor type, donor heavy atom, donor atom, acceptor molecule, acceptor atom, score
      L1  H    11    45       P1  8029  0.68

> <Gold.PLP.Chemscore.Internal.Correction>
0.0427

> <Gold.Rescore>
     Score         DG    S(hbond)    S(metal)    S(lipo)     H(rot)  DE(clash)    DE(int)     intcor
      7.22     -11.81       1.00        0.00      97.59       3.29       1.32       3.27       ----

> <Gold.Chemscore.Fitness>
7.2230

> <Gold.Chemscore.DG>
-11.8115

> <Gold.Chemscore.ZeroCoef>
-5.4800

> <Gold.Chemscore.Hbond>
1.0001

> <Gold.Chemscore.Metal>
0.0000

> <Gold.Chemscore.Lipo>
97.5877

> <Gold.Chemscore.Internal_Hbond>
0.0000

> <Gold.Chemscore.DEClash>
1.3175

> <Gold.Chemscore.DEInternal>
3.2710

> <Gold.Chemscore.Rot>
3.2916

> <Gold.Chemscore.Internal.Correction>
   9.000000E+99

> <Gold.Chemscore.Hbonds>
donor molecule, donor type, donor heavy atom, donor atom, acceptor molecule, acceptor atom, score
      L1  H    11    45       P1  8029  0.67

> <Gold.Chemscore.Hbond.Weighted>
-3.3402

> <Gold.Chemscore.Metal.Weighted>
-0.0000

> <Gold.Chemscore.Lipo.Weighted>
-11.4178

> <Gold.Chemscore.Internal_Hbond.Weighted>
0.0000

> <Gold.Chemscore.DEClash.Weighted>
1.3175

> <Gold.Chemscore.DEInternal.Weighted>
3.2710

> <Gold.Chemscore.Rot.Weighted>
8.4265

> <Gold.Chemscore.Internal.Correction.Weighted>
   9.000000E+99

> <Gold.Protein.RotatedTorsions>
[ 6907 6896 6895 6894 ] final  -23.36 input  -60.11 | X-H torsion
[ 7974 7965 7964 7962 ] final  -29.87 input  175.53 | X-H torsion
[ 8008 7997 7996 7995 ] final   33.24 input   59.86 | X-H torsion
[ 10167 10162 10161 10158 ] final  -22.11 input  -65.29 | X-H torsion
[ 10718 10713 10712 10709 ] final  -72.43 input   66.30 | X-H torsion
[ 10763 10752 10751 10750 ] final -126.72 input  -60.55 | X-H torsion
[ 11005 11000 10999 10996 ] final -130.30 input  -57.11 | X-H torsion

> <Gold.Protein.ActiveResidues>
 VAL166  LYS551  ARG553  GLY616  TRP617  ASP618  TYR619  PRO620  LYS621  CYS622 
 ASP623  PHE694  ASN695  SER759  ASP760  ASP761  ALA762  ILE779  LEU786  VAL792 
 PHE793  MET794  SER795  GLU796  ALA797  LYS798  CYS799  TRP800  GLU811  SER814 

> <Gold.Protein.RotatedAtoms>
  151.2051  135.0458  159.8887 H   0  0  0  0  0  0  0  0  0  0  0  0  # atno 6907 bound_to 6896
  152.5429  134.0807  159.8244 H   0  0  0  0  0  0  0  0  0  0  0  0  # atno 6908 bound_to 6896
  151.0952  133.5237  159.2644 H   0  0  0  0  0  0  0  0  0  0  0  0  # atno 6909 bound_to 6896
  146.1185  140.5468  142.8746 H   0  0  0  0  0  0  0  0  0  0  0  0  # atno 7974 bound_to 7965
  155.1354  140.3261  155.4464 H   0  0  0  0  0  0  0  0  0  0  0  0  # atno 8008 bound_to 7997
  156.2621  140.2003  156.6421 H   0  0  0  0  0  0  0  0  0  0  0  0  # atno 8009 bound_to 7997
  154.6581  140.0550  157.0018 H   0  0  0  0  0  0  0  0  0  0  0  0  # atno 8010 bound_to 7997
  140.7285  143.4565  151.0440 H   0  0  0  0  0  0  0  0  0  0  0  0  # atno 10167 bound_to 10162
  156.0320  130.4372  150.2592 H   0  0  0  0  0  0  0  0  0  0  0  0  # atno 10718 bound_to 10713
  154.8747  135.3986  154.3476 H   0  0  0  0  0  0  0  0  0  0  0  0  # atno 10763 bound_to 10752
  153.4267  135.7024  153.6263 H   0  0  0  0  0  0  0  0  0  0  0  0  # atno 10764 bound_to 10752
  153.4903  135.3750  155.2458 H   0  0  0  0  0  0  0  0  0  0  0  0  # atno 10765 bound_to 10752
  140.9358  134.1259  157.4195 H   0  0  0  0  0  0  0  0  0  0  0  0  # atno 11005 bound_to 11000
  144.7575  140.5342  143.6759 LP  0  0  0  0  0  0  0  0  0  0  0  0  # atno 17320 bound_to 7965
  145.5517  139.1477  143.3390 LP  0  0  0  0  0  0  0  0  0  0  0  0  # atno 17321 bound_to 7965
  139.8246  143.7773  152.3178 LP  0  0  0  0  0  0  0  0  0  0  0  0  # atno 17342 bound_to 10162
  139.7868  144.7425  151.0011 LP  0  0  0  0  0  0  0  0  0  0  0  0  # atno 17343 bound_to 10162
  157.0694  131.0112  151.3195 LP  0  0  0  0  0  0  0  0  0  0  0  0  # atno 17370 bound_to 10713
  157.5011  130.7880  149.7605 LP  0  0  0  0  0  0  0  0  0  0  0  0  # atno 17371 bound_to 10713
  139.8807  135.0020  156.6102 LP  0  0  0  0  0  0  0  0  0  0  0  0  # atno 17394 bound_to 11000
  140.7801  133.8667  155.8561 LP  0  0  0  0  0  0  0  0  0  0  0  0  # atno 17395 bound_to 11000

$$$$
