AV-unprocessed.smi:1265|AV-procd|sdf|5319|dock2
  -GOLD-   22720 4443D 1   1.00000     0.00000
 Structure written by MMmdl.
 45 47  0  0  0  0  0  0  0  0  2 V2000
  144.8013  135.5204  153.4074 O   0  0  0  0  0  0  0  0  0  0  0  0
  145.8959  135.6676  152.8662 C   0  0  0  0  0  0  0  0  0  0  0  0
  146.8019  136.5684  153.2738 N   0  0  0  0  0  0  0  0  0  0  0  0
  146.6412  137.4832  154.4045 C   0  0  0  0  0  0  0  0  0  0  0  0
  147.8027  138.5204  154.5371 C   0  0  1  0  0  0  0  0  0  0  0  0
  149.1199  137.7849  154.4640 N   0  3  0  0  0  0  0  0  0  0  0  0
  150.3607  138.6010  154.5844 C   0  0  0  0  0  0  0  0  0  0  0  0
  151.6163  137.7337  154.3822 C   0  0  0  0  0  0  0  0  0  0  0  0
  151.6151  136.6442  155.2922 O   0  0  0  0  0  0  0  0  0  0  0  0
  150.4936  135.7986  155.0890 C   0  0  0  0  0  0  0  0  0  0  0  0
  149.2072  136.5940  155.3564 C   0  0  0  0  0  0  0  0  0  0  0  0
  147.6509  139.6263  153.4541 C   0  0  0  0  0  0  0  0  0  0  0  0
  146.4395  140.4940  153.8090 C   0  0  0  0  0  0  0  0  0  0  0  0
  146.3668  140.5830  155.6146 S   0  0  0  0  0  0  0  0  0  0  0  0
  147.6430  139.3158  155.8542 C   0  0  0  0  0  0  0  0  0  0  0  0
  146.3516  134.9677  151.8120 N   0  0  0  0  0  0  0  0  0  0  0  0
  145.7154  133.9372  151.0646 C   0  0  0  0  0  0  0  0  0  0  0  0
  146.5407  132.9333  150.5161 C   0  0  0  0  0  0  0  0  0  0  0  0
  145.9488  131.8997  149.7631 C   0  0  0  0  0  0  0  0  0  0  0  0
  144.6222  131.8182  149.5317 N   0  0  0  0  0  0  0  0  0  0  0  0
  143.8331  132.7826  150.0497 C   0  0  0  0  0  0  0  0  0  0  0  0
  144.3229  133.8602  150.8152 C   0  0  0  0  0  0  0  0  0  0  0  0
  147.6831  136.6046  152.7826 H   0  0  0  0  0  0  0  0  0  0  0  0
  145.6655  137.9668  154.3620 H   0  0  0  0  0  0  0  0  0  0  0  0
  146.5840  136.8643  155.2989 H   0  0  0  0  0  0  0  0  0  0  0  0
  150.3953  139.3766  153.8208 H   0  0  0  0  0  0  0  0  0  0  0  0
  150.3941  139.0903  155.5586 H   0  0  0  0  0  0  0  0  0  0  0  0
  151.6696  137.3635  153.3570 H   0  0  0  0  0  0  0  0  0  0  0  0
  152.5135  138.3301  154.5486 H   0  0  0  0  0  0  0  0  0  0  0  0
  150.5005  135.3892  154.0775 H   0  0  0  0  0  0  0  0  0  0  0  0
  150.5614  134.9541  155.7751 H   0  0  0  0  0  0  0  0  0  0  0  0
  149.1954  136.9056  156.4016 H   0  0  0  0  0  0  0  0  0  0  0  0
  148.3557  135.9314  155.2124 H   0  0  0  0  0  0  0  0  0  0  0  0
  148.4988  140.3096  153.4709 H   0  0  0  0  0  0  0  0  0  0  0  0
  147.5879  139.2308  152.4409 H   0  0  0  0  0  0  0  0  0  0  0  0
  146.5150  141.4919  153.3764 H   0  0  0  0  0  0  0  0  0  0  0  0
  145.5166  140.0484  153.4375 H   0  0  0  0  0  0  0  0  0  0  0  0
  147.3916  138.6829  156.7061 H   0  0  0  0  0  0  0  0  0  0  0  0
  148.5673  139.8385  156.1010 H   0  0  0  0  0  0  0  0  0  0  0  0
  147.2934  135.1817  151.5188 H   0  0  0  0  0  0  0  0  0  0  0  0
  147.6101  132.9476  150.6688 H   0  0  0  0  0  0  0  0  0  0  0  0
  146.5588  131.1181  149.3345 H   0  0  0  0  0  0  0  0  0  0  0  0
  142.7763  132.6956  149.8452 H   0  0  0  0  0  0  0  0  0  0  0  0
  143.6224  134.5935  151.1811 H   0  0  0  0  0  0  0  0  0  0  0  0
  149.1519  137.4217  153.5221 H   0  0  0  0  0  0  0  0  0  0  0  0
  1  2  2  0  0  0  0
  2  3  1  0  0  0  0
  2 16  1  0  0  0  0
  3  4  1  0  0  0  0
  3 23  1  0  0  0  0
  4  5  1  0  0  0  0
  4 24  1  0  0  0  0
  4 25  1  0  0  0  0
  5 15  1  0  0  0  0
  5  6  1  0  0  0  0
  5 12  1  0  0  0  0
  6 11  1  0  0  0  0
  6  7  1  0  0  0  0
  6 45  1  0  0  0  0
  7  8  1  0  0  0  0
  7 26  1  0  0  0  0
  7 27  1  0  0  0  0
  8  9  1  0  0  0  0
  8 28  1  0  0  0  0
  8 29  1  0  0  0  0
  9 10  1  0  0  0  0
 10 11  1  0  0  0  0
 10 30  1  0  0  0  0
 10 31  1  0  0  0  0
 11 32  1  0  0  0  0
 11 33  1  0  0  0  0
 12 13  1  0  0  0  0
 12 34  1  0  0  0  0
 12 35  1  0  0  0  0
 13 14  1  0  0  0  0
 13 36  1  0  0  0  0
 13 37  1  0  0  0  0
 14 15  1  0  0  0  0
 15 38  1  0  0  0  0
 15 39  1  0  0  0  0
 16 17  1  0  0  0  0
 16 40  1  0  0  0  0
 17 22  1  0  0  0  0
 17 18  2  0  0  0  0
 18 19  1  0  0  0  0
 18 41  1  0  0  0  0
 19 20  2  0  0  0  0
 19 42  1  0  0  0  0
 20 21  1  0  0  0  0
 21 22  2  0  0  0  0
 21 43  1  0  0  0  0
 22 44  1  0  0  0  0
M  CHG  1   6   1
M  END
> <s_m_source_file>
AV-unprocessed.smi

> <i_m_source_file_index>
1265

> <i_lp_mmshare_version>
43012

> <i_f3d_flags>
0

> <s_epik_input>
W2NIXTFbY0hdbltjSF1bY0hdYzFbTkhdQyg9TylbTkhdW0NIMl1bQ0BdMihbQ0gyXVtDSDJdU1tDSDJdMilOM1tDSDJdW0NIMl1PW0NIMl1bQ0gyXTM=

> <s_epik_cmdline>
J2VwaWtfcHl0aG9uJywgJy1waCcsICc3LjAnLCAnLXRuJywgJzgnLCAnLW1hJywgJzIwMCcsICctbWV0YWxfYmluZGluZycsICctaW1hZScsICc8aW5maWxlLm1hZT4nLCAnLW9tYWUnLCAnPG91dGZpbGUubWFlPic=

> <r_epik_Ionization_Penalty>
2.1318

> <r_epik_Ionization_Penalty_Charging>
2.03219

> <r_epik_Ionization_Penalty_Neutral>
0.0996087

> <r_epik_State_Penalty>
2.24194

> <r_epik_Charging_Adjusted_Penalty>
4.27413

> <i_epik_Tot_Q>
1

> <i_epik_Tot_abs_Q>
1

> <r_epik_Metal_State_Penalty>
2.2363

> <b_epik_Metal_Only>
0

> <s_lp_Force_Field>
OPLS_2005

> <r_lp_Energy>
49.9245

> <b_lp_Chiralities_Consistent>
1

> <s_lp_Variant>
AV-unprocessed.smi:1265-5

> <Gold.Version>
5.8.1

> <Gold.Id.Protein>
6NUR|6NUR_protein|mol2

> <Gold.PLP.Fitness>
50.6808

> <Gold.PLP.PLP>
-31.3589

> <Gold.PLP.part.hbond>
-5.0000

> <Gold.PLP.part.metal>
0.0000

> <Gold.PLP.part.buried>
-1.9700

> <Gold.PLP.part.nonpolar>
-26.1747

> <Gold.PLP.part.repulsive>
0.3556

> <Gold.PLP.ligand.clash>
0.0000

> <Gold.PLP.ligand.torsion>
0.4267

> <Gold.PLP.Chemscore.Hbond>
5.0664

> <Gold.PLP.Chemscore.CHOScore>
1.6180

> <Gold.PLP.Chemscore.Metal>
0.0000

> <Gold.Chemscore.Hbonds>
donor molecule, donor type, donor heavy atom, donor atom, acceptor molecule, acceptor atom, score
      L1  H     3    23       P1  7948  1.00
      L1  H     6    45       P1  7948  1.98
      L1  H    16    40       P1  7948  0.98
      P1  H 10752 10764       L1     9  0.85
      P1  H 10785 10796       L1    20  0.13
      L1  C    19    42       P1 10747  0.67
      L1  C    21    43       P1 10186  1.00

> <Gold.PLP.Chemscore.Internal.Correction>
0.1221

> <Gold.Rescore>
     Score         DG    S(hbond)    S(metal)    S(lipo)     H(rot)  DE(clash)    DE(int)     intcor
     21.77     -22.46       3.19        0.00      86.46       1.49       0.21       0.48       ----

> <Gold.Chemscore.Fitness>
21.7729

> <Gold.Chemscore.DG>
-22.4623

> <Gold.Chemscore.ZeroCoef>
-5.4800

> <Gold.Chemscore.Hbond>
3.1947

> <Gold.Chemscore.Metal>
0.0000

> <Gold.Chemscore.Lipo>
86.4643

> <Gold.Chemscore.Internal_Hbond>
0.0000

> <Gold.Chemscore.DEClash>
0.2070

> <Gold.Chemscore.DEInternal>
0.4825

> <Gold.Chemscore.Rot>
1.4860

> <Gold.Chemscore.Internal.Correction>
   9.000000E+99

> <Gold.Chemscore.Hbonds>
donor molecule, donor type, donor heavy atom, donor atom, acceptor molecule, acceptor atom, score
      L1  H     3    23       P1  7948  0.99
      L1  H     6    45       P1  7948  0.93
      L1  H    16    40       P1  7948  0.79
      P1  H 10752 10764       L1     9  0.04
      P1  H 10785 10796       L1    20  0.08

> <Gold.Chemscore.Hbond.Weighted>
-10.6702

> <Gold.Chemscore.Metal.Weighted>
-0.0000

> <Gold.Chemscore.Lipo.Weighted>
-10.1163

> <Gold.Chemscore.Internal_Hbond.Weighted>
0.0000

> <Gold.Chemscore.DEClash.Weighted>
0.2070

> <Gold.Chemscore.DEInternal.Weighted>
0.4825

> <Gold.Chemscore.Rot.Weighted>
3.8042

> <Gold.Chemscore.Internal.Correction.Weighted>
   9.000000E+99

> <Gold.Protein.RotatedTorsions>
[ 6907 6896 6895 6894 ] final -145.00 input  -60.11 | X-H torsion
[ 7974 7965 7964 7962 ] final  105.20 input  175.53 | X-H torsion
[ 8008 7997 7996 7995 ] final  164.17 input   59.86 | X-H torsion
[ 10167 10162 10161 10158 ] final  111.34 input  -65.29 | X-H torsion
[ 10718 10713 10712 10709 ] final  -65.34 input   66.30 | X-H torsion
[ 10763 10752 10751 10750 ] final  -69.38 input  -60.55 | X-H torsion
[ 11005 11000 10999 10996 ] final  125.81 input  -57.11 | X-H torsion

> <Gold.Protein.ActiveResidues>
 VAL166  LYS551  ARG553  GLY616  TRP617  ASP618  TYR619  PRO620  LYS621  CYS622 
 ASP623  PHE694  ASN695  SER759  ASP760  ASP761  ALA762  ILE779  LEU786  VAL792 
 PHE793  MET794  SER795  GLU796  ALA797  LYS798  CYS799  TRP800  GLU811  SER814 

> <Gold.Protein.RotatedAtoms>
  151.1217  133.5099  159.2601 H   0  0  0  0  0  0  0  0  0  0  0  0  # atno 6907 bound_to 6896
  151.1854  135.0379  159.8820 H   0  0  0  0  0  0  0  0  0  0  0  0  # atno 6908 bound_to 6896
  152.5456  134.1064  159.8393 H   0  0  0  0  0  0  0  0  0  0  0  0  # atno 6909 bound_to 6896
  145.3228  139.2508  143.3702 H   0  0  0  0  0  0  0  0  0  0  0  0  # atno 7974 bound_to 7965
  156.1901  140.1704  156.8109 H   0  0  0  0  0  0  0  0  0  0  0  0  # atno 8008 bound_to 7997
  154.5461  140.0727  156.8622 H   0  0  0  0  0  0  0  0  0  0  0  0  # atno 8009 bound_to 7997
  155.3120  140.3368  155.4246 H   0  0  0  0  0  0  0  0  0  0  0  0  # atno 8010 bound_to 7997
  139.6618  144.7128  151.1850 H   0  0  0  0  0  0  0  0  0  0  0  0  # atno 10167 bound_to 10162
  156.0675  130.4246  150.1550 H   0  0  0  0  0  0  0  0  0  0  0  0  # atno 10718 bound_to 10713
  154.4026  135.6027  153.5906 H   0  0  0  0  0  0  0  0  0  0  0  0  # atno 10763 bound_to 10752
  152.9788  135.5910  154.4166 H   0  0  0  0  0  0  0  0  0  0  0  0  # atno 10764 bound_to 10752
  154.3967  135.2842  155.2100 H   0  0  0  0  0  0  0  0  0  0  0  0  # atno 10765 bound_to 10752
  139.9425  134.9634  156.8614 H   0  0  0  0  0  0  0  0  0  0  0  0  # atno 11005 bound_to 11000
  146.3076  140.3789  142.8682 LP  0  0  0  0  0  0  0  0  0  0  0  0  # atno 17320 bound_to 7965
  144.8926  140.7542  143.5917 LP  0  0  0  0  0  0  0  0  0  0  0  0  # atno 17321 bound_to 7965
  140.7583  143.5982  150.8727 LP  0  0  0  0  0  0  0  0  0  0  0  0  # atno 17342 bound_to 10162
  139.9640  143.6132  152.2994 LP  0  0  0  0  0  0  0  0  0  0  0  0  # atno 17343 bound_to 10162
  156.9608  130.9804  151.3479 LP  0  0  0  0  0  0  0  0  0  0  0  0  # atno 17370 bound_to 10713
  157.5726  130.8321  149.8412 LP  0  0  0  0  0  0  0  0  0  0  0  0  # atno 17371 bound_to 10713
  140.5916  134.0256  155.7502 LP  0  0  0  0  0  0  0  0  0  0  0  0  # atno 17394 bound_to 11000
  141.1064  133.9686  157.2988 LP  0  0  0  0  0  0  0  0  0  0  0  0  # atno 17395 bound_to 11000

$$$$
