#       Name:                AV-unprocessed.smi:1127
#       Creating user name   scv26
#       Creation time:       Fri Mar 27 03:40:44 2020


#       File generated by GOLD software.
#

@<TRIPOS>MOLECULE
AV-unprocessed.smi:1127
    46    47     1
SMALL
NO_CHARGES


@<TRIPOS>ATOM
      1 ****        -1.4507   2.1931  -1.0577 C.3            1 S1                 0.0000
      2 ****        -1.6091   1.1322  -2.5708 S.o            1 S1                 0.0000
      3 ****        -2.0285   2.0478  -3.7223 O.2            1 S1                 0.0000
      4 ****        -3.1649   0.3339  -2.0389 C.2            1 S1                 0.0000
      5 ****        -4.3149   0.9908  -1.8602 N.2            1 S1                 0.0000
      6 ****        -5.2164   0.0265  -1.4515 N.2            1 S1                 0.0000
      7 ****        -4.5135  -1.1079  -1.4307 C.2            1 S1                 0.0000
      8 ****        -3.2255  -0.9879  -1.7897 N.pl3          1 S1                 0.0000
      9 ****        -2.2044  -2.0176  -1.8660 C.3            1 S1                 0.0000
     10 ****        -1.3987  -2.0822  -0.5691 C.2            1 S1                 0.0000
     11 ****        -1.8350  -2.7086   0.3959 O.2            1 S1                 0.0000
     12 ****        -0.2335  -1.4168  -0.5590 N.am           1 S1                 0.0000
     13 ****         0.6860  -1.3140   0.5720 C.3            1 S1                 0.0000
     14 ****         0.1974  -0.1983   1.5244 C.3            1 S1                 0.0000
     15 ****         0.9762  -0.0075   2.8400 C.3            1 S1                 0.0000
     16 ****         2.4229   0.5183   2.7432 C.3            1 S1                 0.0000
     17 ****         2.6700   1.6255   1.6981 C.3            1 S1                 0.0000
     18 ****         3.3152   1.1380   0.3845 C.3            1 S1                 0.0000
     19 ****         2.4394   0.2682  -0.5388 C.3            1 S1                 0.0000
     20 ****         2.1158  -1.1348   0.0172 C.3            1 S1                 0.0000
     21 ****        -1.8547   1.6865  -0.1809 H              1 S1                 0.0000
     22 ****        -1.9896   3.1304  -1.1960 H              1 S1                 0.0000
     23 ****        -0.4021   2.4223  -0.8692 H              1 S1                 0.0000
     24 ****        -4.9511  -2.0528  -1.1435 H              1 S1                 0.0000
     25 ****        -2.6860  -2.9798  -2.0456 H              1 S1                 0.0000
     26 ****        -1.5554  -1.8218  -2.7206 H              1 S1                 0.0000
     27 ****         0.0390  -0.9354  -1.4035 H              1 S1                 0.0000
     28 ****         0.6667  -2.2623   1.1123 H              1 S1                 0.0000
     29 ****         0.1256   0.7488   0.9936 H              1 S1                 0.0000
     30 ****        -0.8315  -0.4261   1.8054 H              1 S1                 0.0000
     31 ****         0.4103   0.7017   3.4451 H              1 S1                 0.0000
     32 ****         0.9705  -0.9393   3.4063 H              1 S1                 0.0000
     33 ****         2.6814   0.9155   3.7256 H              1 S1                 0.0000
     34 ****         3.1230  -0.3031   2.5994 H              1 S1                 0.0000
     35 ****         1.7655   2.2015   1.5030 H              1 S1                 0.0000
     36 ****         3.3641   2.3406   2.1410 H              1 S1                 0.0000
     37 ****         3.6164   2.0198  -0.1822 H              1 S1                 0.0000
     38 ****         4.2426   0.6099   0.6089 H              1 S1                 0.0000
     39 ****         1.5342   0.8014  -0.8286 H              1 S1                 0.0000
     40 ****         2.9936   0.1334  -1.4683 H              1 S1                 0.0000
     41 ****         2.8536  -1.4306   0.7605 H              1 S1                 0.0000
     42 ****         2.2567  -1.8610  -0.7852 H              1 S1                 0.0000
     43 ****        -4.4858   1.9671  -1.9932 LP             1 S1                 0.0000
     44 ****        -6.1817   0.1511  -1.2221 LP             1 S1                 0.0000
     45 ****        -2.7170  -3.1755   0.3316 LP             1 S1                 0.0000
     46 ****        -1.3076  -2.7507   1.2445 LP             1 S1                 0.0000
@<TRIPOS>BOND
    1    1    2 1     
    2    1   21 1     
    3    1   22 1     
    4    1   23 1     
    5    2    3 2     
    6    2    4 1     
    7    4    8 1     
    8    4    5 2     
    9    5    6 1     
   10    6    7 2     
   11    7    8 1     
   12    7   24 1     
   13    8    9 1     
   14    9   10 1     
   15    9   25 1     
   16    9   26 1     
   17   10   11 2     
   18   10   12 am    
   19   12   13 1     
   20   12   27 1     
   21   13   20 1     
   22   13   14 1     
   23   13   28 1     
   24   14   15 1     
   25   14   29 1     
   26   14   30 1     
   27   15   16 1     
   28   15   31 1     
   29   15   32 1     
   30   16   17 1     
   31   16   33 1     
   32   16   34 1     
   33   17   18 1     
   34   17   35 1     
   35   17   36 1     
   36   18   19 1     
   37   18   37 1     
   38   18   38 1     
   39   19   20 1     
   40   19   39 1     
   41   19   40 1     
   42   20   41 1     
   43   20   42 1     
   44    5   43 1     
   45    6   44 1     
   46   11   45 1     
   47   11   46 1     
@<TRIPOS>SUBSTRUCTURE
      1 S1             1
@<TRIPOS>SET
LONE_PAIRS      STATIC     ATOMS    <user>   **** ""
5 3 43 44 45 46
DONOR_HYDROGENS      STATIC     ATOMS    <user>   **** ""
1 27
ATOM$BLUE        STATIC     ATOMS    COLORGROUP SYSTEM
5 3 43 44 45 46
ATOM$RED        STATIC     ATOMS    COLORGROUP SYSTEM
1 27
