AV-unprocessed.smi:2119|AV-procd|sdf|8637|dock2
  -GOLD-   2272011383D 1   1.00000     0.00000
 Structure written by MMmdl.
 48 50  0  0  0  0  0  0  0  0  2 V2000
  144.6015  136.3988  152.7886 O   0  0  0  0  0  0  0  0  0  0  0  0
  145.7348  136.2307  152.3401 C   0  0  0  0  0  0  0  0  0  0  0  0
  146.7431  137.0892  152.5489 N   0  0  0  0  0  0  0  0  0  0  0  0
  146.6522  138.2966  153.3639 C   0  0  0  0  0  0  0  0  0  0  0  0
  147.9903  139.0785  153.4965 C   0  0  1  0  0  0  0  0  0  0  0  0
  147.8225  140.3304  154.3907 C   0  0  1  0  0  0  0  0  0  0  0  0
  146.9627  141.4255  153.7832 C   0  0  0  0  0  0  0  0  0  0  0  0
  146.5968  142.2588  155.0056 C   0  0  0  0  0  0  0  0  0  0  0  0
  146.4965  141.3316  156.0799 O   0  0  0  0  0  0  0  0  0  0  0  0
  147.0714  140.0837  155.7041 C   0  0  0  0  0  0  0  0  0  0  0  0
  149.1417  138.2610  153.9896 N   0  3  0  0  0  0  0  0  0  0  0  0
  150.4402  138.9669  154.1243 C   0  0  0  0  0  0  0  0  0  0  0  0
  151.5592  137.9510  154.4090 C   0  0  0  0  0  0  0  0  0  0  0  0
  151.2406  137.2069  155.5794 O   0  0  0  0  0  0  0  0  0  0  0  0
  150.0350  136.4646  155.4336 C   0  0  0  0  0  0  0  0  0  0  0  0
  148.8618  137.4266  155.1836 C   0  0  0  0  0  0  0  0  0  0  0  0
  146.1221  135.2027  151.5661 N   0  0  0  0  0  0  0  0  0  0  0  0
  145.3644  134.0731  151.1542 C   0  0  0  0  0  0  0  0  0  0  0  0
  143.9585  134.1574  151.2258 C   0  0  0  0  0  0  0  0  0  0  0  0
  143.1822  133.0613  150.8044 C   0  0  0  0  0  0  0  0  0  0  0  0
  143.8459  131.9195  150.3156 C   0  0  0  0  0  0  0  0  0  0  0  0
  145.1892  131.8268  150.2260 N   0  0  0  0  0  0  0  0  0  0  0  0
  145.9280  132.8813  150.6335 C   0  0  0  0  0  0  0  0  0  0  0  0
  147.6420  136.8784  152.1401 H   0  0  0  0  0  0  0  0  0  0  0  0
  145.8832  138.9374  152.9303 H   0  0  0  0  0  0  0  0  0  0  0  0
  146.2731  138.0164  154.3468 H   0  0  0  0  0  0  0  0  0  0  0  0
  148.2587  139.4477  152.5056 H   0  0  0  0  0  0  0  0  0  0  0  0
  148.8002  140.7516  154.6296 H   0  0  0  0  0  0  0  0  0  0  0  0
  147.4812  142.0084  153.0212 H   0  0  0  0  0  0  0  0  0  0  0  0
  146.0614  141.0030  153.3361 H   0  0  0  0  0  0  0  0  0  0  0  0
  147.3917  142.9698  155.2336 H   0  0  0  0  0  0  0  0  0  0  0  0
  145.6698  142.8164  154.8704 H   0  0  0  0  0  0  0  0  0  0  0  0
  146.2618  139.3666  155.5607 H   0  0  0  0  0  0  0  0  0  0  0  0
  147.7225  139.7023  156.4910 H   0  0  0  0  0  0  0  0  0  0  0  0
  150.6679  139.5177  153.2117 H   0  0  0  0  0  0  0  0  0  0  0  0
  150.3946  139.6912  154.9382 H   0  0  0  0  0  0  0  0  0  0  0  0
  151.7001  137.2780  153.5616 H   0  0  0  0  0  0  0  0  0  0  0  0
  152.5059  138.4684  154.5654 H   0  0  0  0  0  0  0  0  0  0  0  0
  150.1322  135.7479  154.6164 H   0  0  0  0  0  0  0  0  0  0  0  0
  149.8616  135.8888  156.3430 H   0  0  0  0  0  0  0  0  0  0  0  0
  148.7149  138.0520  156.0630 H   0  0  0  0  0  0  0  0  0  0  0  0
  147.9452  136.8543  155.0366 H   0  0  0  0  0  0  0  0  0  0  0  0
  147.0614  135.2489  151.1993 H   0  0  0  0  0  0  0  0  0  0  0  0
  143.4775  135.0488  151.6017 H   0  0  0  0  0  0  0  0  0  0  0  0
  142.1038  133.0951  150.8532 H   0  0  0  0  0  0  0  0  0  0  0  0
  143.2825  131.0605  149.9826 H   0  0  0  0  0  0  0  0  0  0  0  0
  146.9926  132.7572  150.5115 H   0  0  0  0  0  0  0  0  0  0  0  0
  149.2861  137.5849  153.2535 H   0  0  0  0  0  0  0  0  0  0  0  0
  1  2  2  0  0  0  0
  2  3  1  0  0  0  0
  2 17  1  0  0  0  0
  3  4  1  0  0  0  0
  3 24  1  0  0  0  0
  4  5  1  0  0  0  0
  4 25  1  0  0  0  0
  4 26  1  0  0  0  0
  5  6  1  0  0  0  0
  5 11  1  0  0  0  0
  5 27  1  0  0  0  0
  6 10  1  0  0  0  0
  6  7  1  0  0  0  0
  6 28  1  0  0  0  0
  7  8  1  0  0  0  0
  7 29  1  0  0  0  0
  7 30  1  0  0  0  0
  8  9  1  0  0  0  0
  8 31  1  0  0  0  0
  8 32  1  0  0  0  0
  9 10  1  0  0  0  0
 10 33  1  0  0  0  0
 10 34  1  0  0  0  0
 11 16  1  0  0  0  0
 11 12  1  0  0  0  0
 11 48  1  0  0  0  0
 12 13  1  0  0  0  0
 12 35  1  0  0  0  0
 12 36  1  0  0  0  0
 13 14  1  0  0  0  0
 13 37  1  0  0  0  0
 13 38  1  0  0  0  0
 14 15  1  0  0  0  0
 15 16  1  0  0  0  0
 15 39  1  0  0  0  0
 15 40  1  0  0  0  0
 16 41  1  0  0  0  0
 16 42  1  0  0  0  0
 17 18  1  0  0  0  0
 17 43  1  0  0  0  0
 18 23  1  0  0  0  0
 18 19  2  0  0  0  0
 19 20  1  0  0  0  0
 19 44  1  0  0  0  0
 20 21  2  0  0  0  0
 20 45  1  0  0  0  0
 21 22  1  0  0  0  0
 21 46  1  0  0  0  0
 22 23  2  0  0  0  0
 23 47  1  0  0  0  0
M  CHG  1  11   1
M  END
> <s_m_source_file>
AV-unprocessed.smi

> <i_m_source_file_index>
2119

> <i_lp_mmshare_version>
43012

> <i_f3d_flags>
0

> <s_epik_input>
W2NIXTFuW2NIXVtjSF1bY0hdYzFbTkhdQyg9TylbTkhdW0NIMl1bQ0BIXShbQ0BASF0yW0NIMl1bQ0gyXU9bQ0gyXTIpTjNbQ0gyXVtDSDJdT1tDSDJdW0NIMl0z

> <s_epik_cmdline>
J2VwaWtfcHl0aG9uJywgJy1waCcsICc3LjAnLCAnLXRuJywgJzgnLCAnLW1hJywgJzIwMCcsICctbWV0YWxfYmluZGluZycsICctaW1hZScsICc8aW5maWxlLm1hZT4nLCAnLW9tYWUnLCAnPG91dGZpbGUubWFlPic=

> <r_epik_Ionization_Penalty>
0.987463

> <r_epik_Ionization_Penalty_Charging>
0.98326

> <r_epik_Ionization_Penalty_Neutral>
0.00420251

> <r_epik_State_Penalty>
1.01721

> <r_epik_Charging_Adjusted_Penalty>
2.00047

> <i_epik_Tot_Q>
1

> <i_epik_Tot_abs_Q>
1

> <r_epik_Metal_State_Penalty>
1.01439

> <b_epik_Metal_Only>
0

> <s_lp_Force_Field>
OPLS_2005

> <r_lp_Energy>
47.2413

> <b_lp_Chiralities_Consistent>
1

> <s_lp_Variant>
AV-unprocessed.smi:2119-8

> <Gold.Version>
5.8.1

> <Gold.Id.Protein>
6NUR|6NUR_protein|mol2

> <Gold.PLP.Fitness>
47.9197

> <Gold.PLP.PLP>
-34.7232

> <Gold.PLP.part.hbond>
-2.6967

> <Gold.PLP.part.metal>
0.0000

> <Gold.PLP.part.buried>
-4.1838

> <Gold.PLP.part.nonpolar>
-28.1246

> <Gold.PLP.part.repulsive>
0.4730

> <Gold.PLP.ligand.clash>
0.0000

> <Gold.PLP.ligand.torsion>
0.4398

> <Gold.PLP.Chemscore.Hbond>
3.3462

> <Gold.PLP.Chemscore.CHOScore>
1.2604

> <Gold.PLP.Chemscore.Metal>
0.0000

> <Gold.Chemscore.Hbonds>
donor molecule, donor type, donor heavy atom, donor atom, acceptor molecule, acceptor atom, score
      L1  H     3    24       P1  7948  0.86
      L1  H    11    48       P1  7948  2.00
      L1  H    17    43       P1  7948  0.46
      L1  C    21    46       P1 10952  0.83
      L1  C    23    47       P1 10747  0.45

> <Gold.PLP.Chemscore.Internal.Correction>
0.2563

> <Gold.Rescore>
     Score         DG    S(hbond)    S(metal)    S(lipo)     H(rot)  DE(clash)    DE(int)     intcor
     17.14     -19.00       2.18        0.00      90.59       1.70       0.22       1.65       ----

> <Gold.Chemscore.Fitness>
17.1399

> <Gold.Chemscore.DG>
-19.0045

> <Gold.Chemscore.ZeroCoef>
-5.4800

> <Gold.Chemscore.Hbond>
2.1806

> <Gold.Chemscore.Metal>
0.0000

> <Gold.Chemscore.Lipo>
90.5886

> <Gold.Chemscore.Internal_Hbond>
0.0000

> <Gold.Chemscore.DEClash>
0.2171

> <Gold.Chemscore.DEInternal>
1.6475

> <Gold.Chemscore.Rot>
1.7021

> <Gold.Chemscore.Internal.Correction>
   9.000000E+99

> <Gold.Chemscore.Hbonds>
donor molecule, donor type, donor heavy atom, donor atom, acceptor molecule, acceptor atom, score
      L1  H     3    24       P1  7948  0.84
      L1  H    11    48       P1  7948  0.97
      L1  H    17    43       P1  7948  0.37

> <Gold.Chemscore.Hbond.Weighted>
-7.2832

> <Gold.Chemscore.Metal.Weighted>
-0.0000

> <Gold.Chemscore.Lipo.Weighted>
-10.5989

> <Gold.Chemscore.Internal_Hbond.Weighted>
0.0000

> <Gold.Chemscore.DEClash.Weighted>
0.2171

> <Gold.Chemscore.DEInternal.Weighted>
1.6475

> <Gold.Chemscore.Rot.Weighted>
4.3575

> <Gold.Chemscore.Internal.Correction.Weighted>
   9.000000E+99

> <Gold.Protein.RotatedTorsions>
[ 6907 6896 6895 6894 ] final  -40.94 input  -60.11 | X-H torsion
[ 7974 7965 7964 7962 ] final   11.06 input  175.53 | X-H torsion
[ 8008 7997 7996 7995 ] final  116.96 input   59.86 | X-H torsion
[ 10167 10162 10161 10158 ] final   10.85 input  -65.29 | X-H torsion
[ 10718 10713 10712 10709 ] final  -56.46 input   66.30 | X-H torsion
[ 10763 10752 10751 10750 ] final  127.73 input  -60.55 | X-H torsion
[ 11005 11000 10999 10996 ] final  -40.80 input  -57.11 | X-H torsion

> <Gold.Protein.ActiveResidues>
 VAL166  LYS551  ARG553  GLY616  TRP617  ASP618  TYR619  PRO620  LYS621  CYS622 
 ASP623  PHE694  ASN695  SER759  ASP760  ASP761  ALA762  ILE779  LEU786  VAL792 
 PHE793  MET794  SER795  GLU796  ALA797  LYS798  CYS799  TRP800  GLU811  SER814 

> <Gold.Protein.RotatedAtoms>
  150.9726  134.9096  159.7796 H   0  0  0  0  0  0  0  0  0  0  0  0  # atno 6907 bound_to 6896
  152.5195  134.3520  159.9264 H   0  0  0  0  0  0  0  0  0  0  0  0  # atno 6908 bound_to 6896
  151.3529  133.3878  159.2716 H   0  0  0  0  0  0  0  0  0  0  0  0  # atno 6909 bound_to 6896
  146.2378  139.9542  142.8466 H   0  0  0  0  0  0  0  0  0  0  0  0  # atno 7974 bound_to 7965
  156.2468  140.2906  156.0604 H   0  0  0  0  0  0  0  0  0  0  0  0  # atno 8008 bound_to 7997
  155.1782  140.0403  157.2894 H   0  0  0  0  0  0  0  0  0  0  0  0  # atno 8009 bound_to 7997
  154.6278  140.2492  155.7477 H   0  0  0  0  0  0  0  0  0  0  0  0  # atno 8010 bound_to 7997
  140.6168  143.8290  150.7128 H   0  0  0  0  0  0  0  0  0  0  0  0  # atno 10167 bound_to 10162
  156.1287  130.4161  150.0308 H   0  0  0  0  0  0  0  0  0  0  0  0  # atno 10718 bound_to 10713
  153.7141  135.3263  155.3252 H   0  0  0  0  0  0  0  0  0  0  0  0  # atno 10763 bound_to 10752
  154.8376  135.4484  154.1284 H   0  0  0  0  0  0  0  0  0  0  0  0  # atno 10764 bound_to 10752
  153.2386  135.6968  153.7888 H   0  0  0  0  0  0  0  0  0  0  0  0  # atno 10765 bound_to 10752
  141.0200  133.6867  156.2370 H   0  0  0  0  0  0  0  0  0  0  0  0  # atno 11005 bound_to 11000
  145.1832  140.9777  143.4254 LP  0  0  0  0  0  0  0  0  0  0  0  0  # atno 17320 bound_to 7965
  144.9923  139.3677  143.6209 LP  0  0  0  0  0  0  0  0  0  0  0  0  # atno 17321 bound_to 7965
  140.1871  143.4067  152.1890 LP  0  0  0  0  0  0  0  0  0  0  0  0  # atno 17342 bound_to 10162
  139.5405  144.7252  151.4748 LP  0  0  0  0  0  0  0  0  0  0  0  0  # atno 17343 bound_to 10162
  156.8226  130.9364  151.3640 LP  0  0  0  0  0  0  0  0  0  0  0  0  # atno 17370 bound_to 10713
  157.6467  130.8850  149.9552 LP  0  0  0  0  0  0  0  0  0  0  0  0  # atno 17371 bound_to 10713
  140.6589  134.4989  157.5582 LP  0  0  0  0  0  0  0  0  0  0  0  0  # atno 17394 bound_to 11000
  139.9140  134.8284  156.1429 LP  0  0  0  0  0  0  0  0  0  0  0  0  # atno 17395 bound_to 11000

$$$$
