AV-unprocessed.smi:170|AV-procd|sdf|1411|dock8
  -GOLD-   2262019173D 1   1.00000     0.00000
 Structure written by MMmdl.
 57 61  0  0  0  0  0  0  0  0  1 V2000
  148.8017  143.1832  157.8001 O   0  0  0  0  0  0  0  0  0  0  0  0
  150.0088  142.6681  158.3300 C   0  0  1  0  0  0  0  0  0  0  0  0
  150.5847  141.6242  157.3532 C   0  0  0  0  0  0  0  0  0  0  0  0
  149.9658  140.3197  157.5060 N   0  0  0  0  0  0  0  0  0  0  0  0
  148.7367  139.9259  157.0262 C   0  0  0  0  0  0  0  0  0  0  0  0
  148.4057  138.6909  157.2900 N   0  0  0  0  0  0  0  0  0  0  0  0
  149.4895  138.2004  158.0067 C   0  0  0  0  0  0  0  0  0  0  0  0
  149.7991  136.9441  158.5881 C   0  0  0  0  0  0  0  0  0  0  0  0
  148.9571  135.8901  158.4941 N   0  0  0  0  0  0  0  0  0  0  0  0
  149.1784  135.1322  157.2670 C   0  0  0  0  0  0  0  0  0  0  0  0
  148.3283  133.8553  157.2729 C   0  0  0  0  0  0  0  0  0  0  0  0
  146.9627  134.2163  157.4282 O   0  0  0  0  0  0  0  0  0  0  0  0
  146.7246  134.8783  158.6656 C   0  0  0  0  0  0  0  0  0  0  0  0
  147.5428  136.1894  158.7527 C   0  0  1  0  0  0  0  0  0  0  0  0
  147.3299  136.9041  160.1143 C   0  0  0  0  0  0  0  0  0  0  0  0
  147.6903  136.0592  161.3345 C   0  0  0  0  0  0  0  0  0  0  0  0
  146.8255  134.8463  161.7099 C   0  0  0  0  0  0  0  0  0  0  0  0
  147.0936  135.1687  163.1822 C   0  0  0  0  0  0  0  0  0  0  0  0
  147.4058  136.6018  162.7431 C   0  0  0  0  0  0  0  0  0  0  0  0
  150.9918  136.8124  159.2273 N   0  0  0  0  0  0  0  0  0  0  0  0
  151.8292  137.8524  159.2935 C   0  0  0  0  0  0  0  0  0  0  0  0
  151.6762  139.0819  158.7951 N   0  0  0  0  0  0  0  0  0  0  0  0
  150.4797  139.2105  158.1526 C   0  0  0  0  0  0  0  0  0  0  0  0
  150.9833  143.8345  158.5775 C   0  0  1  0  0  0  0  0  0  0  0  0
  150.4571  144.9077  159.5301 C   0  0  0  0  0  0  0  0  0  0  0  0
  151.7397  145.5647  159.9867 C   0  0  0  0  0  0  0  0  0  0  0  0
  152.6993  144.3795  160.0736 C   0  0  0  0  0  0  0  0  0  0  0  0
  152.1678  143.3697  159.2184 O   0  0  0  0  0  0  0  0  0  0  0  0
  149.0065  143.7085  157.0419 H   0  0  0  0  0  0  0  0  0  0  0  0
  149.7795  142.1841  159.2803 H   0  0  0  0  0  0  0  0  0  0  0  0
  150.4571  141.9533  156.3213 H   0  0  0  0  0  0  0  0  0  0  0  0
  151.6573  141.5076  157.5116 H   0  0  0  0  0  0  0  0  0  0  0  0
  148.0887  140.5881  156.4705 H   0  0  0  0  0  0  0  0  0  0  0  0
  148.9183  135.7423  156.4003 H   0  0  0  0  0  0  0  0  0  0  0  0
  150.2344  134.8736  157.1759 H   0  0  0  0  0  0  0  0  0  0  0  0
  148.4499  133.3162  156.3335 H   0  0  0  0  0  0  0  0  0  0  0  0
  148.6369  133.1812  158.0737 H   0  0  0  0  0  0  0  0  0  0  0  0
  145.6562  135.0833  158.7256 H   0  0  0  0  0  0  0  0  0  0  0  0
  146.9678  134.2113  159.4945 H   0  0  0  0  0  0  0  0  0  0  0  0
  147.1968  136.8527  157.9583 H   0  0  0  0  0  0  0  0  0  0  0  0
  147.9081  137.8288  160.1289 H   0  0  0  0  0  0  0  0  0  0  0  0
  146.2881  137.2108  160.2115 H   0  0  0  0  0  0  0  0  0  0  0  0
  148.7356  135.7463  161.2989 H   0  0  0  0  0  0  0  0  0  0  0  0
  145.7765  134.9725  161.4359 H   0  0  0  0  0  0  0  0  0  0  0  0
  147.2164  133.8861  161.3718 H   0  0  0  0  0  0  0  0  0  0  0  0
  146.2276  135.0698  163.8371 H   0  0  0  0  0  0  0  0  0  0  0  0
  147.9663  134.6472  163.5788 H   0  0  0  0  0  0  0  0  0  0  0  0
  148.2641  137.0552  163.2397 H   0  0  0  0  0  0  0  0  0  0  0  0
  146.5301  137.2521  162.7810 H   0  0  0  0  0  0  0  0  0  0  0  0
  152.7558  137.6732  159.8187 H   0  0  0  0  0  0  0  0  0  0  0  0
  151.2713  144.2988  157.6325 H   0  0  0  0  0  0  0  0  0  0  0  0
  149.7687  145.6042  159.0508 H   0  0  0  0  0  0  0  0  0  0  0  0
  149.9475  144.4523  160.3805 H   0  0  0  0  0  0  0  0  0  0  0  0
  152.0845  146.2714  159.2304 H   0  0  0  0  0  0  0  0  0  0  0  0
  151.6355  146.1000  160.9308 H   0  0  0  0  0  0  0  0  0  0  0  0
  153.7118  144.6535  159.7759 H   0  0  0  0  0  0  0  0  0  0  0  0
  152.7401  143.9871  161.0903 H   0  0  0  0  0  0  0  0  0  0  0  0
  1  2  1  0  0  0  0
  1 29  1  0  0  0  0
  2  3  1  0  0  0  0
  2 24  1  0  0  0  0
  2 30  1  0  0  0  0
  3  4  1  0  0  0  0
  3 31  1  0  0  0  0
  3 32  1  0  0  0  0
  4 23  1  0  0  0  0
  4  5  1  0  0  0  0
  5  6  2  0  0  0  0
  5 33  1  0  0  0  0
  6  7  1  0  0  0  0
  7 23  2  0  0  0  0
  7  8  1  0  0  0  0
  8  9  1  0  0  0  0
  8 20  2  0  0  0  0
  9 14  1  0  0  0  0
  9 10  1  0  0  0  0
 10 11  1  0  0  0  0
 10 34  1  0  0  0  0
 10 35  1  0  0  0  0
 11 12  1  0  0  0  0
 11 36  1  0  0  0  0
 11 37  1  0  0  0  0
 12 13  1  0  0  0  0
 13 14  1  0  0  0  0
 13 38  1  0  0  0  0
 13 39  1  0  0  0  0
 14 15  1  0  0  0  0
 14 40  1  0  0  0  0
 15 16  1  0  0  0  0
 15 41  1  0  0  0  0
 15 42  1  0  0  0  0
 16 19  1  0  0  0  0
 16 17  1  0  0  0  0
 16 43  1  0  0  0  0
 17 18  1  0  0  0  0
 17 44  1  0  0  0  0
 17 45  1  0  0  0  0
 18 19  1  0  0  0  0
 18 46  1  0  0  0  0
 18 47  1  0  0  0  0
 19 48  1  0  0  0  0
 19 49  1  0  0  0  0
 20 21  1  0  0  0  0
 21 22  2  0  0  0  0
 21 50  1  0  0  0  0
 22 23  1  0  0  0  0
 24 28  1  0  0  0  0
 24 25  1  0  0  0  0
 24 51  1  0  0  0  0
 25 26  1  0  0  0  0
 25 52  1  0  0  0  0
 25 53  1  0  0  0  0
 26 27  1  0  0  0  0
 26 54  1  0  0  0  0
 26 55  1  0  0  0  0
 27 28  1  0  0  0  0
 27 56  1  0  0  0  0
 27 57  1  0  0  0  0
M  END
> <s_m_source_file>
AV-unprocessed.smi

> <i_m_source_file_index>
170

> <i_lp_mmshare_version>
43012

> <i_f3d_flags>
0

> <s_epik_input>
TzFbQ0gyXVtDSDJdW0NIMl1bQ0BIXTFbQ0BIXShbT0hdKVtDSDJdbihbY0hdbjIpYyhjMjMpbltjSF1uYzNONFtDSDJdW0NIMl1PW0NIMl1bQ0BIXTRbQ0gyXVtDSF01W0NIMl1bQ0gyXVtDSDJdNQ==

> <s_epik_cmdline>
J2VwaWtfcHl0aG9uJywgJy1waCcsICc3LjAnLCAnLXRuJywgJzgnLCAnLW1hJywgJzIwMCcsICctbWV0YWxfYmluZGluZycsICctaW1hZScsICc8aW5maWxlLm1hZT4nLCAnLW9tYWUnLCAnPG91dGZpbGUubWFlPic=

> <r_lp_tautomer_probability>
1

> <r_epik_Ionization_Penalty>
4.98275e-05

> <r_epik_Ionization_Penalty_Charging>
0

> <r_epik_Ionization_Penalty_Neutral>
4.98275e-05

> <r_epik_State_Penalty>
-0

> <r_epik_Charging_Adjusted_Penalty>
0

> <i_epik_Tot_Q>
0

> <i_epik_Tot_abs_Q>
0

> <r_epik_Metal_State_Penalty>
-0

> <b_epik_Metal_Only>
0

> <s_lp_Force_Field>
OPLS_2005

> <r_lp_Energy>
51.0174

> <b_lp_Chiralities_Consistent>
1

> <s_lp_Variant>
AV-unprocessed.smi:170-6

> <Gold.Version>
5.8.1

> <Gold.Id.Protein>
6NUR|6NUR_protein|mol2

> <Gold.PLP.Fitness>
47.7072

> <Gold.PLP.PLP>
-43.6055

> <Gold.PLP.part.hbond>
-3.2394

> <Gold.PLP.part.metal>
0.0000

> <Gold.PLP.part.buried>
-7.5126

> <Gold.PLP.part.nonpolar>
-32.4597

> <Gold.PLP.part.repulsive>
0.0014

> <Gold.PLP.ligand.clash>
0.0000

> <Gold.PLP.ligand.torsion>
1.0962

> <Gold.PLP.Chemscore.Hbond>
2.0000

> <Gold.PLP.Chemscore.CHOScore>
0.0000

> <Gold.PLP.Chemscore.Metal>
0.0000

> <Gold.Chemscore.Hbonds>
donor molecule, donor type, donor heavy atom, donor atom, acceptor molecule, acceptor atom, score
      L1  H     1    29       P1  8028  1.00
      P1  H  6896  6907       L1    20  1.00

> <Gold.PLP.Chemscore.Internal.Correction>
0.2941

> <Gold.Rescore>
     Score         DG    S(hbond)    S(metal)    S(lipo)     H(rot)  DE(clash)    DE(int)     intcor
     17.44     -18.35       1.90        0.00     113.04       2.61       0.14       0.77       ----

> <Gold.Chemscore.Fitness>
17.4415

> <Gold.Chemscore.DG>
-18.3522

> <Gold.Chemscore.ZeroCoef>
-5.4800

> <Gold.Chemscore.Hbond>
1.8981

> <Gold.Chemscore.Metal>
0.0000

> <Gold.Chemscore.Lipo>
113.0371

> <Gold.Chemscore.Internal_Hbond>
0.0000

> <Gold.Chemscore.DEClash>
0.1440

> <Gold.Chemscore.DEInternal>
0.7667

> <Gold.Chemscore.Rot>
2.6144

> <Gold.Chemscore.Internal.Correction>
   9.000000E+99

> <Gold.Chemscore.Hbonds>
donor molecule, donor type, donor heavy atom, donor atom, acceptor molecule, acceptor atom, score
      L1  H     1    29       P1  8028  0.40
      P1  H  6896  6907       L1    20  0.85

> <Gold.Chemscore.Hbond.Weighted>
-6.3398

> <Gold.Chemscore.Metal.Weighted>
-0.0000

> <Gold.Chemscore.Lipo.Weighted>
-13.2253

> <Gold.Chemscore.Internal_Hbond.Weighted>
0.0000

> <Gold.Chemscore.DEClash.Weighted>
0.1440

> <Gold.Chemscore.DEInternal.Weighted>
0.7667

> <Gold.Chemscore.Rot.Weighted>
6.6929

> <Gold.Chemscore.Internal.Correction.Weighted>
   9.000000E+99

> <Gold.Protein.RotatedTorsions>
[ 6907 6896 6895 6894 ] final  -19.29 input  -60.11 | X-H torsion
[ 7974 7965 7964 7962 ] final  169.67 input  175.53 | X-H torsion
[ 8008 7997 7996 7995 ] final   30.50 input   59.86 | X-H torsion
[ 10167 10162 10161 10158 ] final  -26.02 input  -65.29 | X-H torsion
[ 10718 10713 10712 10709 ] final  132.05 input   66.30 | X-H torsion
[ 10763 10752 10751 10750 ] final  -50.46 input  -60.55 | X-H torsion
[ 11005 11000 10999 10996 ] final  142.79 input  -57.11 | X-H torsion

> <Gold.Protein.ActiveResidues>
 VAL166  LYS551  ARG553  GLY616  TRP617  ASP618  TYR619  PRO620  LYS621  CYS622 
 ASP623  PHE694  ASN695  SER759  ASP760  ASP761  ALA762  ILE779  LEU786  VAL792 
 PHE793  MET794  SER795  GLU796  ALA797  LYS798  CYS799  TRP800  GLU811  SER814 

> <Gold.Protein.RotatedAtoms>
  151.2653  135.0667  159.9113 H   0  0  0  0  0  0  0  0  0  0  0  0  # atno 6907 bound_to 6896
  152.5359  134.0187  159.7982 H   0  0  0  0  0  0  0  0  0  0  0  0  # atno 6908 bound_to 6896
  151.0417  133.5651  159.2681 H   0  0  0  0  0  0  0  0  0  0  0  0  # atno 6909 bound_to 6896
  144.7348  139.9088  143.6414 H   0  0  0  0  0  0  0  0  0  0  0  0  # atno 7974 bound_to 7965
  155.0915  140.3220  155.4572 H   0  0  0  0  0  0  0  0  0  0  0  0  # atno 8008 bound_to 7997
  156.2741  140.2077  156.5988 H   0  0  0  0  0  0  0  0  0  0  0  0  # atno 8009 bound_to 7997
  154.6900  140.0517  157.0341 H   0  0  0  0  0  0  0  0  0  0  0  0  # atno 8010 bound_to 7997
  140.7284  143.4215  151.0944 H   0  0  0  0  0  0  0  0  0  0  0  0  # atno 10167 bound_to 10162
  157.4909  131.1090  150.9558 H   0  0  0  0  0  0  0  0  0  0  0  0  # atno 10718 bound_to 10713
  154.1107  135.6549  153.4884 H   0  0  0  0  0  0  0  0  0  0  0  0  # atno 10763 bound_to 10752
  153.0257  135.5247  154.7194 H   0  0  0  0  0  0  0  0  0  0  0  0  # atno 10764 bound_to 10752
  154.6373  135.2984  155.0115 H   0  0  0  0  0  0  0  0  0  0  0  0  # atno 10765 bound_to 10752
  140.0504  134.9258  157.1007 H   0  0  0  0  0  0  0  0  0  0  0  0  # atno 11005 bound_to 11000
  146.1016  139.4012  143.0343 LP  0  0  0  0  0  0  0  0  0  0  0  0  # atno 17320 bound_to 7965
  145.7570  140.9950  143.1220 LP  0  0  0  0  0  0  0  0  0  0  0  0  # atno 17321 bound_to 7965
  139.7861  143.8286  152.3145 LP  0  0  0  0  0  0  0  0  0  0  0  0  # atno 17342 bound_to 10162
  139.8253  144.7277  150.9519 LP  0  0  0  0  0  0  0  0  0  0  0  0  # atno 17343 bound_to 10162
  157.0260  130.5692  149.5337 LP  0  0  0  0  0  0  0  0  0  0  0  0  # atno 17370 bound_to 10713
  156.0173  130.5267  150.8172 LP  0  0  0  0  0  0  0  0  0  0  0  0  # atno 17371 bound_to 10713
  140.3926  134.2168  155.7165 LP  0  0  0  0  0  0  0  0  0  0  0  0  # atno 17394 bound_to 11000
  141.1927  133.8166  157.0827 LP  0  0  0  0  0  0  0  0  0  0  0  0  # atno 17395 bound_to 11000

$$$$
