#       Name:                AV-unprocessed.smi:794
#       Creating user name   scv26
#       Creation time:       Fri Mar 27 01:18:59 2020


#       File generated by GOLD software.
#

@<TRIPOS>MOLECULE
AV-unprocessed.smi:794
    46    48     1
SMALL
NO_CHARGES


@<TRIPOS>ATOM
      1 ****        -5.8443  -0.1819   0.8925 C.3            1 S1                 0.0000
      2 ****        -4.8133   0.7413   0.3197 C.2            1 S1                 0.0000
      3 ****        -3.4588   0.4087   0.4155 N.2            1 S1                 0.0000
      4 ****        -2.6697   1.3326  -0.1418 C.2            1 S1                 0.0000
      5 ****        -1.2532   1.2544  -0.1885 N.am           1 S1                 0.0000
      6 ****        -0.4595   0.2732   0.2751 C.2            1 S1                 0.0000
      7 ****        -0.8498  -0.7525   0.8336 O.2            1 S1                 0.0000
      8 ****         0.8326   0.5511   0.0508 N.am           1 S1                 0.0000
      9 ****         1.9571  -0.3146   0.3994 C.3            1 S1                 0.0000
     10 ****         3.1995   0.5295   0.7602 C.3            1 S1                 0.0000
     11 ****         4.2133  -0.3713   1.4881 C.3            1 S1                 0.0000
     12 ****         4.7386  -1.2670   0.3504 C.3            1 S1                 0.0000
     13 ****         3.9522  -0.7629  -0.8794 C.3            1 S1                 0.0000
     14 ****         3.8820   0.7311  -0.5898 C.3            1 S1                 0.0000
     15 ****         2.4558  -1.1508  -0.8079 C.3            1 S1                 0.0000
     16 ****         2.1798  -2.6635  -0.7088 C.3            1 S1                 0.0000
     17 ****         0.8112  -2.9231  -0.9352 O.3            1 S1                 0.0000
     18 ****        -3.5488   2.6882  -0.8272 S.3            1 S1                 0.0000
     19 ****        -5.0420   1.9370  -0.3214 C.2            1 S1                 0.0000
     20 ****        -6.3577   2.5868  -0.5935 C.3            1 S1                 0.0000
     21 ****        -6.4720   0.3339   1.6192 H              1 S1                 0.0000
     22 ****        -5.3880  -1.0331   1.3989 H              1 S1                 0.0000
     23 ****        -6.4957  -0.5744   0.1116 H              1 S1                 0.0000
     24 ****        -0.7906   2.0353  -0.6299 H              1 S1                 0.0000
     25 ****         1.0579   1.4198  -0.4114 H              1 S1                 0.0000
     26 ****         1.6869  -0.9499   1.2453 H              1 S1                 0.0000
     27 ****         2.9717   1.4465   1.3051 H              1 S1                 0.0000
     28 ****         5.0243   0.2209   1.9141 H              1 S1                 0.0000
     29 ****         3.7594  -0.9455   2.2968 H              1 S1                 0.0000
     30 ****         5.8083  -1.1063   0.2095 H              1 S1                 0.0000
     31 ****         4.5961  -2.3285   0.5493 H              1 S1                 0.0000
     32 ****         4.4212  -1.0183  -1.8301 H              1 S1                 0.0000
     33 ****         3.2739   1.2856  -1.3065 H              1 S1                 0.0000
     34 ****         4.8621   1.2057  -0.5130 H              1 S1                 0.0000
     35 ****         1.9913  -0.7858  -1.7266 H              1 S1                 0.0000
     36 ****         2.7592  -3.2046  -1.4572 H              1 S1                 0.0000
     37 ****         2.4561  -3.0598   0.2682 H              1 S1                 0.0000
     38 ****         0.6606  -3.8517  -0.8455 H              1 S1                 0.0000
     39 ****        -7.0005   1.9286  -1.1783 H              1 S1                 0.0000
     40 ****        -6.2329   3.5157  -1.1503 H              1 S1                 0.0000
     41 ****        -6.8723   2.8203   0.3386 H              1 S1                 0.0000
     42 ****        -3.1192  -0.4249   0.8511 LP             1 S1                 0.0000
     43 ****        -1.8284  -0.9049   0.9723 LP             1 S1                 0.0000
     44 ****        -0.1883  -1.4331   1.1484 LP             1 S1                 0.0000
     45 ****         0.5608  -2.6290  -1.8576 LP             1 S1                 0.0000
     46 ****         0.2590  -2.4263  -0.2656 LP             1 S1                 0.0000
@<TRIPOS>BOND
    1    1    2 1     
    2    1   21 1     
    3    1   22 1     
    4    1   23 1     
    5    2   19 2     
    6    2    3 1     
    7    3    4 2     
    8    4    5 1     
    9    4   18 1     
   10    5    6 am    
   11    5   24 1     
   12    6    7 2     
   13    6    8 am    
   14    8    9 1     
   15    8   25 1     
   16    9   15 1     
   17    9   10 1     
   18    9   26 1     
   19   10   14 1     
   20   10   11 1     
   21   10   27 1     
   22   11   12 1     
   23   11   28 1     
   24   11   29 1     
   25   12   13 1     
   26   12   30 1     
   27   12   31 1     
   28   13   14 1     
   29   13   15 1     
   30   13   32 1     
   31   14   33 1     
   32   14   34 1     
   33   15   16 1     
   34   15   35 1     
   35   16   17 1     
   36   16   36 1     
   37   16   37 1     
   38   17   38 1     
   39   18   19 1     
   40   19   20 1     
   41   20   39 1     
   42   20   40 1     
   43   20   41 1     
   44    3   42 1     
   45    7   43 1     
   46    7   44 1     
   47   17   45 1     
   48   17   46 1     
@<TRIPOS>SUBSTRUCTURE
      1 S1             1
@<TRIPOS>SET
LONE_PAIRS      STATIC     ATOMS    <user>   **** ""
5 42 43 44 45 46
DONOR_HYDROGENS      STATIC     ATOMS    <user>   **** ""
3 24 25 38
ATOM$BLUE        STATIC     ATOMS    COLORGROUP SYSTEM
5 42 43 44 45 46
ATOM$RED        STATIC     ATOMS    COLORGROUP SYSTEM
3 24 25 38
