#       Name:                AV-unprocessed.smi:1096
#       Creating user name   scv26
#       Creation time:       Fri Mar 27 03:28:47 2020


#       File generated by GOLD software.
#

@<TRIPOS>MOLECULE
AV-unprocessed.smi:1096
    53    55     1
SMALL
NO_CHARGES


@<TRIPOS>ATOM
      1 ****        -1.9179   3.1988   0.7979 O.2            1 S1                 0.0000
      2 ****        -2.3861   2.2737   0.1333 C.2            1 S1                 0.0000
      3 ****        -3.6850   2.1209  -0.1800 N.am           1 S1                 0.0000
      4 ****        -4.7732   2.9759   0.1418 C.ar           1 S1                 0.0000
      5 ****        -6.0363   2.5344  -0.3137 C.ar           1 S1                 0.0000
      6 ****        -7.1795   3.3135  -0.0494 C.ar           1 S1                 0.0000
      7 ****        -7.0303   4.5163   0.6637 C.ar           1 S1                 0.0000
      8 ****        -5.7375   4.8835   1.0807 C.ar           1 S1                 0.0000
      9 ****        -4.6408   4.1383   0.8289 N.ar           1 S1                 0.0000
     10 ****        -1.6446   1.2756  -0.3703 N.am           1 S1                 0.0000
     11 ****        -0.1998   1.1360  -0.2118 C.3            1 S1                 0.0000
     12 ****         0.3808   0.3565  -1.4039 C.3            1 S1                 0.0000
     13 ****         1.9033   0.1853  -1.2638 C.3            1 S1                 0.0000
     14 ****         2.3139  -0.5145   0.0524 C.3            1 S1                 0.0000
     15 ****         2.0635  -2.0424  -0.0014 C.2            1 S1                 0.0000
     16 ****         0.9947  -2.4813   0.4247 O.2            1 S1                 0.0000
     17 ****         3.0288  -2.8707  -0.4774 N.am           1 S1                 0.0000
     18 ****         2.9342  -4.3315  -0.3597 C.3            1 S1                 0.0000
     19 ****         3.8061  -4.7935   0.8208 C.3            1 S1                 0.0000
     20 ****         5.5599  -4.3890   0.5413 S.3            1 S1                 0.0000
     21 ****         5.4027  -2.6377   0.0689 C.3            1 S1                 0.0000
     22 ****         4.3305  -2.4597  -1.0184 C.3            1 S1                 0.0000
     23 ****         1.6500   0.1842   1.2671 C.3            1 S1                 0.0000
     24 ****         0.1347   0.4278   1.1143 C.3            1 S1                 0.0000
     25 ****        -3.9223   1.3015  -0.7191 H              1 S1                 0.0000
     26 ****        -6.1329   1.6078  -0.8611 H              1 S1                 0.0000
     27 ****        -8.1534   2.9935  -0.3891 H              1 S1                 0.0000
     28 ****        -7.8829   5.1412   0.8849 H              1 S1                 0.0000
     29 ****        -5.5789   5.8000   1.6295 H              1 S1                 0.0000
     30 ****        -2.1131   0.5570  -0.9022 H              1 S1                 0.0000
     31 ****         0.2557   2.1283  -0.2058 H              1 S1                 0.0000
     32 ****        -0.0979  -0.6206  -1.4830 H              1 S1                 0.0000
     33 ****         0.1597   0.8821  -2.3336 H              1 S1                 0.0000
     34 ****         2.2860  -0.3637  -2.1251 H              1 S1                 0.0000
     35 ****         2.3762   1.1672  -1.3055 H              1 S1                 0.0000
     36 ****         3.3812  -0.3606   0.2029 H              1 S1                 0.0000
     37 ****         1.9080  -4.6715  -0.2151 H              1 S1                 0.0000
     38 ****         3.2661  -4.8089  -1.2828 H              1 S1                 0.0000
     39 ****         3.4752  -4.3189   1.7454 H              1 S1                 0.0000
     40 ****         3.7137  -5.8701   0.9640 H              1 S1                 0.0000
     41 ****         5.1532  -2.0508   0.9537 H              1 S1                 0.0000
     42 ****         6.3698  -2.2836  -0.2879 H              1 S1                 0.0000
     43 ****         4.5818  -3.0712  -1.8863 H              1 S1                 0.0000
     44 ****         4.3306  -1.4388  -1.3970 H              1 S1                 0.0000
     45 ****         1.8386  -0.3843   2.1789 H              1 S1                 0.0000
     46 ****         2.1379   1.1480   1.4181 H              1 S1                 0.0000
     47 ****        -0.2169   1.0278   1.9546 H              1 S1                 0.0000
     48 ****        -0.4095  -0.5141   1.1765 H              1 S1                 0.0000
     49 ****        -2.5196   3.9149   1.1517 LP             1 S1                 0.0000
     50 ****        -0.9359   3.2340   0.9838 LP             1 S1                 0.0000
     51 ****        -3.7411   4.4394   1.1450 LP             1 S1                 0.0000
     52 ****         0.3093  -1.8548   0.7958 LP             1 S1                 0.0000
     53 ****         0.8122  -3.4641   0.3996 LP             1 S1                 0.0000
@<TRIPOS>BOND
    1    1    2 2     
    2    2    3 am    
    3    2   10 am    
    4    3    4 1     
    5    3   25 1     
    6    4    9 ar    
    7    4    5 ar    
    8    5    6 ar    
    9    5   26 1     
   10    6    7 ar    
   11    6   27 1     
   12    7    8 ar    
   13    7   28 1     
   14    8    9 ar    
   15    8   29 1     
   16   10   11 1     
   17   10   30 1     
   18   11   24 1     
   19   11   12 1     
   20   11   31 1     
   21   12   13 1     
   22   12   32 1     
   23   12   33 1     
   24   13   14 1     
   25   13   34 1     
   26   13   35 1     
   27   14   15 1     
   28   14   23 1     
   29   14   36 1     
   30   15   16 2     
   31   15   17 am    
   32   17   22 1     
   33   17   18 1     
   34   18   19 1     
   35   18   37 1     
   36   18   38 1     
   37   19   20 1     
   38   19   39 1     
   39   19   40 1     
   40   20   21 1     
   41   21   22 1     
   42   21   41 1     
   43   21   42 1     
   44   22   43 1     
   45   22   44 1     
   46   23   24 1     
   47   23   45 1     
   48   23   46 1     
   49   24   47 1     
   50   24   48 1     
   51    1   49 1     
   52    1   50 1     
   53    9   51 1     
   54   16   52 1     
   55   16   53 1     
@<TRIPOS>SUBSTRUCTURE
      1 S1             1
@<TRIPOS>SET
LONE_PAIRS      STATIC     ATOMS    <user>   **** ""
5 49 50 51 52 53
DONOR_HYDROGENS      STATIC     ATOMS    <user>   **** ""
2 25 30
ATOM$BLUE        STATIC     ATOMS    COLORGROUP SYSTEM
5 49 50 51 52 53
ATOM$RED        STATIC     ATOMS    COLORGROUP SYSTEM
2 25 30
