AV-unprocessed.smi:2750|AV-procd|sdf|10594|dock3
  -GOLD-   2272015 43D 1   1.00000     0.00000
 Structure written by MMmdl.
 24 25  0  0  0  0  0  0  0  0  3 V2000
  152.8813  139.0374  156.0327 O   0  0  0  0  0  0  0  0  0  0  0  0
  151.9388  139.8378  156.2219 C   0  0  0  0  0  0  0  0  0  0  0  0
  151.2704  140.3976  155.3251 O   0  5  0  0  0  0  0  0  0  0  0  0
  151.5462  140.1350  157.6707 C   0  0  0  0  0  0  0  0  0  0  0  0
  150.9275  138.9998  158.3330 N   0  0  0  0  0  0  0  0  0  0  0  0
  149.7327  138.3772  158.0338 C   0  0  0  0  0  0  0  0  0  0  0  0
  149.6617  137.3670  158.9505 C   0  0  0  0  0  0  0  0  0  0  0  0
  148.6033  136.3189  159.1314 C   0  0  0  0  0  0  0  0  0  0  0  0
  148.3314  135.9795  160.6131 C   0  0  1  0  0  0  0  0  0  0  0  0
  147.6541  137.0673  161.2997 N   0  5  0  0  0  0  0  0  0  0  0  0
  146.4814  136.6021  161.7905 C   0  0  0  0  0  0  0  0  0  0  0  0
  145.6386  137.2196  162.4377 O   0  0  0  0  0  0  0  0  0  0  0  0
  146.3149  135.3134  161.4760 N   0  0  0  0  0  0  0  0  0  0  0  0
  147.3377  134.8445  160.7685 C   0  0  0  0  0  0  0  0  0  0  0  0
  147.4744  133.7085  160.3162 O   0  0  0  0  0  0  0  0  0  0  0  0
  150.7943  137.4204  159.7631 N   0  0  0  0  0  0  0  0  0  0  0  0
  151.5456  138.4060  159.3828 N   0  0  0  0  0  0  0  0  0  0  0  0
  152.4264  140.4313  158.2431 H   0  0  0  0  0  0  0  0  0  0  0  0
  150.8573  140.9807  157.6900 H   0  0  0  0  0  0  0  0  0  0  0  0
  149.0741  138.6892  157.2371 H   0  0  0  0  0  0  0  0  0  0  0  0
  147.6796  136.6356  158.6442 H   0  0  0  0  0  0  0  0  0  0  0  0
  148.9116  135.4152  158.6039 H   0  0  0  0  0  0  0  0  0  0  0  0
  149.2593  135.6849  161.1054 H   0  0  0  0  0  0  0  0  0  0  0  0
  145.5068  134.7679  161.7351 H   0  0  0  0  0  0  0  0  0  0  0  0
  1  2  2  0  0  0  0
  2  3  1  0  0  0  0
  2  4  1  0  0  0  0
  4  5  1  0  0  0  0
  4 18  1  0  0  0  0
  4 19  1  0  0  0  0
  5 17  1  0  0  0  0
  5  6  1  0  0  0  0
  6  7  2  0  0  0  0
  6 20  1  0  0  0  0
  7  8  1  0  0  0  0
  7 16  1  0  0  0  0
  8  9  1  0  0  0  0
  8 21  1  0  0  0  0
  8 22  1  0  0  0  0
  9 14  1  0  0  0  0
  9 10  1  0  0  0  0
  9 23  1  0  0  0  0
 10 11  1  0  0  0  0
 11 12  2  0  0  0  0
 11 13  1  0  0  0  0
 13 14  1  0  0  0  0
 13 24  1  0  0  0  0
 14 15  2  0  0  0  0
 16 17  2  0  0  0  0
M  CHG  1   3  -1
M  CHG  1  10  -1
M  END
> <s_m_source_file>
AV-unprocessed.smi

> <i_m_source_file_index>
2750

> <i_lp_mmshare_version>
43012

> <i_f3d_flags>
0

> <s_epik_input>
Tz1DKFtPSF0pW0NIMl1uMVtjSF1jKG5uMSlbQ0gyXVtDQEBIXTJbTkhdQyg9TylbTkhdQzI9Tw==

> <s_epik_cmdline>
J2VwaWtfcHl0aG9uJywgJy1waCcsICc3LjAnLCAnLXRuJywgJzgnLCAnLW1hJywgJzIwMCcsICctbWV0YWxfYmluZGluZycsICctaW1hZScsICc8aW5maWxlLm1hZT4nLCAnLW9tYWUnLCAnPG91dGZpbGUubWFlPic=

> <r_lp_tautomer_probability>
1

> <r_epik_Ionization_Penalty>
5.10791

> <r_epik_Ionization_Penalty_Charging>
5.10788

> <r_epik_Ionization_Penalty_Neutral>
2.55687e-05

> <r_epik_State_Penalty>
5.12334

> <r_epik_Charging_Adjusted_Penalty>
10.2312

> <i_epik_Tot_Q>
-2

> <i_epik_Tot_abs_Q>
2

> <r_epik_Metal_State_Penalty>
1.50935

> <b_epik_Metal_Only>
1

> <s_lp_Force_Field>
OPLS_2005

> <r_lp_Energy>
16.7857

> <b_lp_Chiralities_Consistent>
1

> <s_lp_Variant>
AV-unprocessed.smi:2750-6

> <Gold.Version>
5.8.1

> <Gold.Id.Protein>
6NUR|6NUR_protein|mol2

> <Gold.PLP.Fitness>
42.8594

> <Gold.PLP.PLP>
-22.9570

> <Gold.PLP.part.hbond>
-4.7331

> <Gold.PLP.part.metal>
0.0000

> <Gold.PLP.part.buried>
-5.9881

> <Gold.PLP.part.nonpolar>
-13.2072

> <Gold.PLP.part.repulsive>
0.0436

> <Gold.PLP.ligand.clash>
0.0000

> <Gold.PLP.ligand.torsion>
0.4671

> <Gold.PLP.Chemscore.Hbond>
6.9341

> <Gold.PLP.Chemscore.CHOScore>
0.0000

> <Gold.PLP.Chemscore.Metal>
0.0000

> <Gold.Chemscore.Hbonds>
donor molecule, donor type, donor heavy atom, donor atom, acceptor molecule, acceptor atom, score
      P1  H  6896  6907       L1    16  0.14
      P1  H  6931  6943       L1    10  2.00
      P1  H  6934  6947       L1    10  1.68
      P1  H  7989  7998       L1     3  0.96
      P1  H  7997  8008       L1     1  2.00

> <Gold.PLP.Chemscore.Internal.Correction>
0.0342

> <Gold.Rescore>
     Score         DG    S(hbond)    S(metal)    S(lipo)     H(rot)  DE(clash)    DE(int)     intcor
     10.06     -10.69       2.98        0.00      20.75       2.80       0.01       0.61       ----

> <Gold.Chemscore.Fitness>
10.0600

> <Gold.Chemscore.DG>
-10.6866

> <Gold.Chemscore.ZeroCoef>
-5.4800

> <Gold.Chemscore.Hbond>
2.9760

> <Gold.Chemscore.Metal>
0.0000

> <Gold.Chemscore.Lipo>
20.7520

> <Gold.Chemscore.Internal_Hbond>
0.0000

> <Gold.Chemscore.DEClash>
0.0147

> <Gold.Chemscore.DEInternal>
0.6118

> <Gold.Chemscore.Rot>
2.7973

> <Gold.Chemscore.Internal.Correction>
   9.000000E+99

> <Gold.Chemscore.Hbonds>
donor molecule, donor type, donor heavy atom, donor atom, acceptor molecule, acceptor atom, score
      P1  H  6896  6907       L1    16  0.02
      P1  H  6931  6943       L1    10  0.52
      P1  H  6934  6947       L1    10  0.23
      P1  H  7989  7998       L1     3  0.92
      P1  H  7997  8008       L1     1  0.35

> <Gold.Chemscore.Hbond.Weighted>
-9.9397

> <Gold.Chemscore.Metal.Weighted>
-0.0000

> <Gold.Chemscore.Lipo.Weighted>
-2.4280

> <Gold.Chemscore.Internal_Hbond.Weighted>
0.0000

> <Gold.Chemscore.DEClash.Weighted>
0.0147

> <Gold.Chemscore.DEInternal.Weighted>
0.6118

> <Gold.Chemscore.Rot.Weighted>
7.1611

> <Gold.Chemscore.Internal.Correction.Weighted>
   9.000000E+99

> <Gold.Protein.RotatedTorsions>
[ 6907 6896 6895 6894 ] final  -27.41 input  -60.11 | X-H torsion
[ 7974 7965 7964 7962 ] final  -97.73 input  175.53 | X-H torsion
[ 8008 7997 7996 7995 ] final  -49.30 input   59.86 | X-H torsion
[ 10167 10162 10161 10158 ] final  108.26 input  -65.29 | X-H torsion
[ 10718 10713 10712 10709 ] final  -83.86 input   66.30 | X-H torsion
[ 10763 10752 10751 10750 ] final  -69.99 input  -60.55 | X-H torsion
[ 11005 11000 10999 10996 ] final   57.00 input  -57.11 | X-H torsion

> <Gold.Protein.ActiveResidues>
 VAL166  LYS551  ARG553  GLY616  TRP617  ASP618  TYR619  PRO620  LYS621  CYS622 
 ASP623  PHE694  ASN695  SER759  ASP760  ASP761  ALA762  ILE779  LEU786  VAL792 
 PHE793  MET794  SER795  GLU796  ALA797  LYS798  CYS799  TRP800  GLU811  SER814 

> <Gold.Protein.RotatedAtoms>
  151.1472  135.0209  159.8651 H   0  0  0  0  0  0  0  0  0  0  0  0  # atno 6907 bound_to 6896
  152.5453  134.1430  159.8497 H   0  0  0  0  0  0  0  0  0  0  0  0  # atno 6908 bound_to 6896
  151.1512  133.4861  159.2628 H   0  0  0  0  0  0  0  0  0  0  0  0  # atno 6909 bound_to 6896
  145.3299  140.9439  143.2668 H   0  0  0  0  0  0  0  0  0  0  0  0  # atno 7974 bound_to 7965
  154.4042  140.1300  156.4481 H   0  0  0  0  0  0  0  0  0  0  0  0  # atno 8008 bound_to 7997
  155.7393  140.3490  155.5077 H   0  0  0  0  0  0  0  0  0  0  0  0  # atno 8009 bound_to 7997
  155.9054  140.1026  157.1309 H   0  0  0  0  0  0  0  0  0  0  0  0  # atno 8010 bound_to 7997
  139.6860  144.7113  151.1431 H   0  0  0  0  0  0  0  0  0  0  0  0  # atno 10167 bound_to 10162
  156.0013  130.4679  150.4322 H   0  0  0  0  0  0  0  0  0  0  0  0  # atno 10718 bound_to 10713
  154.4112  135.6008  153.5954 H   0  0  0  0  0  0  0  0  0  0  0  0  # atno 10763 bound_to 10752
  152.9790  135.5930  154.4067 H   0  0  0  0  0  0  0  0  0  0  0  0  # atno 10764 bound_to 10752
  154.3880  135.2841  155.2150 H   0  0  0  0  0  0  0  0  0  0  0  0  # atno 10765 bound_to 10752
  140.0486  134.5770  155.9292 H   0  0  0  0  0  0  0  0  0  0  0  0  # atno 11005 bound_to 11000
  144.8872  139.4823  143.6695 LP  0  0  0  0  0  0  0  0  0  0  0  0  # atno 17320 bound_to 7965
  146.3049  139.7549  142.9063 LP  0  0  0  0  0  0  0  0  0  0  0  0  # atno 17321 bound_to 7965
  140.7668  143.5628  150.9080 LP  0  0  0  0  0  0  0  0  0  0  0  0  # atno 17342 bound_to 10162
  139.9303  143.6501  152.3077 LP  0  0  0  0  0  0  0  0  0  0  0  0  # atno 17343 bound_to 10162
  157.2370  131.0517  151.2459 LP  0  0  0  0  0  0  0  0  0  0  0  0  # atno 17370 bound_to 10713
  157.3656  130.7154  149.6531 LP  0  0  0  0  0  0  0  0  0  0  0  0  # atno 17371 bound_to 10713
  141.1919  133.6573  156.5477 LP  0  0  0  0  0  0  0  0  0  0  0  0  # atno 17394 bound_to 11000
  140.3954  134.7403  157.4747 LP  0  0  0  0  0  0  0  0  0  0  0  0  # atno 17395 bound_to 11000

$$$$
