AV-unprocessed.smi:1667|AV-procd|sdf|6679|dock9
  -GOLD-   22720 7393D 1   1.00000     0.00000
 Structure written by MMmdl.
 46 48  0  0  0  0  0  0  0  0  2 V2000
  150.2398  134.0812  156.0757 C   0  0  0  0  0  0  0  0  0  0  0  0
  151.0135  135.3927  155.9958 C   0  0  0  0  0  0  0  0  0  0  0  0
  152.1796  135.4408  156.3856 O   0  0  0  0  0  0  0  0  0  0  0  0
  150.3508  136.4467  155.4937 N   0  0  0  0  0  0  0  0  0  0  0  0
  150.8929  137.7929  155.3358 C   0  0  1  0  0  0  0  0  0  0  0  0
  152.1078  137.7603  154.3938 C   0  0  0  0  0  0  0  0  0  0  0  0
  149.8314  138.7467  154.8717 C   0  0  0  0  0  0  0  0  0  0  0  0
  149.0608  138.6172  153.7526 N   0  3  0  0  0  0  0  0  0  0  0  0
  148.1835  139.6962  153.6499 C   0  0  0  0  0  0  0  0  0  0  0  0
  147.2272  140.0052  152.6877 C   0  0  0  0  0  0  0  0  0  0  0  0
  146.4964  141.1959  152.8815 C   0  0  0  0  0  0  0  0  0  0  0  0
  146.7264  142.0246  153.9990 C   0  0  0  0  0  0  0  0  0  0  0  0
  147.6969  141.6985  154.9694 C   0  0  0  0  0  0  0  0  0  0  0  0
  148.4169  140.5214  154.7678 C   0  0  0  0  0  0  0  0  0  0  0  0
  149.4344  139.8957  155.4968 N   0  0  0  0  0  0  0  0  0  0  0  0
  149.9030  140.5238  156.7436 C   0  0  0  0  0  0  0  0  0  0  0  0
  151.0217  141.5588  156.5089 C   0  0  1  0  0  0  0  0  0  0  0  0
  150.5242  142.5555  155.6405 O   0  0  0  0  0  0  0  0  0  0  0  0
  151.5474  142.1370  157.8144 C   0  0  0  0  0  0  0  0  0  0  0  0
  152.1351  141.2998  158.7890 C   0  0  0  0  0  0  0  0  0  0  0  0
  152.6563  141.8504  159.9756 C   0  0  0  0  0  0  0  0  0  0  0  0
  152.5904  143.2395  160.1967 C   0  0  0  0  0  0  0  0  0  0  0  0
  152.0034  144.0782  159.2301 C   0  0  0  0  0  0  0  0  0  0  0  0
  151.9445  145.4146  159.4386 F   0  0  0  0  0  0  0  0  0  0  0  0
  151.4830  143.5285  158.0427 C   0  0  0  0  0  0  0  0  0  0  0  0
  151.2477  138.1628  156.2967 H   0  0  0  0  0  0  0  0  0  0  0  0
  149.4763  134.0250  155.2989 H   0  0  0  0  0  0  0  0  0  0  0  0
  149.7526  133.9916  157.0467 H   0  0  0  0  0  0  0  0  0  0  0  0
  150.9130  133.2325  155.9505 H   0  0  0  0  0  0  0  0  0  0  0  0
  149.3935  136.3064  155.2054 H   0  0  0  0  0  0  0  0  0  0  0  0
  152.5518  138.7511  154.2916 H   0  0  0  0  0  0  0  0  0  0  0  0
  151.8374  137.4076  153.3979 H   0  0  0  0  0  0  0  0  0  0  0  0
  152.8816  137.0958  154.7800 H   0  0  0  0  0  0  0  0  0  0  0  0
  147.0488  139.3715  151.8312 H   0  0  0  0  0  0  0  0  0  0  0  0
  145.7448  141.4792  152.1589 H   0  0  0  0  0  0  0  0  0  0  0  0
  146.1470  142.9293  154.1141 H   0  0  0  0  0  0  0  0  0  0  0  0
  147.8667  142.3405  155.8214 H   0  0  0  0  0  0  0  0  0  0  0  0
  149.0422  140.9852  157.2293 H   0  0  0  0  0  0  0  0  0  0  0  0
  150.2433  139.7377  157.4174 H   0  0  0  0  0  0  0  0  0  0  0  0
  151.8499  141.0831  155.9825 H   0  0  0  0  0  0  0  0  0  0  0  0
  149.9239  143.1026  156.1239 H   0  0  0  0  0  0  0  0  0  0  0  0
  152.2037  140.2343  158.6232 H   0  0  0  0  0  0  0  0  0  0  0  0
  153.1118  141.2069  160.7138 H   0  0  0  0  0  0  0  0  0  0  0  0
  152.9922  143.6615  161.1060 H   0  0  0  0  0  0  0  0  0  0  0  0
  151.0452  144.1810  157.3015 H   0  0  0  0  0  0  0  0  0  0  0  0
  149.1392  137.8458  153.1025 H   0  0  0  0  0  0  0  0  0  0  0  0
  1  2  1  0  0  0  0
  1 27  1  0  0  0  0
  1 28  1  0  0  0  0
  1 29  1  0  0  0  0
  2  3  2  0  0  0  0
  2  4  1  0  0  0  0
  4  5  1  0  0  0  0
  4 30  1  0  0  0  0
  5 26  1  0  0  0  0
  5  6  1  0  0  0  0
  5  7  1  0  0  0  0
  6 31  1  0  0  0  0
  6 32  1  0  0  0  0
  6 33  1  0  0  0  0
  7 15  1  0  0  0  0
  7  8  2  0  0  0  0
  8  9  1  0  0  0  0
  8 46  1  0  0  0  0
  9 14  2  0  0  0  0
  9 10  1  0  0  0  0
 10 11  2  0  0  0  0
 10 34  1  0  0  0  0
 11 12  1  0  0  0  0
 11 35  1  0  0  0  0
 12 13  2  0  0  0  0
 12 36  1  0  0  0  0
 13 14  1  0  0  0  0
 13 37  1  0  0  0  0
 14 15  1  0  0  0  0
 15 16  1  0  0  0  0
 16 17  1  0  0  0  0
 16 38  1  0  0  0  0
 16 39  1  0  0  0  0
 17 18  1  0  0  0  0
 17 19  1  0  0  0  0
 17 40  1  0  0  0  0
 18 41  1  0  0  0  0
 19 25  1  0  0  0  0
 19 20  2  0  0  0  0
 20 21  1  0  0  0  0
 20 42  1  0  0  0  0
 21 22  2  0  0  0  0
 21 43  1  0  0  0  0
 22 23  1  0  0  0  0
 22 44  1  0  0  0  0
 23 24  1  0  0  0  0
 23 25  2  0  0  0  0
 25 45  1  0  0  0  0
M  CHG  1   8   1
M  END
> <s_m_source_file>
AV-unprocessed.smi

> <i_m_source_file_index>
1667

> <i_lp_mmshare_version>
43012

> <i_f3d_flags>
0

> <s_epik_input>
W0NIM11DKD1PKVtOSF1bQ0BASF0oW0NIM10pYyhuMSluKGMoYzEyKVtjSF1bY0hdW2NIXVtjSF0yKVtDSDJdW0NASF0oW09IXSljM1tjSF1bY0hdW2NIXWMoRilbY0hdMw==

> <s_epik_cmdline>
J2VwaWtfcHl0aG9uJywgJy1waCcsICc3LjAnLCAnLXRuJywgJzgnLCAnLW1hJywgJzIwMCcsICctbWV0YWxfYmluZGluZycsICctaW1hZScsICc8aW5maWxlLm1hZT4nLCAnLW9tYWUnLCAnPG91dGZpbGUubWFlPic=

> <r_epik_Ionization_Penalty>
0.950383

> <r_epik_Ionization_Penalty_Charging>
0.950379

> <r_epik_Ionization_Penalty_Neutral>
3.60962e-06

> <r_epik_State_Penalty>
0.994584

> <r_epik_Charging_Adjusted_Penalty>
1.94496

> <i_epik_Tot_Q>
1

> <i_epik_Tot_abs_Q>
1

> <r_epik_Metal_State_Penalty>
1.10485

> <b_epik_Metal_Only>
0

> <s_lp_Force_Field>
OPLS_2005

> <r_lp_Energy>
12.894

> <b_lp_Chiralities_Consistent>
1

> <s_lp_Variant>
AV-unprocessed.smi:1667-7

> <Gold.Version>
5.8.1

> <Gold.Id.Protein>
6NUR|6NUR_protein|mol2

> <Gold.PLP.Fitness>
56.3154

> <Gold.PLP.PLP>
-46.1406

> <Gold.PLP.part.hbond>
-4.0471

> <Gold.PLP.part.metal>
0.0000

> <Gold.PLP.part.buried>
3.3252

> <Gold.PLP.part.nonpolar>
-46.9542

> <Gold.PLP.part.repulsive>
0.1076

> <Gold.PLP.ligand.clash>
0.0000

> <Gold.PLP.ligand.torsion>
0.4510

> <Gold.PLP.Chemscore.Hbond>
3.6720

> <Gold.PLP.Chemscore.CHOScore>
0.0000

> <Gold.PLP.Chemscore.Metal>
0.0000

> <Gold.Chemscore.Hbonds>
donor molecule, donor type, donor heavy atom, donor atom, acceptor molecule, acceptor atom, score
      L1  H     8    46       P1  7948  2.00
      L1  H    18    41       P1  8028  0.67
      P1  H 10752 10763       L1     3  1.00

> <Gold.PLP.Chemscore.Internal.Correction>
0.0607

> <Gold.Rescore>
     Score         DG    S(hbond)    S(metal)    S(lipo)     H(rot)  DE(clash)    DE(int)     intcor
     19.38     -24.12       2.81        0.00     134.59       2.53       3.34       1.41       ----

> <Gold.Chemscore.Fitness>
19.3762

> <Gold.Chemscore.DG>
-24.1207

> <Gold.Chemscore.ZeroCoef>
-5.4800

> <Gold.Chemscore.Hbond>
2.8083

> <Gold.Chemscore.Metal>
0.0000

> <Gold.Chemscore.Lipo>
134.5873

> <Gold.Chemscore.Internal_Hbond>
0.0000

> <Gold.Chemscore.DEClash>
3.3381

> <Gold.Chemscore.DEInternal>
1.4064

> <Gold.Chemscore.Rot>
2.5335

> <Gold.Chemscore.Internal.Correction>
   9.000000E+99

> <Gold.Chemscore.Hbonds>
donor molecule, donor type, donor heavy atom, donor atom, acceptor molecule, acceptor atom, score
      L1  H     8    46       P1  7948  0.94
      L1  H    18    41       P1  8028  0.65
      P1  H 10752 10763       L1     3  0.65

> <Gold.Chemscore.Hbond.Weighted>
-9.3797

> <Gold.Chemscore.Metal.Weighted>
-0.0000

> <Gold.Chemscore.Lipo.Weighted>
-15.7467

> <Gold.Chemscore.Internal_Hbond.Weighted>
0.0000

> <Gold.Chemscore.DEClash.Weighted>
3.3381

> <Gold.Chemscore.DEInternal.Weighted>
1.4064

> <Gold.Chemscore.Rot.Weighted>
6.4856

> <Gold.Chemscore.Internal.Correction.Weighted>
   9.000000E+99

> <Gold.Protein.RotatedTorsions>
[ 6907 6896 6895 6894 ] final  157.14 input  -60.11 | X-H torsion
[ 7974 7965 7964 7962 ] final -145.63 input  175.53 | X-H torsion
[ 8008 7997 7996 7995 ] final -175.93 input   59.86 | X-H torsion
[ 10167 10162 10161 10158 ] final  -65.10 input  -65.29 | X-H torsion
[ 10718 10713 10712 10709 ] final   85.40 input   66.30 | X-H torsion
[ 10763 10752 10751 10750 ] final   89.98 input  -60.55 | X-H torsion
[ 11005 11000 10999 10996 ] final  -93.83 input  -57.11 | X-H torsion

> <Gold.Protein.ActiveResidues>
 VAL166  LYS551  ARG553  GLY616  TRP617  ASP618  TYR619  PRO620  LYS621  CYS622 
 ASP623  PHE694  ASN695  SER759  ASP760  ASP761  ALA762  ILE779  LEU786  VAL792 
 PHE793  MET794  SER795  GLU796  ALA797  LYS798  CYS799  TRP800  GLU811  SER814 

> <Gold.Protein.RotatedAtoms>
  152.0194  133.3893  159.4251 H   0  0  0  0  0  0  0  0  0  0  0  0  # atno 6907 bound_to 6896
  150.6891  134.3642  159.4973 H   0  0  0  0  0  0  0  0  0  0  0  0  # atno 6908 bound_to 6896
  152.1414  134.9059  160.0604 H   0  0  0  0  0  0  0  0  0  0  0  0  # atno 6909 bound_to 6896
  144.8214  140.5560  143.5575 H   0  0  0  0  0  0  0  0  0  0  0  0  # atno 7974 bound_to 7965
  155.9886  140.1196  157.0659 H   0  0  0  0  0  0  0  0  0  0  0  0  # atno 8008 bound_to 7997
  154.4204  140.1130  156.5602 H   0  0  0  0  0  0  0  0  0  0  0  0  # atno 8009 bound_to 7997
  155.6374  140.3473  155.4705 H   0  0  0  0  0  0  0  0  0  0  0  0  # atno 8010 bound_to 7997
  140.5753  143.2321  151.6454 H   0  0  0  0  0  0  0  0  0  0  0  0  # atno 10167 bound_to 10162
  157.6914  131.0173  150.2817 H   0  0  0  0  0  0  0  0  0  0  0  0  # atno 10718 bound_to 10713
  153.1927  135.4450  155.0170 H   0  0  0  0  0  0  0  0  0  0  0  0  # atno 10763 bound_to 10752
  154.8100  135.3290  154.7332 H   0  0  0  0  0  0  0  0  0  0  0  0  # atno 10764 bound_to 10752
  153.7785  135.6979  153.4948 H   0  0  0  0  0  0  0  0  0  0  0  0  # atno 10765 bound_to 10752
  141.1487  133.7914  157.0213 H   0  0  0  0  0  0  0  0  0  0  0  0  # atno 11005 bound_to 11000
  145.5096  139.1480  143.3612 LP  0  0  0  0  0  0  0  0  0  0  0  0  # atno 17320 bound_to 7965
  146.2520  140.5236  142.8889 LP  0  0  0  0  0  0  0  0  0  0  0  0  # atno 17321 bound_to 7965
  139.5139  144.3426  152.0726 LP  0  0  0  0  0  0  0  0  0  0  0  0  # atno 17342 bound_to 10162
  140.2569  144.4109  150.6200 LP  0  0  0  0  0  0  0  0  0  0  0  0  # atno 17343 bound_to 10162
  156.3363  130.3808  149.7448 LP  0  0  0  0  0  0  0  0  0  0  0  0  # atno 17370 bound_to 10713
  156.4971  130.8112  151.3118 LP  0  0  0  0  0  0  0  0  0  0  0  0  # atno 17371 bound_to 10713
  140.0814  134.9646  157.1629 LP  0  0  0  0  0  0  0  0  0  0  0  0  # atno 17394 bound_to 11000
  140.3572  134.2534  155.7191 LP  0  0  0  0  0  0  0  0  0  0  0  0  # atno 17395 bound_to 11000

$$$$
