AV-unprocessed.smi:1207|AV-procd|sdf|5051|dock8
  -GOLD-   22720 4 83D 1   1.00000     0.00000
 Structure written by MMmdl.
 52 54  0  0  0  0  0  0  0  0  2 V2000
  152.8601  143.4203  160.7817 C   0  0  0  0  0  0  0  0  0  0  0  0
  152.1937  142.7620  159.5864 C   0  0  0  0  0  0  0  0  0  0  0  0
  152.8147  141.6458  158.9822 C   0  0  0  0  0  0  0  0  0  0  0  0
  152.2270  141.0040  157.8704 C   0  0  0  0  0  0  0  0  0  0  0  0
  152.6560  139.9151  157.1316 N   0  0  0  0  0  0  0  0  0  0  0  0
  151.6825  139.7996  156.2338 C   0  0  0  0  0  0  0  0  0  0  0  0
  150.6774  140.6948  156.2952 N   0  0  0  0  0  0  0  0  0  0  0  0
  149.5215  140.7712  155.4197 C   0  0  0  0  0  0  0  0  0  0  0  0
  149.3905  139.5492  154.4863 C   0  0  2  0  0  0  0  0  0  0  0  0
  148.6621  139.9645  153.3480 O   0  0  0  0  0  0  0  0  0  0  0  0
  148.6772  138.3477  155.1498 C   0  0  0  0  0  0  0  0  0  0  0  0
  149.1555  137.0180  154.6779 N   0  3  1  0  0  0  0  0  0  0  0  0
  150.6240  136.8507  154.7997 C   0  0  0  0  0  0  0  0  0  0  0  0
  148.4330  135.8836  155.3111 C   0  0  0  0  0  0  0  0  0  0  0  0
  148.9676  134.5441  154.8695 C   0  0  0  0  0  0  0  0  0  0  0  0
  148.4142  133.6604  153.8987 C   0  0  0  0  0  0  0  0  0  0  0  0
  147.1716  133.8346  153.0736 C   0  0  0  0  0  0  0  0  0  0  0  0
  149.1400  132.5652  153.7571 N   0  0  0  0  0  0  0  0  0  0  0  0
  150.2138  132.6994  154.6420 O   0  0  0  0  0  0  0  0  0  0  0  0
  150.0918  133.8853  155.2898 C   0  0  0  0  0  0  0  0  0  0  0  0
  151.1536  134.2061  156.2878 C   0  0  0  0  0  0  0  0  0  0  0  0
  150.9904  141.5129  157.3756 C   0  0  0  0  0  0  0  0  0  0  0  0
  150.3619  142.6216  157.9696 C   0  0  0  0  0  0  0  0  0  0  0  0
  150.9643  143.2530  159.0777 C   0  0  0  0  0  0  0  0  0  0  0  0
  150.2813  144.4537  159.7085 C   0  0  0  0  0  0  0  0  0  0  0  0
  153.7863  142.9119  161.0512 H   0  0  0  0  0  0  0  0  0  0  0  0
  152.2008  143.3937  161.6495 H   0  0  0  0  0  0  0  0  0  0  0  0
  153.1013  144.4602  160.5607 H   0  0  0  0  0  0  0  0  0  0  0  0
  153.7510  141.2712  159.3697 H   0  0  0  0  0  0  0  0  0  0  0  0
  151.7062  139.0252  155.4808 H   0  0  0  0  0  0  0  0  0  0  0  0
  148.6303  140.8642  156.0429 H   0  0  0  0  0  0  0  0  0  0  0  0
  149.5910  141.6908  154.8374 H   0  0  0  0  0  0  0  0  0  0  0  0
  150.3911  139.2642  154.1645 H   0  0  0  0  0  0  0  0  0  0  0  0
  149.1592  139.7561  152.5720 H   0  0  0  0  0  0  0  0  0  0  0  0
  148.7931  138.3829  156.2339 H   0  0  0  0  0  0  0  0  0  0  0  0
  147.6109  138.4535  154.9542 H   0  0  0  0  0  0  0  0  0  0  0  0
  150.9476  136.9814  155.8332 H   0  0  0  0  0  0  0  0  0  0  0  0
  151.1632  137.5629  154.1765 H   0  0  0  0  0  0  0  0  0  0  0  0
  150.9321  135.8571  154.4724 H   0  0  0  0  0  0  0  0  0  0  0  0
  148.5243  135.9666  156.3947 H   0  0  0  0  0  0  0  0  0  0  0  0
  147.3673  135.9788  155.0990 H   0  0  0  0  0  0  0  0  0  0  0  0
  146.4089  134.3885  153.6210 H   0  0  0  0  0  0  0  0  0  0  0  0
  146.7400  132.8735  152.7913 H   0  0  0  0  0  0  0  0  0  0  0  0
  147.3881  134.3838  152.1569 H   0  0  0  0  0  0  0  0  0  0  0  0
  151.0744  135.2363  156.6341 H   0  0  0  0  0  0  0  0  0  0  0  0
  152.1448  134.0733  155.8538 H   0  0  0  0  0  0  0  0  0  0  0  0
  151.0745  133.5527  157.1569 H   0  0  0  0  0  0  0  0  0  0  0  0
  149.4232  142.9833  157.5770 H   0  0  0  0  0  0  0  0  0  0  0  0
  149.3476  144.6942  159.1992 H   0  0  0  0  0  0  0  0  0  0  0  0
  150.9263  145.3312  159.6558 H   0  0  0  0  0  0  0  0  0  0  0  0
  150.0499  144.2559  160.7553 H   0  0  0  0  0  0  0  0  0  0  0  0
  148.9415  136.9679  153.6922 H   0  0  0  0  0  0  0  0  0  0  0  0
  1  2  1  0  0  0  0
  1 26  1  0  0  0  0
  1 27  1  0  0  0  0
  1 28  1  0  0  0  0
  2 24  1  0  0  0  0
  2  3  2  0  0  0  0
  3  4  1  0  0  0  0
  3 29  1  0  0  0  0
  4 22  2  0  0  0  0
  4  5  1  0  0  0  0
  5  6  2  0  0  0  0
  6  7  1  0  0  0  0
  6 30  1  0  0  0  0
  7  8  1  0  0  0  0
  7 22  1  0  0  0  0
  8  9  1  0  0  0  0
  8 31  1  0  0  0  0
  8 32  1  0  0  0  0
  9 10  1  0  0  0  0
  9 11  1  0  0  0  0
  9 33  1  0  0  0  0
 10 34  1  0  0  0  0
 11 12  1  0  0  0  0
 11 35  1  0  0  0  0
 11 36  1  0  0  0  0
 12 13  1  0  0  0  0
 12 14  1  0  0  0  0
 12 52  1  0  0  0  0
 13 37  1  0  0  0  0
 13 38  1  0  0  0  0
 13 39  1  0  0  0  0
 14 15  1  0  0  0  0
 14 40  1  0  0  0  0
 14 41  1  0  0  0  0
 15 20  2  0  0  0  0
 15 16  1  0  0  0  0
 16 17  1  0  0  0  0
 16 18  2  0  0  0  0
 17 42  1  0  0  0  0
 17 43  1  0  0  0  0
 17 44  1  0  0  0  0
 18 19  1  0  0  0  0
 19 20  1  0  0  0  0
 20 21  1  0  0  0  0
 21 45  1  0  0  0  0
 21 46  1  0  0  0  0
 21 47  1  0  0  0  0
 22 23  1  0  0  0  0
 23 24  2  0  0  0  0
 23 48  1  0  0  0  0
 24 25  1  0  0  0  0
 25 49  1  0  0  0  0
 25 50  1  0  0  0  0
 25 51  1  0  0  0  0
M  CHG  1  12   1
M  END
> <s_m_source_file>
AV-unprocessed.smi

> <i_m_source_file_index>
1207

> <i_lp_mmshare_version>
43012

> <i_f3d_flags>
0

> <s_epik_input>
W0NIM11jKFtjSF0xKWMoW0NIM10pW2NIXWMoYzEyKW4oW2NIXW4yKVtDSDJdW0NASF0oW09IXSlbQ0gyXU4oW0NIM10pW0NIMl1jM2MoW0NIM10pbm9jM1tDSDNd

> <s_epik_cmdline>
J2VwaWtfcHl0aG9uJywgJy1waCcsICc3LjAnLCAnLXRuJywgJzgnLCAnLW1hJywgJzIwMCcsICctbWV0YWxfYmluZGluZycsICctaW1hZScsICc8aW5maWxlLm1hZT4nLCAnLW9tYWUnLCAnPG91dGZpbGUubWFlPic=

> <r_epik_Ionization_Penalty>
0.646518

> <r_epik_Ionization_Penalty_Charging>
0.559419

> <r_epik_Ionization_Penalty_Neutral>
0.0870981

> <r_epik_State_Penalty>
0.661677

> <r_epik_Charging_Adjusted_Penalty>
1.2211

> <i_epik_Tot_Q>
1

> <i_epik_Tot_abs_Q>
1

> <r_epik_Metal_State_Penalty>
0.649158

> <b_epik_Metal_Only>
0

> <s_lp_Force_Field>
OPLS_2005

> <r_lp_Energy>
10.0626

> <b_lp_Chiralities_Consistent>
1

> <s_lp_Variant>
AV-unprocessed.smi:1207-3

> <Gold.Version>
5.8.1

> <Gold.Id.Protein>
6NUR|6NUR_protein|mol2

> <Gold.PLP.Fitness>
52.3617

> <Gold.PLP.PLP>
-42.5199

> <Gold.PLP.part.hbond>
-2.4489

> <Gold.PLP.part.metal>
0.0000

> <Gold.PLP.part.buried>
-7.1375

> <Gold.PLP.part.nonpolar>
-33.6189

> <Gold.PLP.part.repulsive>
0.1554

> <Gold.PLP.ligand.clash>
0.0000

> <Gold.PLP.ligand.torsion>
1.0828

> <Gold.PLP.Chemscore.Hbond>
3.9263

> <Gold.PLP.Chemscore.CHOScore>
0.0000

> <Gold.PLP.Chemscore.Metal>
0.0000

> <Gold.Chemscore.Hbonds>
donor molecule, donor type, donor heavy atom, donor atom, acceptor molecule, acceptor atom, score
      L1  H    10    34       P1  7957  0.94
      L1  H    12    52       P1  7948  2.00
      P1  H  7997  8009       L1     5  1.00

> <Gold.PLP.Chemscore.Internal.Correction>
0.2286

> <Gold.Rescore>
     Score         DG    S(hbond)    S(metal)    S(lipo)     H(rot)  DE(clash)    DE(int)     intcor
     20.77     -22.01       2.83        0.00     114.35       2.46       0.09       1.15       ----

> <Gold.Chemscore.Fitness>
20.7690

> <Gold.Chemscore.DG>
-22.0113

> <Gold.Chemscore.ZeroCoef>
-5.4800

> <Gold.Chemscore.Hbond>
2.8267

> <Gold.Chemscore.Metal>
0.0000

> <Gold.Chemscore.Lipo>
114.3499

> <Gold.Chemscore.Internal_Hbond>
0.0000

> <Gold.Chemscore.DEClash>
0.0933

> <Gold.Chemscore.DEInternal>
1.1490

> <Gold.Chemscore.Rot>
2.4565

> <Gold.Chemscore.Internal.Correction>
   9.000000E+99

> <Gold.Chemscore.Hbonds>
donor molecule, donor type, donor heavy atom, donor atom, acceptor molecule, acceptor atom, score
      L1  H    10    34       P1  7957  0.87
      L1  H    12    52       P1  7948  0.98
      P1  H  7997  8009       L1     5  0.80

> <Gold.Chemscore.Hbond.Weighted>
-9.4411

> <Gold.Chemscore.Metal.Weighted>
-0.0000

> <Gold.Chemscore.Lipo.Weighted>
-13.3789

> <Gold.Chemscore.Internal_Hbond.Weighted>
0.0000

> <Gold.Chemscore.DEClash.Weighted>
0.0933

> <Gold.Chemscore.DEInternal.Weighted>
1.1490

> <Gold.Chemscore.Rot.Weighted>
6.2887

> <Gold.Chemscore.Internal.Correction.Weighted>
   9.000000E+99

> <Gold.Protein.RotatedTorsions>
[ 6907 6896 6895 6894 ] final   85.76 input  -60.11 | X-H torsion
[ 7974 7965 7964 7962 ] final   32.97 input  175.53 | X-H torsion
[ 8008 7997 7996 7995 ] final -176.18 input   59.86 | X-H torsion
[ 10167 10162 10161 10158 ] final -162.02 input  -65.29 | X-H torsion
[ 10718 10713 10712 10709 ] final  -11.42 input   66.30 | X-H torsion
[ 10763 10752 10751 10750 ] final -114.79 input  -60.55 | X-H torsion
[ 11005 11000 10999 10996 ] final  109.50 input  -57.11 | X-H torsion

> <Gold.Protein.ActiveResidues>
 VAL166  LYS551  ARG553  GLY616  TRP617  ASP618  TYR619  PRO620  LYS621  CYS622 
 ASP623  PHE694  ASN695  SER759  ASP760  ASP761  ALA762  ILE779  LEU786  VAL792 
 PHE793  MET794  SER795  GLU796  ALA797  LYS798  CYS799  TRP800  GLU811  SER814 

> <Gold.Protein.RotatedAtoms>
  152.5381  134.2536  159.8908 H   0  0  0  0  0  0  0  0  0  0  0  0  # atno 6907 bound_to 6896
  151.2499  133.4349  159.2618 H   0  0  0  0  0  0  0  0  0  0  0  0  # atno 6908 bound_to 6896
  151.0549  134.9712  159.8287 H   0  0  0  0  0  0  0  0  0  0  0  0  # atno 6909 bound_to 6896
  146.1452  139.6458  142.9136 H   0  0  0  0  0  0  0  0  0  0  0  0  # atno 7974 bound_to 7965
  155.9917  140.1202  157.0631 H   0  0  0  0  0  0  0  0  0  0  0  0  # atno 8008 bound_to 7997
  154.4214  140.1124  156.5643 H   0  0  0  0  0  0  0  0  0  0  0  0  # atno 8009 bound_to 7997
  155.6333  140.3473  155.4692 H   0  0  0  0  0  0  0  0  0  0  0  0  # atno 8010 bound_to 7997
  139.6422  144.0238  152.2100 H   0  0  0  0  0  0  0  0  0  0  0  0  # atno 10167 bound_to 10162
  156.6592  130.4977  149.6036 H   0  0  0  0  0  0  0  0  0  0  0  0  # atno 10718 bound_to 10713
  154.8455  135.4405  154.1562 H   0  0  0  0  0  0  0  0  0  0  0  0  # atno 10763 bound_to 10752
  153.2710  135.6945  153.7487 H   0  0  0  0  0  0  0  0  0  0  0  0  # atno 10764 bound_to 10752
  153.6727  135.3416  155.3133 H   0  0  0  0  0  0  0  0  0  0  0  0  # atno 10765 bound_to 10752
  139.8863  134.9460  156.6136 H   0  0  0  0  0  0  0  0  0  0  0  0  # atno 11005 bound_to 11000
  145.4955  141.0438  143.2569 LP  0  0  0  0  0  0  0  0  0  0  0  0  # atno 17320 bound_to 7965
  144.7838  139.6470  143.7143 LP  0  0  0  0  0  0  0  0  0  0  0  0  # atno 17321 bound_to 7965
  139.9931  144.6347  150.7797 LP  0  0  0  0  0  0  0  0  0  0  0  0  # atno 17342 bound_to 10162
  140.7497  143.2942  151.3248 LP  0  0  0  0  0  0  0  0  0  0  0  0  # atno 17343 bound_to 10162
  156.2024  130.6628  151.1181 LP  0  0  0  0  0  0  0  0  0  0  0  0  # atno 17370 bound_to 10713
  157.7115  131.0731  150.6483 LP  0  0  0  0  0  0  0  0  0  0  0  0  # atno 17371 bound_to 10713
  140.7793  133.8673  155.8554 LP  0  0  0  0  0  0  0  0  0  0  0  0  # atno 17394 bound_to 11000
  140.9774  134.1450  157.4524 LP  0  0  0  0  0  0  0  0  0  0  0  0  # atno 17395 bound_to 11000

$$$$
