AV-unprocessed.smi:716|AV-procd|sdf|3486|dock7
  -GOLD-   22720 0483D 1   1.00000     0.00000
 Structure written by MMmdl.
 48 50  0  0  0  0  0  0  0  0  1 V2000
  152.5436  143.1633  159.1410 C   0  0  0  0  0  0  0  0  0  0  0  0
  151.3747  142.8919  158.1918 C   0  0  0  0  0  0  0  0  0  0  0  0
  151.4888  141.5712  157.6885 O   0  0  0  0  0  0  0  0  0  0  0  0
  150.3219  141.1354  157.0014 C   0  0  2  0  0  0  0  0  0  0  0  0
  149.2645  140.5638  157.9546 C   0  0  0  0  0  0  0  0  0  0  0  0
  149.9829  139.2231  157.7965 C   0  0  1  0  0  0  0  0  0  0  0  0
  149.0570  138.0985  157.7595 N   0  0  0  0  0  0  0  0  0  0  0  0
  149.1909  136.9755  158.4785 C   0  0  0  0  0  0  0  0  0  0  0  0
  150.0965  136.7933  159.2915 O   0  0  0  0  0  0  0  0  0  0  0  0
  148.1469  135.8824  158.2338 C   0  0  0  0  0  0  0  0  0  0  0  0
  147.6070  135.3700  159.5000 N   0  0  0  0  0  0  0  0  0  0  0  0
  147.6023  133.9878  159.5947 N   0  0  0  0  0  0  0  0  0  0  0  0
  147.1127  133.3922  160.6321 C   0  0  0  0  0  0  0  0  0  0  0  0
  147.1348  131.8926  160.6469 C   0  0  0  0  0  0  0  0  0  0  0  0
  146.5698  134.1830  161.7201 C   0  0  0  0  0  0  0  0  0  0  0  0
  146.5779  135.5300  161.6274 C   0  0  0  0  0  0  0  0  0  0  0  0
  147.1174  136.2158  160.4556 C   0  0  0  0  0  0  0  0  0  0  0  0
  147.1176  137.4405  160.3325 O   0  0  0  0  0  0  0  0  0  0  0  0
  150.4862  139.7136  156.4104 C   0  0  0  0  0  0  0  0  0  0  0  0
  149.6542  139.3999  155.1587 C   0  0  0  0  0  0  0  0  0  0  0  0
  150.2890  138.1908  154.4663 C   0  0  0  0  0  0  0  0  0  0  0  0
  151.7287  138.1223  154.9789 C   0  0  0  0  0  0  0  0  0  0  0  0
  151.8833  139.2828  155.9665 C   0  0  0  0  0  0  0  0  0  0  0  0
  152.4854  144.1713  159.5522 H   0  0  0  0  0  0  0  0  0  0  0  0
  153.4981  143.0664  158.6232 H   0  0  0  0  0  0  0  0  0  0  0  0
  152.5409  142.4611  159.9749 H   0  0  0  0  0  0  0  0  0  0  0  0
  150.4304  143.0208  158.7219 H   0  0  0  0  0  0  0  0  0  0  0  0
  151.3900  143.6072  157.3682 H   0  0  0  0  0  0  0  0  0  0  0  0
  149.9424  141.8654  156.2844 H   0  0  0  0  0  0  0  0  0  0  0  0
  149.2762  140.9675  158.9670 H   0  0  0  0  0  0  0  0  0  0  0  0
  148.2603  140.5774  157.5266 H   0  0  0  0  0  0  0  0  0  0  0  0
  150.7894  139.1118  158.5254 H   0  0  0  0  0  0  0  0  0  0  0  0
  148.2831  138.1612  157.1135 H   0  0  0  0  0  0  0  0  0  0  0  0
  147.3410  136.2969  157.6253 H   0  0  0  0  0  0  0  0  0  0  0  0
  148.5800  135.0807  157.6323 H   0  0  0  0  0  0  0  0  0  0  0  0
  146.6860  131.4999  161.5595 H   0  0  0  0  0  0  0  0  0  0  0  0
  148.1572  131.5179  160.5898 H   0  0  0  0  0  0  0  0  0  0  0  0
  146.5777  131.4884  159.8011 H   0  0  0  0  0  0  0  0  0  0  0  0
  146.1660  133.6913  162.5927 H   0  0  0  0  0  0  0  0  0  0  0  0
  146.1733  136.1181  162.4380 H   0  0  0  0  0  0  0  0  0  0  0  0
  148.5998  139.2259  155.3750 H   0  0  0  0  0  0  0  0  0  0  0  0
  149.6870  140.2497  154.4758 H   0  0  0  0  0  0  0  0  0  0  0  0
  149.7607  137.2765  154.7336 H   0  0  0  0  0  0  0  0  0  0  0  0
  150.2451  138.2845  153.3809 H   0  0  0  0  0  0  0  0  0  0  0  0
  151.8987  137.1694  155.4810 H   0  0  0  0  0  0  0  0  0  0  0  0
  152.4528  138.1949  154.1668 H   0  0  0  0  0  0  0  0  0  0  0  0
  152.3845  140.1130  155.4672 H   0  0  0  0  0  0  0  0  0  0  0  0
  152.5150  138.9986  156.8088 H   0  0  0  0  0  0  0  0  0  0  0  0
  1  2  1  0  0  0  0
  1 24  1  0  0  0  0
  1 25  1  0  0  0  0
  1 26  1  0  0  0  0
  2  3  1  0  0  0  0
  2 27  1  0  0  0  0
  2 28  1  0  0  0  0
  3  4  1  0  0  0  0
  4 19  1  0  0  0  0
  4  5  1  0  0  0  0
  4 29  1  0  0  0  0
  5  6  1  0  0  0  0
  5 30  1  0  0  0  0
  5 31  1  0  0  0  0
  6  7  1  0  0  0  0
  6 19  1  0  0  0  0
  6 32  1  0  0  0  0
  7  8  1  0  0  0  0
  7 33  1  0  0  0  0
  8  9  2  0  0  0  0
  8 10  1  0  0  0  0
 10 11  1  0  0  0  0
 10 34  1  0  0  0  0
 10 35  1  0  0  0  0
 11 17  1  0  0  0  0
 11 12  1  0  0  0  0
 12 13  2  0  0  0  0
 13 14  1  0  0  0  0
 13 15  1  0  0  0  0
 14 36  1  0  0  0  0
 14 37  1  0  0  0  0
 14 38  1  0  0  0  0
 15 16  2  0  0  0  0
 15 39  1  0  0  0  0
 16 17  1  0  0  0  0
 16 40  1  0  0  0  0
 17 18  2  0  0  0  0
 19 23  1  0  0  0  0
 19 20  1  0  0  0  0
 20 21  1  0  0  0  0
 20 41  1  0  0  0  0
 20 42  1  0  0  0  0
 21 22  1  0  0  0  0
 21 43  1  0  0  0  0
 21 44  1  0  0  0  0
 22 23  1  0  0  0  0
 22 45  1  0  0  0  0
 22 46  1  0  0  0  0
 23 47  1  0  0  0  0
 23 48  1  0  0  0  0
M  END
> <s_m_source_file>
AV-unprocessed.smi

> <i_m_source_file_index>
716

> <i_lp_mmshare_version>
43012

> <i_f3d_flags>
0

> <s_epik_input>
W0NIMl0xW0NIMl1bQ0gyXVtDSDJdQzEyW0NASF0oT1tDSDJdW0NIM10pW0NIMl1bQ0BIXTJbTkhdQyg9TylbQ0gyXW4zbmMoW0NIM10pW2NIXVtjSF1jMz1P

> <s_epik_cmdline>
J2VwaWtfcHl0aG9uJywgJy1waCcsICc3LjAnLCAnLXRuJywgJzgnLCAnLW1hJywgJzIwMCcsICctbWV0YWxfYmluZGluZycsICctaW1hZScsICc8aW5maWxlLm1hZT4nLCAnLW9tYWUnLCAnPG91dGZpbGUubWFlPic=

> <r_lp_tautomer_probability>
1

> <r_epik_Ionization_Penalty>
4.75561e-08

> <r_epik_Ionization_Penalty_Charging>
2.86617e-08

> <r_epik_Ionization_Penalty_Neutral>
1.88944e-08

> <r_epik_State_Penalty>
-0

> <r_epik_Charging_Adjusted_Penalty>
2.86617e-08

> <i_epik_Tot_Q>
0

> <i_epik_Tot_abs_Q>
0

> <r_epik_Metal_State_Penalty>
-0

> <b_epik_Metal_Only>
0

> <s_lp_Force_Field>
OPLS_2005

> <r_lp_Energy>
50.4804

> <b_lp_Chiralities_Consistent>
1

> <s_lp_Variant>
AV-unprocessed.smi:716-1

> <Gold.Version>
5.8.1

> <Gold.Id.Protein>
6NUR|6NUR_protein|mol2

> <Gold.PLP.Fitness>
48.0185

> <Gold.PLP.PLP>
-40.9173

> <Gold.PLP.part.hbond>
-3.1013

> <Gold.PLP.part.metal>
0.0000

> <Gold.PLP.part.buried>
-4.2111

> <Gold.PLP.part.nonpolar>
-34.2155

> <Gold.PLP.part.repulsive>
0.1163

> <Gold.PLP.ligand.clash>
0.0000

> <Gold.PLP.ligand.torsion>
0.4843

> <Gold.PLP.Chemscore.Hbond>
2.5680

> <Gold.PLP.Chemscore.CHOScore>
0.0000

> <Gold.PLP.Chemscore.Metal>
0.0000

> <Gold.Chemscore.Hbonds>
donor molecule, donor type, donor heavy atom, donor atom, acceptor molecule, acceptor atom, score
      P1  H  6896  6908       L1     9  0.88
      P1  H  6934  6947       L1    18  1.00

> <Gold.PLP.Chemscore.Internal.Correction>
0.3659

> <Gold.Rescore>
     Score         DG    S(hbond)    S(metal)    S(lipo)     H(rot)  DE(clash)    DE(int)     intcor
     18.75     -20.74       2.59        0.00      94.40       1.73       0.00       1.98       ----

> <Gold.Chemscore.Fitness>
18.7528

> <Gold.Chemscore.DG>
-20.7368

> <Gold.Chemscore.ZeroCoef>
-5.4800

> <Gold.Chemscore.Hbond>
2.5907

> <Gold.Chemscore.Metal>
0.0000

> <Gold.Chemscore.Lipo>
94.4017

> <Gold.Chemscore.Internal_Hbond>
0.0000

> <Gold.Chemscore.DEClash>
0.0000

> <Gold.Chemscore.DEInternal>
1.9840

> <Gold.Chemscore.Rot>
1.7348

> <Gold.Chemscore.Internal.Correction>
   9.000000E+99

> <Gold.Chemscore.Hbonds>
donor molecule, donor type, donor heavy atom, donor atom, acceptor molecule, acceptor atom, score
      P1  H  6896  6908       L1     9  0.86
      P1  H  6934  6947       L1    18  1.00

> <Gold.Chemscore.Hbond.Weighted>
-8.6529

> <Gold.Chemscore.Metal.Weighted>
-0.0000

> <Gold.Chemscore.Lipo.Weighted>
-11.0450

> <Gold.Chemscore.Internal_Hbond.Weighted>
0.0000

> <Gold.Chemscore.DEClash.Weighted>
0.0000

> <Gold.Chemscore.DEInternal.Weighted>
1.9840

> <Gold.Chemscore.Rot.Weighted>
4.4411

> <Gold.Chemscore.Internal.Correction.Weighted>
   9.000000E+99

> <Gold.Protein.RotatedTorsions>
[ 6907 6896 6895 6894 ] final -145.28 input  -60.11 | X-H torsion
[ 7974 7965 7964 7962 ] final  -43.94 input  175.53 | X-H torsion
[ 8008 7997 7996 7995 ] final  165.69 input   59.86 | X-H torsion
[ 10167 10162 10161 10158 ] final  160.62 input  -65.29 | X-H torsion
[ 10718 10713 10712 10709 ] final  153.27 input   66.30 | X-H torsion
[ 10763 10752 10751 10750 ] final   -3.97 input  -60.55 | X-H torsion
[ 11005 11000 10999 10996 ] final -102.50 input  -57.11 | X-H torsion

> <Gold.Protein.ActiveResidues>
 VAL166  LYS551  ARG553  GLY616  TRP617  ASP618  TYR619  PRO620  LYS621  CYS622 
 ASP623  PHE694  ASN695  SER759  ASP760  ASP761  ALA762  ILE779  LEU786  VAL792 
 PHE793  MET794  SER795  GLU796  ALA797  LYS798  CYS799  TRP800  GLU811  SER814 

> <Gold.Protein.RotatedAtoms>
  151.1256  133.5073  159.2600 H   0  0  0  0  0  0  0  0  0  0  0  0  # atno 6907 bound_to 6896
  151.1814  135.0362  159.8804 H   0  0  0  0  0  0  0  0  0  0  0  0  # atno 6908 bound_to 6896
  152.5458  134.1107  159.8411 H   0  0  0  0  0  0  0  0  0  0  0  0  # atno 6909 bound_to 6896
  145.9970  140.7117  142.9289 H   0  0  0  0  0  0  0  0  0  0  0  0  # atno 7974 bound_to 7965
  156.1779  140.1663  156.8328 H   0  0  0  0  0  0  0  0  0  0  0  0  # atno 8008 bound_to 7997
  154.5328  140.0753  156.8408 H   0  0  0  0  0  0  0  0  0  0  0  0  # atno 8009 bound_to 7997
  155.3373  140.3382  155.4241 H   0  0  0  0  0  0  0  0  0  0  0  0  # atno 8010 bound_to 7997
  139.4841  144.4617  151.8696 H   0  0  0  0  0  0  0  0  0  0  0  0  # atno 10167 bound_to 10162
  157.2469  131.0771  151.1756 H   0  0  0  0  0  0  0  0  0  0  0  0  # atno 10718 bound_to 10713
  153.3785  135.6997  153.6583 H   0  0  0  0  0  0  0  0  0  0  0  0  # atno 10763 bound_to 10752
  153.5204  135.3613  155.2630 H   0  0  0  0  0  0  0  0  0  0  0  0  # atno 10764 bound_to 10752
  154.8690  135.4156  154.3078 H   0  0  0  0  0  0  0  0  0  0  0  0  # atno 10765 bound_to 10752
  141.1187  133.8563  157.1367 H   0  0  0  0  0  0  0  0  0  0  0  0  # atno 11005 bound_to 11000
  144.6907  140.3168  143.7239 LP  0  0  0  0  0  0  0  0  0  0  0  0  # atno 17320 bound_to 7965
  145.7545  139.1804  143.2302 LP  0  0  0  0  0  0  0  0  0  0  0  0  # atno 17321 bound_to 7965
  140.4079  144.2407  150.5890 LP  0  0  0  0  0  0  0  0  0  0  0  0  # atno 17342 bound_to 10162
  140.4994  143.2322  151.8701 LP  0  0  0  0  0  0  0  0  0  0  0  0  # atno 17343 bound_to 10162
  157.3319  130.6989  149.6330 LP  0  0  0  0  0  0  0  0  0  0  0  0  # atno 17370 bound_to 10713
  155.9667  130.4305  150.4878 LP  0  0  0  0  0  0  0  0  0  0  0  0  # atno 17371 bound_to 10713
  140.0127  134.9981  157.0429 LP  0  0  0  0  0  0  0  0  0  0  0  0  # atno 17394 bound_to 11000
  140.4572  134.1521  155.7187 LP  0  0  0  0  0  0  0  0  0  0  0  0  # atno 17395 bound_to 11000

$$$$
