#       Name:                AV-unprocessed.smi:977
#       Creating user name   scv26
#       Creation time:       Fri Mar 27 02:21:14 2020


#       File generated by GOLD software.
#

@<TRIPOS>MOLECULE
AV-unprocessed.smi:977
    44    45     1
SMALL
NO_CHARGES


@<TRIPOS>ATOM
      1 ****        -3.1477  -1.7035  -0.0894 C.3            1 S1                 0.0000
      2 ****        -3.5529  -0.3735  -0.6617 C.2            1 S1                 0.0000
      3 ****        -4.8176  -0.1805  -1.0069 N.2            1 S1                 0.0000
      4 ****        -4.8915   1.1045  -1.5667 O.3            1 S1                 0.0000
      5 ****        -3.6541   1.6651  -1.5462 C.2            1 S1                 0.0000
      6 ****        -3.5202   3.0357  -2.1190 C.3            1 S1                 0.0000
      7 ****        -2.7859   0.7904  -0.9627 C.2            1 S1                 0.0000
      8 ****        -1.3984   1.0242  -0.7942 N.am           1 S1                 0.0000
      9 ****        -0.6342   0.6229   0.2324 C.2            1 S1                 0.0000
     10 ****        -1.0476   0.0189   1.2217 O.2            1 S1                 0.0000
     11 ****         0.6461   0.9792   0.0553 N.am           1 S1                 0.0000
     12 ****         1.7463   0.7082   0.9797 C.3            1 S1                 0.0000
     13 ****         2.6161   1.9690   1.0912 C.3            1 S1                 0.0000
     14 ****         2.5641  -0.5127   0.5080 C.3            1 S1                 0.0000
     15 ****         1.7749  -1.8180   0.3878 C.3            1 S1                 0.0000
     16 ****         2.8759  -2.8487   0.4795 C.3            1 S1                 0.0000
     17 ****         3.8060  -2.2251   1.5165 C.3            1 S1                 0.0000
     18 ****         3.5977  -0.8163   1.4418 O.3            1 S1                 0.0000
     19 ****        -2.1373  -1.9744  -0.3957 H              1 S1                 0.0000
     20 ****        -3.8121  -2.5008  -0.4237 H              1 S1                 0.0000
     21 ****        -3.1763  -1.6862   0.9999 H              1 S1                 0.0000
     22 ****        -2.4721   3.3071  -2.2469 H              1 S1                 0.0000
     23 ****        -3.9831   3.7734  -1.4635 H              1 S1                 0.0000
     24 ****        -4.0051   3.0969  -3.0933 H              1 S1                 0.0000
     25 ****        -0.9626   1.6230  -1.4803 H              1 S1                 0.0000
     26 ****         0.8832   1.4766  -0.7905 H              1 S1                 0.0000
     27 ****         1.3485   0.4958   1.9738 H              1 S1                 0.0000
     28 ****         3.4283   1.8258   1.8043 H              1 S1                 0.0000
     29 ****         2.0287   2.8217   1.4331 H              1 S1                 0.0000
     30 ****         3.0602   2.2330   0.1309 H              1 S1                 0.0000
     31 ****         3.0380  -0.2974  -0.4515 H              1 S1                 0.0000
     32 ****         1.0878  -1.9319   1.2275 H              1 S1                 0.0000
     33 ****         1.2016  -1.8881  -0.5371 H              1 S1                 0.0000
     34 ****         2.5169  -3.8373   0.7669 H              1 S1                 0.0000
     35 ****         3.3863  -2.9351  -0.4807 H              1 S1                 0.0000
     36 ****         3.5408  -2.5595   2.5201 H              1 S1                 0.0000
     37 ****         4.8506  -2.4816   1.3390 H              1 S1                 0.0000
     38 ****        -5.5730  -0.8254  -0.8910 LP             1 S1                 0.0000
     39 ****        -5.5237   1.6669  -1.0339 LP             1 S1                 0.0000
     40 ****        -5.2158   1.0414  -2.5105 LP             1 S1                 0.0000
     41 ****        -2.0187  -0.2064   1.3003 LP             1 S1                 0.0000
     42 ****        -0.4124  -0.2466   1.9470 LP             1 S1                 0.0000
     43 ****         3.3366  -0.4740   2.3444 LP             1 S1                 0.0000
     44 ****         4.4454  -0.3734   1.1498 LP             1 S1                 0.0000
@<TRIPOS>BOND
    1    1    2 1     
    2    1   19 1     
    3    1   20 1     
    4    1   21 1     
    5    2    7 1     
    6    2    3 2     
    7    3    4 1     
    8    4    5 1     
    9    5    6 1     
   10    5    7 2     
   11    6   22 1     
   12    6   23 1     
   13    6   24 1     
   14    7    8 1     
   15    8    9 am    
   16    8   25 1     
   17    9   10 2     
   18    9   11 am    
   19   11   12 1     
   20   11   26 1     
   21   12   13 1     
   22   12   14 1     
   23   12   27 1     
   24   13   28 1     
   25   13   29 1     
   26   13   30 1     
   27   14   18 1     
   28   14   15 1     
   29   14   31 1     
   30   15   16 1     
   31   15   32 1     
   32   15   33 1     
   33   16   17 1     
   34   16   34 1     
   35   16   35 1     
   36   17   18 1     
   37   17   36 1     
   38   17   37 1     
   39    3   38 1     
   40    4   39 1     
   41    4   40 1     
   42   10   41 1     
   43   10   42 1     
   44   18   43 1     
   45   18   44 1     
@<TRIPOS>SUBSTRUCTURE
      1 S1             1
@<TRIPOS>SET
LONE_PAIRS      STATIC     ATOMS    <user>   **** ""
7 38 39 40 41 42 43 44
DONOR_HYDROGENS      STATIC     ATOMS    <user>   **** ""
2 25 26
ATOM$BLUE        STATIC     ATOMS    COLORGROUP SYSTEM
7 38 39 40 41 42 43 44
ATOM$RED        STATIC     ATOMS    COLORGROUP SYSTEM
2 25 26
