AV-unprocessed.smi:781|AV-procd|sdf|3713|dock1
  -GOLD-   22720 1133D 1   1.00000     0.00000
 Structure written by MMmdl.
 38 40  0  0  0  0  0  0  0  0  1 V2000
  146.4797  133.9872  162.4722 C   0  0  0  0  0  0  0  0  0  0  0  0
  146.9822  135.1035  161.6222 C   0  0  0  0  0  0  0  0  0  0  0  0
  147.3703  135.1735  160.3137 C   0  0  0  0  0  0  0  0  0  0  0  0
  147.7336  136.5379  160.1603 C   0  0  0  0  0  0  0  0  0  0  0  0
  148.2040  137.0303  158.9164 N   0  0  0  0  0  0  0  0  0  0  0  0
  149.4325  136.8884  158.3908 C   0  0  0  0  0  0  0  0  0  0  0  0
  150.3714  136.2998  158.9273 O   0  0  0  0  0  0  0  0  0  0  0  0
  149.5193  137.4811  157.1919 N   0  0  0  0  0  0  0  0  0  0  0  0
  150.7252  137.5238  156.3642 C   0  0  2  0  0  0  0  0  0  0  0  0
  151.8380  138.4354  156.9448 C   0  0  2  0  0  0  0  0  0  0  0  0
  151.2836  139.8255  157.3228 C   0  0  0  0  0  0  0  0  0  0  0  0
  150.9909  140.4539  155.9486 C   0  0  0  0  0  0  0  0  0  0  0  0
  151.4487  139.3588  154.9621 C   0  0  1  0  0  0  0  0  0  0  0  0
  152.6498  138.7793  155.7002 C   0  0  0  0  0  0  0  0  0  0  0  0
  150.4928  138.1406  154.9560 C   0  0  2  0  0  0  0  0  0  0  0  0
  149.0314  138.4243  154.5408 C   0  0  0  0  0  0  0  0  0  0  0  0
  148.9611  138.7111  153.1601 O   0  0  0  0  0  0  0  0  0  0  0  0
  147.5820  137.2375  161.2744 N   0  0  0  0  0  0  0  0  0  0  0  0
  147.1009  136.3213  162.2174 O   0  0  0  0  0  0  0  0  0  0  0  0
  146.0441  133.1978  161.8596 H   0  0  0  0  0  0  0  0  0  0  0  0
  145.7134  134.3386  163.1634 H   0  0  0  0  0  0  0  0  0  0  0  0
  147.2905  133.5532  163.0572 H   0  0  0  0  0  0  0  0  0  0  0  0
  147.3892  134.3756  159.5862 H   0  0  0  0  0  0  0  0  0  0  0  0
  147.5325  137.5468  158.3683 H   0  0  0  0  0  0  0  0  0  0  0  0
  148.6998  137.9433  156.8265 H   0  0  0  0  0  0  0  0  0  0  0  0
  151.1069  136.5081  156.2424 H   0  0  0  0  0  0  0  0  0  0  0  0
  152.4097  137.9659  157.7460 H   0  0  0  0  0  0  0  0  0  0  0  0
  150.4044  139.7892  157.9656 H   0  0  0  0  0  0  0  0  0  0  0  0
  152.0423  140.4064  157.8490 H   0  0  0  0  0  0  0  0  0  0  0  0
  149.9459  140.7353  155.8280 H   0  0  0  0  0  0  0  0  0  0  0  0
  151.5850  141.3588  155.8157 H   0  0  0  0  0  0  0  0  0  0  0  0
  151.6731  139.7387  153.9650 H   0  0  0  0  0  0  0  0  0  0  0  0
  153.4401  139.5095  155.8847 H   0  0  0  0  0  0  0  0  0  0  0  0
  153.0825  137.9049  155.2105 H   0  0  0  0  0  0  0  0  0  0  0  0
  150.8863  137.4276  154.2285 H   0  0  0  0  0  0  0  0  0  0  0  0
  148.4116  137.5486  154.7357 H   0  0  0  0  0  0  0  0  0  0  0  0
  148.5948  139.2503  155.1010 H   0  0  0  0  0  0  0  0  0  0  0  0
  148.9146  137.8955  152.6852 H   0  0  0  0  0  0  0  0  0  0  0  0
  1  2  1  0  0  0  0
  1 20  1  0  0  0  0
  1 21  1  0  0  0  0
  1 22  1  0  0  0  0
  2 19  1  0  0  0  0
  2  3  2  0  0  0  0
  3  4  1  0  0  0  0
  3 23  1  0  0  0  0
  4  5  1  0  0  0  0
  4 18  2  0  0  0  0
  5  6  1  0  0  0  0
  5 24  1  0  0  0  0
  6  7  2  0  0  0  0
  6  8  1  0  0  0  0
  8  9  1  0  0  0  0
  8 25  1  0  0  0  0
  9 15  1  0  0  0  0
  9 10  1  0  0  0  0
  9 26  1  0  0  0  0
 10 14  1  0  0  0  0
 10 11  1  0  0  0  0
 10 27  1  0  0  0  0
 11 12  1  0  0  0  0
 11 28  1  0  0  0  0
 11 29  1  0  0  0  0
 12 13  1  0  0  0  0
 12 30  1  0  0  0  0
 12 31  1  0  0  0  0
 13 14  1  0  0  0  0
 13 15  1  0  0  0  0
 13 32  1  0  0  0  0
 14 33  1  0  0  0  0
 14 34  1  0  0  0  0
 15 16  1  0  0  0  0
 15 35  1  0  0  0  0
 16 17  1  0  0  0  0
 16 36  1  0  0  0  0
 16 37  1  0  0  0  0
 17 38  1  0  0  0  0
 18 19  1  0  0  0  0
M  END
> <s_m_source_file>
AV-unprocessed.smi

> <i_m_source_file_index>
781

> <i_lp_mmshare_version>
43012

> <i_f3d_flags>
0

> <s_epik_input>
W0NIM11jMVtjSF1jKG5vMSlbTkhdQyg9TylbTkhdW0NASF0oW0NAQEhdMjMpW0NASF0oW0NIMl1bT0hdKVtDQEBIXShbQ0gyXTMpW0NIMl1bQ0gyXTI=

> <s_epik_cmdline>
J2VwaWtfcHl0aG9uJywgJy1waCcsICc3LjAnLCAnLXRuJywgJzgnLCAnLW1hJywgJzIwMCcsICctbWV0YWxfYmluZGluZycsICctaW1hZScsICc8aW5maWxlLm1hZT4nLCAnLW9tYWUnLCAnPG91dGZpbGUubWFlPic=

> <r_lp_tautomer_probability>
1

> <r_epik_Ionization_Penalty>
2.32222e-05

> <r_epik_Ionization_Penalty_Charging>
0

> <r_epik_Ionization_Penalty_Neutral>
2.32222e-05

> <r_epik_State_Penalty>
-0

> <r_epik_Charging_Adjusted_Penalty>
0

> <i_epik_Tot_Q>
0

> <i_epik_Tot_abs_Q>
0

> <r_epik_Metal_State_Penalty>
-0

> <b_epik_Metal_Only>
0

> <s_lp_Force_Field>
OPLS_2005

> <r_lp_Energy>
48.8518

> <b_lp_Chiralities_Consistent>
1

> <s_lp_Variant>
AV-unprocessed.smi:781-7

> <Gold.Version>
5.8.1

> <Gold.Id.Protein>
6NUR|6NUR_protein|mol2

> <Gold.PLP.Fitness>
41.7503

> <Gold.PLP.PLP>
-32.0450

> <Gold.PLP.part.hbond>
-4.8907

> <Gold.PLP.part.metal>
0.0000

> <Gold.PLP.part.buried>
-3.2770

> <Gold.PLP.part.nonpolar>
-23.8819

> <Gold.PLP.part.repulsive>
0.1615

> <Gold.PLP.ligand.clash>
0.0000

> <Gold.PLP.ligand.torsion>
0.8525

> <Gold.PLP.Chemscore.Hbond>
3.8000

> <Gold.PLP.Chemscore.CHOScore>
0.0000

> <Gold.PLP.Chemscore.Metal>
0.0000

> <Gold.Chemscore.Hbonds>
donor molecule, donor type, donor heavy atom, donor atom, acceptor molecule, acceptor atom, score
      L1  H    17    38       P1  7948  1.00
      P1  H  6896  6907       L1     7  1.00
      P1  H  6931  6943       L1    18  0.91
      P1  H  6934  6947       L1    18  0.88

> <Gold.PLP.Chemscore.Internal.Correction>
0.0103

> <Gold.Rescore>
     Score         DG    S(hbond)    S(metal)    S(lipo)     H(rot)  DE(clash)    DE(int)     intcor
     19.30     -20.42       3.52        0.00      67.91       1.86       0.21       0.90       ----

> <Gold.Chemscore.Fitness>
19.2990

> <Gold.Chemscore.DG>
-20.4165

> <Gold.Chemscore.ZeroCoef>
-5.4800

> <Gold.Chemscore.Hbond>
3.5177

> <Gold.Chemscore.Metal>
0.0000

> <Gold.Chemscore.Lipo>
67.9128

> <Gold.Chemscore.Internal_Hbond>
0.0000

> <Gold.Chemscore.DEClash>
0.2130

> <Gold.Chemscore.DEInternal>
0.9045

> <Gold.Chemscore.Rot>
1.8587

> <Gold.Chemscore.Internal.Correction>
   9.000000E+99

> <Gold.Chemscore.Hbonds>
donor molecule, donor type, donor heavy atom, donor atom, acceptor molecule, acceptor atom, score
      L1  H    17    38       P1  7948  1.00
      P1  H  6896  6907       L1     7  0.96
      P1  H  6931  6943       L1    18  0.73
      P1  H  6934  6947       L1    18  0.74

> <Gold.Chemscore.Hbond.Weighted>
-11.7491

> <Gold.Chemscore.Metal.Weighted>
-0.0000

> <Gold.Chemscore.Lipo.Weighted>
-7.9458

> <Gold.Chemscore.Internal_Hbond.Weighted>
0.0000

> <Gold.Chemscore.DEClash.Weighted>
0.2130

> <Gold.Chemscore.DEInternal.Weighted>
0.9045

> <Gold.Chemscore.Rot.Weighted>
4.7583

> <Gold.Chemscore.Internal.Correction.Weighted>
   9.000000E+99

> <Gold.Protein.RotatedTorsions>
[ 6907 6896 6895 6894 ] final  -52.52 input  -60.11 | X-H torsion
[ 7974 7965 7964 7962 ] final -128.47 input  175.53 | X-H torsion
[ 8008 7997 7996 7995 ] final -143.04 input   59.86 | X-H torsion
[ 10167 10162 10161 10158 ] final -137.42 input  -65.29 | X-H torsion
[ 10718 10713 10712 10709 ] final  -53.24 input   66.30 | X-H torsion
[ 10763 10752 10751 10750 ] final   94.61 input  -60.55 | X-H torsion
[ 11005 11000 10999 10996 ] final   62.42 input  -57.11 | X-H torsion

> <Gold.Protein.ActiveResidues>
 VAL166  LYS551  ARG553  GLY616  TRP617  ASP618  TYR619  PRO620  LYS621  CYS622 
 ASP623  PHE694  ASN695  SER759  ASP760  ASP761  ALA762  ILE779  LEU786  VAL792 
 PHE793  MET794  SER795  GLU796  ALA797  LYS798  CYS799  TRP800  GLU811  SER814 

> <Gold.Protein.RotatedAtoms>
  150.8510  134.7835  159.7008 H   0  0  0  0  0  0  0  0  0  0  0  0  # atno 6907 bound_to 6896
  152.4575  134.5256  159.9805 H   0  0  0  0  0  0  0  0  0  0  0  0  # atno 6908 bound_to 6896
  151.5377  133.3400  159.2965 H   0  0  0  0  0  0  0  0  0  0  0  0  # atno 6909 bound_to 6896
  144.9667  140.7503  143.4695 H   0  0  0  0  0  0  0  0  0  0  0  0  # atno 7974 bound_to 7965
  155.5041  140.0578  157.2934 H   0  0  0  0  0  0  0  0  0  0  0  0  # atno 8008 bound_to 7997
  154.4576  140.1980  156.0285 H   0  0  0  0  0  0  0  0  0  0  0  0  # atno 8009 bound_to 7997
  156.0829  140.3244  155.7720 H   0  0  0  0  0  0  0  0  0  0  0  0  # atno 8010 bound_to 7997
  139.8580  143.7114  152.2652 H   0  0  0  0  0  0  0  0  0  0  0  0  # atno 10167 bound_to 10162
  156.1552  130.4150  149.9881 H   0  0  0  0  0  0  0  0  0  0  0  0  # atno 10718 bound_to 10713
  153.2437  135.4283  155.0725 H   0  0  0  0  0  0  0  0  0  0  0  0  # atno 10763 bound_to 10752
  154.8352  135.3409  154.6613 H   0  0  0  0  0  0  0  0  0  0  0  0  # atno 10764 bound_to 10752
  153.7036  135.7027  153.5113 H   0  0  0  0  0  0  0  0  0  0  0  0  # atno 10765 bound_to 10752
  140.0093  134.6321  155.9806 H   0  0  0  0  0  0  0  0  0  0  0  0  # atno 11005 bound_to 11000
  145.2619  139.1989  143.4887 LP  0  0  0  0  0  0  0  0  0  0  0  0  # atno 17320 bound_to 7965
  146.3370  140.2550  142.8600 LP  0  0  0  0  0  0  0  0  0  0  0  0  # atno 17321 bound_to 7965
  139.7401  144.7561  151.0665 LP  0  0  0  0  0  0  0  0  0  0  0  0  # atno 17342 bound_to 10162
  140.7779  143.4982  150.9805 LP  0  0  0  0  0  0  0  0  0  0  0  0  # atno 17343 bound_to 10162
  156.7727  130.9192  151.3644 LP  0  0  0  0  0  0  0  0  0  0  0  0  # atno 17370 bound_to 10713
  157.6689  130.9033  149.9994 LP  0  0  0  0  0  0  0  0  0  0  0  0  # atno 17371 bound_to 10713
  141.1699  133.6537  156.4615 LP  0  0  0  0  0  0  0  0  0  0  0  0  # atno 17394 bound_to 11000
  140.4584  134.6864  157.5073 LP  0  0  0  0  0  0  0  0  0  0  0  0  # atno 17395 bound_to 11000

$$$$
