AV-unprocessed.smi:246|AV-procd|sdf|1884|dock3
  -GOLD-   2262020533D 1   1.00000     0.00000
 Structure written by MMmdl.
 57 60  0  0  0  0  0  0  0  0  1 V2000
  145.0214  132.0199  150.3142 C   0  0  0  0  0  0  0  0  0  0  0  0
  146.1955  131.6235  151.2200 C   0  0  0  0  0  0  0  0  0  0  0  0
  146.7982  132.7568  151.8287 O   0  0  0  0  0  0  0  0  0  0  0  0
  147.7726  132.4423  152.8128 C   0  0  0  0  0  0  0  0  0  0  0  0
  148.2119  133.7350  153.5061 C   0  0  0  0  0  0  0  0  0  0  0  0
  149.3094  133.4446  154.3578 O   0  0  0  0  0  0  0  0  0  0  0  0
  149.5018  134.3967  155.3934 C   0  0  1  0  0  0  0  0  0  0  0  0
  150.6712  134.0590  156.3223 C   0  0  0  0  0  0  0  0  0  0  0  0
  151.1223  135.4227  156.8523 C   0  0  0  0  0  0  0  0  0  0  0  0
  150.6936  136.3936  155.8510 N   0  0  0  0  0  0  0  0  0  0  0  0
  151.3516  137.5673  155.6569 C   0  0  0  0  0  0  0  0  0  0  0  0
  152.4551  137.5612  154.8625 N   0  0  0  0  0  0  0  0  0  0  0  0
  153.1369  138.6866  154.6327 C   0  0  0  0  0  0  0  0  0  0  0  0
  152.8969  139.9146  155.0926 N   0  0  0  0  0  0  0  0  0  0  0  0
  151.7983  139.9317  155.8992 C   0  0  0  0  0  0  0  0  0  0  0  0
  150.9764  138.8170  156.2370 C   0  0  0  0  0  0  0  0  0  0  0  0
  149.9586  139.2355  157.0891 N   0  0  0  0  0  0  0  0  0  0  0  0
  150.1607  140.5157  157.2364 C   0  0  0  0  0  0  0  0  0  0  0  0
  151.2400  141.0180  156.5479 N   0  0  0  0  0  0  0  0  0  0  0  0
  151.6855  142.3989  156.5143 C   0  0  0  0  0  0  0  0  0  0  0  0
  151.2639  143.2001  157.7647 C   0  0  2  0  0  0  0  0  0  0  0  0
  151.1017  144.5463  157.3653 O   0  0  0  0  0  0  0  0  0  0  0  0
  152.2729  143.1380  158.9337 C   0  0  1  0  0  0  0  0  0  0  0  0
  151.8124  143.8485  160.2094 C   0  0  0  0  0  0  0  0  0  0  0  0
  152.5735  143.1408  161.3203 C   0  0  0  0  0  0  0  0  0  0  0  0
  153.1145  141.8759  160.6513 C   0  0  0  0  0  0  0  0  0  0  0  0
  152.4371  141.8089  159.4061 O   0  0  0  0  0  0  0  0  0  0  0  0
  149.9206  135.7438  154.8043 C   0  0  0  0  0  0  0  0  0  0  0  0
  148.5880  134.5318  155.9754 H   0  0  0  0  0  0  0  0  0  0  0  0
  144.6324  131.1496  149.7855 H   0  0  0  0  0  0  0  0  0  0  0  0
  145.3336  132.7497  149.5671 H   0  0  0  0  0  0  0  0  0  0  0  0
  144.1972  132.4507  150.8814 H   0  0  0  0  0  0  0  0  0  0  0  0
  145.8857  130.8949  151.9703 H   0  0  0  0  0  0  0  0  0  0  0  0
  146.9574  131.1355  150.6118 H   0  0  0  0  0  0  0  0  0  0  0  0
  147.3913  131.7350  153.5491 H   0  0  0  0  0  0  0  0  0  0  0  0
  148.6338  131.9796  152.3289 H   0  0  0  0  0  0  0  0  0  0  0  0
  148.5227  134.4626  152.7548 H   0  0  0  0  0  0  0  0  0  0  0  0
  147.3792  134.1698  154.0601 H   0  0  0  0  0  0  0  0  0  0  0  0
  150.4019  133.3650  157.1188 H   0  0  0  0  0  0  0  0  0  0  0  0
  151.4803  133.6101  155.7443 H   0  0  0  0  0  0  0  0  0  0  0  0
  150.6284  135.6528  157.7969 H   0  0  0  0  0  0  0  0  0  0  0  0
  152.2003  135.4342  157.0185 H   0  0  0  0  0  0  0  0  0  0  0  0
  153.9975  138.5889  153.9876 H   0  0  0  0  0  0  0  0  0  0  0  0
  149.5166  141.1335  157.8447 H   0  0  0  0  0  0  0  0  0  0  0  0
  152.7713  142.4073  156.4087 H   0  0  0  0  0  0  0  0  0  0  0  0
  151.2813  142.8627  155.6136 H   0  0  0  0  0  0  0  0  0  0  0  0
  150.2932  142.8443  158.1124 H   0  0  0  0  0  0  0  0  0  0  0  0
  150.4282  144.5841  156.7037 H   0  0  0  0  0  0  0  0  0  0  0  0
  153.2435  143.5288  158.6214 H   0  0  0  0  0  0  0  0  0  0  0  0
  152.0038  144.9217  160.1845 H   0  0  0  0  0  0  0  0  0  0  0  0
  150.7410  143.7029  160.3548 H   0  0  0  0  0  0  0  0  0  0  0  0
  153.3898  143.7539  161.7038 H   0  0  0  0  0  0  0  0  0  0  0  0
  151.9105  142.9035  162.1530 H   0  0  0  0  0  0  0  0  0  0  0  0
  154.1869  141.9640  160.4716 H   0  0  0  0  0  0  0  0  0  0  0  0
  152.9403  140.9775  161.2440 H   0  0  0  0  0  0  0  0  0  0  0  0
  150.5556  135.5992  153.9290 H   0  0  0  0  0  0  0  0  0  0  0  0
  149.0519  136.3341  154.5113 H   0  0  0  0  0  0  0  0  0  0  0  0
  1  2  1  0  0  0  0
  1 30  1  0  0  0  0
  1 31  1  0  0  0  0
  1 32  1  0  0  0  0
  2  3  1  0  0  0  0
  2 33  1  0  0  0  0
  2 34  1  0  0  0  0
  3  4  1  0  0  0  0
  4  5  1  0  0  0  0
  4 35  1  0  0  0  0
  4 36  1  0  0  0  0
  5  6  1  0  0  0  0
  5 37  1  0  0  0  0
  5 38  1  0  0  0  0
  6  7  1  0  0  0  0
  7 29  1  0  0  0  0
  7 28  1  0  0  0  0
  7  8  1  0  0  0  0
  8  9  1  0  0  0  0
  8 39  1  0  0  0  0
  8 40  1  0  0  0  0
  9 10  1  0  0  0  0
  9 41  1  0  0  0  0
  9 42  1  0  0  0  0
 10 11  1  0  0  0  0
 10 28  1  0  0  0  0
 11 16  1  0  0  0  0
 11 12  2  0  0  0  0
 12 13  1  0  0  0  0
 13 14  2  0  0  0  0
 13 43  1  0  0  0  0
 14 15  1  0  0  0  0
 15 19  1  0  0  0  0
 15 16  2  0  0  0  0
 16 17  1  0  0  0  0
 17 18  2  0  0  0  0
 18 19  1  0  0  0  0
 18 44  1  0  0  0  0
 19 20  1  0  0  0  0
 20 21  1  0  0  0  0
 20 45  1  0  0  0  0
 20 46  1  0  0  0  0
 21 22  1  0  0  0  0
 21 23  1  0  0  0  0
 21 47  1  0  0  0  0
 22 48  1  0  0  0  0
 23 27  1  0  0  0  0
 23 24  1  0  0  0  0
 23 49  1  0  0  0  0
 24 25  1  0  0  0  0
 24 50  1  0  0  0  0
 24 51  1  0  0  0  0
 25 26  1  0  0  0  0
 25 52  1  0  0  0  0
 25 53  1  0  0  0  0
 26 27  1  0  0  0  0
 26 54  1  0  0  0  0
 26 55  1  0  0  0  0
 28 56  1  0  0  0  0
 28 57  1  0  0  0  0
M  END
> <s_m_source_file>
AV-unprocessed.smi

> <i_m_source_file_index>
246

> <i_lp_mmshare_version>
43012

> <i_f3d_flags>
0

> <s_epik_input>
W0NIM11bQ0gyXU9bQ0gyXVtDSDJdT1tDQEhdMVtDSDJdW0NIMl1OKFtDSDJdMSljKG5bY0hdbjIpYyhjMjMpbltjSF1uM1tDSDJdW0NASF0oW09IXSlbQ0BASF00W0NIMl1bQ0gyXVtDSDJdTzQ=

> <s_epik_cmdline>
J2VwaWtfcHl0aG9uJywgJy1waCcsICc3LjAnLCAnLXRuJywgJzgnLCAnLW1hJywgJzIwMCcsICctbWV0YWxfYmluZGluZycsICctaW1hZScsICc8aW5maWxlLm1hZT4nLCAnLW9tYWUnLCAnPG91dGZpbGUubWFlPic=

> <r_lp_tautomer_probability>
1

> <r_epik_Ionization_Penalty>
0.0024631

> <r_epik_Ionization_Penalty_Charging>
0

> <r_epik_Ionization_Penalty_Neutral>
0.0024631

> <r_epik_State_Penalty>
0.00162428

> <r_epik_Charging_Adjusted_Penalty>
0.00162428

> <i_epik_Tot_Q>
0

> <i_epik_Tot_abs_Q>
0

> <r_epik_Metal_State_Penalty>
-0

> <b_epik_Metal_Only>
0

> <s_lp_Force_Field>
OPLS_2005

> <r_lp_Energy>
49.6926

> <b_lp_Chiralities_Consistent>
1

> <s_lp_Variant>
AV-unprocessed.smi:246-5

> <Gold.Version>
5.8.1

> <Gold.Id.Protein>
6NUR|6NUR_protein|mol2

> <Gold.PLP.Fitness>
56.6299

> <Gold.PLP.PLP>
-50.8602

> <Gold.PLP.part.hbond>
-4.0000

> <Gold.PLP.part.metal>
0.0000

> <Gold.PLP.part.buried>
-7.2617

> <Gold.PLP.part.nonpolar>
-39.6397

> <Gold.PLP.part.repulsive>
0.3600

> <Gold.PLP.ligand.clash>
0.0000

> <Gold.PLP.ligand.torsion>
2.2932

> <Gold.PLP.Chemscore.Hbond>
3.1648

> <Gold.PLP.Chemscore.CHOScore>
0.0000

> <Gold.PLP.Chemscore.Metal>
0.0000

> <Gold.Chemscore.Hbonds>
donor molecule, donor type, donor heavy atom, donor atom, acceptor molecule, acceptor atom, score
      L1  H    22    48       P1  8028  1.00
      P1  H  7989  7998       L1    14  0.11
      P1  H  7997  8009       L1    14  0.90
      P1  H 10752 10765       L1    12  0.61

> <Gold.PLP.Chemscore.Internal.Correction>
0.8617

> <Gold.Rescore>
     Score         DG    S(hbond)    S(metal)    S(lipo)     H(rot)  DE(clash)    DE(int)     intcor
     14.84     -18.54       2.28        0.00     114.34       3.10       1.39       2.31       ----

> <Gold.Chemscore.Fitness>
14.8440

> <Gold.Chemscore.DG>
-18.5364

> <Gold.Chemscore.ZeroCoef>
-5.4800

> <Gold.Chemscore.Hbond>
2.2817

> <Gold.Chemscore.Metal>
0.0000

> <Gold.Chemscore.Lipo>
114.3434

> <Gold.Chemscore.Internal_Hbond>
0.0000

> <Gold.Chemscore.DEClash>
1.3873

> <Gold.Chemscore.DEInternal>
2.3051

> <Gold.Chemscore.Rot>
3.1026

> <Gold.Chemscore.Internal.Correction>
   9.000000E+99

> <Gold.Chemscore.Hbonds>
donor molecule, donor type, donor heavy atom, donor atom, acceptor molecule, acceptor atom, score
      L1  H    22    48       P1  8028  0.91
      P1  H  7997  8009       L1    14  0.17
      P1  H 10752 10765       L1    12  0.43

> <Gold.Chemscore.Hbond.Weighted>
-7.6209

> <Gold.Chemscore.Metal.Weighted>
-0.0000

> <Gold.Chemscore.Lipo.Weighted>
-13.3782

> <Gold.Chemscore.Internal_Hbond.Weighted>
0.0000

> <Gold.Chemscore.DEClash.Weighted>
1.3873

> <Gold.Chemscore.DEInternal.Weighted>
2.3051

> <Gold.Chemscore.Rot.Weighted>
7.9426

> <Gold.Chemscore.Internal.Correction.Weighted>
   9.000000E+99

> <Gold.Protein.RotatedTorsions>
[ 6907 6896 6895 6894 ] final  133.72 input  -60.11 | X-H torsion
[ 7974 7965 7964 7962 ] final  179.53 input  175.53 | X-H torsion
[ 8008 7997 7996 7995 ] final -131.00 input   59.86 | X-H torsion
[ 10167 10162 10161 10158 ] final  -66.82 input  -65.29 | X-H torsion
[ 10718 10713 10712 10709 ] final  112.58 input   66.30 | X-H torsion
[ 10763 10752 10751 10750 ] final  169.30 input  -60.55 | X-H torsion
[ 11005 11000 10999 10996 ] final   58.34 input  -57.11 | X-H torsion

> <Gold.Protein.ActiveResidues>
 VAL166  LYS551  ARG553  GLY616  TRP617  ASP618  TYR619  PRO620  LYS621  CYS622 
 ASP623  PHE694  ASN695  SER759  ASP760  ASP761  ALA762  ILE779  LEU786  VAL792 
 PHE793  MET794  SER795  GLU796  ALA797  LYS798  CYS799  TRP800  GLU811  SER814 

> <Gold.Protein.RotatedAtoms>
  152.3190  133.5833  159.5731 H   0  0  0  0  0  0  0  0  0  0  0  0  # atno 6907 bound_to 6896
  150.7361  134.0040  159.3656 H   0  0  0  0  0  0  0  0  0  0  0  0  # atno 6908 bound_to 6896
  151.7926  135.0732  160.0440 H   0  0  0  0  0  0  0  0  0  0  0  0  # atno 6909 bound_to 6896
  144.7145  140.0562  143.6434 H   0  0  0  0  0  0  0  0  0  0  0  0  # atno 7974 bound_to 7965
  155.3050  140.0454  157.3032 H   0  0  0  0  0  0  0  0  0  0  0  0  # atno 8008 bound_to 7997
  154.5465  140.2304  155.8522 H   0  0  0  0  0  0  0  0  0  0  0  0  # atno 8009 bound_to 7997
  156.1928  140.3046  155.9374 H   0  0  0  0  0  0  0  0  0  0  0  0  # atno 8010 bound_to 7997
  140.5628  143.2313  151.6693 H   0  0  0  0  0  0  0  0  0  0  0  0  # atno 10167 bound_to 10162
  157.6385  131.0970  150.6916 H   0  0  0  0  0  0  0  0  0  0  0  0  # atno 10718 bound_to 10713
  154.3811  135.2753  155.2210 H   0  0  0  0  0  0  0  0  0  0  0  0  # atno 10763 bound_to 10752
  154.4316  135.5976  153.6076 H   0  0  0  0  0  0  0  0  0  0  0  0  # atno 10764 bound_to 10752
  152.9834  135.5997  154.4054 H   0  0  0  0  0  0  0  0  0  0  0  0  # atno 10765 bound_to 10752
  140.0385  134.5908  155.9413 H   0  0  0  0  0  0  0  0  0  0  0  0  # atno 11005 bound_to 11000
  145.9902  139.3009  143.0989 LP  0  0  0  0  0  0  0  0  0  0  0  0  # atno 17320 bound_to 7965
  145.8911  140.9303  143.0551 LP  0  0  0  0  0  0  0  0  0  0  0  0  # atno 17321 bound_to 7965
  139.5078  144.3632  152.0542 LP  0  0  0  0  0  0  0  0  0  0  0  0  # atno 17342 bound_to 10162
  140.2760  144.3912  150.6135 LP  0  0  0  0  0  0  0  0  0  0  0  0  # atno 17343 bound_to 10162
  156.7243  130.4690  149.5515 LP  0  0  0  0  0  0  0  0  0  0  0  0  # atno 17370 bound_to 10713
  156.1644  130.6395  151.0760 LP  0  0  0  0  0  0  0  0  0  0  0  0  # atno 17371 bound_to 10713
  141.1870  133.6559  156.5264 LP  0  0  0  0  0  0  0  0  0  0  0  0  # atno 17394 bound_to 11000
  140.4108  134.7274  157.4835 LP  0  0  0  0  0  0  0  0  0  0  0  0  # atno 17395 bound_to 11000

$$$$
