AV-unprocessed.smi:2603|AV-procd|sdf|10188|dock1
  -GOLD-   2272014203D 1   1.00000     0.00000
 Structure written by MMmdl.
 35 36  0  0  0  0  0  0  0  0  1 V2000
  153.1816  142.9958  162.7980 C   0  0  0  0  0  0  0  0  0  0  0  0
  153.7915  141.7838  162.0902 C   0  0  0  0  0  0  0  0  0  0  0  0
  153.8616  142.0486  160.6999 O   0  0  0  0  0  0  0  0  0  0  0  0
  152.5843  142.0110  160.0903 C   0  0  1  0  0  0  0  0  0  0  0  0
  152.0943  143.3672  159.6706 C   0  0  0  0  0  0  0  0  0  0  0  0
  152.6015  142.3872  158.6268 C   0  0  2  0  0  0  0  0  0  0  0  0
  151.6422  141.7567  157.7819 N   0  0  0  0  0  0  0  0  0  0  0  0
  151.7806  140.5530  157.2072 C   0  0  0  0  0  0  0  0  0  0  0  0
  152.7797  139.8454  157.3342 O   0  0  0  0  0  0  0  0  0  0  0  0
  150.6008  140.0649  156.3671 C   0  0  0  0  0  0  0  0  0  0  0  0
  150.8322  138.6340  155.9535 C   0  0  0  0  0  0  0  0  0  0  0  0
  149.9928  137.5024  156.1701 C   0  0  0  0  0  0  0  0  0  0  0  0
  148.6651  137.4345  156.8692 C   0  0  0  0  0  0  0  0  0  0  0  0
  150.5194  136.3953  155.6744 N   0  0  0  0  0  0  0  0  0  0  0  0
  151.7398  136.7720  155.1054 O   0  0  0  0  0  0  0  0  0  0  0  0
  151.9039  138.1069  155.2870 C   0  0  0  0  0  0  0  0  0  0  0  0
  153.1601  138.7085  154.7541 C   0  0  0  0  0  0  0  0  0  0  0  0
  153.1169  142.8274  163.8730 H   0  0  0  0  0  0  0  0  0  0  0  0
  152.1758  143.1984  162.4299 H   0  0  0  0  0  0  0  0  0  0  0  0
  153.7854  143.8887  162.6345 H   0  0  0  0  0  0  0  0  0  0  0  0
  154.7888  141.5846  162.4856 H   0  0  0  0  0  0  0  0  0  0  0  0
  153.1812  140.8983  162.2734 H   0  0  0  0  0  0  0  0  0  0  0  0
  151.8807  141.2763  160.4792 H   0  0  0  0  0  0  0  0  0  0  0  0
  151.0225  143.5493  159.7174 H   0  0  0  0  0  0  0  0  0  0  0  0
  152.7221  144.2257  159.9003 H   0  0  0  0  0  0  0  0  0  0  0  0
  153.5753  142.6147  158.1946 H   0  0  0  0  0  0  0  0  0  0  0  0
  150.7821  142.2594  157.6194 H   0  0  0  0  0  0  0  0  0  0  0  0
  149.6792  140.1744  156.9395 H   0  0  0  0  0  0  0  0  0  0  0  0
  150.4925  140.7152  155.4983 H   0  0  0  0  0  0  0  0  0  0  0  0
  148.7893  137.1374  157.9107 H   0  0  0  0  0  0  0  0  0  0  0  0
  148.0012  136.7124  156.3930 H   0  0  0  0  0  0  0  0  0  0  0  0
  148.1598  138.3998  156.8581 H   0  0  0  0  0  0  0  0  0  0  0  0
  153.6414  139.3282  155.5108 H   0  0  0  0  0  0  0  0  0  0  0  0
  152.9491  139.3355  153.8878 H   0  0  0  0  0  0  0  0  0  0  0  0
  153.8682  137.9375  154.4496 H   0  0  0  0  0  0  0  0  0  0  0  0
  1  2  1  0  0  0  0
  1 18  1  0  0  0  0
  1 19  1  0  0  0  0
  1 20  1  0  0  0  0
  2  3  1  0  0  0  0
  2 21  1  0  0  0  0
  2 22  1  0  0  0  0
  3  4  1  0  0  0  0
  4  6  1  0  0  0  0
  4  5  1  0  0  0  0
  4 23  1  0  0  0  0
  5  6  1  0  0  0  0
  5 24  1  0  0  0  0
  5 25  1  0  0  0  0
  6  7  1  0  0  0  0
  6 26  1  0  0  0  0
  7  8  1  0  0  0  0
  7 27  1  0  0  0  0
  8  9  2  0  0  0  0
  8 10  1  0  0  0  0
 10 11  1  0  0  0  0
 10 28  1  0  0  0  0
 10 29  1  0  0  0  0
 11 16  2  0  0  0  0
 11 12  1  0  0  0  0
 12 13  1  0  0  0  0
 12 14  2  0  0  0  0
 13 30  1  0  0  0  0
 13 31  1  0  0  0  0
 13 32  1  0  0  0  0
 14 15  1  0  0  0  0
 15 16  1  0  0  0  0
 16 17  1  0  0  0  0
 17 33  1  0  0  0  0
 17 34  1  0  0  0  0
 17 35  1  0  0  0  0
M  END
> <s_m_source_file>
AV-unprocessed.smi

> <i_m_source_file_index>
2603

> <i_lp_mmshare_version>
43012

> <i_f3d_flags>
0

> <s_epik_input>
W0NIM11bQ0gyXU9bQ0BASF0xW0NIMl1bQ0BIXTFbTkhdQyg9TylbQ0gyXWMyYyhbQ0gzXSlub2MyW0NIM10=

> <s_epik_cmdline>
J2VwaWtfcHl0aG9uJywgJy1waCcsICc3LjAnLCAnLXRuJywgJzgnLCAnLW1hJywgJzIwMCcsICctbWV0YWxfYmluZGluZycsICctaW1hZScsICc8aW5maWxlLm1hZT4nLCAnLW9tYWUnLCAnPG91dGZpbGUubWFlPic=

> <r_lp_tautomer_probability>
1

> <r_epik_Ionization_Penalty>
2.37325e-08

> <r_epik_Ionization_Penalty_Charging>
0

> <r_epik_Ionization_Penalty_Neutral>
2.37325e-08

> <r_epik_State_Penalty>
-0

> <r_epik_Charging_Adjusted_Penalty>
0

> <i_epik_Tot_Q>
0

> <i_epik_Tot_abs_Q>
0

> <r_epik_Metal_State_Penalty>
-0

> <b_epik_Metal_Only>
0

> <s_lp_Force_Field>
OPLS_2005

> <r_lp_Energy>
9.74593

> <b_lp_Chiralities_Consistent>
1

> <s_lp_Variant>
AV-unprocessed.smi:2603-4

> <Gold.Version>
5.8.1

> <Gold.Id.Protein>
6NUR|6NUR_protein|mol2

> <Gold.PLP.Fitness>
36.4693

> <Gold.PLP.PLP>
-31.4352

> <Gold.PLP.part.hbond>
-2.0000

> <Gold.PLP.part.metal>
0.0000

> <Gold.PLP.part.buried>
-4.6060

> <Gold.PLP.part.nonpolar>
-25.0551

> <Gold.PLP.part.repulsive>
0.2926

> <Gold.PLP.ligand.clash>
0.0000

> <Gold.PLP.ligand.torsion>
0.8193

> <Gold.PLP.Chemscore.Hbond>
2.0000

> <Gold.PLP.Chemscore.CHOScore>
0.0000

> <Gold.PLP.Chemscore.Metal>
0.0000

> <Gold.Chemscore.Hbonds>
donor molecule, donor type, donor heavy atom, donor atom, acceptor molecule, acceptor atom, score
      P1  H  7997  8008       L1     9  1.00
      P1  H 10752 10763       L1    15  1.00

> <Gold.PLP.Chemscore.Internal.Correction>
0.6726

> <Gold.Rescore>
     Score         DG    S(hbond)    S(metal)    S(lipo)     H(rot)  DE(clash)    DE(int)     intcor
     14.43     -17.80       1.98        0.00      85.84       1.69       0.13       3.25       ----

> <Gold.Chemscore.Fitness>
14.4292

> <Gold.Chemscore.DG>
-17.8031

> <Gold.Chemscore.ZeroCoef>
-5.4800

> <Gold.Chemscore.Hbond>
1.9803

> <Gold.Chemscore.Metal>
0.0000

> <Gold.Chemscore.Lipo>
85.8421

> <Gold.Chemscore.Internal_Hbond>
0.0000

> <Gold.Chemscore.DEClash>
0.1263

> <Gold.Chemscore.DEInternal>
3.2475

> <Gold.Chemscore.Rot>
1.6933

> <Gold.Chemscore.Internal.Correction>
   9.000000E+99

> <Gold.Chemscore.Hbonds>
donor molecule, donor type, donor heavy atom, donor atom, acceptor molecule, acceptor atom, score
      P1  H  7997  8008       L1     9  1.00
      P1  H 10752 10763       L1    15  0.97

> <Gold.Chemscore.Hbond.Weighted>
-6.6143

> <Gold.Chemscore.Metal.Weighted>
-0.0000

> <Gold.Chemscore.Lipo.Weighted>
-10.0435

> <Gold.Chemscore.Internal_Hbond.Weighted>
0.0000

> <Gold.Chemscore.DEClash.Weighted>
0.1263

> <Gold.Chemscore.DEInternal.Weighted>
3.2475

> <Gold.Chemscore.Rot.Weighted>
4.3348

> <Gold.Chemscore.Internal.Correction.Weighted>
   9.000000E+99

> <Gold.Protein.RotatedTorsions>
[ 6907 6896 6895 6894 ] final   55.40 input  -60.11 | X-H torsion
[ 7974 7965 7964 7962 ] final  174.54 input  175.53 | X-H torsion
[ 8008 7997 7996 7995 ] final  -67.82 input   59.86 | X-H torsion
[ 10167 10162 10161 10158 ] final -103.57 input  -65.29 | X-H torsion
[ 10718 10713 10712 10709 ] final  171.44 input   66.30 | X-H torsion
[ 10763 10752 10751 10750 ] final   69.76 input  -60.55 | X-H torsion
[ 11005 11000 10999 10996 ] final  -54.74 input  -57.11 | X-H torsion

> <Gold.Protein.ActiveResidues>
 VAL166  LYS551  ARG553  GLY616  TRP617  ASP618  TYR619  PRO620  LYS621  CYS622 
 ASP623  PHE694  ASN695  SER759  ASP760  ASP761  ALA762  ILE779  LEU786  VAL792 
 PHE793  MET794  SER795  GLU796  ALA797  LYS798  CYS799  TRP800  GLU811  SER814 

> <Gold.Protein.RotatedAtoms>
  152.3535  134.6973  160.0228 H   0  0  0  0  0  0  0  0  0  0  0  0  # atno 6907 bound_to 6896
  151.7319  133.3312  159.3350 H   0  0  0  0  0  0  0  0  0  0  0  0  # atno 6908 bound_to 6896
  150.7556  134.6289  159.6220 H   0  0  0  0  0  0  0  0  0  0  0  0  # atno 6909 bound_to 6896
  144.7219  139.9812  143.6439 H   0  0  0  0  0  0  0  0  0  0  0  0  # atno 7974 bound_to 7965
  154.4826  140.0885  156.7412 H   0  0  0  0  0  0  0  0  0  0  0  0  # atno 8008 bound_to 7997
  155.4432  140.3454  155.4274 H   0  0  0  0  0  0  0  0  0  0  0  0  # atno 8009 bound_to 7997
  156.1214  140.1475  156.9187 H   0  0  0  0  0  0  0  0  0  0  0  0  # atno 8010 bound_to 7997
  140.2186  143.3693  152.0989 H   0  0  0  0  0  0  0  0  0  0  0  0  # atno 10167 bound_to 10162
  156.9935  131.0155  151.2850 H   0  0  0  0  0  0  0  0  0  0  0  0  # atno 10718 bound_to 10713
  153.0304  135.5199  154.7338 H   0  0  0  0  0  0  0  0  0  0  0  0  # atno 10763 bound_to 10752
  154.6357  135.2906  155.0165 H   0  0  0  0  0  0  0  0  0  0  0  0  # atno 10764 bound_to 10752
  154.1101  135.6623  153.4936 H   0  0  0  0  0  0  0  0  0  0  0  0  # atno 10765 bound_to 10752
  141.1040  133.6615  156.4366 H   0  0  0  0  0  0  0  0  0  0  0  0  # atno 11005 bound_to 11000
  146.0486  139.3489  143.0653 LP  0  0  0  0  0  0  0  0  0  0  0  0  # atno 17320 bound_to 7965
  145.8244  140.9663  143.0882 LP  0  0  0  0  0  0  0  0  0  0  0  0  # atno 17321 bound_to 7965
  139.5152  144.6960  151.5629 LP  0  0  0  0  0  0  0  0  0  0  0  0  # atno 17342 bound_to 10162
  140.6271  143.9147  150.6574 LP  0  0  0  0  0  0  0  0  0  0  0  0  # atno 17343 bound_to 10162
  157.5441  130.8139  149.8065 LP  0  0  0  0  0  0  0  0  0  0  0  0  # atno 17370 bound_to 10713
  156.0198  130.3800  150.1997 LP  0  0  0  0  0  0  0  0  0  0  0  0  # atno 17371 bound_to 10713
  140.4948  134.6541  157.5225 LP  0  0  0  0  0  0  0  0  0  0  0  0  # atno 17394 bound_to 11000
  139.9903  134.6996  155.9701 LP  0  0  0  0  0  0  0  0  0  0  0  0  # atno 17395 bound_to 11000

$$$$
