AV-unprocessed.smi:999|AV-procd|sdf|4354|dock6
  -GOLD-   22720 2253D 1   1.00000     0.00000
 Structure written by MMmdl.
 37 38  0  0  0  0  0  0  0  0  2 V2000
  145.7458  137.2461  153.2892 C   0  0  0  0  0  0  0  0  0  0  0  0
  146.1362  135.7735  153.5314 C   0  0  1  0  0  0  0  0  0  0  0  0
  145.8050  135.2948  154.9540 C   0  0  0  0  0  0  0  0  0  0  0  0
  144.6377  135.1115  155.3018 O   0  0  0  0  0  0  0  0  0  0  0  0
  146.8533  135.1011  155.7698 N   0  0  0  0  0  0  0  0  0  0  0  0
  146.7792  134.6515  157.1559 C   0  0  2  0  0  0  0  0  0  0  0  0
  145.9514  135.6423  158.0005 C   0  0  0  0  0  0  0  0  0  0  0  0
  145.9479  135.2489  159.4897 C   0  0  0  0  0  0  0  0  0  0  0  0
  147.3780  135.1133  160.0680 C   0  0  2  0  0  0  0  0  0  0  0  0
  148.0922  136.4766  160.2257 C   0  0  0  0  0  0  0  0  0  0  0  0
  149.1915  136.6291  159.6481 O   0  0  0  0  0  0  0  0  0  0  0  0
  147.5489  137.3426  160.9469 O   0  5  0  0  0  0  0  0  0  0  0  0
  148.1887  134.1120  159.2093 C   0  0  0  0  0  0  0  0  0  0  0  0
  148.2055  134.4966  157.7178 C   0  0  0  0  0  0  0  0  0  0  0  0
  145.5490  134.8732  152.5452 N   0  0  0  0  0  0  0  0  0  0  0  0
  144.7438  133.7754  152.7743 C   0  0  0  0  0  0  0  0  0  0  0  0
  144.3945  133.2605  151.5590 C   0  0  0  0  0  0  0  0  0  0  0  0
  145.0285  134.1302  150.6291 C   0  0  0  0  0  0  0  0  0  0  0  0
  145.7095  135.0980  151.2200 N   0  0  0  0  0  0  0  0  0  0  0  0
  146.2518  137.9063  153.9946 H   0  0  0  0  0  0  0  0  0  0  0  0
  144.6727  137.4107  153.3958 H   0  0  0  0  0  0  0  0  0  0  0  0
  146.0299  137.5629  152.2851 H   0  0  0  0  0  0  0  0  0  0  0  0
  147.2194  135.7092  153.4149 H   0  0  0  0  0  0  0  0  0  0  0  0
  147.7768  135.2809  155.4035 H   0  0  0  0  0  0  0  0  0  0  0  0
  146.2966  133.6727  157.1898 H   0  0  0  0  0  0  0  0  0  0  0  0
  146.3512  136.6508  157.8860 H   0  0  0  0  0  0  0  0  0  0  0  0
  144.9249  135.6800  157.6346 H   0  0  0  0  0  0  0  0  0  0  0  0
  145.3574  135.9641  160.0634 H   0  0  0  0  0  0  0  0  0  0  0  0
  145.4320  134.2946  159.6005 H   0  0  0  0  0  0  0  0  0  0  0  0
  147.2970  134.7063  161.0766 H   0  0  0  0  0  0  0  0  0  0  0  0
  149.2097  134.0121  159.5796 H   0  0  0  0  0  0  0  0  0  0  0  0
  147.7462  133.1209  159.3135 H   0  0  0  0  0  0  0  0  0  0  0  0
  148.7455  133.7360  157.1528 H   0  0  0  0  0  0  0  0  0  0  0  0
  148.7606  135.4263  157.5842 H   0  0  0  0  0  0  0  0  0  0  0  0
  144.4889  133.4556  153.7741 H   0  0  0  0  0  0  0  0  0  0  0  0
  143.7753  132.3979  151.3634 H   0  0  0  0  0  0  0  0  0  0  0  0
  145.0101  134.0904  149.5500 H   0  0  0  0  0  0  0  0  0  0  0  0
  1  2  1  0  0  0  0
  1 20  1  0  0  0  0
  1 21  1  0  0  0  0
  1 22  1  0  0  0  0
  2  3  1  0  0  0  0
  2 15  1  0  0  0  0
  2 23  1  0  0  0  0
  3  4  2  0  0  0  0
  3  5  1  0  0  0  0
  5  6  1  0  0  0  0
  5 24  1  0  0  0  0
  6 14  1  0  0  0  0
  6  7  1  0  0  0  0
  6 25  1  0  0  0  0
  7  8  1  0  0  0  0
  7 26  1  0  0  0  0
  7 27  1  0  0  0  0
  8  9  1  0  0  0  0
  8 28  1  0  0  0  0
  8 29  1  0  0  0  0
  9 10  1  0  0  0  0
  9 13  1  0  0  0  0
  9 30  1  0  0  0  0
 10 11  2  0  0  0  0
 10 12  1  0  0  0  0
 13 14  1  0  0  0  0
 13 31  1  0  0  0  0
 13 32  1  0  0  0  0
 14 33  1  0  0  0  0
 14 34  1  0  0  0  0
 15 19  1  0  0  0  0
 15 16  1  0  0  0  0
 16 17  2  0  0  0  0
 16 35  1  0  0  0  0
 17 18  1  0  0  0  0
 17 36  1  0  0  0  0
 18 19  2  0  0  0  0
 18 37  1  0  0  0  0
M  CHG  1  12  -1
M  END
> <s_m_source_file>
AV-unprocessed.smi

> <i_m_source_file_index>
999

> <i_lp_mmshare_version>
43012

> <i_f3d_flags>
0

> <s_epik_input>
bjFbY0hdW2NIXVtjSF1uMVtDQEhdKFtDSDNdKUMoPU8pW05IXVtDQEBIXTJbQ0gyXVtDSDJdW0NAQEhdKEMoPU8pW09IXSlbQ0gyXVtDSDJdMg==

> <s_epik_cmdline>
J2VwaWtfcHl0aG9uJywgJy1waCcsICc3LjAnLCAnLXRuJywgJzgnLCAnLW1hJywgJzIwMCcsICctbWV0YWxfYmluZGluZycsICctaW1hZScsICc8aW5maWxlLm1hZT4nLCAnLW9tYWUnLCAnPG91dGZpbGUubWFlPic=

> <r_lp_tautomer_probability>
1

> <r_epik_Ionization_Penalty>
0.00221712

> <r_epik_Ionization_Penalty_Charging>
0.00217268

> <r_epik_Ionization_Penalty_Neutral>
4.44343e-05

> <r_epik_State_Penalty>
0.0014925

> <r_epik_Charging_Adjusted_Penalty>
0.00366518

> <i_epik_Tot_Q>
-1

> <i_epik_Tot_abs_Q>
1

> <r_epik_Metal_State_Penalty>
-0

> <b_epik_Metal_Only>
0

> <s_lp_Force_Field>
OPLS_2005

> <r_lp_Energy>
8.81329

> <b_lp_Chiralities_Consistent>
1

> <s_lp_Variant>
AV-unprocessed.smi:999-4

> <Gold.Version>
5.8.1

> <Gold.Id.Protein>
6NUR|6NUR_protein|mol2

> <Gold.PLP.Fitness>
37.9505

> <Gold.PLP.PLP>
-16.1475

> <Gold.PLP.part.hbond>
-3.0000

> <Gold.PLP.part.metal>
0.0000

> <Gold.PLP.part.buried>
-3.6490

> <Gold.PLP.part.nonpolar>
-10.8065

> <Gold.PLP.part.repulsive>
0.2514

> <Gold.PLP.ligand.clash>
0.0000

> <Gold.PLP.ligand.torsion>
0.1988

> <Gold.PLP.Chemscore.Hbond>
5.6160

> <Gold.PLP.Chemscore.CHOScore>
1.7366

> <Gold.PLP.Chemscore.Metal>
0.0000

> <Gold.Chemscore.Hbonds>
donor molecule, donor type, donor heavy atom, donor atom, acceptor molecule, acceptor atom, score
      P1  H  6896  6908       L1    11  0.06
      P1  H  6931  6943       L1    12  1.57
      P1  H  6934  6947       L1    12  1.92
      L1  C    16    35       P1 10957  0.63
      L1  C    18    37       P1  7921  1.00

> <Gold.PLP.Chemscore.Internal.Correction>
0.1429

> <Gold.Rescore>
     Score         DG    S(hbond)    S(metal)    S(lipo)     H(rot)  DE(clash)    DE(int)     intcor
     12.82     -13.23       2.65        0.00      33.80       1.98       0.00       0.41       ----

> <Gold.Chemscore.Fitness>
12.8198

> <Gold.Chemscore.DG>
-13.2279

> <Gold.Chemscore.ZeroCoef>
-5.4800

> <Gold.Chemscore.Hbond>
2.6514

> <Gold.Chemscore.Metal>
0.0000

> <Gold.Chemscore.Lipo>
33.7980

> <Gold.Chemscore.Internal_Hbond>
0.0000

> <Gold.Chemscore.DEClash>
0.0021

> <Gold.Chemscore.DEInternal>
0.4060

> <Gold.Chemscore.Rot>
1.9774

> <Gold.Chemscore.Internal.Correction>
   9.000000E+99

> <Gold.Chemscore.Hbonds>
donor molecule, donor type, donor heavy atom, donor atom, acceptor molecule, acceptor atom, score
      P1  H  6896  6908       L1    11  0.08
      P1  H  6931  6943       L1    12  0.42
      P1  H  6934  6947       L1    12  0.92

> <Gold.Chemscore.Hbond.Weighted>
-8.8556

> <Gold.Chemscore.Metal.Weighted>
-0.0000

> <Gold.Chemscore.Lipo.Weighted>
-3.9544

> <Gold.Chemscore.Internal_Hbond.Weighted>
0.0000

> <Gold.Chemscore.DEClash.Weighted>
0.0021

> <Gold.Chemscore.DEInternal.Weighted>
0.4060

> <Gold.Chemscore.Rot.Weighted>
5.0620

> <Gold.Chemscore.Internal.Correction.Weighted>
   9.000000E+99

> <Gold.Protein.RotatedTorsions>
[ 6907 6896 6895 6894 ] final -174.36 input  -60.11 | X-H torsion
[ 7974 7965 7964 7962 ] final   49.56 input  175.53 | X-H torsion
[ 8008 7997 7996 7995 ] final    4.91 input   59.86 | X-H torsion
[ 10167 10162 10161 10158 ] final -139.87 input  -65.29 | X-H torsion
[ 10718 10713 10712 10709 ] final  -92.17 input   66.30 | X-H torsion
[ 10763 10752 10751 10750 ] final  179.63 input  -60.55 | X-H torsion
[ 11005 11000 10999 10996 ] final -164.57 input  -57.11 | X-H torsion

> <Gold.Protein.ActiveResidues>
 VAL166  LYS551  ARG553  GLY616  TRP617  ASP618  TYR619  PRO620  LYS621  CYS622 
 ASP623  PHE694  ASN695  SER759  ASP760  ASP761  ALA762  ILE779  LEU786  VAL792 
 PHE793  MET794  SER795  GLU796  ALA797  LYS798  CYS799  TRP800  GLU811  SER814 

> <Gold.Protein.RotatedAtoms>
  151.5711  133.3390  159.2989 H   0  0  0  0  0  0  0  0  0  0  0  0  # atno 6907 bound_to 6896
  150.8367  134.7646  159.6910 H   0  0  0  0  0  0  0  0  0  0  0  0  # atno 6908 bound_to 6896
  152.4442  134.5536  159.9925 H   0  0  0  0  0  0  0  0  0  0  0  0  # atno 6909 bound_to 6896
  146.0097  139.4529  142.9964 H   0  0  0  0  0  0  0  0  0  0  0  0  # atno 7974 bound_to 7965
  154.7218  140.2713  155.6535 H   0  0  0  0  0  0  0  0  0  0  0  0  # atno 8008 bound_to 7997
  156.2825  140.2733  156.1816 H   0  0  0  0  0  0  0  0  0  0  0  0  # atno 8009 bound_to 7997
  155.0497  140.0371  157.2529 H   0  0  0  0  0  0  0  0  0  0  0  0  # atno 8010 bound_to 7997
  139.8337  143.7413  152.2665 H   0  0  0  0  0  0  0  0  0  0  0  0  # atno 10167 bound_to 10162
  156.0000  130.4976  150.5584 H   0  0  0  0  0  0  0  0  0  0  0  0  # atno 10718 bound_to 10713
  154.5232  135.2795  155.1245 H   0  0  0  0  0  0  0  0  0  0  0  0  # atno 10763 bound_to 10752
  154.2794  135.6288  153.5345 H   0  0  0  0  0  0  0  0  0  0  0  0  # atno 10764 bound_to 10752
  152.9941  135.5647  154.5726 H   0  0  0  0  0  0  0  0  0  0  0  0  # atno 10765 bound_to 10752
  140.5855  134.5098  157.5185 H   0  0  0  0  0  0  0  0  0  0  0  0  # atno 11005 bound_to 11000
  145.7361  141.0025  143.1326 LP  0  0  0  0  0  0  0  0  0  0  0  0  # atno 17320 bound_to 7965
  144.6948  139.9043  143.7460 LP  0  0  0  0  0  0  0  0  0  0  0  0  # atno 17321 bound_to 7965
  139.7628  144.7501  151.0338 LP  0  0  0  0  0  0  0  0  0  0  0  0  # atno 17342 bound_to 10162
  140.7804  143.4731  151.0119 LP  0  0  0  0  0  0  0  0  0  0  0  0  # atno 17343 bound_to 10162
  157.3497  131.0731  151.1723 LP  0  0  0  0  0  0  0  0  0  0  0  0  # atno 17370 bound_to 10713
  157.2543  130.6629  149.5945 LP  0  0  0  0  0  0  0  0  0  0  0  0  # atno 17371 bound_to 10713
  139.9298  134.7986  156.0964 LP  0  0  0  0  0  0  0  0  0  0  0  0  # atno 17394 bound_to 11000
  141.0969  133.6692  156.2665 LP  0  0  0  0  0  0  0  0  0  0  0  0  # atno 17395 bound_to 11000

$$$$
