#       Name:                AV-unprocessed.smi:1601
#       Creating user name   scv26
#       Creation time:       Fri Mar 27 07:08:12 2020


#       File generated by GOLD software.
#

@<TRIPOS>MOLECULE
AV-unprocessed.smi:1601
    47    48     1
SMALL
NO_CHARGES


@<TRIPOS>ATOM
      1 ****        -0.4774   1.4972   0.7587 C.3            1 S1                 0.0000
      2 ****        -1.0176   0.7364  -0.4785 C.3            1 S1                 0.0000
      3 ****        -0.3939  -0.6834  -0.5480 C.3            1 S1                 0.0000
      4 ****         1.0635  -0.6532  -0.5203 N.am           1 S1                 0.0000
      5 ****         1.8445  -1.7130  -0.2629 C.2            1 S1                 0.0000
      6 ****         1.3956  -2.8396  -0.0480 O.2            1 S1                 0.0000
      7 ****         3.3582  -1.4472  -0.2423 C.3            1 S1                 0.0000
      8 ****         4.1986  -2.7353  -0.3301 C.3            1 S1                 0.0000
      9 ****         3.7154  -0.6658   0.9351 N.pl3          1 S1                 0.0000
     10 ****         3.6580  -1.0294   2.2668 C.2            1 S1                 0.0000
     11 ****         4.0785   0.0414   3.0019 C.2            1 S1                 0.0000
     12 ****         4.3723   1.0293   2.0215 C.2            1 S1                 0.0000
     13 ****         4.1500   0.6055   0.7879 N.2            1 S1                 0.0000
     14 ****        -2.5192   0.6976  -0.4920 N.4            1 S1                 1.0000
     15 ****        -3.1510   2.0465  -0.4390 C.3            1 S1                 0.0000
     16 ****        -4.6860   1.9533  -0.4387 C.3            1 S1                 0.0000
     17 ****        -5.1221   1.2461  -1.5880 O.3            1 S1                 0.0000
     18 ****        -4.6345  -0.0856  -1.5847 C.3            1 S1                 0.0000
     19 ****        -3.0969  -0.0788  -1.6259 C.3            1 S1                 0.0000
     20 ****         0.6105   1.4729   0.8182 H              1 S1                 0.0000
     21 ****        -0.8627   1.0697   1.6848 H              1 S1                 0.0000
     22 ****        -0.7344   2.5552   0.7401 H              1 S1                 0.0000
     23 ****        -0.6967   1.2805  -1.3685 H              1 S1                 0.0000
     24 ****        -0.7698  -1.2922   0.2765 H              1 S1                 0.0000
     25 ****        -0.6577  -1.1906  -1.4751 H              1 S1                 0.0000
     26 ****         1.5110   0.2374  -0.6852 H              1 S1                 0.0000
     27 ****         3.5879  -0.8508  -1.1277 H              1 S1                 0.0000
     28 ****         3.9533  -3.3071  -1.2257 H              1 S1                 0.0000
     29 ****         4.0405  -3.3837   0.5327 H              1 S1                 0.0000
     30 ****         5.2626  -2.5010  -0.3755 H              1 S1                 0.0000
     31 ****         3.3254  -2.0095   2.5763 H              1 S1                 0.0000
     32 ****         4.1625   0.1092   4.0763 H              1 S1                 0.0000
     33 ****         4.7352   2.0359   2.1688 H              1 S1                 0.0000
     34 ****        -2.8626   2.5816   0.4637 H              1 S1                 0.0000
     35 ****        -2.8145   2.6406  -1.2900 H              1 S1                 0.0000
     36 ****        -5.0484   1.4651   0.4677 H              1 S1                 0.0000
     37 ****        -5.1216   2.9523  -0.4556 H              1 S1                 0.0000
     38 ****        -4.9993  -0.6197  -0.7059 H              1 S1                 0.0000
     39 ****        -5.0295  -0.6062  -2.4574 H              1 S1                 0.0000
     40 ****        -2.7501   0.3411  -2.5715 H              1 S1                 0.0000
     41 ****        -2.7776  -1.1186  -1.5939 H              1 S1                 0.0000
     42 ****        -2.7998   0.2177   0.3515 H              1 S1                 0.0000
     43 ****         0.4078  -2.9951  -0.0608 LP             1 S1                 0.0000
     44 ****         2.0189  -3.5989   0.1394 LP             1 S1                 0.0000
     45 ****         4.2757   1.1132  -0.0643 LP             1 S1                 0.0000
     46 ****        -4.7875   1.7142  -2.4058 LP             1 S1                 0.0000
     47 ****        -6.1219   1.2276  -1.6000 LP             1 S1                 0.0000
@<TRIPOS>BOND
    1    1    2 1     
    2    1   20 1     
    3    1   21 1     
    4    1   22 1     
    5    2    3 1     
    6    2   14 1     
    7    2   23 1     
    8    3    4 1     
    9    3   24 1     
   10    3   25 1     
   11    4    5 am    
   12    4   26 1     
   13    5    6 2     
   14    5    7 1     
   15    7    8 1     
   16    7    9 1     
   17    7   27 1     
   18    8   28 1     
   19    8   29 1     
   20    8   30 1     
   21    9   13 1     
   22    9   10 1     
   23   10   11 2     
   24   10   31 1     
   25   11   12 1     
   26   11   32 1     
   27   12   13 2     
   28   12   33 1     
   29   14   19 1     
   30   14   15 1     
   31   14   42 1     
   32   15   16 1     
   33   15   34 1     
   34   15   35 1     
   35   16   17 1     
   36   16   36 1     
   37   16   37 1     
   38   17   18 1     
   39   18   19 1     
   40   18   38 1     
   41   18   39 1     
   42   19   40 1     
   43   19   41 1     
   44    6   43 1     
   45    6   44 1     
   46   13   45 1     
   47   17   46 1     
   48   17   47 1     
@<TRIPOS>SUBSTRUCTURE
      1 S1             1
@<TRIPOS>SET
LONE_PAIRS      STATIC     ATOMS    <user>   **** ""
5 43 44 45 46 47
DONOR_HYDROGENS      STATIC     ATOMS    <user>   **** ""
2 26 42
ATOM$BLUE        STATIC     ATOMS    COLORGROUP SYSTEM
5 43 44 45 46 47
ATOM$RED        STATIC     ATOMS    COLORGROUP SYSTEM
2 26 42
