#       Name:                AV-unprocessed.smi:1166
#       Creating user name   scv26
#       Creation time:       Fri Mar 27 03:51:56 2020


#       File generated by GOLD software.
#

@<TRIPOS>MOLECULE
AV-unprocessed.smi:1166
    49    50     1
SMALL
NO_CHARGES


@<TRIPOS>ATOM
      1 ****        -6.9688   0.3256   0.4171 C.3            1 S1                 0.0000
      2 ****        -6.3273  -0.8531  -0.1546 N.pl3          1 S1                 0.0000
      3 ****        -7.1290  -1.9904  -0.5863 C.3            1 S1                 0.0000
      4 ****        -4.9257  -0.8784  -0.3215 C.ar           1 S1                 0.0000
      5 ****        -4.2291  -1.9853  -0.8658 C.ar           1 S1                 0.0000
      6 ****        -2.8265  -1.9344  -1.0001 C.ar           1 S1                 0.0000
      7 ****        -2.1216  -0.7855  -0.5853 C.ar           1 S1                 0.0000
      8 ****        -0.7102  -0.7778  -0.7546 N.am           1 S1                 0.0000
      9 ****         0.1999   0.0269  -0.1792 C.2            1 S1                 0.0000
     10 ****        -0.0483   0.9109   0.6402 O.2            1 S1                 0.0000
     11 ****         1.4389  -0.2649  -0.5999 N.am           1 S1                 0.0000
     12 ****         2.6590   0.4009  -0.1543 C.3            1 S1                 0.0000
     13 ****         2.8897   1.7027  -0.9394 C.3            1 S1                 0.0000
     14 ****         4.2044   2.3512  -0.4922 C.3            1 S1                 0.0000
     15 ****         5.3871   1.3785  -0.6429 C.3            1 S1                 0.0000
     16 ****         5.1298   0.0961   0.0438 N.pl3          1 S1                 0.0000
     17 ****         5.8516  -0.2224   1.5951 S.o2           1 S1                 0.0000
     18 ****         4.8365   0.7570   2.7760 C.3            1 S1                 0.0000
     19 ****         5.6563  -1.6486   1.8972 O.2            1 S1                 0.0000
     20 ****         7.2104   0.3406   1.5819 O.2            1 S1                 0.0000
     21 ****         3.8564  -0.5548  -0.3233 C.3            1 S1                 0.0000
     22 ****        -2.8629   0.2985  -0.0576 C.ar           1 S1                 0.0000
     23 ****        -4.2059   0.2076   0.0523 N.pl3          1 S1                 1.0000
     24 ****        -6.5618   0.5442   1.4050 H              1 S1                 0.0000
     25 ****        -8.0436   0.1789   0.5259 H              1 S1                 0.0000
     26 ****        -6.8124   1.1944  -0.2235 H              1 S1                 0.0000
     27 ****        -6.9770  -2.1866  -1.6481 H              1 S1                 0.0000
     28 ****        -8.1928  -1.8078  -0.4320 H              1 S1                 0.0000
     29 ****        -6.8590  -2.8847  -0.0239 H              1 S1                 0.0000
     30 ****        -4.7481  -2.8770  -1.1842 H              1 S1                 0.0000
     31 ****        -2.2975  -2.7793  -1.4166 H              1 S1                 0.0000
     32 ****        -0.3426  -1.5023  -1.3540 H              1 S1                 0.0000
     33 ****         1.5507  -1.0088  -1.2733 H              1 S1                 0.0000
     34 ****         2.5551   0.6434   0.9034 H              1 S1                 0.0000
     35 ****         2.9271   1.4948  -2.0097 H              1 S1                 0.0000
     36 ****         2.0636   2.3973  -0.7827 H              1 S1                 0.0000
     37 ****         4.3908   3.2505  -1.0796 H              1 S1                 0.0000
     38 ****         4.1169   2.6787   0.5430 H              1 S1                 0.0000
     39 ****         5.5564   1.1728  -1.7004 H              1 S1                 0.0000
     40 ****         6.3037   1.8336  -0.2691 H              1 S1                 0.0000
     41 ****         5.2414   0.6322   3.7800 H              1 S1                 0.0000
     42 ****         3.8076   0.4018   2.7659 H              1 S1                 0.0000
     43 ****         4.8712   1.8121   2.5105 H              1 S1                 0.0000
     44 ****         3.7110  -1.4571   0.2705 H              1 S1                 0.0000
     45 ****         3.9274  -0.8798  -1.3622 H              1 S1                 0.0000
     46 ****        -2.4466   1.2385   0.2713 H              1 S1                 0.0000
     47 ****        -4.7083   1.0073   0.4378 H              1 S1                 0.0000
     48 ****        -0.9918   1.0757   0.9276 LP             1 S1                 0.0000
     49 ****         0.6936   1.4645   1.0186 LP             1 S1                 0.0000
@<TRIPOS>BOND
    1    1    2 1     
    2    1   24 1     
    3    1   25 1     
    4    1   26 1     
    5    2    3 1     
    6    2    4 1     
    7    3   27 1     
    8    3   28 1     
    9    3   29 1     
   10    4   23 ar    
   11    4    5 ar    
   12    5    6 ar    
   13    5   30 1     
   14    6    7 ar    
   15    6   31 1     
   16    7    8 1     
   17    7   22 ar    
   18    8    9 am    
   19    8   32 1     
   20    9   10 2     
   21    9   11 am    
   22   11   12 1     
   23   11   33 1     
   24   12   21 1     
   25   12   13 1     
   26   12   34 1     
   27   13   14 1     
   28   13   35 1     
   29   13   36 1     
   30   14   15 1     
   31   14   37 1     
   32   14   38 1     
   33   15   16 1     
   34   15   39 1     
   35   15   40 1     
   36   16   17 1     
   37   16   21 1     
   38   17   18 1     
   39   17   19 2     
   40   17   20 2     
   41   18   41 1     
   42   18   42 1     
   43   18   43 1     
   44   21   44 1     
   45   21   45 1     
   46   22   23 ar    
   47   22   46 1     
   48   23   47 1     
   49   10   48 1     
   50   10   49 1     
@<TRIPOS>SUBSTRUCTURE
      1 S1             1
@<TRIPOS>SET
LONE_PAIRS      STATIC     ATOMS    <user>   **** ""
4 48 49 19 20
DONOR_HYDROGENS      STATIC     ATOMS    <user>   **** ""
3 32 33 47
ATOM$BLUE        STATIC     ATOMS    COLORGROUP SYSTEM
4 48 49 19 20
ATOM$RED        STATIC     ATOMS    COLORGROUP SYSTEM
3 32 33 47
