AV-unprocessed.smi:1511|AV-procd|sdf|6098|dock9
  -GOLD-   22720 6223D 1   1.00000     0.00000
 Structure written by MMmdl.
 32 33  0  0  0  0  0  0  0  0  1 V2000
  153.6515  139.7201  158.6105 O   0  0  0  0  0  0  0  0  0  0  0  0
  152.7351  140.5412  158.6299 C   0  0  0  0  0  0  0  0  0  0  0  0
  152.6021  141.5138  159.8040 C   0  0  0  0  0  0  0  0  0  0  0  0
  152.1815  142.8304  159.3536 N   0  0  0  0  0  0  0  0  0  0  0  0
  152.7633  144.0530  159.6178 C   0  0  0  0  0  0  0  0  0  0  0  0
  152.0059  145.0063  158.9997 C   0  0  0  0  0  0  0  0  0  0  0  0
  150.9701  144.2602  158.3715 C   0  0  0  0  0  0  0  0  0  0  0  0
  151.0782  142.9587  158.5839 N   0  0  0  0  0  0  0  0  0  0  0  0
  151.8237  140.6543  157.6510 N   0  0  0  0  0  0  0  0  0  0  0  0
  151.8477  139.9178  156.3931 C   0  0  0  0  0  0  0  0  0  0  0  0
  150.4275  139.6555  155.8515 C   0  0  2  0  0  0  0  0  0  0  0  0
  150.4111  139.0128  154.4477 C   0  0  0  0  0  0  0  0  0  0  0  0
  148.9806  139.0667  153.9049 C   0  0  0  0  0  0  0  0  0  0  0  0
  148.2736  140.6313  154.5399 S   0  0  0  0  0  0  0  0  0  0  0  0
  148.3676  141.6675  153.5006 O   0  0  0  0  0  0  0  0  0  0  0  0
  146.9961  140.3442  155.2097 O   0  0  0  0  0  0  0  0  0  0  0  0
  149.5746  140.9330  155.7966 C   0  0  0  0  0  0  0  0  0  0  0  0
  151.8721  141.1309  160.5181 H   0  0  0  0  0  0  0  0  0  0  0  0
  153.5535  141.6039  160.3309 H   0  0  0  0  0  0  0  0  0  0  0  0
  153.6551  144.1423  160.2206 H   0  0  0  0  0  0  0  0  0  0  0  0
  152.1671  146.0740  158.9970 H   0  0  0  0  0  0  0  0  0  0  0  0
  150.1479  144.6231  157.7728 H   0  0  0  0  0  0  0  0  0  0  0  0
  151.0979  141.3479  157.7584 H   0  0  0  0  0  0  0  0  0  0  0  0
  152.4420  140.4603  155.6558 H   0  0  0  0  0  0  0  0  0  0  0  0
  152.3615  138.9722  156.5686 H   0  0  0  0  0  0  0  0  0  0  0  0
  149.9204  138.9633  156.5254 H   0  0  0  0  0  0  0  0  0  0  0  0
  151.0635  139.5823  153.7846 H   0  0  0  0  0  0  0  0  0  0  0  0
  150.7863  137.9888  154.4621 H   0  0  0  0  0  0  0  0  0  0  0  0
  148.9320  139.0417  152.8163 H   0  0  0  0  0  0  0  0  0  0  0  0
  148.3872  138.2427  154.3019 H   0  0  0  0  0  0  0  0  0  0  0  0
  149.1195  141.1784  156.7562 H   0  0  0  0  0  0  0  0  0  0  0  0
  150.1637  141.7881  155.4646 H   0  0  0  0  0  0  0  0  0  0  0  0
  1  2  2  0  0  0  0
  2  3  1  0  0  0  0
  2  9  1  0  0  0  0
  3  4  1  0  0  0  0
  3 18  1  0  0  0  0
  3 19  1  0  0  0  0
  4  8  1  0  0  0  0
  4  5  1  0  0  0  0
  5  6  2  0  0  0  0
  5 20  1  0  0  0  0
  6  7  1  0  0  0  0
  6 21  1  0  0  0  0
  7  8  2  0  0  0  0
  7 22  1  0  0  0  0
  9 10  1  0  0  0  0
  9 23  1  0  0  0  0
 10 11  1  0  0  0  0
 10 24  1  0  0  0  0
 10 25  1  0  0  0  0
 11 17  1  0  0  0  0
 11 12  1  0  0  0  0
 11 26  1  0  0  0  0
 12 13  1  0  0  0  0
 12 27  1  0  0  0  0
 12 28  1  0  0  0  0
 13 14  1  0  0  0  0
 13 29  1  0  0  0  0
 13 30  1  0  0  0  0
 14 15  2  0  0  0  0
 14 16  2  0  0  0  0
 14 17  1  0  0  0  0
 17 31  1  0  0  0  0
 17 32  1  0  0  0  0
M  END
> <s_m_source_file>
AV-unprocessed.smi

> <i_m_source_file_index>
1511

> <i_lp_mmshare_version>
43012

> <i_f3d_flags>
0

> <s_epik_input>
bjFbY0hdW2NIXVtjSF1uMVtDSDJdQyg9TylbTkhdW0NIMl1bQ0BASF0oW0NIMl0yKVtDSDJdW0NIMl1TMig9Tyk9Tw==

> <s_epik_cmdline>
J2VwaWtfcHl0aG9uJywgJy1waCcsICc3LjAnLCAnLXRuJywgJzgnLCAnLW1hJywgJzIwMCcsICctbWV0YWxfYmluZGluZycsICctaW1hZScsICc8aW5maWxlLm1hZT4nLCAnLW9tYWUnLCAnPG91dGZpbGUubWFlPic=

> <r_lp_tautomer_probability>
1

> <r_epik_Ionization_Penalty>
1.34373e-05

> <r_epik_Ionization_Penalty_Charging>
0

> <r_epik_Ionization_Penalty_Neutral>
1.34373e-05

> <r_epik_State_Penalty>
-0

> <r_epik_Charging_Adjusted_Penalty>
0

> <i_epik_Tot_Q>
0

> <i_epik_Tot_abs_Q>
0

> <r_epik_Metal_State_Penalty>
-0

> <b_epik_Metal_Only>
0

> <s_lp_Force_Field>
OPLS_2005

> <r_lp_Energy>
3.80917

> <b_lp_Chiralities_Consistent>
1

> <s_lp_Variant>
AV-unprocessed.smi:1511-1

> <Gold.Version>
5.8.1

> <Gold.Id.Protein>
6NUR|6NUR_protein|mol2

> <Gold.PLP.Fitness>
39.4151

> <Gold.PLP.PLP>
-32.4927

> <Gold.PLP.part.hbond>
-2.0000

> <Gold.PLP.part.metal>
0.0000

> <Gold.PLP.part.buried>
-1.2909

> <Gold.PLP.part.nonpolar>
-29.4150

> <Gold.PLP.part.repulsive>
0.6353

> <Gold.PLP.ligand.clash>
0.0000

> <Gold.PLP.ligand.torsion>
0.5860

> <Gold.PLP.Chemscore.Hbond>
1.6400

> <Gold.PLP.Chemscore.CHOScore>
1.0555

> <Gold.PLP.Chemscore.Metal>
0.0000

> <Gold.Chemscore.Hbonds>
donor molecule, donor type, donor heavy atom, donor atom, acceptor molecule, acceptor atom, score
      P1  H  7997  8008       L1     1  1.00
      P1  H  8011  8017       L1    15  0.62
      L1  C     7    22       P1  8028  0.82
      L1  C     7    22       P1  8029  0.24

> <Gold.PLP.Chemscore.Internal.Correction>
0.0078

> <Gold.Rescore>
     Score         DG    S(hbond)    S(metal)    S(lipo)     H(rot)  DE(clash)    DE(int)     intcor
     14.44     -15.46       1.53        0.00      81.43       1.82       0.55       0.47       ----

> <Gold.Chemscore.Fitness>
14.4408

> <Gold.Chemscore.DG>
-15.4620

> <Gold.Chemscore.ZeroCoef>
-5.4800

> <Gold.Chemscore.Hbond>
1.5293

> <Gold.Chemscore.Metal>
0.0000

> <Gold.Chemscore.Lipo>
81.4340

> <Gold.Chemscore.Internal_Hbond>
0.0000

> <Gold.Chemscore.DEClash>
0.5493

> <Gold.Chemscore.DEInternal>
0.4718

> <Gold.Chemscore.Rot>
1.8178

> <Gold.Chemscore.Internal.Correction>
   9.000000E+99

> <Gold.Chemscore.Hbonds>
donor molecule, donor type, donor heavy atom, donor atom, acceptor molecule, acceptor atom, score
      P1  H  7997  8008       L1     1  0.86
      P1  H  8011  8017       L1    15  0.60

> <Gold.Chemscore.Hbond.Weighted>
-5.1079

> <Gold.Chemscore.Metal.Weighted>
-0.0000

> <Gold.Chemscore.Lipo.Weighted>
-9.5278

> <Gold.Chemscore.Internal_Hbond.Weighted>
0.0000

> <Gold.Chemscore.DEClash.Weighted>
0.5493

> <Gold.Chemscore.DEInternal.Weighted>
0.4718

> <Gold.Chemscore.Rot.Weighted>
4.6537

> <Gold.Chemscore.Internal.Correction.Weighted>
   9.000000E+99

> <Gold.Protein.RotatedTorsions>
[ 6907 6896 6895 6894 ] final -177.21 input  -60.11 | X-H torsion
[ 7974 7965 7964 7962 ] final   98.81 input  175.53 | X-H torsion
[ 8008 7997 7996 7995 ] final -109.10 input   59.86 | X-H torsion
[ 10167 10162 10161 10158 ] final -141.04 input  -65.29 | X-H torsion
[ 10718 10713 10712 10709 ] final  -46.21 input   66.30 | X-H torsion
[ 10763 10752 10751 10750 ] final -133.30 input  -60.55 | X-H torsion
[ 11005 11000 10999 10996 ] final  -60.35 input  -57.11 | X-H torsion

> <Gold.Protein.ActiveResidues>
 VAL166  LYS551  ARG553  GLY616  TRP617  ASP618  TYR619  PRO620  LYS621  CYS622 
 ASP623  PHE694  ASN695  SER759  ASP760  ASP761  ALA762  ILE779  LEU786  VAL792 
 PHE793  MET794  SER795  GLU796  ALA797  LYS798  CYS799  TRP800  GLU811  SER814 

> <Gold.Protein.RotatedAtoms>
  151.6173  133.3342  159.3079 H   0  0  0  0  0  0  0  0  0  0  0  0  # atno 6907 bound_to 6896
  150.8125  134.7291  159.6712 H   0  0  0  0  0  0  0  0  0  0  0  0  # atno 6908 bound_to 6896
  152.4221  134.5941  160.0033 H   0  0  0  0  0  0  0  0  0  0  0  0  # atno 6909 bound_to 6896
  145.4072  139.2339  143.3268 H   0  0  0  0  0  0  0  0  0  0  0  0  # atno 7974 bound_to 7965
  154.9542  140.0400  157.2159 H   0  0  0  0  0  0  0  0  0  0  0  0  # atno 8008 bound_to 7997
  154.7950  140.2842  155.5941 H   0  0  0  0  0  0  0  0  0  0  0  0  # atno 8009 bound_to 7997
  156.2954  140.2566  156.2805 H   0  0  0  0  0  0  0  0  0  0  0  0  # atno 8010 bound_to 7997
  139.8223  143.7558  152.2666 H   0  0  0  0  0  0  0  0  0  0  0  0  # atno 10167 bound_to 10162
  156.2206  130.4166  149.8998 H   0  0  0  0  0  0  0  0  0  0  0  0  # atno 10718 bound_to 10713
  154.8734  135.3770  154.4550 H   0  0  0  0  0  0  0  0  0  0  0  0  # atno 10763 bound_to 10752
  153.5223  135.7029  153.5730 H   0  0  0  0  0  0  0  0  0  0  0  0  # atno 10764 bound_to 10752
  153.3972  135.3957  155.1928 H   0  0  0  0  0  0  0  0  0  0  0  0  # atno 10765 bound_to 10752
  141.1284  133.6621  156.5210 H   0  0  0  0  0  0  0  0  0  0  0  0  # atno 11005 bound_to 11000
  146.2723  140.4778  142.8809 LP  0  0  0  0  0  0  0  0  0  0  0  0  # atno 17320 bound_to 7965
  144.8334  140.6743  143.6276 LP  0  0  0  0  0  0  0  0  0  0  0  0  # atno 17321 bound_to 7965
  139.7739  144.7467  151.0184 LP  0  0  0  0  0  0  0  0  0  0  0  0  # atno 17342 bound_to 10162
  140.7812  143.4614  151.0272 LP  0  0  0  0  0  0  0  0  0  0  0  0  # atno 17343 bound_to 10162
  156.6646  130.8796  151.3553 LP  0  0  0  0  0  0  0  0  0  0  0  0  # atno 17370 bound_to 10713
  157.7085  130.9413  150.1011 LP  0  0  0  0  0  0  0  0  0  0  0  0  # atno 17371 bound_to 10713
  140.4292  134.7117  157.4933 LP  0  0  0  0  0  0  0  0  0  0  0  0  # atno 17394 bound_to 11000
  140.0305  134.6413  155.9113 LP  0  0  0  0  0  0  0  0  0  0  0  0  # atno 17395 bound_to 11000

$$$$
