#       Name:                AV-unprocessed.smi:338
#       Creating user name   scv26
#       Creation time:       Thu Mar 26 22:29:50 2020


#       File generated by GOLD software.
#

@<TRIPOS>MOLECULE
AV-unprocessed.smi:338
    48    50     1
SMALL
NO_CHARGES


@<TRIPOS>ATOM
      1 ****        -1.7048   6.9384   0.7556 C.3            1 S1                 0.0000
      2 ****        -0.9584   5.6051   0.7731 C.2            1 S1                 0.0000
      3 ****         0.2714   5.6186   0.8176 O.2            1 S1                 0.0000
      4 ****        -1.7679   4.3530   0.7358 C.ar           1 S1                 0.0000
      5 ****        -3.1806   4.3852   0.6735 C.ar           1 S1                 0.0000
      6 ****        -3.9174   3.1874   0.6407 C.ar           1 S1                 0.0000
      7 ****        -3.2531   1.9483   0.6702 C.ar           1 S1                 0.0000
      8 ****        -1.8472   1.8882   0.7308 C.ar           1 S1                 0.0000
      9 ****        -1.2783   0.6327   0.7577 O.3            1 S1                 0.0000
     10 ****         0.1396   0.5330   0.7845 C.3            1 S1                 0.0000
     11 ****         0.5347  -0.9512   0.7956 C.3            1 S1                 0.0000
     12 ****         1.9296  -1.0419   1.0092 O.3            1 S1                 0.0000
     13 ****         0.1519  -1.6721  -0.5124 C.3            1 S1                 0.0000
     14 ****         0.4958  -3.1012  -0.4976 N.pl3          1 S1                 0.0000
     15 ****        -0.1986  -4.1540   0.0131 C.2            1 S1                 0.0000
     16 ****         0.5290  -5.2808  -0.2221 N.pl3          1 S1                 1.0000
     17 ****         1.7073  -4.9437  -0.8914 C.ar           1 S1                 0.0000
     18 ****         2.7574  -5.7381  -1.3417 C.ar           1 S1                 0.0000
     19 ****         3.8206  -5.0747  -1.9886 C.ar           1 S1                 0.0000
     20 ****         3.8140  -3.6760  -2.1658 C.ar           1 S1                 0.0000
     21 ****         2.7435  -2.8807  -1.7064 C.ar           1 S1                 0.0000
     22 ****         1.6945  -3.5440  -1.0698 C.ar           1 S1                 0.0000
     23 ****        -1.1111   3.0999   0.7624 C.ar           1 S1                 0.0000
     24 ****        -2.3788   7.0113   1.6093 H              1 S1                 0.0000
     25 ****        -2.2852   7.0391  -0.1617 H              1 S1                 0.0000
     26 ****        -1.0013   7.7698   0.8055 H              1 S1                 0.0000
     27 ****        -3.7224   5.3188   0.6495 H              1 S1                 0.0000
     28 ****        -4.9959   3.2192   0.5925 H              1 S1                 0.0000
     29 ****        -3.8286   1.0344   0.6456 H              1 S1                 0.0000
     30 ****         0.5784   1.0314  -0.0818 H              1 S1                 0.0000
     31 ****         0.5198   1.0187   1.6850 H              1 S1                 0.0000
     32 ****         0.0431  -1.4421   1.6366 H              1 S1                 0.0000
     33 ****         2.1351  -0.6236   1.8314 H              1 S1                 0.0000
     34 ****        -0.9254  -1.6079  -0.6703 H              1 S1                 0.0000
     35 ****         0.6135  -1.1965  -1.3779 H              1 S1                 0.0000
     36 ****        -1.1550  -4.1040   0.5133 H              1 S1                 0.0000
     37 ****         2.7656  -6.8096  -1.2055 H              1 S1                 0.0000
     38 ****         4.6588  -5.6501  -2.3543 H              1 S1                 0.0000
     39 ****         4.6478  -3.2020  -2.6631 H              1 S1                 0.0000
     40 ****         2.7528  -1.8094  -1.8426 H              1 S1                 0.0000
     41 ****        -0.0328   3.0816   0.8097 H              1 S1                 0.0000
     42 ****         0.2404  -6.2102   0.0555 H              1 S1                 0.0000
     43 ****         0.7613   6.4900   0.8414 LP             1 S1                 0.0000
     44 ****         0.7807   4.7581   0.8299 LP             1 S1                 0.0000
     45 ****        -1.5934   0.1479  -0.0582 LP             1 S1                 0.0000
     46 ****        -1.6227   0.1696   1.5743 LP             1 S1                 0.0000
     47 ****         2.4152  -0.5817   0.2660 LP             1 S1                 0.0000
     48 ****         2.2040  -2.0030   1.0419 LP             1 S1                 0.0000
@<TRIPOS>BOND
    1    1    2 1     
    2    1   24 1     
    3    1   25 1     
    4    1   26 1     
    5    2    3 2     
    6    2    4 1     
    7    4   23 ar    
    8    4    5 ar    
    9    5    6 ar    
   10    5   27 1     
   11    6    7 ar    
   12    6   28 1     
   13    7    8 ar    
   14    7   29 1     
   15    8    9 1     
   16    8   23 ar    
   17    9   10 1     
   18   10   11 1     
   19   10   30 1     
   20   10   31 1     
   21   11   12 1     
   22   11   13 1     
   23   11   32 1     
   24   12   33 1     
   25   13   14 1     
   26   13   34 1     
   27   13   35 1     
   28   14   22 1     
   29   14   15 1     
   30   15   16 2     
   31   15   36 1     
   32   16   17 1     
   33   16   42 1     
   34   17   22 ar    
   35   17   18 ar    
   36   18   19 ar    
   37   18   37 1     
   38   19   20 ar    
   39   19   38 1     
   40   20   21 ar    
   41   20   39 1     
   42   21   22 ar    
   43   21   40 1     
   44   23   41 1     
   45    3   43 1     
   46    3   44 1     
   47    9   45 1     
   48    9   46 1     
   49   12   47 1     
   50   12   48 1     
@<TRIPOS>SUBSTRUCTURE
      1 S1             1
@<TRIPOS>SET
LONE_PAIRS      STATIC     ATOMS    <user>   **** ""
6 43 44 45 46 47 48
DONOR_HYDROGENS      STATIC     ATOMS    <user>   **** ""
2 33 42
ATOM$BLUE        STATIC     ATOMS    COLORGROUP SYSTEM
6 43 44 45 46 47 48
ATOM$RED        STATIC     ATOMS    COLORGROUP SYSTEM
2 33 42
