AV-unprocessed.smi:3211|AV-procd|sdf|12277|dock1
  -GOLD-   2272018113D 1   1.00000     0.00000
 Structure written by MMmdl.
 34 35  0  0  0  0  0  0  0  0  1 V2000
  154.3384  140.3156  161.7671 C   0  0  0  0  0  0  0  0  0  0  0  0
  154.5579  141.1665  160.5119 C   0  0  0  0  0  0  0  0  0  0  0  0
  153.4078  142.0733  160.2268 C   0  0  0  0  0  0  0  0  0  0  0  0
  152.7917  142.1326  159.0430 N   0  0  0  0  0  0  0  0  0  0  0  0
  151.7219  143.0333  159.0372 C   0  0  0  0  0  0  0  0  0  0  0  0
  150.9169  143.2332  157.7893 C   0  0  0  0  0  0  0  0  0  0  0  0
  150.3954  141.9054  157.2150 C   0  0  0  0  0  0  0  0  0  0  0  0
  149.5359  142.1211  156.0565 N   0  0  0  0  0  0  0  0  0  0  0  0
  149.5210  141.3545  154.9553 C   0  0  0  0  0  0  0  0  0  0  0  0
  150.2516  140.3728  154.8119 O   0  0  0  0  0  0  0  0  0  0  0  0
  148.5370  141.7955  153.9214 C   0  0  1  0  0  0  0  0  0  0  0  0
  147.4893  140.7939  153.4790 C   0  0  0  0  0  0  0  0  0  0  0  0
  147.0905  141.9612  154.3492 C   0  0  2  0  0  0  0  0  0  0  0  0
  146.2538  143.0938  153.7947 C   0  0  0  0  0  0  0  0  0  0  0  0
  151.5284  143.6515  160.2474 C   0  0  0  0  0  0  0  0  0  0  0  0
  152.6826  143.1221  161.4398 S   0  0  0  0  0  0  0  0  0  0  0  0
  155.1940  139.6658  161.9507 H   0  0  0  0  0  0  0  0  0  0  0  0
  153.4557  139.6838  161.6644 H   0  0  0  0  0  0  0  0  0  0  0  0
  154.2008  140.9434  162.6482 H   0  0  0  0  0  0  0  0  0  0  0  0
  155.4583  141.7707  160.6256 H   0  0  0  0  0  0  0  0  0  0  0  0
  154.7218  140.5210  159.6481 H   0  0  0  0  0  0  0  0  0  0  0  0
  150.0776  143.8978  157.9980 H   0  0  0  0  0  0  0  0  0  0  0  0
  151.5196  143.7432  157.0367 H   0  0  0  0  0  0  0  0  0  0  0  0
  151.2327  141.2803  156.9030 H   0  0  0  0  0  0  0  0  0  0  0  0
  149.8573  141.3430  157.9802 H   0  0  0  0  0  0  0  0  0  0  0  0
  148.9053  142.9089  156.0958 H   0  0  0  0  0  0  0  0  0  0  0  0
  148.9076  142.4810  153.1601 H   0  0  0  0  0  0  0  0  0  0  0  0
  147.2045  140.8120  152.4289 H   0  0  0  0  0  0  0  0  0  0  0  0
  147.4869  139.8060  153.9366 H   0  0  0  0  0  0  0  0  0  0  0  0
  146.8492  141.7188  155.3832 H   0  0  0  0  0  0  0  0  0  0  0  0
  146.5115  143.2930  152.7540 H   0  0  0  0  0  0  0  0  0  0  0  0
  146.4218  144.0014  154.3748 H   0  0  0  0  0  0  0  0  0  0  0  0
  145.1957  142.8378  153.8481 H   0  0  0  0  0  0  0  0  0  0  0  0
  150.7759  144.3807  160.5098 H   0  0  0  0  0  0  0  0  0  0  0  0
  1  2  1  0  0  0  0
  1 17  1  0  0  0  0
  1 18  1  0  0  0  0
  1 19  1  0  0  0  0
  2  3  1  0  0  0  0
  2 20  1  0  0  0  0
  2 21  1  0  0  0  0
  3 16  1  0  0  0  0
  3  4  2  0  0  0  0
  4  5  1  0  0  0  0
  5  6  1  0  0  0  0
  5 15  2  0  0  0  0
  6  7  1  0  0  0  0
  6 22  1  0  0  0  0
  6 23  1  0  0  0  0
  7  8  1  0  0  0  0
  7 24  1  0  0  0  0
  7 25  1  0  0  0  0
  8  9  1  0  0  0  0
  8 26  1  0  0  0  0
  9 10  2  0  0  0  0
  9 11  1  0  0  0  0
 11 13  1  0  0  0  0
 11 12  1  0  0  0  0
 11 27  1  0  0  0  0
 12 13  1  0  0  0  0
 12 28  1  0  0  0  0
 12 29  1  0  0  0  0
 13 14  1  0  0  0  0
 13 30  1  0  0  0  0
 14 31  1  0  0  0  0
 14 32  1  0  0  0  0
 14 33  1  0  0  0  0
 15 16  1  0  0  0  0
 15 34  1  0  0  0  0
M  END
> <s_m_source_file>
AV-unprocessed.smi

> <i_m_source_file_index>
3211

> <i_lp_mmshare_version>
43012

> <i_f3d_flags>
0

> <s_epik_input>
W0NIM11bQ0gyXWMxbmMoW2NIXXMxKVtDSDJdW0NIMl1bTkhdQyg9TylbQ0BASF0yW0NIMl1bQ0BIXTJbQ0gzXQ==

> <s_epik_cmdline>
J2VwaWtfcHl0aG9uJywgJy1waCcsICc3LjAnLCAnLXRuJywgJzgnLCAnLW1hJywgJzIwMCcsICctbWV0YWxfYmluZGluZycsICctaW1hZScsICc8aW5maWxlLm1hZT4nLCAnLW9tYWUnLCAnPG91dGZpbGUubWFlPic=

> <r_epik_Ionization_Penalty>
0.00109667

> <r_epik_Ionization_Penalty_Charging>
0

> <r_epik_Ionization_Penalty_Neutral>
0.00109667

> <r_epik_State_Penalty>
0.000719322

> <r_epik_Charging_Adjusted_Penalty>
0.000719322

> <i_epik_Tot_Q>
0

> <i_epik_Tot_abs_Q>
0

> <r_epik_Metal_State_Penalty>
-0

> <b_epik_Metal_Only>
0

> <s_lp_Force_Field>
OPLS_2005

> <r_lp_Energy>
-0.564993

> <b_lp_Chiralities_Consistent>
1

> <s_lp_Variant>
AV-unprocessed.smi:3211-4

> <Gold.Version>
5.8.1

> <Gold.Id.Protein>
6NUR|6NUR_protein|mol2

> <Gold.PLP.Fitness>
45.5367

> <Gold.PLP.PLP>
-40.5617

> <Gold.PLP.part.hbond>
-2.0000

> <Gold.PLP.part.metal>
0.0000

> <Gold.PLP.part.buried>
-2.6536

> <Gold.PLP.part.nonpolar>
-36.1316

> <Gold.PLP.part.repulsive>
0.1844

> <Gold.PLP.ligand.clash>
0.0000

> <Gold.PLP.ligand.torsion>
0.3201

> <Gold.PLP.Chemscore.Hbond>
1.8160

> <Gold.PLP.Chemscore.CHOScore>
0.0000

> <Gold.PLP.Chemscore.Metal>
0.0000

> <Gold.Chemscore.Hbonds>
donor molecule, donor type, donor heavy atom, donor atom, acceptor molecule, acceptor atom, score
      L1  H     8    26       P1  8028  0.80
      P1  H  7989  7998       L1    10  1.00

> <Gold.PLP.Chemscore.Internal.Correction>
0.1673

> <Gold.Rescore>
     Score         DG    S(hbond)    S(metal)    S(lipo)     H(rot)  DE(clash)    DE(int)     intcor
     17.50     -19.43       1.52        0.00     108.93       1.51       1.41       0.52       ----

> <Gold.Chemscore.Fitness>
17.5008

> <Gold.Chemscore.DG>
-19.4290

> <Gold.Chemscore.ZeroCoef>
-5.4800

> <Gold.Chemscore.Hbond>
1.5176

> <Gold.Chemscore.Metal>
0.0000

> <Gold.Chemscore.Lipo>
108.9299

> <Gold.Chemscore.Internal_Hbond>
0.0000

> <Gold.Chemscore.DEClash>
1.4061

> <Gold.Chemscore.DEInternal>
0.5221

> <Gold.Chemscore.Rot>
1.5096

> <Gold.Chemscore.Internal.Correction>
   9.000000E+99

> <Gold.Chemscore.Hbonds>
donor molecule, donor type, donor heavy atom, donor atom, acceptor molecule, acceptor atom, score
      L1  H     8    26       P1  8028  0.80
      P1  H  7989  7998       L1    10  0.52

> <Gold.Chemscore.Hbond.Weighted>
-5.0688

> <Gold.Chemscore.Metal.Weighted>
-0.0000

> <Gold.Chemscore.Lipo.Weighted>
-12.7448

> <Gold.Chemscore.Internal_Hbond.Weighted>
0.0000

> <Gold.Chemscore.DEClash.Weighted>
1.4061

> <Gold.Chemscore.DEInternal.Weighted>
0.5221

> <Gold.Chemscore.Rot.Weighted>
3.8646

> <Gold.Chemscore.Internal.Correction.Weighted>
   9.000000E+99

> <Gold.Protein.RotatedTorsions>
[ 6907 6896 6895 6894 ] final -123.21 input  -60.11 | X-H torsion
[ 7974 7965 7964 7962 ] final  -92.68 input  175.53 | X-H torsion
[ 8008 7997 7996 7995 ] final  -57.47 input   59.86 | X-H torsion
[ 10167 10162 10161 10158 ] final -127.99 input  -65.29 | X-H torsion
[ 10718 10713 10712 10709 ] final   -3.76 input   66.30 | X-H torsion
[ 10763 10752 10751 10750 ] final   77.01 input  -60.55 | X-H torsion
[ 11005 11000 10999 10996 ] final   84.37 input  -57.11 | X-H torsion

> <Gold.Protein.ActiveResidues>
 VAL166  LYS551  ARG553  GLY616  TRP617  ASP618  TYR619  PRO620  LYS621  CYS622 
 ASP623  PHE694  ASN695  SER759  ASP760  ASP761  ALA762  ILE779  LEU786  VAL792 
 PHE793  MET794  SER795  GLU796  ALA797  LYS798  CYS799  TRP800  GLU811  SER814 

> <Gold.Protein.RotatedAtoms>
  150.8649  133.7589  159.2979 H   0  0  0  0  0  0  0  0  0  0  0  0  # atno 6907 bound_to 6896
  151.5220  135.1066  159.9890 H   0  0  0  0  0  0  0  0  0  0  0  0  # atno 6908 bound_to 6896
  152.4653  133.7866  159.6935 H   0  0  0  0  0  0  0  0  0  0  0  0  # atno 6909 bound_to 6896
  145.3966  140.9533  143.2311 H   0  0  0  0  0  0  0  0  0  0  0  0  # atno 7974 bound_to 7965
  154.4269  140.1106  156.5803 H   0  0  0  0  0  0  0  0  0  0  0  0  # atno 8008 bound_to 7997
  155.6119  140.3494  155.4606 H   0  0  0  0  0  0  0  0  0  0  0  0  # atno 8009 bound_to 7997
  156.0092  140.1215  157.0460 H   0  0  0  0  0  0  0  0  0  0  0  0  # atno 8010 bound_to 7997
  139.9550  143.6013  152.2463 H   0  0  0  0  0  0  0  0  0  0  0  0  # atno 10167 bound_to 10162
  156.7713  130.5301  149.5767 H   0  0  0  0  0  0  0  0  0  0  0  0  # atno 10718 bound_to 10713
  153.0767  135.4930  154.8418 H   0  0  0  0  0  0  0  0  0  0  0  0  # atno 10763 bound_to 10752
  154.7096  135.3017  154.9219 H   0  0  0  0  0  0  0  0  0  0  0  0  # atno 10764 bound_to 10752
  153.9917  135.6777  153.4807 H   0  0  0  0  0  0  0  0  0  0  0  0  # atno 10765 bound_to 10752
  139.9002  134.8212  156.2437 H   0  0  0  0  0  0  0  0  0  0  0  0  # atno 11005 bound_to 11000
  144.8403  139.5483  143.6903 LP  0  0  0  0  0  0  0  0  0  0  0  0  # atno 17320 bound_to 7965
  146.2772  139.6783  142.9254 LP  0  0  0  0  0  0  0  0  0  0  0  0  # atno 17321 bound_to 7965
  139.6598  144.7662  151.1985 LP  0  0  0  0  0  0  0  0  0  0  0  0  # atno 17342 bound_to 10162
  140.7571  143.6028  150.8683 LP  0  0  0  0  0  0  0  0  0  0  0  0  # atno 17343 bound_to 10162
  156.1276  130.6155  151.0287 LP  0  0  0  0  0  0  0  0  0  0  0  0  # atno 17370 bound_to 10713
  157.6690  131.0865  150.7659 LP  0  0  0  0  0  0  0  0  0  0  0  0  # atno 17371 bound_to 10713
  141.0269  133.7010  156.1362 LP  0  0  0  0  0  0  0  0  0  0  0  0  # atno 17394 bound_to 11000
  140.7154  134.4417  157.5579 LP  0  0  0  0  0  0  0  0  0  0  0  0  # atno 17395 bound_to 11000

$$$$
