AV-unprocessed.smi:763|AV-procd|sdf|3635|dock5
  -GOLD-   22720 1 33D 1   1.00000     0.00000
 Structure written by MMmdl.
 44 45  0  0  0  0  0  0  0  0  1 V2000
  152.3447  139.4921  155.7779 C   0  0  0  0  0  0  0  0  0  0  0  0
  151.2276  139.6875  154.9253 O   0  0  0  0  0  0  0  0  0  0  0  0
  150.7385  138.4921  154.3331 C   0  0  0  0  0  0  0  0  0  0  0  0
  150.2897  137.4700  155.3870 C   0  0  0  0  0  0  0  0  0  0  0  0
  149.7441  136.3477  154.7038 O   0  0  0  0  0  0  0  0  0  0  0  0
  150.0371  135.0758  155.1513 C   0  0  0  0  0  0  0  0  0  0  0  0
  151.0822  134.9312  156.0058 N   0  0  0  0  0  0  0  0  0  0  0  0
  151.4042  133.6933  156.4327 C   0  0  0  0  0  0  0  0  0  0  0  0
  150.7119  132.5369  156.0310 C   0  0  0  0  0  0  0  0  0  0  0  0
  149.6275  132.6837  155.1473 C   0  0  0  0  0  0  0  0  0  0  0  0
  149.2682  133.9714  154.6991 C   0  0  0  0  0  0  0  0  0  0  0  0
  148.1779  134.0851  153.8266 N   0  0  0  0  0  0  0  0  0  0  0  0
  147.1432  132.8469  153.1840 S   0  0  0  0  0  0  0  0  0  0  0  0
  147.9685  131.6300  153.1228 O   0  0  0  0  0  0  0  0  0  0  0  0
  145.9255  132.8918  154.0077 O   0  0  0  0  0  0  0  0  0  0  0  0
  146.8163  133.4772  151.4561 C   0  0  1  0  0  0  0  0  0  0  0  0
  146.1536  132.3860  150.5904 C   0  0  0  0  0  0  0  0  0  0  0  0
  144.6925  132.1340  151.0024 C   0  0  0  0  0  0  0  0  0  0  0  0
  143.8659  133.4277  150.9217 C   0  0  0  0  0  0  0  0  0  0  0  0
  144.4871  134.5493  151.7700 C   0  0  0  0  0  0  0  0  0  0  0  0
  145.9685  134.7727  151.4006 C   0  0  1  0  0  0  0  0  0  0  0  0
  146.5372  135.7881  152.2011 O   0  0  0  0  0  0  0  0  0  0  0  0
  152.6224  140.4420  156.2344 H   0  0  0  0  0  0  0  0  0  0  0  0
  153.2123  139.1223  155.2320 H   0  0  0  0  0  0  0  0  0  0  0  0
  152.1113  138.7917  156.5807 H   0  0  0  0  0  0  0  0  0  0  0  0
  149.9374  138.7031  153.6229 H   0  0  0  0  0  0  0  0  0  0  0  0
  151.5569  138.0627  153.7544 H   0  0  0  0  0  0  0  0  0  0  0  0
  151.1463  137.1632  155.9893 H   0  0  0  0  0  0  0  0  0  0  0  0
  149.5422  137.9063  156.0506 H   0  0  0  0  0  0  0  0  0  0  0  0
  152.2411  133.6225  157.1116 H   0  0  0  0  0  0  0  0  0  0  0  0
  151.0044  131.5625  156.3931 H   0  0  0  0  0  0  0  0  0  0  0  0
  149.0738  131.8147  154.8232 H   0  0  0  0  0  0  0  0  0  0  0  0
  148.1084  134.9783  153.3617 H   0  0  0  0  0  0  0  0  0  0  0  0
  147.7960  133.6821  151.0239 H   0  0  0  0  0  0  0  0  0  0  0  0
  146.1786  132.6948  149.5447 H   0  0  0  0  0  0  0  0  0  0  0  0
  146.7244  131.4587  150.6379 H   0  0  0  0  0  0  0  0  0  0  0  0
  144.2523  131.3747  150.3553 H   0  0  0  0  0  0  0  0  0  0  0  0
  144.6527  131.7335  152.0160 H   0  0  0  0  0  0  0  0  0  0  0  0
  143.8012  133.7523  149.8823 H   0  0  0  0  0  0  0  0  0  0  0  0
  142.8432  133.2374  151.2488 H   0  0  0  0  0  0  0  0  0  0  0  0
  143.9254  135.4715  151.6173 H   0  0  0  0  0  0  0  0  0  0  0  0
  144.3747  134.3055  152.8248 H   0  0  0  0  0  0  0  0  0  0  0  0
  145.9979  135.1435  150.3751 H   0  0  0  0  0  0  0  0  0  0  0  0
  147.4642  135.8283  152.0223 H   0  0  0  0  0  0  0  0  0  0  0  0
  1  2  1  0  0  0  0
  1 23  1  0  0  0  0
  1 24  1  0  0  0  0
  1 25  1  0  0  0  0
  2  3  1  0  0  0  0
  3  4  1  0  0  0  0
  3 26  1  0  0  0  0
  3 27  1  0  0  0  0
  4  5  1  0  0  0  0
  4 28  1  0  0  0  0
  4 29  1  0  0  0  0
  5  6  1  0  0  0  0
  6 11  1  0  0  0  0
  6  7  2  0  0  0  0
  7  8  1  0  0  0  0
  8  9  2  0  0  0  0
  8 30  1  0  0  0  0
  9 10  1  0  0  0  0
  9 31  1  0  0  0  0
 10 11  2  0  0  0  0
 10 32  1  0  0  0  0
 11 12  1  0  0  0  0
 12 13  1  0  0  0  0
 12 33  1  0  0  0  0
 13 14  2  0  0  0  0
 13 15  2  0  0  0  0
 13 16  1  0  0  0  0
 16 21  1  0  0  0  0
 16 17  1  0  0  0  0
 16 34  1  0  0  0  0
 17 18  1  0  0  0  0
 17 35  1  0  0  0  0
 17 36  1  0  0  0  0
 18 19  1  0  0  0  0
 18 37  1  0  0  0  0
 18 38  1  0  0  0  0
 19 20  1  0  0  0  0
 19 39  1  0  0  0  0
 19 40  1  0  0  0  0
 20 21  1  0  0  0  0
 20 41  1  0  0  0  0
 20 42  1  0  0  0  0
 21 22  1  0  0  0  0
 21 43  1  0  0  0  0
 22 44  1  0  0  0  0
M  END
> <s_m_source_file>
AV-unprocessed.smi

> <i_m_source_file_index>
763

> <i_lp_mmshare_version>
43012

> <i_f3d_flags>
0

> <s_epik_input>
W0NIM11PW0NIMl1bQ0gyXU9jMW5bY0hdW2NIXVtjSF1jMVtOSF1TKD1PKSg9TylbQ0BASF0yW0NIMl1bQ0gyXVtDSDJdW0NIMl1bQ0BIXTJbT0hd

> <s_epik_cmdline>
J2VwaWtfcHl0aG9uJywgJy1waCcsICc3LjAnLCAnLXRuJywgJzgnLCAnLW1hJywgJzIwMCcsICctbWV0YWxfYmluZGluZycsICctaW1hZScsICc8aW5maWxlLm1hZT4nLCAnLW9tYWUnLCAnPG91dGZpbGUubWFlPic=

> <r_epik_Ionization_Penalty>
0.124685

> <r_epik_Ionization_Penalty_Charging>
0

> <r_epik_Ionization_Penalty_Neutral>
0.124685

> <r_epik_State_Penalty>
0.114154

> <r_epik_Charging_Adjusted_Penalty>
0.114154

> <i_epik_Tot_Q>
0

> <i_epik_Tot_abs_Q>
0

> <r_epik_Metal_State_Penalty>
0.443785

> <b_epik_Metal_Only>
0

> <s_lp_Force_Field>
OPLS_2005

> <r_lp_Energy>
7.3887

> <b_lp_Chiralities_Consistent>
1

> <s_lp_Variant>
AV-unprocessed.smi:763-2

> <Gold.Version>
5.8.1

> <Gold.Id.Protein>
6NUR|6NUR_protein|mol2

> <Gold.PLP.Fitness>
43.4894

> <Gold.PLP.PLP>
-35.7021

> <Gold.PLP.part.hbond>
-3.2304

> <Gold.PLP.part.metal>
0.0000

> <Gold.PLP.part.buried>
-6.6629

> <Gold.PLP.part.nonpolar>
-28.3230

> <Gold.PLP.part.repulsive>
2.5952

> <Gold.PLP.ligand.clash>
0.0000

> <Gold.PLP.ligand.torsion>
1.4168

> <Gold.PLP.Chemscore.Hbond>
3.0920

> <Gold.PLP.Chemscore.CHOScore>
0.0000

> <Gold.PLP.Chemscore.Metal>
0.0000

> <Gold.Chemscore.Hbonds>
donor molecule, donor type, donor heavy atom, donor atom, acceptor molecule, acceptor atom, score
      L1  H    12    33       P1  7948  0.70
      L1  H    22    44       P1  7948  0.99
      P1  H  7989  7998       L1     2  1.00
      P1  H 10752 10764       L1     7  0.23

> <Gold.PLP.Chemscore.Internal.Correction>
1.3448

> <Gold.Rescore>
     Score         DG    S(hbond)    S(metal)    S(lipo)     H(rot)  DE(clash)    DE(int)     intcor
     12.83     -18.27       2.73        0.00      83.96       2.41       1.34       4.10       ----

> <Gold.Chemscore.Fitness>
12.8275

> <Gold.Chemscore.DG>
-18.2741

> <Gold.Chemscore.ZeroCoef>
-5.4800

> <Gold.Chemscore.Hbond>
2.7329

> <Gold.Chemscore.Metal>
0.0000

> <Gold.Chemscore.Lipo>
83.9640

> <Gold.Chemscore.Internal_Hbond>
0.0000

> <Gold.Chemscore.DEClash>
1.3448

> <Gold.Chemscore.DEInternal>
4.1019

> <Gold.Chemscore.Rot>
2.4052

> <Gold.Chemscore.Internal.Correction>
   9.000000E+99

> <Gold.Chemscore.Hbonds>
donor molecule, donor type, donor heavy atom, donor atom, acceptor molecule, acceptor atom, score
      L1  H    12    33       P1  7948  0.67
      L1  H    22    44       P1  7948  0.92
      P1  H  7989  7998       L1     2  0.43
      P1  H 10752 10764       L1     7  0.04

> <Gold.Chemscore.Hbond.Weighted>
-9.1278

> <Gold.Chemscore.Metal.Weighted>
-0.0000

> <Gold.Chemscore.Lipo.Weighted>
-9.8238

> <Gold.Chemscore.Internal_Hbond.Weighted>
0.0000

> <Gold.Chemscore.DEClash.Weighted>
1.3448

> <Gold.Chemscore.DEInternal.Weighted>
4.1019

> <Gold.Chemscore.Rot.Weighted>
6.1574

> <Gold.Chemscore.Internal.Correction.Weighted>
   9.000000E+99

> <Gold.Protein.RotatedTorsions>
[ 6907 6896 6895 6894 ] final   85.44 input  -60.11 | X-H torsion
[ 7974 7965 7964 7962 ] final -172.80 input  175.53 | X-H torsion
[ 8008 7997 7996 7995 ] final  -94.95 input   59.86 | X-H torsion
[ 10167 10162 10161 10158 ] final -121.88 input  -65.29 | X-H torsion
[ 10718 10713 10712 10709 ] final   31.11 input   66.30 | X-H torsion
[ 10763 10752 10751 10750 ] final  -48.66 input  -60.55 | X-H torsion
[ 11005 11000 10999 10996 ] final  152.35 input  -57.11 | X-H torsion

> <Gold.Protein.ActiveResidues>
 VAL166  LYS551  ARG553  GLY616  TRP617  ASP618  TYR619  PRO620  LYS621  CYS622 
 ASP623  PHE694  ASN695  SER759  ASP760  ASP761  ALA762  ILE779  LEU786  VAL792 
 PHE793  MET794  SER795  GLU796  ALA797  LYS798  CYS799  TRP800  GLU811  SER814 

> <Gold.Protein.RotatedAtoms>
  152.5375  134.2586  159.8926 H   0  0  0  0  0  0  0  0  0  0  0  0  # atno 6907 bound_to 6896
  151.2546  133.4326  159.2620 H   0  0  0  0  0  0  0  0  0  0  0  0  # atno 6908 bound_to 6896
  151.0508  134.9685  159.8266 H   0  0  0  0  0  0  0  0  0  0  0  0  # atno 6909 bound_to 6896
  144.7143  140.1718  143.6366 H   0  0  0  0  0  0  0  0  0  0  0  0  # atno 7974 bound_to 7965
  154.7551  140.0484  157.0926 H   0  0  0  0  0  0  0  0  0  0  0  0  # atno 8008 bound_to 7997
  155.0008  140.3124  155.4848 H   0  0  0  0  0  0  0  0  0  0  0  0  # atno 8009 bound_to 7997
  156.2893  140.2201  156.5118 H   0  0  0  0  0  0  0  0  0  0  0  0  # atno 8010 bound_to 7997
  140.0202  143.5351  152.2224 H   0  0  0  0  0  0  0  0  0  0  0  0  # atno 10167 bound_to 10162
  157.2683  130.7195  149.6490 H   0  0  0  0  0  0  0  0  0  0  0  0  # atno 10718 bound_to 10713
  154.0814  135.6590  153.4838 H   0  0  0  0  0  0  0  0  0  0  0  0  # atno 10763 bound_to 10752
  153.0354  135.5181  154.7470 H   0  0  0  0  0  0  0  0  0  0  0  0  # atno 10764 bound_to 10752
  154.6566  135.3009  154.9888 H   0  0  0  0  0  0  0  0  0  0  0  0  # atno 10765 bound_to 10752
  140.1300  134.8808  157.2190 H   0  0  0  0  0  0  0  0  0  0  0  0  # atno 11005 bound_to 11000
  145.8936  139.2390  143.1535 LP  0  0  0  0  0  0  0  0  0  0  0  0  # atno 17320 bound_to 7965
  145.9879  140.8628  143.0081 LP  0  0  0  0  0  0  0  0  0  0  0  0  # atno 17321 bound_to 7965
  139.6145  144.7616  151.2878 LP  0  0  0  0  0  0  0  0  0  0  0  0  # atno 17342 bound_to 10162
  140.7345  143.6763  150.8039 LP  0  0  0  0  0  0  0  0  0  0  0  0  # atno 17343 bound_to 10162
  155.9663  130.4376  150.5181 LP  0  0  0  0  0  0  0  0  0  0  0  0  # atno 17370 bound_to 10713
  157.3100  131.0662  151.2008 LP  0  0  0  0  0  0  0  0  0  0  0  0  # atno 17371 bound_to 10713
  140.2854  134.3301  155.7330 LP  0  0  0  0  0  0  0  0  0  0  0  0  # atno 17394 bound_to 11000
  141.2168  133.7503  156.9426 LP  0  0  0  0  0  0  0  0  0  0  0  0  # atno 17395 bound_to 11000

$$$$
