AV-unprocessed.smi:266|AV-procd|sdf|2034|dock5
  -GOLD-   2262021243D 1   1.00000     0.00000
 Structure written by MMmdl.
 52 55  0  0  0  0  0  0  0  0  1 V2000
  146.6215  134.6554  153.0194 C   0  0  0  0  0  0  0  0  0  0  0  0
  146.2244  134.5590  151.5379 C   0  0  1  0  0  0  0  0  0  0  0  0
  145.9447  133.1900  151.2564 O   0  0  0  0  0  0  0  0  0  0  0  0
  144.9531  133.1216  150.2469 C   0  0  0  0  0  0  0  0  0  0  0  0
  144.0075  134.2456  150.6409 C   0  0  0  0  0  0  0  0  0  0  0  0
  144.9582  135.3485  151.0985 C   0  0  2  0  0  0  0  0  0  0  0  0
  145.3076  136.1190  149.9602 O   0  0  0  0  0  0  0  0  0  0  0  0
  144.3405  136.3057  152.1519 C   0  0  0  0  0  0  0  0  0  0  0  0
  145.3067  137.2202  152.7429 N   0  0  0  0  0  0  0  0  0  0  0  0
  146.1360  138.0871  152.0718 C   0  0  0  0  0  0  0  0  0  0  0  0
  146.9165  138.8048  152.8306 N   0  0  0  0  0  0  0  0  0  0  0  0
  146.6156  138.4035  154.1293 C   0  0  0  0  0  0  0  0  0  0  0  0
  147.0844  138.7659  155.4324 C   0  0  0  0  0  0  0  0  0  0  0  0
  148.0471  139.7010  155.6921 N   0  0  0  0  0  0  0  0  0  0  0  0
  148.1548  140.2927  157.0205 C   0  0  0  0  0  0  0  0  0  0  0  0
  148.8161  140.3042  154.5993 C   0  0  0  0  0  0  0  0  0  0  0  0
  150.2002  139.6524  154.4000 C   0  0  2  0  0  0  0  0  0  0  0  0
  150.1026  138.1186  154.2896 C   0  0  0  0  0  0  0  0  0  0  0  0
  151.5152  137.5307  154.3614 C   0  0  0  0  0  0  0  0  0  0  0  0
  152.4417  138.6196  155.5048 S   0  0  0  0  0  0  0  0  0  0  0  0
  152.4917  138.0017  156.8386 O   0  0  0  0  0  0  0  0  0  0  0  0
  153.6681  139.0822  154.8380 O   0  0  0  0  0  0  0  0  0  0  0  0
  151.2035  139.9714  155.5219 C   0  0  0  0  0  0  0  0  0  0  0  0
  146.5105  138.1201  156.4843 N   0  0  0  0  0  0  0  0  0  0  0  0
  145.5673  137.1948  156.2962 C   0  0  0  0  0  0  0  0  0  0  0  0
  145.0456  136.7605  155.1504 N   0  0  0  0  0  0  0  0  0  0  0  0
  145.6014  137.4003  154.0834 C   0  0  0  0  0  0  0  0  0  0  0  0
  146.8597  135.6806  153.3034 H   0  0  0  0  0  0  0  0  0  0  0  0
  147.5050  134.0491  153.2196 H   0  0  0  0  0  0  0  0  0  0  0  0
  145.8254  134.2948  153.6714 H   0  0  0  0  0  0  0  0  0  0  0  0
  147.0844  134.8516  150.9324 H   0  0  0  0  0  0  0  0  0  0  0  0
  145.4037  133.3077  149.2708 H   0  0  0  0  0  0  0  0  0  0  0  0
  144.4659  132.1468  150.2257 H   0  0  0  0  0  0  0  0  0  0  0  0
  143.3349  134.5462  149.8362 H   0  0  0  0  0  0  0  0  0  0  0  0
  143.3951  133.9066  151.4771 H   0  0  0  0  0  0  0  0  0  0  0  0
  145.0261  137.0095  150.1032 H   0  0  0  0  0  0  0  0  0  0  0  0
  143.5485  136.9063  151.7043 H   0  0  0  0  0  0  0  0  0  0  0  0
  143.8767  135.7360  152.9582 H   0  0  0  0  0  0  0  0  0  0  0  0
  146.1408  138.1749  150.9952 H   0  0  0  0  0  0  0  0  0  0  0  0
  148.4250  139.5364  157.7575 H   0  0  0  0  0  0  0  0  0  0  0  0
  147.2131  140.7562  157.3156 H   0  0  0  0  0  0  0  0  0  0  0  0
  148.9245  141.0640  157.0479 H   0  0  0  0  0  0  0  0  0  0  0  0
  148.2411  140.2274  153.6757 H   0  0  0  0  0  0  0  0  0  0  0  0
  148.9268  141.3755  154.7709 H   0  0  0  0  0  0  0  0  0  0  0  0
  150.6296  140.0081  153.4623 H   0  0  0  0  0  0  0  0  0  0  0  0
  149.5178  137.7346  155.1265 H   0  0  0  0  0  0  0  0  0  0  0  0
  149.5917  137.8116  153.3765 H   0  0  0  0  0  0  0  0  0  0  0  0
  151.5339  136.5011  154.7186 H   0  0  0  0  0  0  0  0  0  0  0  0
  152.0016  137.5734  153.3867 H   0  0  0  0  0  0  0  0  0  0  0  0
  151.6978  140.9338  155.3886 H   0  0  0  0  0  0  0  0  0  0  0  0
  150.7187  139.9619  156.4983 H   0  0  0  0  0  0  0  0  0  0  0  0
  145.1745  136.7379  157.1926 H   0  0  0  0  0  0  0  0  0  0  0  0
  1  2  1  0  0  0  0
  1 28  1  0  0  0  0
  1 29  1  0  0  0  0
  1 30  1  0  0  0  0
  2  6  1  0  0  0  0
  2  3  1  0  0  0  0
  2 31  1  0  0  0  0
  3  4  1  0  0  0  0
  4  5  1  0  0  0  0
  4 32  1  0  0  0  0
  4 33  1  0  0  0  0
  5  6  1  0  0  0  0
  5 34  1  0  0  0  0
  5 35  1  0  0  0  0
  6  7  1  0  0  0  0
  6  8  1  0  0  0  0
  7 36  1  0  0  0  0
  8  9  1  0  0  0  0
  8 37  1  0  0  0  0
  8 38  1  0  0  0  0
  9 27  1  0  0  0  0
  9 10  1  0  0  0  0
 10 11  2  0  0  0  0
 10 39  1  0  0  0  0
 11 12  1  0  0  0  0
 12 27  2  0  0  0  0
 12 13  1  0  0  0  0
 13 14  1  0  0  0  0
 13 24  2  0  0  0  0
 14 15  1  0  0  0  0
 14 16  1  0  0  0  0
 15 40  1  0  0  0  0
 15 41  1  0  0  0  0
 15 42  1  0  0  0  0
 16 17  1  0  0  0  0
 16 43  1  0  0  0  0
 16 44  1  0  0  0  0
 17 23  1  0  0  0  0
 17 18  1  0  0  0  0
 17 45  1  0  0  0  0
 18 19  1  0  0  0  0
 18 46  1  0  0  0  0
 18 47  1  0  0  0  0
 19 20  1  0  0  0  0
 19 48  1  0  0  0  0
 19 49  1  0  0  0  0
 20 21  2  0  0  0  0
 20 22  2  0  0  0  0
 20 23  1  0  0  0  0
 23 50  1  0  0  0  0
 23 51  1  0  0  0  0
 24 25  1  0  0  0  0
 25 26  2  0  0  0  0
 25 52  1  0  0  0  0
 26 27  1  0  0  0  0
M  END
> <s_m_source_file>
AV-unprocessed.smi

> <i_m_source_file_index>
266

> <i_lp_mmshare_version>
43012

> <i_f3d_flags>
0

> <s_epik_input>
W0NIMl0xW0NIMl1PW0NAQEhdKFtDSDNdKVtDQEBdMShbT0hdKVtDSDJdbihbY0hdbjIpYyhjMjMpbltjSF1uYzNOKFtDSDNdKVtDSDJdW0NAQEhdKFtDSDJdNClbQ0gyXVtDSDJdUzQoPU8pPU8=

> <s_epik_cmdline>
J2VwaWtfcHl0aG9uJywgJy1waCcsICc3LjAnLCAnLXRuJywgJzgnLCAnLW1hJywgJzIwMCcsICctbWV0YWxfYmluZGluZycsICctaW1hZScsICc8aW5maWxlLm1hZT4nLCAnLW9tYWUnLCAnPG91dGZpbGUubWFlPic=

> <r_lp_tautomer_probability>
1

> <r_epik_Ionization_Penalty>
0.00155497

> <r_epik_Ionization_Penalty_Charging>
0

> <r_epik_Ionization_Penalty_Neutral>
0.00155497

> <r_epik_State_Penalty>
-0

> <r_epik_Charging_Adjusted_Penalty>
0

> <i_epik_Tot_Q>
0

> <i_epik_Tot_abs_Q>
0

> <r_epik_Metal_State_Penalty>
-0

> <b_epik_Metal_Only>
0

> <s_lp_Force_Field>
OPLS_2005

> <r_lp_Energy>
30.3558

> <b_lp_Chiralities_Consistent>
1

> <s_lp_Variant>
AV-unprocessed.smi:266-4

> <Gold.Version>
5.8.1

> <Gold.Id.Protein>
6NUR|6NUR_protein|mol2

> <Gold.PLP.Fitness>
43.9511

> <Gold.PLP.PLP>
-36.9007

> <Gold.PLP.part.hbond>
-3.0000

> <Gold.PLP.part.metal>
0.0000

> <Gold.PLP.part.buried>
-2.0740

> <Gold.PLP.part.nonpolar>
-32.4775

> <Gold.PLP.part.repulsive>
0.4456

> <Gold.PLP.ligand.clash>
0.0000

> <Gold.PLP.ligand.torsion>
0.5688

> <Gold.PLP.Chemscore.Hbond>
2.0000

> <Gold.PLP.Chemscore.CHOScore>
0.6901

> <Gold.PLP.Chemscore.Metal>
0.0000

> <Gold.Chemscore.Hbonds>
donor molecule, donor type, donor heavy atom, donor atom, acceptor molecule, acceptor atom, score
      L1  H     7    36       P1 10171  1.00
      P1  H  7997  8008       L1    22  1.00
      L1  C    10    39       P1 10171  0.67

> <Gold.PLP.Chemscore.Internal.Correction>
0.1175

> <Gold.Rescore>
     Score         DG    S(hbond)    S(metal)    S(lipo)     H(rot)  DE(clash)    DE(int)     intcor
      9.93     -13.98       1.99        0.00      69.48       2.45       0.32       3.74       ----

> <Gold.Chemscore.Fitness>
9.9301

> <Gold.Chemscore.DG>
-13.9848

> <Gold.Chemscore.ZeroCoef>
-5.4800

> <Gold.Chemscore.Hbond>
1.9880

> <Gold.Chemscore.Metal>
0.0000

> <Gold.Chemscore.Lipo>
69.4818

> <Gold.Chemscore.Internal_Hbond>
0.0000

> <Gold.Chemscore.DEClash>
0.3194

> <Gold.Chemscore.DEInternal>
3.7353

> <Gold.Chemscore.Rot>
2.4471

> <Gold.Chemscore.Internal.Correction>
   9.000000E+99

> <Gold.Chemscore.Hbonds>
donor molecule, donor type, donor heavy atom, donor atom, acceptor molecule, acceptor atom, score
      L1  H     7    36       P1 10171  0.96
      P1  H  7997  8008       L1    22  0.72

> <Gold.Chemscore.Hbond.Weighted>
-6.6399

> <Gold.Chemscore.Metal.Weighted>
-0.0000

> <Gold.Chemscore.Lipo.Weighted>
-8.1294

> <Gold.Chemscore.Internal_Hbond.Weighted>
0.0000

> <Gold.Chemscore.DEClash.Weighted>
0.3194

> <Gold.Chemscore.DEInternal.Weighted>
3.7353

> <Gold.Chemscore.Rot.Weighted>
6.2645

> <Gold.Chemscore.Internal.Correction.Weighted>
   9.000000E+99

> <Gold.Protein.RotatedTorsions>
[ 6907 6896 6895 6894 ] final  143.00 input  -60.11 | X-H torsion
[ 7974 7965 7964 7962 ] final -123.70 input  175.53 | X-H torsion
[ 8008 7997 7996 7995 ] final  -12.41 input   59.86 | X-H torsion
[ 10167 10162 10161 10158 ] final -148.37 input  -65.29 | X-H torsion
[ 10718 10713 10712 10709 ] final -108.97 input   66.30 | X-H torsion
[ 10763 10752 10751 10750 ] final   35.81 input  -60.55 | X-H torsion
[ 11005 11000 10999 10996 ] final  -21.35 input  -57.11 | X-H torsion

> <Gold.Protein.ActiveResidues>
 VAL166  LYS551  ARG553  GLY616  TRP617  ASP618  TYR619  PRO620  LYS621  CYS622 
 ASP623  PHE694  ASN695  SER759  ASP760  ASP761  ALA762  ILE779  LEU786  VAL792 
 PHE793  MET794  SER795  GLU796  ALA797  LYS798  CYS799  TRP800  GLU811  SER814 

> <Gold.Protein.RotatedAtoms>
  152.2117  133.4916  159.5113 H   0  0  0  0  0  0  0  0  0  0  0  0  # atno 6907 bound_to 6896
  150.6992  134.1458  159.4131 H   0  0  0  0  0  0  0  0  0  0  0  0  # atno 6908 bound_to 6896
  151.9378  135.0227  160.0584 H   0  0  0  0  0  0  0  0  0  0  0  0  # atno 6909 bound_to 6896
  145.0159  140.7946  143.4410 H   0  0  0  0  0  0  0  0  0  0  0  0  # atno 7974 bound_to 7965
  154.5380  140.2277  155.8690 H   0  0  0  0  0  0  0  0  0  0  0  0  # atno 8008 bound_to 7997
  156.1830  140.3095  155.9147 H   0  0  0  0  0  0  0  0  0  0  0  0  # atno 8009 bound_to 7997
  155.3316  140.0445  157.3033 H   0  0  0  0  0  0  0  0  0  0  0  0  # atno 8010 bound_to 7997
  139.7538  143.8479  152.2592 H   0  0  0  0  0  0  0  0  0  0  0  0  # atno 10167 bound_to 10162
  156.0513  130.5740  150.8035 H   0  0  0  0  0  0  0  0  0  0  0  0  # atno 10718 bound_to 10713
  153.0103  135.6323  154.1885 H   0  0  0  0  0  0  0  0  0  0  0  0  # atno 10763 bound_to 10752
  154.1627  135.2822  155.3105 H   0  0  0  0  0  0  0  0  0  0  0  0  # atno 10764 bound_to 10752
  154.5969  135.5600  153.7395 H   0  0  0  0  0  0  0  0  0  0  0  0  # atno 10765 bound_to 10752
  140.8553  133.7827  156.0012 H   0  0  0  0  0  0  0  0  0  0  0  0  # atno 11005 bound_to 11000
  145.1960  139.2276  143.5217 LP  0  0  0  0  0  0  0  0  0  0  0  0  # atno 17320 bound_to 7965
  146.3478  140.1767  142.8589 LP  0  0  0  0  0  0  0  0  0  0  0  0  # atno 17321 bound_to 7965
  139.8465  144.7185  150.9266 LP  0  0  0  0  0  0  0  0  0  0  0  0  # atno 17342 bound_to 10162
  140.7800  143.3937  151.1266 LP  0  0  0  0  0  0  0  0  0  0  0  0  # atno 17343 bound_to 10162
  157.5441  131.0942  150.9787 LP  0  0  0  0  0  0  0  0  0  0  0  0  # atno 17370 bound_to 10713
  157.0062  130.5619  149.5316 LP  0  0  0  0  0  0  0  0  0  0  0  0  # atno 17371 bound_to 10713
  140.8744  134.2687  157.5175 LP  0  0  0  0  0  0  0  0  0  0  0  0  # atno 17394 bound_to 11000
  139.8705  134.9584  156.4298 LP  0  0  0  0  0  0  0  0  0  0  0  0  # atno 17395 bound_to 11000

$$$$
