AV-unprocessed.smi:2895|AV-procd|sdf|11132|dock6
  -GOLD-   2272016 03D 1   1.00000     0.00000
 Structure written by MMmdl.
 54 57  0  0  0  0  0  0  0  0  3 V2000
  148.8370  142.0051  153.7463 O   0  0  0  0  0  0  0  0  0  0  0  0
  148.7269  141.0566  154.5244 C   0  0  0  0  0  0  0  0  0  0  0  0
  149.5609  140.8922  155.5656 N   0  0  0  0  0  0  0  0  0  0  0  0
  150.6632  141.7836  155.9097 C   0  0  0  0  0  0  0  0  0  0  0  0
  151.3678  141.3504  157.2068 C   0  0  0  0  0  0  0  0  0  0  0  0
  151.7806  142.5358  158.0582 C   0  0  0  0  0  0  0  0  0  0  0  0
  151.5365  143.8536  157.6123 C   0  0  0  0  0  0  0  0  0  0  0  0
  151.9279  144.9386  158.4232 C   0  0  0  0  0  0  0  0  0  0  0  0
  152.5296  144.7080  159.6109 N   0  3  0  0  0  0  0  0  0  0  0  0
  152.7818  143.4640  160.0741 C   0  0  0  0  0  0  0  0  0  0  0  0
  152.4113  142.3403  159.3070 C   0  0  0  0  0  0  0  0  0  0  0  0
  147.7499  140.1195  154.4198 N   0  0  0  0  0  0  0  0  0  0  0  0
  147.5904  138.9251  155.2652 C   0  0  0  0  0  0  0  0  0  0  0  0
  147.8520  137.6594  154.4215 C   0  0  0  0  0  0  0  0  0  0  0  0
  146.9941  137.6031  153.2024 N   0  3  0  0  0  0  0  0  0  0  0  0
  145.5997  137.1406  153.4776 C   0  0  2  0  0  0  0  0  0  0  0  0
  145.5189  135.7551  154.1655 C   0  0  0  0  0  0  0  0  0  0  0  0
  144.5039  134.9881  153.2972 C   0  0  2  0  0  0  0  0  0  0  0  0
  145.1896  134.5707  151.9850 C   0  0  0  0  0  0  0  0  0  0  0  0
  145.3415  135.9124  151.2468 C   0  0  0  0  0  0  0  0  0  0  0  0
  144.7079  136.9226  152.2283 C   0  0  1  0  0  0  0  0  0  0  0  0
  143.5720  136.0958  152.8221 C   0  0  0  0  0  0  0  0  0  0  0  0
  147.0821  138.8694  152.4202 C   0  0  0  0  0  0  0  0  0  0  0  0
  146.8062  140.1062  153.2963 C   0  0  0  0  0  0  0  0  0  0  0  0
  149.4073  140.1016  156.1745 H   0  0  0  0  0  0  0  0  0  0  0  0
  151.3736  141.8280  155.0823 H   0  0  0  0  0  0  0  0  0  0  0  0
  150.2589  142.7896  156.0258 H   0  0  0  0  0  0  0  0  0  0  0  0
  150.7136  140.6985  157.7875 H   0  0  0  0  0  0  0  0  0  0  0  0
  152.2591  140.7645  156.9788 H   0  0  0  0  0  0  0  0  0  0  0  0
  151.0541  144.0314  156.6619 H   0  0  0  0  0  0  0  0  0  0  0  0
  151.7787  145.9755  158.1599 H   0  0  0  0  0  0  0  0  0  0  0  0
  153.2684  143.4059  161.0368 H   0  0  0  0  0  0  0  0  0  0  0  0
  152.6103  141.3439  159.6745 H   0  0  0  0  0  0  0  0  0  0  0  0
  148.2416  138.9089  156.1387 H   0  0  0  0  0  0  0  0  0  0  0  0
  146.5769  138.9122  155.6676 H   0  0  0  0  0  0  0  0  0  0  0  0
  148.8935  137.6594  154.0975 H   0  0  0  0  0  0  0  0  0  0  0  0
  147.7346  136.7676  155.0361 H   0  0  0  0  0  0  0  0  0  0  0  0
  145.1081  137.8765  154.1153 H   0  0  0  0  0  0  0  0  0  0  0  0
  146.4744  135.2304  154.2017 H   0  0  0  0  0  0  0  0  0  0  0  0
  145.1591  135.8591  155.1900 H   0  0  0  0  0  0  0  0  0  0  0  0
  144.0156  134.1627  153.8161 H   0  0  0  0  0  0  0  0  0  0  0  0
  146.1465  134.0753  152.1526 H   0  0  0  0  0  0  0  0  0  0  0  0
  144.5561  133.8893  151.4155 H   0  0  0  0  0  0  0  0  0  0  0  0
  146.3807  136.1410  151.0108 H   0  0  0  0  0  0  0  0  0  0  0  0
  144.7886  135.8918  150.3069 H   0  0  0  0  0  0  0  0  0  0  0  0
  144.3739  137.8462  151.7547 H   0  0  0  0  0  0  0  0  0  0  0  0
  142.8451  135.7613  152.0795 H   0  0  0  0  0  0  0  0  0  0  0  0
  143.0456  136.5977  153.6360 H   0  0  0  0  0  0  0  0  0  0  0  0
  148.0932  138.9414  152.0168 H   0  0  0  0  0  0  0  0  0  0  0  0
  146.4271  138.8581  151.5508 H   0  0  0  0  0  0  0  0  0  0  0  0
  145.7863  140.0836  153.6824 H   0  0  0  0  0  0  0  0  0  0  0  0
  146.8645  141.0063  152.6828 H   0  0  0  0  0  0  0  0  0  0  0  0
  147.3894  136.8859  152.6110 H   0  0  0  0  0  0  0  0  0  0  0  0
  152.8053  145.5072  160.1822 H   0  0  0  0  0  0  0  0  0  0  0  0
  1  2  2  0  0  0  0
  2  3  1  0  0  0  0
  2 12  1  0  0  0  0
  3  4  1  0  0  0  0
  3 25  1  0  0  0  0
  4  5  1  0  0  0  0
  4 26  1  0  0  0  0
  4 27  1  0  0  0  0
  5  6  1  0  0  0  0
  5 28  1  0  0  0  0
  5 29  1  0  0  0  0
  6 11  1  0  0  0  0
  6  7  2  0  0  0  0
  7  8  1  0  0  0  0
  7 30  1  0  0  0  0
  8  9  2  0  0  0  0
  8 31  1  0  0  0  0
  9 10  1  0  0  0  0
  9 54  1  0  0  0  0
 10 11  2  0  0  0  0
 10 32  1  0  0  0  0
 11 33  1  0  0  0  0
 12 24  1  0  0  0  0
 12 13  1  0  0  0  0
 13 14  1  0  0  0  0
 13 34  1  0  0  0  0
 13 35  1  0  0  0  0
 14 15  1  0  0  0  0
 14 36  1  0  0  0  0
 14 37  1  0  0  0  0
 15 16  1  0  0  0  0
 15 23  1  0  0  0  0
 15 53  1  0  0  0  0
 16 21  1  0  0  0  0
 16 17  1  0  0  0  0
 16 38  1  0  0  0  0
 17 18  1  0  0  0  0
 17 39  1  0  0  0  0
 17 40  1  0  0  0  0
 18 22  1  0  0  0  0
 18 19  1  0  0  0  0
 18 41  1  0  0  0  0
 19 20  1  0  0  0  0
 19 42  1  0  0  0  0
 19 43  1  0  0  0  0
 20 21  1  0  0  0  0
 20 44  1  0  0  0  0
 20 45  1  0  0  0  0
 21 22  1  0  0  0  0
 21 46  1  0  0  0  0
 22 47  1  0  0  0  0
 22 48  1  0  0  0  0
 23 24  1  0  0  0  0
 23 49  1  0  0  0  0
 23 50  1  0  0  0  0
 24 51  1  0  0  0  0
 24 52  1  0  0  0  0
M  CHG  1   9   1
M  CHG  1  15   1
M  END
> <s_m_source_file>
AV-unprocessed.smi

> <i_m_source_file_index>
2895

> <i_lp_mmshare_version>
43012

> <i_f3d_flags>
0

> <s_epik_input>
W0NIMl0xW0NIMl1bQ0BASF0oW0NIMl0yKVtDQEBIXShbQ0gyXVtDQEhdMTIpTihbQ0gyXVtDSDJdMylbQ0gyXVtDSDJdTjNDKD1PKVtOSF1bQ0gyXVtDSDJdYzRbY0hdW2NIXW5bY0hdW2NIXTQ=

> <s_epik_cmdline>
J2VwaWtfcHl0aG9uJywgJy1waCcsICc3LjAnLCAnLXRuJywgJzgnLCAnLW1hJywgJzIwMCcsICctbWV0YWxfYmluZGluZycsICctaW1hZScsICc8aW5maWxlLm1hZT4nLCAnLW9tYWUnLCAnPG91dGZpbGUubWFlPic=

> <r_epik_Ionization_Penalty>
1.44916

> <r_epik_Ionization_Penalty_Charging>
1.44913

> <r_epik_Ionization_Penalty_Neutral>
2.64641e-05

> <r_epik_State_Penalty>
1.53218

> <r_epik_Charging_Adjusted_Penalty>
2.98131

> <i_epik_Tot_Q>
2

> <i_epik_Tot_abs_Q>
2

> <r_epik_Metal_State_Penalty>
1.58241

> <b_epik_Metal_Only>
0

> <s_lp_Force_Field>
OPLS_2005

> <r_lp_Energy>
107.451

> <b_lp_Chiralities_Consistent>
1

> <s_lp_Variant>
AV-unprocessed.smi:2895-5

> <Gold.Version>
5.8.1

> <Gold.Id.Protein>
6NUR|6NUR_protein|mol2

> <Gold.PLP.Fitness>
47.6624

> <Gold.PLP.PLP>
-41.4691

> <Gold.PLP.part.hbond>
-1.9933

> <Gold.PLP.part.metal>
0.0000

> <Gold.PLP.part.buried>
-0.1336

> <Gold.PLP.part.nonpolar>
-38.3638

> <Gold.PLP.part.repulsive>
0.3647

> <Gold.PLP.ligand.clash>
0.0000

> <Gold.PLP.ligand.torsion>
0.3058

> <Gold.PLP.Chemscore.Hbond>
2.2400

> <Gold.PLP.Chemscore.CHOScore>
0.0000

> <Gold.PLP.Chemscore.Metal>
0.0000

> <Gold.Chemscore.Hbonds>
donor molecule, donor type, donor heavy atom, donor atom, acceptor molecule, acceptor atom, score
      L1  H    15    53       P1  7948  1.82
      P1  H  8011  8017       L1     1  0.45

> <Gold.PLP.Chemscore.Internal.Correction>
0.0849

> <Gold.Rescore>
     Score         DG    S(hbond)    S(metal)    S(lipo)     H(rot)  DE(clash)    DE(int)     intcor
     19.39     -20.11       1.38        0.00     117.68       1.46       0.40       0.33       ----

> <Gold.Chemscore.Fitness>
19.3882

> <Gold.Chemscore.DG>
-20.1117

> <Gold.Chemscore.ZeroCoef>
-5.4800

> <Gold.Chemscore.Hbond>
1.3755

> <Gold.Chemscore.Metal>
0.0000

> <Gold.Chemscore.Lipo>
117.6761

> <Gold.Chemscore.Internal_Hbond>
0.0000

> <Gold.Chemscore.DEClash>
0.3962

> <Gold.Chemscore.DEInternal>
0.3273

> <Gold.Chemscore.Rot>
1.4572

> <Gold.Chemscore.Internal.Correction>
   9.000000E+99

> <Gold.Chemscore.Hbonds>
donor molecule, donor type, donor heavy atom, donor atom, acceptor molecule, acceptor atom, score
      L1  H    15    53       P1  7948  0.88
      P1  H  8011  8017       L1     1  0.46

> <Gold.Chemscore.Hbond.Weighted>
-4.5941

> <Gold.Chemscore.Metal.Weighted>
-0.0000

> <Gold.Chemscore.Lipo.Weighted>
-13.7681

> <Gold.Chemscore.Internal_Hbond.Weighted>
0.0000

> <Gold.Chemscore.DEClash.Weighted>
0.3962

> <Gold.Chemscore.DEInternal.Weighted>
0.3273

> <Gold.Chemscore.Rot.Weighted>
3.7305

> <Gold.Chemscore.Internal.Correction.Weighted>
   9.000000E+99

> <Gold.Protein.RotatedTorsions>
[ 6907 6896 6895 6894 ] final   91.03 input  -60.11 | X-H torsion
[ 7974 7965 7964 7962 ] final   15.49 input  175.53 | X-H torsion
[ 8008 7997 7996 7995 ] final   87.29 input   59.86 | X-H torsion
[ 10167 10162 10161 10158 ] final -179.39 input  -65.29 | X-H torsion
[ 10718 10713 10712 10709 ] final  -94.75 input   66.30 | X-H torsion
[ 10763 10752 10751 10750 ] final    9.09 input  -60.55 | X-H torsion
[ 11005 11000 10999 10996 ] final  121.11 input  -57.11 | X-H torsion

> <Gold.Protein.ActiveResidues>
 VAL166  LYS551  ARG553  GLY616  TRP617  ASP618  TYR619  PRO620  LYS621  CYS622 
 ASP623  PHE694  ASN695  SER759  ASP760  ASP761  ALA762  ILE779  LEU786  VAL792 
 PHE793  MET794  SER795  GLU796  ALA797  LYS798  CYS799  TRP800  GLU811  SER814 

> <Gold.Protein.RotatedAtoms>
  152.5448  134.1719  159.8600 H   0  0  0  0  0  0  0  0  0  0  0  0  # atno 6907 bound_to 6896
  151.1729  133.4766  159.2601 H   0  0  0  0  0  0  0  0  0  0  0  0  # atno 6908 bound_to 6896
  151.1257  135.0114  159.8614 H   0  0  0  0  0  0  0  0  0  0  0  0  # atno 6909 bound_to 6896
  146.2277  139.8887  142.8558 H   0  0  0  0  0  0  0  0  0  0  0  0  # atno 7974 bound_to 7965
  155.9735  140.3383  155.6597 H   0  0  0  0  0  0  0  0  0  0  0  0  # atno 8008 bound_to 7997
  155.6644  140.0719  157.2561 H   0  0  0  0  0  0  0  0  0  0  0  0  # atno 8009 bound_to 7997
  154.4172  140.1703  156.1798 H   0  0  0  0  0  0  0  0  0  0  0  0  # atno 8010 bound_to 7997
  139.5388  144.2421  152.0852 H   0  0  0  0  0  0  0  0  0  0  0  0  # atno 10167 bound_to 10162
  156.0032  130.5080  150.5973 H   0  0  0  0  0  0  0  0  0  0  0  0  # atno 10718 bound_to 10713
  153.2178  135.6877  153.8036 H   0  0  0  0  0  0  0  0  0  0  0  0  # atno 10763 bound_to 10752
  153.7246  135.3262  155.3274 H   0  0  0  0  0  0  0  0  0  0  0  0  # atno 10764 bound_to 10752
  154.8254  135.4621  154.1013 H   0  0  0  0  0  0  0  0  0  0  0  0  # atno 10765 bound_to 10752
  139.9212  134.9637  156.7909 H   0  0  0  0  0  0  0  0  0  0  0  0  # atno 11005 bound_to 11000
  145.2440  141.0019  143.3919 LP  0  0  0  0  0  0  0  0  0  0  0  0  # atno 17320 bound_to 7965
  144.9429  139.4169  143.6440 LP  0  0  0  0  0  0  0  0  0  0  0  0  # atno 17321 bound_to 7965
  140.1896  144.4765  150.6486 LP  0  0  0  0  0  0  0  0  0  0  0  0  # atno 17342 bound_to 10162
  140.6608  143.2251  151.5860 LP  0  0  0  0  0  0  0  0  0  0  0  0  # atno 17343 bound_to 10162
  157.3828  131.0783  151.1462 LP  0  0  0  0  0  0  0  0  0  0  0  0  # atno 17370 bound_to 10713
  157.2179  130.6468  149.5799 LP  0  0  0  0  0  0  0  0  0  0  0  0  # atno 17371 bound_to 10713
  140.6468  133.9768  155.7735 LP  0  0  0  0  0  0  0  0  0  0  0  0  # atno 17394 bound_to 11000
  141.0735  134.0170  157.3492 LP  0  0  0  0  0  0  0  0  0  0  0  0  # atno 17395 bound_to 11000

$$$$
