AV-unprocessed.smi:3112|AV-procd|sdf|11841|dock7
  -GOLD-   2272017223D 1   1.00000     0.00000
 Structure written by MMmdl.
 37 37  0  0  0  0  0  0  0  0  2 V2000
  150.4894  137.6426  154.5689 C   0  0  0  0  0  0  0  0  0  0  0  0
  149.7555  138.9866  154.6754 C   0  0  0  0  0  0  0  0  0  0  0  0
  150.4839  140.0145  155.5602 C   0  0  1  0  0  0  0  0  0  0  0  0
  151.8316  140.1074  155.1410 O   0  0  0  0  0  0  0  0  0  0  0  0
  149.8465  141.4109  155.4688 C   0  0  0  0  0  0  0  0  0  0  0  0
  150.6963  142.4255  156.1272 N   0  3  0  0  0  0  0  0  0  0  0  0
  150.8948  142.2426  157.5845 C   0  0  2  0  0  0  0  0  0  0  0  0
  149.5363  142.3043  158.3085 C   0  0  0  0  0  0  0  0  0  0  0  0
  151.9020  143.2976  158.1131 C   0  0  1  0  0  0  0  0  0  0  0  0
  151.3584  144.7385  158.0813 C   0  0  0  0  0  0  0  0  0  0  0  0
  152.3356  142.9636  159.4659 N   0  0  0  0  0  0  0  0  0  0  0  0
  152.1765  143.6877  160.6314 C   0  0  0  0  0  0  0  0  0  0  0  0
  152.7124  142.9501  161.6475 C   0  0  0  0  0  0  0  0  0  0  0  0
  153.1735  141.7695  161.0018 C   0  0  0  0  0  0  0  0  0  0  0  0
  152.9374  141.7764  159.6998 N   0  0  0  0  0  0  0  0  0  0  0  0
  149.9193  136.9382  153.9628 H   0  0  0  0  0  0  0  0  0  0  0  0
  150.6333  137.1931  155.5518 H   0  0  0  0  0  0  0  0  0  0  0  0
  151.4695  137.7578  154.1057 H   0  0  0  0  0  0  0  0  0  0  0  0
  149.5963  139.3976  153.6775 H   0  0  0  0  0  0  0  0  0  0  0  0
  148.7632  138.7996  155.0877 H   0  0  0  0  0  0  0  0  0  0  0  0
  150.4618  139.6745  156.5968 H   0  0  0  0  0  0  0  0  0  0  0  0
  152.1877  139.2346  155.0687 H   0  0  0  0  0  0  0  0  0  0  0  0
  149.6645  141.6793  154.4278 H   0  0  0  0  0  0  0  0  0  0  0  0
  148.8776  141.4012  155.9700 H   0  0  0  0  0  0  0  0  0  0  0  0
  151.6067  142.3784  155.6908 H   0  0  0  0  0  0  0  0  0  0  0  0
  151.3295  141.2551  157.7489 H   0  0  0  0  0  0  0  0  0  0  0  0
  149.6359  142.0837  159.3709 H   0  0  0  0  0  0  0  0  0  0  0  0
  148.8323  141.5757  157.9070 H   0  0  0  0  0  0  0  0  0  0  0  0
  149.0812  143.2907  158.2133 H   0  0  0  0  0  0  0  0  0  0  0  0
  152.7851  143.2756  157.4709 H   0  0  0  0  0  0  0  0  0  0  0  0
  151.1996  145.0868  157.0611 H   0  0  0  0  0  0  0  0  0  0  0  0
  152.0622  145.4311  158.5447 H   0  0  0  0  0  0  0  0  0  0  0  0
  150.4107  144.8226  158.6139 H   0  0  0  0  0  0  0  0  0  0  0  0
  151.6998  144.6568  160.6422 H   0  0  0  0  0  0  0  0  0  0  0  0
  152.7654  143.2125  162.6937 H   0  0  0  0  0  0  0  0  0  0  0  0
  153.6637  140.9114  161.4377 H   0  0  0  0  0  0  0  0  0  0  0  0
  150.3131  143.3448  155.9572 H   0  0  0  0  0  0  0  0  0  0  0  0
  1  2  1  0  0  0  0
  1 16  1  0  0  0  0
  1 17  1  0  0  0  0
  1 18  1  0  0  0  0
  2  3  1  0  0  0  0
  2 19  1  0  0  0  0
  2 20  1  0  0  0  0
  3  4  1  0  0  0  0
  3  5  1  0  0  0  0
  3 21  1  0  0  0  0
  4 22  1  0  0  0  0
  5  6  1  0  0  0  0
  5 23  1  0  0  0  0
  5 24  1  0  0  0  0
  6  7  1  0  0  0  0
  6 25  1  0  0  0  0
  6 37  1  0  0  0  0
  7  8  1  0  0  0  0
  7  9  1  0  0  0  0
  7 26  1  0  0  0  0
  8 27  1  0  0  0  0
  8 28  1  0  0  0  0
  8 29  1  0  0  0  0
  9 10  1  0  0  0  0
  9 11  1  0  0  0  0
  9 30  1  0  0  0  0
 10 31  1  0  0  0  0
 10 32  1  0  0  0  0
 10 33  1  0  0  0  0
 11 15  1  0  0  0  0
 11 12  1  0  0  0  0
 12 13  2  0  0  0  0
 12 34  1  0  0  0  0
 13 14  1  0  0  0  0
 13 35  1  0  0  0  0
 14 15  2  0  0  0  0
 14 36  1  0  0  0  0
M  CHG  1   6   1
M  END
> <s_m_source_file>
AV-unprocessed.smi

> <i_m_source_file_index>
3112

> <i_lp_mmshare_version>
43012

> <i_f3d_flags>
0

> <s_epik_input>
W0NIM11bQ0gyXVtDQEhdKFtPSF0pW0NIMl1bTkhdW0NASF0oW0NIM10pW0NASF0oW0NIM10pbjFbY0hdW2NIXVtjSF1uMQ==

> <s_epik_cmdline>
J2VwaWtfcHl0aG9uJywgJy1waCcsICc3LjAnLCAnLXRuJywgJzgnLCAnLW1hJywgJzIwMCcsICctbWV0YWxfYmluZGluZycsICctaW1hZScsICc8aW5maWxlLm1hZT4nLCAnLW9tYWUnLCAnPG91dGZpbGUubWFlPic=

> <r_lp_tautomer_probability>
1

> <r_epik_Ionization_Penalty>
0.0154842

> <r_epik_Ionization_Penalty_Charging>
0.0154724

> <r_epik_Ionization_Penalty_Neutral>
1.17979e-05

> <r_epik_State_Penalty>
0.0121607

> <r_epik_Charging_Adjusted_Penalty>
0.0276331

> <i_epik_Tot_Q>
1

> <i_epik_Tot_abs_Q>
1

> <r_epik_Metal_State_Penalty>
0.0121863

> <b_epik_Metal_Only>
0

> <s_lp_Force_Field>
OPLS_2005

> <r_lp_Energy>
12.5622

> <b_lp_Chiralities_Consistent>
1

> <s_lp_Variant>
AV-unprocessed.smi:3112-6

> <Gold.Version>
5.8.1

> <Gold.Id.Protein>
6NUR|6NUR_protein|mol2

> <Gold.PLP.Fitness>
47.4224

> <Gold.PLP.PLP>
-39.3931

> <Gold.PLP.part.hbond>
-2.0000

> <Gold.PLP.part.metal>
0.0000

> <Gold.PLP.part.buried>
-4.7513

> <Gold.PLP.part.nonpolar>
-32.9574

> <Gold.PLP.part.repulsive>
0.1152

> <Gold.PLP.ligand.clash>
0.0000

> <Gold.PLP.ligand.torsion>
0.2310

> <Gold.PLP.Chemscore.Hbond>
2.8000

> <Gold.PLP.Chemscore.CHOScore>
0.0000

> <Gold.PLP.Chemscore.Metal>
0.0000

> <Gold.Chemscore.Hbonds>
donor molecule, donor type, donor heavy atom, donor atom, acceptor molecule, acceptor atom, score
      L1  H     6    37       P1  8028  2.00
      P1  H  7989  7998       L1     4  0.88

> <Gold.PLP.Chemscore.Internal.Correction>
0.0914

> <Gold.Rescore>
     Score         DG    S(hbond)    S(metal)    S(lipo)     H(rot)  DE(clash)    DE(int)     intcor
     16.42     -16.54       1.91        0.00      92.64       2.41       0.04       0.08       ----

> <Gold.Chemscore.Fitness>
16.4193

> <Gold.Chemscore.DG>
-16.5398

> <Gold.Chemscore.ZeroCoef>
-5.4800

> <Gold.Chemscore.Hbond>
1.9126

> <Gold.Chemscore.Metal>
0.0000

> <Gold.Chemscore.Lipo>
92.6361

> <Gold.Chemscore.Internal_Hbond>
0.0000

> <Gold.Chemscore.DEClash>
0.0375

> <Gold.Chemscore.DEInternal>
0.0830

> <Gold.Chemscore.Rot>
2.4089

> <Gold.Chemscore.Internal.Correction>
   9.000000E+99

> <Gold.Chemscore.Hbonds>
donor molecule, donor type, donor heavy atom, donor atom, acceptor molecule, acceptor atom, score
      L1  H     6    37       P1  8028  0.95
      P1  H  7989  7998       L1     4  0.24

> <Gold.Chemscore.Hbond.Weighted>
-6.3881

> <Gold.Chemscore.Metal.Weighted>
-0.0000

> <Gold.Chemscore.Lipo.Weighted>
-10.8384

> <Gold.Chemscore.Internal_Hbond.Weighted>
0.0000

> <Gold.Chemscore.DEClash.Weighted>
0.0375

> <Gold.Chemscore.DEInternal.Weighted>
0.0830

> <Gold.Chemscore.Rot.Weighted>
6.1667

> <Gold.Chemscore.Internal.Correction.Weighted>
   9.000000E+99

> <Gold.Protein.RotatedTorsions>
[ 6907 6896 6895 6894 ] final  -40.81 input  -60.11 | X-H torsion
[ 7974 7965 7964 7962 ] final  113.18 input  175.53 | X-H torsion
[ 8008 7997 7996 7995 ] final   86.37 input   59.86 | X-H torsion
[ 10167 10162 10161 10158 ] final -119.16 input  -65.29 | X-H torsion
[ 10718 10713 10712 10709 ] final -146.65 input   66.30 | X-H torsion
[ 10763 10752 10751 10750 ] final -145.50 input  -60.55 | X-H torsion
[ 11005 11000 10999 10996 ] final   89.93 input  -57.11 | X-H torsion

> <Gold.Protein.ActiveResidues>
 VAL166  LYS551  ARG553  GLY616  TRP617  ASP618  TYR619  PRO620  LYS621  CYS622 
 ASP623  PHE694  ASN695  SER759  ASP760  ASP761  ALA762  ILE779  LEU786  VAL792 
 PHE793  MET794  SER795  GLU796  ALA797  LYS798  CYS799  TRP800  GLU811  SER814 

> <Gold.Protein.RotatedAtoms>
  150.9740  134.9108  159.7804 H   0  0  0  0  0  0  0  0  0  0  0  0  # atno 6907 bound_to 6896
  152.5200  134.3501  159.9258 H   0  0  0  0  0  0  0  0  0  0  0  0  # atno 6908 bound_to 6896
  151.3510  133.3885  159.2715 H   0  0  0  0  0  0  0  0  0  0  0  0  # atno 6909 bound_to 6896
  145.2202  139.2866  143.4222 H   0  0  0  0  0  0  0  0  0  0  0  0  # atno 7974 bound_to 7965
  155.9620  140.3392  155.6498 H   0  0  0  0  0  0  0  0  0  0  0  0  # atno 8008 bound_to 7997
  155.6786  140.0735  157.2511 H   0  0  0  0  0  0  0  0  0  0  0  0  # atno 8009 bound_to 7997
  154.4145  140.1678  156.1945 H   0  0  0  0  0  0  0  0  0  0  0  0  # atno 8010 bound_to 7997
  140.0496  143.5072  152.2088 H   0  0  0  0  0  0  0  0  0  0  0  0  # atno 10167 bound_to 10162
  156.3976  130.7917  151.2125 H   0  0  0  0  0  0  0  0  0  0  0  0  # atno 10718 bound_to 10713
  154.8380  135.3411  154.6513 H   0  0  0  0  0  0  0  0  0  0  0  0  # atno 10763 bound_to 10752
  153.7126  135.6963  153.5038 H   0  0  0  0  0  0  0  0  0  0  0  0  # atno 10764 bound_to 10752
  153.2440  135.4375  155.0681 H   0  0  0  0  0  0  0  0  0  0  0  0  # atno 10765 bound_to 10752
  139.8865  134.8582  156.3212 H   0  0  0  0  0  0  0  0  0  0  0  0  # atno 11005 bound_to 11000
  146.3378  140.2505  142.8598 LP  0  0  0  0  0  0  0  0  0  0  0  0  # atno 17320 bound_to 7965
  144.9773  140.8426  143.5419 LP  0  0  0  0  0  0  0  0  0  0  0  0  # atno 17321 bound_to 7965
  139.5961  144.7567  151.3283 LP  0  0  0  0  0  0  0  0  0  0  0  0  # atno 17342 bound_to 10162
  140.7223  143.7102  150.7775 LP  0  0  0  0  0  0  0  0  0  0  0  0  # atno 17343 bound_to 10162
  157.7502  131.0296  150.4102 LP  0  0  0  0  0  0  0  0  0  0  0  0  # atno 17370 bound_to 10713
  156.4375  130.3985  149.6719 LP  0  0  0  0  0  0  0  0  0  0  0  0  # atno 17371 bound_to 10713
  140.9785  133.7282  156.0637 LP  0  0  0  0  0  0  0  0  0  0  0  0  # atno 17394 bound_to 11000
  140.7780  134.3758  157.5493 LP  0  0  0  0  0  0  0  0  0  0  0  0  # atno 17395 bound_to 11000

$$$$
