AV-unprocessed.smi:2030|AV-procd|sdf|8225|dock10
  -GOLD-   2272010493D 1   1.00000     0.00000
 Structure written by MMmdl.
 36 37  0  0  0  0  0  0  0  0  2 V2000
  151.5944  137.6546  155.2572 C   0  0  0  0  0  0  0  0  0  0  0  0
  150.7957  138.8776  155.3067 N   0  0  0  0  0  0  0  0  0  0  0  0
  149.6319  138.8405  154.5658 N   0  0  0  0  0  0  0  0  0  0  0  0
  148.9347  139.9066  154.3254 C   0  0  0  0  0  0  0  0  0  0  0  0
  147.6941  139.8165  153.5085 C   0  0  0  0  0  0  0  0  0  0  0  0
  146.9268  140.7744  153.4075 O   0  0  0  0  0  0  0  0  0  0  0  0
  147.4721  138.6373  152.8994 N   0  0  0  0  0  0  0  0  0  0  0  0
  146.3255  138.3361  152.0510 C   0  0  0  0  0  0  0  0  0  0  0  0
  145.1565  137.7550  152.8636 C   0  0  0  0  0  0  0  0  0  0  0  0
  144.8206  136.3355  152.4507 C   0  0  0  0  0  0  0  0  0  0  0  0
  143.4894  135.8756  152.3524 C   0  0  0  0  0  0  0  0  0  0  0  0
  143.2492  134.5398  151.9678 C   0  0  0  0  0  0  0  0  0  0  0  0
  144.3431  133.6939  151.6900 C   0  0  0  0  0  0  0  0  0  0  0  0
  145.6518  134.2055  151.8046 C   0  0  0  0  0  0  0  0  0  0  0  0
  145.8410  135.4905  152.1769 N   0  3  0  0  0  0  0  0  0  0  0  0
  149.3894  141.2569  154.8436 C   0  0  0  0  0  0  0  0  0  0  0  0
  150.2446  141.1296  156.1198 C   0  0  0  0  0  0  0  0  0  0  0  0
  151.1947  139.9299  156.0640 C   0  0  0  0  0  0  0  0  0  0  0  0
  152.2431  139.9507  156.7087 O   0  0  0  0  0  0  0  0  0  0  0  0
  151.6895  137.2173  156.2522 H   0  0  0  0  0  0  0  0  0  0  0  0
  152.5959  137.8645  154.8792 H   0  0  0  0  0  0  0  0  0  0  0  0
  151.1490  136.9002  154.6066 H   0  0  0  0  0  0  0  0  0  0  0  0
  148.1525  137.9021  153.0308 H   0  0  0  0  0  0  0  0  0  0  0  0
  146.0142  139.2355  151.5170 H   0  0  0  0  0  0  0  0  0  0  0  0
  146.6437  137.6197  151.2932 H   0  0  0  0  0  0  0  0  0  0  0  0
  145.3973  137.7713  153.9275 H   0  0  0  0  0  0  0  0  0  0  0  0
  144.2651  138.3715  152.7418 H   0  0  0  0  0  0  0  0  0  0  0  0
  142.6619  136.5354  152.5699 H   0  0  0  0  0  0  0  0  0  0  0  0
  142.2379  134.1688  151.8875 H   0  0  0  0  0  0  0  0  0  0  0  0
  144.1806  132.6679  151.3940 H   0  0  0  0  0  0  0  0  0  0  0  0
  146.5458  133.6302  151.6122 H   0  0  0  0  0  0  0  0  0  0  0  0
  149.9572  141.7679  154.0652 H   0  0  0  0  0  0  0  0  0  0  0  0
  148.5322  141.8933  155.0664 H   0  0  0  0  0  0  0  0  0  0  0  0
  150.8081  142.0471  156.2922 H   0  0  0  0  0  0  0  0  0  0  0  0
  149.5945  140.9925  156.9848 H   0  0  0  0  0  0  0  0  0  0  0  0
  146.7970  135.8393  152.2550 H   0  0  0  0  0  0  0  0  0  0  0  0
  1  2  1  0  0  0  0
  1 20  1  0  0  0  0
  1 21  1  0  0  0  0
  1 22  1  0  0  0  0
  2 18  1  0  0  0  0
  2  3  1  0  0  0  0
  3  4  2  0  0  0  0
  4  5  1  0  0  0  0
  4 16  1  0  0  0  0
  5  6  2  0  0  0  0
  5  7  1  0  0  0  0
  7  8  1  0  0  0  0
  7 23  1  0  0  0  0
  8  9  1  0  0  0  0
  8 24  1  0  0  0  0
  8 25  1  0  0  0  0
  9 10  1  0  0  0  0
  9 26  1  0  0  0  0
  9 27  1  0  0  0  0
 10 15  1  0  0  0  0
 10 11  2  0  0  0  0
 11 12  1  0  0  0  0
 11 28  1  0  0  0  0
 12 13  2  0  0  0  0
 12 29  1  0  0  0  0
 13 14  1  0  0  0  0
 13 30  1  0  0  0  0
 14 15  2  0  0  0  0
 14 31  1  0  0  0  0
 15 36  1  0  0  0  0
 16 17  1  0  0  0  0
 16 32  1  0  0  0  0
 16 33  1  0  0  0  0
 17 18  1  0  0  0  0
 17 34  1  0  0  0  0
 17 35  1  0  0  0  0
 18 19  2  0  0  0  0
M  CHG  1  15   1
M  END
> <s_m_source_file>
AV-unprocessed.smi

> <i_m_source_file_index>
2030

> <i_lp_mmshare_version>
43012

> <i_f3d_flags>
0

> <s_epik_input>
Tz1DMVtDSDJdW0NIMl1DKD1OTjFbQ0gzXSlDKD1PKVtOSF1bQ0gyXVtDSDJdYzJbY0hdW2NIXVtjSF1bY0hdbjI=

> <s_epik_cmdline>
J2VwaWtfcHl0aG9uJywgJy1waCcsICc3LjAnLCAnLXRuJywgJzgnLCAnLW1hJywgJzIwMCcsICctbWV0YWxfYmluZGluZycsICctaW1hZScsICc8aW5maWxlLm1hZT4nLCAnLW9tYWUnLCAnPG91dGZpbGUubWFlPic=

> <r_epik_Ionization_Penalty>
2.09642

> <r_epik_Ionization_Penalty_Charging>
2.0963

> <r_epik_Ionization_Penalty_Neutral>
0.00011851

> <r_epik_State_Penalty>
2.23213

> <r_epik_Charging_Adjusted_Penalty>
4.32843

> <i_epik_Tot_Q>
1

> <i_epik_Tot_abs_Q>
1

> <r_epik_Metal_State_Penalty>
2.41268

> <b_epik_Metal_Only>
0

> <s_epik_Chemistry_Notes>
This compound has an imine and may undergo hydrolysis.

> <s_lp_Force_Field>
OPLS_2005

> <r_lp_Energy>
21.0672

> <b_lp_Chiralities_Consistent>
1

> <s_lp_Variant>
AV-unprocessed.smi:2030-2

> <Gold.Version>
5.8.1

> <Gold.Id.Protein>
6NUR|6NUR_protein|mol2

> <Gold.PLP.Fitness>
47.3222

> <Gold.PLP.PLP>
-37.3973

> <Gold.PLP.part.hbond>
-4.0000

> <Gold.PLP.part.metal>
0.0000

> <Gold.PLP.part.buried>
0.2814

> <Gold.PLP.part.nonpolar>
-34.3641

> <Gold.PLP.part.repulsive>
0.5317

> <Gold.PLP.ligand.clash>
0.0000

> <Gold.PLP.ligand.torsion>
0.8863

> <Gold.PLP.Chemscore.Hbond>
3.8960

> <Gold.PLP.Chemscore.CHOScore>
0.0000

> <Gold.PLP.Chemscore.Metal>
0.0000

> <Gold.Chemscore.Hbonds>
donor molecule, donor type, donor heavy atom, donor atom, acceptor molecule, acceptor atom, score
      L1  H     7    23       P1  7948  0.47
      L1  H    15    36       P1  7948  1.14
      P1  H  7997  8009       L1    19  0.80

> <Gold.PLP.Chemscore.Internal.Correction>
0.0095

> <Gold.Rescore>
     Score         DG    S(hbond)    S(metal)    S(lipo)     H(rot)  DE(clash)    DE(int)     intcor
     17.79     -18.64       2.77        0.00      66.49       1.52       0.14       0.71       ----

> <Gold.Chemscore.Fitness>
17.7929

> <Gold.Chemscore.DG>
-18.6362

> <Gold.Chemscore.ZeroCoef>
-5.4800

> <Gold.Chemscore.Hbond>
2.7715

> <Gold.Chemscore.Metal>
0.0000

> <Gold.Chemscore.Lipo>
66.4903

> <Gold.Chemscore.Internal_Hbond>
0.0000

> <Gold.Chemscore.DEClash>
0.1370

> <Gold.Chemscore.DEInternal>
0.7063

> <Gold.Chemscore.Rot>
1.5157

> <Gold.Chemscore.Internal.Correction>
   9.000000E+99

> <Gold.Chemscore.Hbonds>
donor molecule, donor type, donor heavy atom, donor atom, acceptor molecule, acceptor atom, score
      L1  H     7    23       P1  7948  0.46
      L1  H    15    36       P1  7948  0.56
      P1  H  7997  8009       L1    19  0.78

> <Gold.Chemscore.Hbond.Weighted>
-9.2569

> <Gold.Chemscore.Metal.Weighted>
-0.0000

> <Gold.Chemscore.Lipo.Weighted>
-7.7794

> <Gold.Chemscore.Internal_Hbond.Weighted>
0.0000

> <Gold.Chemscore.DEClash.Weighted>
0.1370

> <Gold.Chemscore.DEInternal.Weighted>
0.7063

> <Gold.Chemscore.Rot.Weighted>
3.8801

> <Gold.Chemscore.Internal.Correction.Weighted>
   9.000000E+99

> <Gold.Protein.RotatedTorsions>
[ 6907 6896 6895 6894 ] final  161.96 input  -60.11 | X-H torsion
[ 7974 7965 7964 7962 ] final   79.00 input  175.53 | X-H torsion
[ 8008 7997 7996 7995 ] final -172.80 input   59.86 | X-H torsion
[ 10167 10162 10161 10158 ] final  -80.22 input  -65.29 | X-H torsion
[ 10718 10713 10712 10709 ] final  101.04 input   66.30 | X-H torsion
[ 10763 10752 10751 10750 ] final  -46.55 input  -60.55 | X-H torsion
[ 11005 11000 10999 10996 ] final  157.28 input  -57.11 | X-H torsion

> <Gold.Protein.ActiveResidues>
 VAL166  LYS551  ARG553  GLY616  TRP617  ASP618  TYR619  PRO620  LYS621  CYS622 
 ASP623  PHE694  ASN695  SER759  ASP760  ASP761  ALA762  ILE779  LEU786  VAL792 
 PHE793  MET794  SER795  GLU796  ALA797  LYS798  CYS799  TRP800  GLU811  SER814 

> <Gold.Protein.RotatedAtoms>
  151.9477  133.3656  159.3988 H   0  0  0  0  0  0  0  0  0  0  0  0  # atno 6907 bound_to 6896
  150.6986  134.4373  159.5285 H   0  0  0  0  0  0  0  0  0  0  0  0  # atno 6908 bound_to 6896
  152.2041  134.8561  160.0555 H   0  0  0  0  0  0  0  0  0  0  0  0  # atno 6909 bound_to 6896
  145.6698  139.2494  143.1875 H   0  0  0  0  0  0  0  0  0  0  0  0  # atno 7974 bound_to 7965
  155.9493  140.1123  157.0990 H   0  0  0  0  0  0  0  0  0  0  0  0  # atno 8008 bound_to 7997
  154.4106  140.1203  156.5097 H   0  0  0  0  0  0  0  0  0  0  0  0  # atno 8009 bound_to 7997
  155.6862  140.3473  155.4877 H   0  0  0  0  0  0  0  0  0  0  0  0  # atno 8010 bound_to 7997
  140.4523  143.2479  151.8471 H   0  0  0  0  0  0  0  0  0  0  0  0  # atno 10167 bound_to 10162
  157.6839  131.0715  150.5191 H   0  0  0  0  0  0  0  0  0  0  0  0  # atno 10718 bound_to 10713
  154.0468  135.6636  153.4796 H   0  0  0  0  0  0  0  0  0  0  0  0  # atno 10763 bound_to 10752
  153.0480  135.5102  154.7789 H   0  0  0  0  0  0  0  0  0  0  0  0  # atno 10764 bound_to 10752
  154.6783  135.3041  154.9614 H   0  0  0  0  0  0  0  0  0  0  0  0  # atno 10765 bound_to 10752
  140.1754  134.8513  157.2740 H   0  0  0  0  0  0  0  0  0  0  0  0  # atno 11005 bound_to 11000
  146.1055  140.7493  142.9528 LP  0  0  0  0  0  0  0  0  0  0  0  0  # atno 17320 bound_to 7965
  144.7060  140.3855  143.7117 LP  0  0  0  0  0  0  0  0  0  0  0  0  # atno 17321 bound_to 7965
  139.4798  144.5106  151.8938 LP  0  0  0  0  0  0  0  0  0  0  0  0  # atno 17342 bound_to 10162
  140.4193  144.2265  150.5887 LP  0  0  0  0  0  0  0  0  0  0  0  0  # atno 17343 bound_to 10162
  156.5505  130.4230  149.6110 LP  0  0  0  0  0  0  0  0  0  0  0  0  # atno 17370 bound_to 10713
  156.2906  130.7122  151.1970 LP  0  0  0  0  0  0  0  0  0  0  0  0  # atno 17371 bound_to 10713
  140.2328  134.3888  155.7514 LP  0  0  0  0  0  0  0  0  0  0  0  0  # atno 17394 bound_to 11000
  141.2220  133.7224  156.8668 LP  0  0  0  0  0  0  0  0  0  0  0  0  # atno 17395 bound_to 11000

$$$$
