AV-unprocessed.smi:223|AV-procd|sdf|1705|dock3
  -GOLD-   2262020163D 1   1.00000     0.00000
 Structure written by MMmdl.
 47 50  0  0  0  0  0  0  0  0  1 V2000
  152.8987  142.7123  161.8346 C   0  0  0  0  0  0  0  0  0  0  0  0
  153.0032  141.5477  160.8433 C   0  0  2  0  0  0  0  0  0  0  0  0
  153.9026  140.5025  161.3580 C   0  0  0  0  0  0  0  0  0  0  0  0
  154.6099  139.6815  161.7631 N   0  0  0  0  0  0  0  0  0  0  0  0
  153.4553  142.0374  159.4545 C   0  0  0  0  0  0  0  0  0  0  0  0
  152.3639  142.6238  158.6773 N   0  0  0  0  0  0  0  0  0  0  0  0
  151.6532  141.8539  157.7995 C   0  0  0  0  0  0  0  0  0  0  0  0
  150.5456  142.4094  157.2388 N   0  0  0  0  0  0  0  0  0  0  0  0
  149.7985  141.7322  156.3646 C   0  0  0  0  0  0  0  0  0  0  0  0
  149.9718  140.4937  155.9078 N   0  0  0  0  0  0  0  0  0  0  0  0
  151.0767  139.9165  156.4579 C   0  0  0  0  0  0  0  0  0  0  0  0
  151.9625  140.5114  157.4061 C   0  0  0  0  0  0  0  0  0  0  0  0
  152.9523  139.5898  157.7387 N   0  0  0  0  0  0  0  0  0  0  0  0
  152.6785  138.5331  157.0260 C   0  0  0  0  0  0  0  0  0  0  0  0
  151.5731  138.6468  156.2175 N   0  0  0  0  0  0  0  0  0  0  0  0
  151.0404  137.6320  155.3202 C   0  0  0  0  0  0  0  0  0  0  0  0
  150.7474  136.2802  156.0142 C   0  0  2  0  0  0  0  0  0  0  0  0
  151.9719  135.6841  156.4051 O   0  0  0  0  0  0  0  0  0  0  0  0
  150.0047  135.3009  155.1144 C   0  0  0  0  0  0  0  0  0  0  0  0
  149.2341  134.4472  156.1123 C   0  0  0  0  0  0  0  0  0  0  0  0
  148.8107  135.3930  157.0798 O   0  0  0  0  0  0  0  0  0  0  0  0
  149.8329  136.3706  157.2536 C   0  0  0  0  0  0  0  0  0  0  0  0
  151.6391  143.7284  159.3061 C   0  0  0  0  0  0  0  0  0  0  0  0
  151.0784  144.8453  158.4472 C   0  0  0  0  0  0  0  0  0  0  0  0
  152.2714  145.1050  159.3278 C   0  0  0  0  0  0  0  0  0  0  0  0
  152.5554  142.3659  162.8095 H   0  0  0  0  0  0  0  0  0  0  0  0
  152.1918  143.4639  161.4825 H   0  0  0  0  0  0  0  0  0  0  0  0
  153.8644  143.1991  161.9746 H   0  0  0  0  0  0  0  0  0  0  0  0
  152.0223  141.0799  160.7727 H   0  0  0  0  0  0  0  0  0  0  0  0
  154.2764  142.7485  159.5330 H   0  0  0  0  0  0  0  0  0  0  0  0
  153.8722  141.1905  158.9089 H   0  0  0  0  0  0  0  0  0  0  0  0
  148.9409  142.2595  155.9737 H   0  0  0  0  0  0  0  0  0  0  0  0
  153.2812  137.6378  157.0720 H   0  0  0  0  0  0  0  0  0  0  0  0
  150.1287  138.0259  154.8691 H   0  0  0  0  0  0  0  0  0  0  0  0
  151.7483  137.4906  154.5023 H   0  0  0  0  0  0  0  0  0  0  0  0
  152.0881  135.8180  157.3333 H   0  0  0  0  0  0  0  0  0  0  0  0
  149.2947  135.8325  154.4792 H   0  0  0  0  0  0  0  0  0  0  0  0
  150.6587  134.7175  154.4649 H   0  0  0  0  0  0  0  0  0  0  0  0
  148.3894  133.9267  155.6608 H   0  0  0  0  0  0  0  0  0  0  0  0
  149.8854  133.7083  156.5816 H   0  0  0  0  0  0  0  0  0  0  0  0
  150.3749  136.1916  158.1837 H   0  0  0  0  0  0  0  0  0  0  0  0
  149.3502  137.3435  157.3400 H   0  0  0  0  0  0  0  0  0  0  0  0
  151.0514  143.4624  160.1828 H   0  0  0  0  0  0  0  0  0  0  0  0
  151.2546  144.8058  157.3739 H   0  0  0  0  0  0  0  0  0  0  0  0
  150.1259  145.2771  158.7469 H   0  0  0  0  0  0  0  0  0  0  0  0
  152.1174  145.7130  160.2168 H   0  0  0  0  0  0  0  0  0  0  0  0
  153.2317  145.2387  158.8331 H   0  0  0  0  0  0  0  0  0  0  0  0
  1  2  1  0  0  0  0
  1 26  1  0  0  0  0
  1 27  1  0  0  0  0
  1 28  1  0  0  0  0
  2  3  1  0  0  0  0
  2  5  1  0  0  0  0
  2 29  1  0  0  0  0
  3  4  3  0  0  0  0
  5  6  1  0  0  0  0
  5 30  1  0  0  0  0
  5 31  1  0  0  0  0
  6  7  1  0  0  0  0
  6 23  1  0  0  0  0
  7 12  1  0  0  0  0
  7  8  2  0  0  0  0
  8  9  1  0  0  0  0
  9 10  2  0  0  0  0
  9 32  1  0  0  0  0
 10 11  1  0  0  0  0
 11 15  1  0  0  0  0
 11 12  2  0  0  0  0
 12 13  1  0  0  0  0
 13 14  2  0  0  0  0
 14 15  1  0  0  0  0
 14 33  1  0  0  0  0
 15 16  1  0  0  0  0
 16 17  1  0  0  0  0
 16 34  1  0  0  0  0
 16 35  1  0  0  0  0
 17 22  1  0  0  0  0
 17 18  1  0  0  0  0
 17 19  1  0  0  0  0
 18 36  1  0  0  0  0
 19 20  1  0  0  0  0
 19 37  1  0  0  0  0
 19 38  1  0  0  0  0
 20 21  1  0  0  0  0
 20 39  1  0  0  0  0
 20 40  1  0  0  0  0
 21 22  1  0  0  0  0
 22 41  1  0  0  0  0
 22 42  1  0  0  0  0
 23 25  1  0  0  0  0
 23 24  1  0  0  0  0
 23 43  1  0  0  0  0
 24 25  1  0  0  0  0
 24 44  1  0  0  0  0
 24 45  1  0  0  0  0
 25 46  1  0  0  0  0
 25 47  1  0  0  0  0
M  END
> <s_m_source_file>
AV-unprocessed.smi

> <i_m_source_file_index>
223

> <i_lp_mmshare_version>
43012

> <i_f3d_flags>
0

> <s_epik_input>
TiNDW0NAQEhdKFtDSDNdKVtDSDJdTihbQ0hdMVtDSDJdW0NIMl0xKWMobltjSF1uMiljKGMyMyluW2NIXW4zW0NIMl1bQ0BAXTQoW09IXSlbQ0gyXVtDSDJdT1tDSDJdNA==

> <s_epik_cmdline>
J2VwaWtfcHl0aG9uJywgJy1waCcsICc3LjAnLCAnLXRuJywgJzgnLCAnLW1hJywgJzIwMCcsICctbWV0YWxfYmluZGluZycsICctaW1hZScsICc8aW5maWxlLm1hZT4nLCAnLW9tYWUnLCAnPG91dGZpbGUubWFlPic=

> <r_lp_tautomer_probability>
1

> <r_epik_Ionization_Penalty>
0.000756152

> <r_epik_Ionization_Penalty_Charging>
0

> <r_epik_Ionization_Penalty_Neutral>
0.000756152

> <r_epik_State_Penalty>
0.00038036

> <r_epik_Charging_Adjusted_Penalty>
0.00038036

> <i_epik_Tot_Q>
0

> <i_epik_Tot_abs_Q>
0

> <r_epik_Metal_State_Penalty>
-0

> <b_epik_Metal_Only>
0

> <s_lp_Force_Field>
OPLS_2005

> <r_lp_Energy>
38.8251

> <b_lp_Chiralities_Consistent>
1

> <s_lp_Variant>
AV-unprocessed.smi:223-3

> <Gold.Version>
5.8.1

> <Gold.Id.Protein>
6NUR|6NUR_protein|mol2

> <Gold.PLP.Fitness>
53.4840

> <Gold.PLP.PLP>
-45.5654

> <Gold.PLP.part.hbond>
-2.0000

> <Gold.PLP.part.metal>
0.0000

> <Gold.PLP.part.buried>
-5.6135

> <Gold.PLP.part.nonpolar>
-38.0817

> <Gold.PLP.part.repulsive>
0.1634

> <Gold.PLP.ligand.clash>
0.0000

> <Gold.PLP.ligand.torsion>
0.9653

> <Gold.PLP.Chemscore.Hbond>
1.9920

> <Gold.PLP.Chemscore.CHOScore>
0.8342

> <Gold.PLP.Chemscore.Metal>
0.0000

> <Gold.Chemscore.Hbonds>
donor molecule, donor type, donor heavy atom, donor atom, acceptor molecule, acceptor atom, score
      P1  H  7997  8009       L1    13  1.00
      P1  H 10752 10764       L1    18  1.00
      L1  C     9    32       P1  8028  0.87

> <Gold.PLP.Chemscore.Internal.Correction>
1.3709

> <Gold.Rescore>
     Score         DG    S(hbond)    S(metal)    S(lipo)     H(rot)  DE(clash)    DE(int)     intcor
     12.40     -15.86       1.78        0.00      97.47       2.72       0.13       3.33       ----

> <Gold.Chemscore.Fitness>
12.4038

> <Gold.Chemscore.DG>
-15.8626

> <Gold.Chemscore.ZeroCoef>
-5.4800

> <Gold.Chemscore.Hbond>
1.7768

> <Gold.Chemscore.Metal>
0.0000

> <Gold.Chemscore.Lipo>
97.4677

> <Gold.Chemscore.Internal_Hbond>
0.0000

> <Gold.Chemscore.DEClash>
0.1264

> <Gold.Chemscore.DEInternal>
3.3323

> <Gold.Chemscore.Rot>
2.7171

> <Gold.Chemscore.Internal.Correction>
   9.000000E+99

> <Gold.Chemscore.Hbonds>
donor molecule, donor type, donor heavy atom, donor atom, acceptor molecule, acceptor atom, score
      P1  H  7997  8009       L1    13  0.25
      P1  H 10752 10764       L1    18  0.63

> <Gold.Chemscore.Hbond.Weighted>
-5.9346

> <Gold.Chemscore.Metal.Weighted>
-0.0000

> <Gold.Chemscore.Lipo.Weighted>
-11.4037

> <Gold.Chemscore.Internal_Hbond.Weighted>
0.0000

> <Gold.Chemscore.DEClash.Weighted>
0.1264

> <Gold.Chemscore.DEInternal.Weighted>
3.3323

> <Gold.Chemscore.Rot.Weighted>
6.9558

> <Gold.Chemscore.Internal.Correction.Weighted>
   9.000000E+99

> <Gold.Protein.RotatedTorsions>
[ 6907 6896 6895 6894 ] final  -37.10 input  -60.11 | X-H torsion
[ 7974 7965 7964 7962 ] final -105.39 input  175.53 | X-H torsion
[ 8008 7997 7996 7995 ] final  147.55 input   59.86 | X-H torsion
[ 10167 10162 10161 10158 ] final    9.02 input  -65.29 | X-H torsion
[ 10718 10713 10712 10709 ] final   89.00 input   66.30 | X-H torsion
[ 10763 10752 10751 10750 ] final  -43.67 input  -60.55 | X-H torsion
[ 11005 11000 10999 10996 ] final   11.04 input  -57.11 | X-H torsion

> <Gold.Protein.ActiveResidues>
 VAL166  LYS551  ARG553  GLY616  TRP617  ASP618  TYR619  PRO620  LYS621  CYS622 
 ASP623  PHE694  ASN695  SER759  ASP760  ASP761  ALA762  ILE779  LEU786  VAL792 
 PHE793  MET794  SER795  GLU796  ALA797  LYS798  CYS799  TRP800  GLU811  SER814 

> <Gold.Protein.RotatedAtoms>
  151.0189  134.9454  159.8048 H   0  0  0  0  0  0  0  0  0  0  0  0  # atno 6907 bound_to 6896
  152.5320  134.2930  159.9060 H   0  0  0  0  0  0  0  0  0  0  0  0  # atno 6908 bound_to 6896
  151.2937  133.4111  159.2669 H   0  0  0  0  0  0  0  0  0  0  0  0  # atno 6909 bound_to 6896
  145.2311  140.9170  143.3204 H   0  0  0  0  0  0  0  0  0  0  0  0  # atno 7974 bound_to 7965
  156.2821  140.2152  156.5556 H   0  0  0  0  0  0  0  0  0  0  0  0  # atno 8008 bound_to 7997
  154.7255  140.0500  157.0701 H   0  0  0  0  0  0  0  0  0  0  0  0  # atno 8009 bound_to 7997
  155.0422  140.3147  155.4723 H   0  0  0  0  0  0  0  0  0  0  0  0  # atno 8010 bound_to 7997
  140.6280  143.8058  150.7258 H   0  0  0  0  0  0  0  0  0  0  0  0  # atno 10167 bound_to 10162
  157.6953  131.0316  150.3360 H   0  0  0  0  0  0  0  0  0  0  0  0  # atno 10718 bound_to 10713
  153.9994  135.6695  153.4758 H   0  0  0  0  0  0  0  0  0  0  0  0  # atno 10763 bound_to 10752
  153.0669  135.4996  154.8216 H   0  0  0  0  0  0  0  0  0  0  0  0  # atno 10764 bound_to 10752
  154.7062  135.3088  154.9230 H   0  0  0  0  0  0  0  0  0  0  0  0  # atno 10765 bound_to 10752
  140.5077  134.0682  155.7810 H   0  0  0  0  0  0  0  0  0  0  0  0  # atno 11005 bound_to 11000
  144.9676  139.3914  143.6325 LP  0  0  0  0  0  0  0  0  0  0  0  0  # atno 17320 bound_to 7965
  146.3353  139.8759  142.8832 LP  0  0  0  0  0  0  0  0  0  0  0  0  # atno 17321 bound_to 7965
  140.1662  143.4233  152.2032 LP  0  0  0  0  0  0  0  0  0  0  0  0  # atno 17342 bound_to 10162
  139.5498  144.7328  151.4471 LP  0  0  0  0  0  0  0  0  0  0  0  0  # atno 17343 bound_to 10162
  156.3827  130.3883  149.7089 LP  0  0  0  0  0  0  0  0  0  0  0  0  # atno 17370 bound_to 10713
  156.4466  130.7886  151.2908 LP  0  0  0  0  0  0  0  0  0  0  0  0  # atno 17371 bound_to 10713
  141.1402  133.9152  157.2343 LP  0  0  0  0  0  0  0  0  0  0  0  0  # atno 17394 bound_to 11000
  139.9676  135.0137  156.9429 LP  0  0  0  0  0  0  0  0  0  0  0  0  # atno 17395 bound_to 11000

$$$$
