AV-unprocessed.smi:313|AV-procd|sdf|2311|dock4
  -GOLD-   2262022213D 1   1.00000     0.00000
 Structure written by MMmdl.
 50 51  0  0  0  0  0  0  0  0  1 V2000
  155.1538  133.8796  164.9650 C   0  0  0  0  0  0  0  0  0  0  0  0
  155.2143  134.3680  163.5101 C   0  0  0  0  0  0  0  0  0  0  0  0
  155.6183  135.8478  163.3717 C   0  0  2  0  0  0  0  0  0  0  0  0
  154.6421  136.7772  164.1083 C   0  0  0  0  0  0  0  0  0  0  0  0
  155.6873  136.2175  161.9605 N   0  0  0  0  0  0  0  0  0  0  0  0
  156.2182  135.4702  160.9811 C   0  0  0  0  0  0  0  0  0  0  0  0
  156.7581  134.3799  161.1758 O   0  0  0  0  0  0  0  0  0  0  0  0
  156.1216  136.0507  159.5617 C   0  0  1  0  0  0  0  0  0  0  0  0
  155.2838  135.0938  158.6973 C   0  0  0  0  0  0  0  0  0  0  0  0
  155.4425  137.3438  159.5979 N   0  0  0  0  0  0  0  0  0  0  0  0
  154.1178  137.5175  159.7441 C   0  0  0  0  0  0  0  0  0  0  0  0
  153.3258  136.5917  159.9226 O   0  0  0  0  0  0  0  0  0  0  0  0
  153.6471  138.9423  159.7350 C   0  0  0  0  0  0  0  0  0  0  0  0
  154.4403  139.9890  160.2529 C   0  0  0  0  0  0  0  0  0  0  0  0
  153.9562  141.3097  160.1936 C   0  0  0  0  0  0  0  0  0  0  0  0
  152.6920  141.5572  159.6078 C   0  0  0  0  0  0  0  0  0  0  0  0
  152.1863  142.8736  159.5381 N   0  0  0  0  0  0  0  0  0  0  0  0
  152.7053  143.8071  160.5348 C   0  0  0  0  0  0  0  0  0  0  0  0
  151.8588  145.0913  160.5566 C   0  0  0  0  0  0  0  0  0  0  0  0
  151.8038  145.6543  159.2503 O   0  0  0  0  0  0  0  0  0  0  0  0
  151.1934  144.7693  158.3173 C   0  0  0  0  0  0  0  0  0  0  0  0
  152.0166  143.4741  158.2163 C   0  0  0  0  0  0  0  0  0  0  0  0
  151.9350  140.5505  159.1064 N   0  0  0  0  0  0  0  0  0  0  0  0
  152.4042  139.2860  159.1628 C   0  0  0  0  0  0  0  0  0  0  0  0
  154.8167  132.8441  165.0112 H   0  0  0  0  0  0  0  0  0  0  0  0
  154.4597  134.4807  165.5527 H   0  0  0  0  0  0  0  0  0  0  0  0
  156.1302  133.9291  165.4479 H   0  0  0  0  0  0  0  0  0  0  0  0
  155.9077  133.7407  162.9483 H   0  0  0  0  0  0  0  0  0  0  0  0
  154.2349  134.2202  163.0534 H   0  0  0  0  0  0  0  0  0  0  0  0
  156.6039  135.9639  163.8264 H   0  0  0  0  0  0  0  0  0  0  0  0
  154.5863  136.5261  165.1678 H   0  0  0  0  0  0  0  0  0  0  0  0
  153.6353  136.7036  163.6958 H   0  0  0  0  0  0  0  0  0  0  0  0
  154.9575  137.8185  164.0347 H   0  0  0  0  0  0  0  0  0  0  0  0
  155.2670  137.0989  161.7034 H   0  0  0  0  0  0  0  0  0  0  0  0
  157.1158  136.1615  159.1239 H   0  0  0  0  0  0  0  0  0  0  0  0
  155.7411  134.1048  158.6455 H   0  0  0  0  0  0  0  0  0  0  0  0
  155.2015  135.4663  157.6759 H   0  0  0  0  0  0  0  0  0  0  0  0
  154.2710  134.9727  159.0850 H   0  0  0  0  0  0  0  0  0  0  0  0
  156.0186  138.1637  159.4753 H   0  0  0  0  0  0  0  0  0  0  0  0
  155.4083  139.7944  160.6913 H   0  0  0  0  0  0  0  0  0  0  0  0
  154.5522  142.1097  160.6062 H   0  0  0  0  0  0  0  0  0  0  0  0
  152.7140  143.3723  161.5330 H   0  0  0  0  0  0  0  0  0  0  0  0
  153.7397  144.0473  160.2852 H   0  0  0  0  0  0  0  0  0  0  0  0
  150.8505  144.8858  160.9192 H   0  0  0  0  0  0  0  0  0  0  0  0
  152.2996  145.8193  161.2378 H   0  0  0  0  0  0  0  0  0  0  0  0
  150.1672  144.5551  158.6202 H   0  0  0  0  0  0  0  0  0  0  0  0
  151.1425  145.2581  157.3446 H   0  0  0  0  0  0  0  0  0  0  0  0
  152.9970  143.6876  157.7888 H   0  0  0  0  0  0  0  0  0  0  0  0
  151.5117  142.7777  157.5459 H   0  0  0  0  0  0  0  0  0  0  0  0
  151.7589  138.5291  158.7411 H   0  0  0  0  0  0  0  0  0  0  0  0
  1  2  1  0  0  0  0
  1 25  1  0  0  0  0
  1 26  1  0  0  0  0
  1 27  1  0  0  0  0
  2  3  1  0  0  0  0
  2 28  1  0  0  0  0
  2 29  1  0  0  0  0
  3  4  1  0  0  0  0
  3  5  1  0  0  0  0
  3 30  1  0  0  0  0
  4 31  1  0  0  0  0
  4 32  1  0  0  0  0
  4 33  1  0  0  0  0
  5  6  1  0  0  0  0
  5 34  1  0  0  0  0
  6  7  2  0  0  0  0
  6  8  1  0  0  0  0
  8  9  1  0  0  0  0
  8 10  1  0  0  0  0
  8 35  1  0  0  0  0
  9 36  1  0  0  0  0
  9 37  1  0  0  0  0
  9 38  1  0  0  0  0
 10 11  1  0  0  0  0
 10 39  1  0  0  0  0
 11 12  2  0  0  0  0
 11 13  1  0  0  0  0
 13 24  1  0  0  0  0
 13 14  2  0  0  0  0
 14 15  1  0  0  0  0
 14 40  1  0  0  0  0
 15 16  2  0  0  0  0
 15 41  1  0  0  0  0
 16 17  1  0  0  0  0
 16 23  1  0  0  0  0
 17 22  1  0  0  0  0
 17 18  1  0  0  0  0
 18 19  1  0  0  0  0
 18 42  1  0  0  0  0
 18 43  1  0  0  0  0
 19 20  1  0  0  0  0
 19 44  1  0  0  0  0
 19 45  1  0  0  0  0
 20 21  1  0  0  0  0
 21 22  1  0  0  0  0
 21 46  1  0  0  0  0
 21 47  1  0  0  0  0
 22 48  1  0  0  0  0
 22 49  1  0  0  0  0
 23 24  2  0  0  0  0
 24 50  1  0  0  0  0
M  END
> <s_m_source_file>
AV-unprocessed.smi

> <i_m_source_file_index>
313

> <i_lp_mmshare_version>
43012

> <i_f3d_flags>
0

> <s_epik_input>
W0NIM11bQ0gyXVtDQEhdKFtDSDNdKVtOSF1DKD1PKVtDQEhdKFtDSDNdKVtOSF1DKD1PKWMxW2NIXVtjSF1jKG5bY0hdMSlOMltDSDJdW0NIMl1PW0NIMl1bQ0gyXTI=

> <s_epik_cmdline>
J2VwaWtfcHl0aG9uJywgJy1waCcsICc3LjAnLCAnLXRuJywgJzgnLCAnLW1hJywgJzIwMCcsICctbWV0YWxfYmluZGluZycsICctaW1hZScsICc8aW5maWxlLm1hZT4nLCAnLW9tYWUnLCAnPG91dGZpbGUubWFlPic=

> <r_lp_tautomer_probability>
1

> <r_epik_Ionization_Penalty>
9.96442e-06

> <r_epik_Ionization_Penalty_Charging>
0

> <r_epik_Ionization_Penalty_Neutral>
9.96442e-06

> <r_epik_State_Penalty>
-0

> <r_epik_Charging_Adjusted_Penalty>
0

> <i_epik_Tot_Q>
0

> <i_epik_Tot_abs_Q>
0

> <r_epik_Metal_State_Penalty>
-0

> <b_epik_Metal_Only>
0

> <s_lp_Force_Field>
OPLS_2005

> <r_lp_Energy>
19.146

> <b_lp_Chiralities_Consistent>
1

> <s_lp_Variant>
AV-unprocessed.smi:313-3

> <Gold.Version>
5.8.1

> <Gold.Id.Protein>
6NUR|6NUR_protein|mol2

> <Gold.PLP.Fitness>
45.9445

> <Gold.PLP.PLP>
-45.1869

> <Gold.PLP.part.hbond>
-2.0000

> <Gold.PLP.part.metal>
0.0000

> <Gold.PLP.part.buried>
-6.5570

> <Gold.PLP.part.nonpolar>
-37.1254

> <Gold.PLP.part.repulsive>
0.1586

> <Gold.PLP.ligand.clash>
0.0000

> <Gold.PLP.ligand.torsion>
1.3171

> <Gold.PLP.Chemscore.Hbond>
1.0000

> <Gold.PLP.Chemscore.CHOScore>
0.0000

> <Gold.PLP.Chemscore.Metal>
0.0000

> <Gold.Chemscore.Hbonds>
donor molecule, donor type, donor heavy atom, donor atom, acceptor molecule, acceptor atom, score
      P1  H  6896  6908       L1    12  1.00

> <Gold.PLP.Chemscore.Internal.Correction>
0.3917

> <Gold.Rescore>
     Score         DG    S(hbond)    S(metal)    S(lipo)     H(rot)  DE(clash)    DE(int)     intcor
     14.89     -17.58       1.00        0.00     114.04       1.79       0.01       2.68       ----

> <Gold.Chemscore.Fitness>
14.8947

> <Gold.Chemscore.DG>
-17.5820

> <Gold.Chemscore.ZeroCoef>
-5.4800

> <Gold.Chemscore.Hbond>
0.9995

> <Gold.Chemscore.Metal>
0.0000

> <Gold.Chemscore.Lipo>
114.0413

> <Gold.Chemscore.Internal_Hbond>
0.0000

> <Gold.Chemscore.DEClash>
0.0067

> <Gold.Chemscore.DEInternal>
2.6806

> <Gold.Chemscore.Rot>
1.7888

> <Gold.Chemscore.Internal.Correction>
   9.000000E+99

> <Gold.Chemscore.Hbonds>
donor molecule, donor type, donor heavy atom, donor atom, acceptor molecule, acceptor atom, score
      P1  H  6896  6908       L1    12  0.94

> <Gold.Chemscore.Hbond.Weighted>
-3.3385

> <Gold.Chemscore.Metal.Weighted>
-0.0000

> <Gold.Chemscore.Lipo.Weighted>
-13.3428

> <Gold.Chemscore.Internal_Hbond.Weighted>
0.0000

> <Gold.Chemscore.DEClash.Weighted>
0.0067

> <Gold.Chemscore.DEInternal.Weighted>
2.6806

> <Gold.Chemscore.Rot.Weighted>
4.5793

> <Gold.Chemscore.Internal.Correction.Weighted>
   9.000000E+99

> <Gold.Protein.RotatedTorsions>
[ 6907 6896 6895 6894 ] final  -72.66 input  -60.11 | X-H torsion
[ 7974 7965 7964 7962 ] final -176.48 input  175.53 | X-H torsion
[ 8008 7997 7996 7995 ] final  -41.07 input   59.86 | X-H torsion
[ 10167 10162 10161 10158 ] final  -98.48 input  -65.29 | X-H torsion
[ 10718 10713 10712 10709 ] final  -33.41 input   66.30 | X-H torsion
[ 10763 10752 10751 10750 ] final -135.86 input  -60.55 | X-H torsion
[ 11005 11000 10999 10996 ] final    4.34 input  -57.11 | X-H torsion

> <Gold.Protein.ActiveResidues>
 VAL166  LYS551  ARG553  GLY616  TRP617  ASP618  TYR619  PRO620  LYS621  CYS622 
 ASP623  PHE694  ASN695  SER759  ASP760  ASP761  ALA762  ILE779  LEU786  VAL792 
 PHE793  MET794  SER795  GLU796  ALA797  LYS798  CYS799  TRP800  GLU811  SER814 

> <Gold.Protein.RotatedAtoms>
  150.7161  134.5130  159.5616 H   0  0  0  0  0  0  0  0  0  0  0  0  # atno 6907 bound_to 6896
  152.2702  134.7938  160.0424 H   0  0  0  0  0  0  0  0  0  0  0  0  # atno 6908 bound_to 6896
  151.8620  133.3424  159.3744 H   0  0  0  0  0  0  0  0  0  0  0  0  # atno 6909 bound_to 6896
  144.7127  140.1164  143.6408 H   0  0  0  0  0  0  0  0  0  0  0  0  # atno 7974 bound_to 7965
  154.4007  140.1509  156.3131 H   0  0  0  0  0  0  0  0  0  0  0  0  # atno 8008 bound_to 7997
  155.8597  140.3454  155.5726 H   0  0  0  0  0  0  0  0  0  0  0  0  # atno 8009 bound_to 7997
  155.7893  140.0854  157.2008 H   0  0  0  0  0  0  0  0  0  0  0  0  # atno 8010 bound_to 7997
  140.2725  143.3334  152.0520 H   0  0  0  0  0  0  0  0  0  0  0  0  # atno 10167 bound_to 10162
  156.3630  130.4327  149.7608 H   0  0  0  0  0  0  0  0  0  0  0  0  # atno 10718 bound_to 10713
  154.8695  135.3690  154.4967 H   0  0  0  0  0  0  0  0  0  0  0  0  # atno 10763 bound_to 10752
  153.5611  135.7023  153.5552 H   0  0  0  0  0  0  0  0  0  0  0  0  # atno 10764 bound_to 10752
  153.3627  135.4042  155.1694 H   0  0  0  0  0  0  0  0  0  0  0  0  # atno 10765 bound_to 10752
  140.5831  133.9994  155.8056 H   0  0  0  0  0  0  0  0  0  0  0  0  # atno 11005 bound_to 11000
  145.9409  139.2668  143.1269 LP  0  0  0  0  0  0  0  0  0  0  0  0  # atno 17320 bound_to 7965
  145.9424  140.8969  143.0301 LP  0  0  0  0  0  0  0  0  0  0  0  0  # atno 17321 bound_to 7965
  139.4985  144.6646  151.6385 LP  0  0  0  0  0  0  0  0  0  0  0  0  # atno 17342 bound_to 10162
  140.5878  143.9834  150.6306 LP  0  0  0  0  0  0  0  0  0  0  0  0  # atno 17343 bound_to 10162
  156.4765  130.8021  151.3037 LP  0  0  0  0  0  0  0  0  0  0  0  0  # atno 17370 bound_to 10713
  157.7475  131.0019  150.2982 LP  0  0  0  0  0  0  0  0  0  0  0  0  # atno 17371 bound_to 10713
  141.0984  133.9808  157.3122 LP  0  0  0  0  0  0  0  0  0  0  0  0  # atno 17394 bound_to 11000
  139.9308  135.0200  156.8394 LP  0  0  0  0  0  0  0  0  0  0  0  0  # atno 17395 bound_to 11000

$$$$
