#       Name:                AV-unprocessed.smi:1794
#       Creating user name   scv26
#       Creation time:       Fri Mar 27 08:48:18 2020


#       File generated by GOLD software.
#

@<TRIPOS>MOLECULE
AV-unprocessed.smi:1794
    61    63     1
SMALL
NO_CHARGES


@<TRIPOS>ATOM
      1 ****        -2.3590  -1.3031  -0.2938 C.3            1 S1                 0.0000
      2 ****        -2.0896  -0.5593  -1.6349 C.3            1 S1                 0.0000
      3 ****        -2.6925   0.8734  -1.4792 C.3            1 S1                 0.0000
      4 ****        -0.5515  -0.4347  -1.9353 C.3            1 S1                 0.0000
      5 ****         0.1703   0.2454  -0.8572 N.pl3          1 S1                -1.0000
      6 ****         1.5219   0.2546  -0.7191 C.2            1 S1                 0.0000
      7 ****         2.3610  -0.2943  -1.4423 O.2            1 S1                 0.0000
      8 ****         1.9097   0.9459   0.3659 N.am           1 S1                 0.0000
      9 ****         3.2235   1.1425   0.8748 C.ar           1 S1                 0.0000
     10 ****         4.3224   1.3443   0.0018 C.ar           1 S1                 0.0000
     11 ****         5.6154   1.5206   0.5291 C.ar           1 S1                 0.0000
     12 ****         5.7891   1.4990   1.9234 C.ar           1 S1                 0.0000
     13 ****         4.7199   1.3280   2.7282 N.pl3          1 S1                 1.0000
     14 ****         3.4483   1.1678   2.2821 C.ar           1 S1                 0.0000
     15 ****         2.4278   1.0113   3.2486 N.3            1 S1                 0.0000
     16 ****         2.7609   0.8631   4.6603 C.3            1 S1                 0.0000
     17 ****         1.4393   1.0505   5.4003 C.3            1 S1                 0.0000
     18 ****         0.7276   2.0932   4.5432 C.3            1 S1                 0.0000
     19 ****         1.1846   1.7649   3.1179 C.3            1 S1                 0.0000
     20 ****        -2.7171  -1.3071  -2.7973 N.4            1 S1                 1.0000
     21 ****        -2.6476  -2.8011  -2.7375 C.3            1 S1                 0.0000
     22 ****        -3.0873  -3.4202  -4.0720 C.3            1 S1                 0.0000
     23 ****        -4.4208  -3.0211  -4.3510 O.3            1 S1                 0.0000
     24 ****        -4.5232  -1.6125  -4.4964 C.3            1 S1                 0.0000
     25 ****        -4.0980  -0.9062  -3.1961 C.3            1 S1                 0.0000
     26 ****        -2.0224  -0.7265   0.5700 H              1 S1                 0.0000
     27 ****        -1.8702  -2.2770  -0.2282 H              1 S1                 0.0000
     28 ****        -3.4275  -1.4679  -0.1513 H              1 S1                 0.0000
     29 ****        -2.2391   1.4373  -0.6612 H              1 S1                 0.0000
     30 ****        -3.7540   0.8364  -1.2329 H              1 S1                 0.0000
     31 ****        -2.5855   1.4801  -2.3809 H              1 S1                 0.0000
     32 ****        -0.1449  -1.4319  -2.1063 H              1 S1                 0.0000
     33 ****        -0.4238   0.0894  -2.8834 H              1 S1                 0.0000
     34 ****         1.1593   1.2709   0.9574 H              1 S1                 0.0000
     35 ****         4.1885   1.3709  -1.0694 H              1 S1                 0.0000
     36 ****         6.4600   1.6686  -0.1280 H              1 S1                 0.0000
     37 ****         6.7419   1.6218   2.4175 H              1 S1                 0.0000
     38 ****         3.2049  -0.1117   4.8652 H              1 S1                 0.0000
     39 ****         3.4668   1.6362   4.9670 H              1 S1                 0.0000
     40 ****         0.8736   0.1175   5.3968 H              1 S1                 0.0000
     41 ****         1.5719   1.3641   6.4363 H              1 S1                 0.0000
     42 ****        -0.3567   2.0701   4.6559 H              1 S1                 0.0000
     43 ****         1.0729   3.0907   4.8185 H              1 S1                 0.0000
     44 ****         1.3129   2.6714   2.5246 H              1 S1                 0.0000
     45 ****         0.4431   1.1353   2.6244 H              1 S1                 0.0000
     46 ****        -1.6398  -3.1478  -2.5106 H              1 S1                 0.0000
     47 ****        -3.2974  -3.1764  -1.9459 H              1 S1                 0.0000
     48 ****        -2.4196  -3.1235  -4.8825 H              1 S1                 0.0000
     49 ****        -3.0520  -4.5080  -4.0106 H              1 S1                 0.0000
     50 ****        -3.9109  -1.2785  -5.3356 H              1 S1                 0.0000
     51 ****        -5.5554  -1.3591  -4.7389 H              1 S1                 0.0000
     52 ****        -4.7957  -1.1418  -2.3911 H              1 S1                 0.0000
     53 ****        -4.1682   0.1627  -3.3900 H              1 S1                 0.0000
     54 ****        -2.1437  -1.0429  -3.5859 H              1 S1                 0.0000
     55 ****         4.8765   1.3274   3.7360 H              1 S1                 0.0000
     56 ****        -0.3699   0.7376  -0.1747 LP             1 S1                 0.0000
     57 ****         2.0660  -0.8219  -2.2390 LP             1 S1                 0.0000
     58 ****         3.3348  -0.2108  -1.2306 LP             1 S1                 0.0000
     59 ****         2.2550   0.0880   2.9054 LP             1 S1                 0.0000
     60 ****        -5.0116  -3.3139  -3.5992 LP             1 S1                 0.0000
     61 ****        -4.7199  -3.4579  -5.1994 LP             1 S1                 0.0000
@<TRIPOS>BOND
    1    1    2 1     
    2    1   26 1     
    3    1   27 1     
    4    1   28 1     
    5    2    3 1     
    6    2    4 1     
    7    2   20 1     
    8    3   29 1     
    9    3   30 1     
   10    3   31 1     
   11    4    5 1     
   12    4   32 1     
   13    4   33 1     
   14    5    6 1     
   15    6    7 2     
   16    6    8 am    
   17    8    9 1     
   18    8   34 1     
   19    9   14 ar    
   20    9   10 ar    
   21   10   11 ar    
   22   10   35 1     
   23   11   12 ar    
   24   11   36 1     
   25   12   13 ar    
   26   12   37 1     
   27   13   14 ar    
   28   13   55 1     
   29   14   15 1     
   30   15   19 1     
   31   15   16 1     
   32   16   17 1     
   33   16   38 1     
   34   16   39 1     
   35   17   18 1     
   36   17   40 1     
   37   17   41 1     
   38   18   19 1     
   39   18   42 1     
   40   18   43 1     
   41   19   44 1     
   42   19   45 1     
   43   20   25 1     
   44   20   21 1     
   45   20   54 1     
   46   21   22 1     
   47   21   46 1     
   48   21   47 1     
   49   22   23 1     
   50   22   48 1     
   51   22   49 1     
   52   23   24 1     
   53   24   25 1     
   54   24   50 1     
   55   24   51 1     
   56   25   52 1     
   57   25   53 1     
   58    5   56 1     
   59    7   57 1     
   60    7   58 1     
   61   15   59 1     
   62   23   60 1     
   63   23   61 1     
@<TRIPOS>SUBSTRUCTURE
      1 S1             1
@<TRIPOS>SET
LONE_PAIRS      STATIC     ATOMS    <user>   **** ""
6 56 57 58 59 60 61
DONOR_HYDROGENS      STATIC     ATOMS    <user>   **** ""
3 34 55 54
ATOM$BLUE        STATIC     ATOMS    COLORGROUP SYSTEM
6 56 57 58 59 60 61
ATOM$RED        STATIC     ATOMS    COLORGROUP SYSTEM
3 34 55 54
