AV-unprocessed.smi:229|AV-procd|sdf|1751|dock2
  -GOLD-   2262020273D 1   1.00000     0.00000
 Structure written by MMmdl.
 58 62  0  0  0  0  0  0  0  0  1 V2000
  146.3094  134.2983  152.9254 C   0  0  0  0  0  0  0  0  0  0  0  0
  146.1645  134.2438  154.4522 C   0  0  0  0  0  0  0  0  0  0  0  0
  147.4382  134.6528  155.2108 C   0  0  2  0  0  0  0  0  0  0  0  0
  148.0265  135.9893  154.7207 C   0  0  0  0  0  0  0  0  0  0  0  0
  149.2936  136.2521  155.3907 N   0  0  0  0  0  0  0  0  0  0  0  0
  149.7415  137.5298  155.2963 C   0  0  0  0  0  0  0  0  0  0  0  0
  149.4940  138.2556  154.1728 N   0  0  0  0  0  0  0  0  0  0  0  0
  149.9239  139.5168  154.0743 C   0  0  0  0  0  0  0  0  0  0  0  0
  150.6112  140.2360  154.9633 N   0  0  0  0  0  0  0  0  0  0  0  0
  150.8717  139.5110  156.0886 C   0  0  0  0  0  0  0  0  0  0  0  0
  150.4780  138.1653  156.3359 C   0  0  0  0  0  0  0  0  0  0  0  0
  150.9354  137.7621  157.5857 N   0  0  0  0  0  0  0  0  0  0  0  0
  151.5522  138.8125  158.0546 C   0  0  0  0  0  0  0  0  0  0  0  0
  151.5606  139.9073  157.2210 N   0  0  0  0  0  0  0  0  0  0  0  0
  152.1683  141.1984  157.4907 C   0  0  0  0  0  0  0  0  0  0  0  0
  151.6633  141.8184  158.8112 C   0  0  2  0  0  0  0  0  0  0  0  0
  150.2545  141.9398  158.8015 O   0  0  0  0  0  0  0  0  0  0  0  0
  152.2743  143.1951  159.1444 C   0  0  1  0  0  0  0  0  0  0  0  0
  151.9594  144.2880  158.1225 C   0  0  0  0  0  0  0  0  0  0  0  0
  152.1874  145.5387  158.9401 C   0  0  0  0  0  0  0  0  0  0  0  0
  151.6418  145.1281  160.3053 C   0  0  0  0  0  0  0  0  0  0  0  0
  151.7784  143.7106  160.3780 O   0  0  0  0  0  0  0  0  0  0  0  0
  150.2585  135.1702  155.2223 C   0  0  0  0  0  0  0  0  0  0  0  0
  149.6537  133.8220  155.6753 C   0  0  1  0  0  0  0  0  0  0  0  0
  150.5714  132.6610  155.3081 C   0  0  0  0  0  0  0  0  0  0  0  0
  151.3930  132.4562  156.5717 C   0  0  0  0  0  0  0  0  0  0  0  0
  150.4266  132.6258  157.5919 O   0  0  0  0  0  0  0  0  0  0  0  0
  149.5555  133.6862  157.2131 C   0  0  0  0  0  0  0  0  0  0  0  0
  148.4016  133.6156  155.0146 O   0  0  0  0  0  0  0  0  0  0  0  0
  145.3619  134.0634  152.4402 H   0  0  0  0  0  0  0  0  0  0  0  0
  147.0470  133.5810  152.5662 H   0  0  0  0  0  0  0  0  0  0  0  0
  146.6150  135.2909  152.5934 H   0  0  0  0  0  0  0  0  0  0  0  0
  145.3524  134.9105  154.7441 H   0  0  0  0  0  0  0  0  0  0  0  0
  145.8576  133.2423  154.7559 H   0  0  0  0  0  0  0  0  0  0  0  0
  147.1976  134.7318  156.2715 H   0  0  0  0  0  0  0  0  0  0  0  0
  148.1980  135.9524  153.6440 H   0  0  0  0  0  0  0  0  0  0  0  0
  147.3151  136.7941  154.8987 H   0  0  0  0  0  0  0  0  0  0  0  0
  149.6820  140.0222  153.1511 H   0  0  0  0  0  0  0  0  0  0  0  0
  152.0210  138.8186  159.0280 H   0  0  0  0  0  0  0  0  0  0  0  0
  153.2494  141.0627  157.5186 H   0  0  0  0  0  0  0  0  0  0  0  0
  151.9608  141.8609  156.6496 H   0  0  0  0  0  0  0  0  0  0  0  0
  151.8967  141.1372  159.6307 H   0  0  0  0  0  0  0  0  0  0  0  0
  150.0057  142.4681  158.0580 H   0  0  0  0  0  0  0  0  0  0  0  0
  153.3601  143.1157  159.2238 H   0  0  0  0  0  0  0  0  0  0  0  0
  152.5929  144.2364  157.2366 H   0  0  0  0  0  0  0  0  0  0  0  0
  150.9186  144.2408  157.8011 H   0  0  0  0  0  0  0  0  0  0  0  0
  153.2556  145.7485  159.0104 H   0  0  0  0  0  0  0  0  0  0  0  0
  151.6920  146.4189  158.5292 H   0  0  0  0  0  0  0  0  0  0  0  0
  152.1682  145.6200  161.1233 H   0  0  0  0  0  0  0  0  0  0  0  0
  150.5831  145.3770  160.3855 H   0  0  0  0  0  0  0  0  0  0  0  0
  150.5382  135.1161  154.1689 H   0  0  0  0  0  0  0  0  0  0  0  0
  151.1685  135.3811  155.7859 H   0  0  0  0  0  0  0  0  0  0  0  0
  149.9830  131.7618  155.1186 H   0  0  0  0  0  0  0  0  0  0  0  0
  151.1842  132.8468  154.4254 H   0  0  0  0  0  0  0  0  0  0  0  0
  151.8610  131.4728  156.6186 H   0  0  0  0  0  0  0  0  0  0  0  0
  152.1698  133.2168  156.6654 H   0  0  0  0  0  0  0  0  0  0  0  0
  149.8606  134.6043  157.7169 H   0  0  0  0  0  0  0  0  0  0  0  0
  148.5489  133.4424  157.5521 H   0  0  0  0  0  0  0  0  0  0  0  0
  1  2  1  0  0  0  0
  1 30  1  0  0  0  0
  1 31  1  0  0  0  0
  1 32  1  0  0  0  0
  2  3  1  0  0  0  0
  2 33  1  0  0  0  0
  2 34  1  0  0  0  0
  3 29  1  0  0  0  0
  3  4  1  0  0  0  0
  3 35  1  0  0  0  0
  4  5  1  0  0  0  0
  4 36  1  0  0  0  0
  4 37  1  0  0  0  0
  5  6  1  0  0  0  0
  5 23  1  0  0  0  0
  6 11  1  0  0  0  0
  6  7  2  0  0  0  0
  7  8  1  0  0  0  0
  8  9  2  0  0  0  0
  8 38  1  0  0  0  0
  9 10  1  0  0  0  0
 10 14  1  0  0  0  0
 10 11  2  0  0  0  0
 11 12  1  0  0  0  0
 12 13  2  0  0  0  0
 13 14  1  0  0  0  0
 13 39  1  0  0  0  0
 14 15  1  0  0  0  0
 15 16  1  0  0  0  0
 15 40  1  0  0  0  0
 15 41  1  0  0  0  0
 16 17  1  0  0  0  0
 16 18  1  0  0  0  0
 16 42  1  0  0  0  0
 17 43  1  0  0  0  0
 18 22  1  0  0  0  0
 18 19  1  0  0  0  0
 18 44  1  0  0  0  0
 19 20  1  0  0  0  0
 19 45  1  0  0  0  0
 19 46  1  0  0  0  0
 20 21  1  0  0  0  0
 20 47  1  0  0  0  0
 20 48  1  0  0  0  0
 21 22  1  0  0  0  0
 21 49  1  0  0  0  0
 21 50  1  0  0  0  0
 23 24  1  0  0  0  0
 23 51  1  0  0  0  0
 23 52  1  0  0  0  0
 24 28  1  0  0  0  0
 24 25  1  0  0  0  0
 24 29  1  0  0  0  0
 25 26  1  0  0  0  0
 25 53  1  0  0  0  0
 25 54  1  0  0  0  0
 26 27  1  0  0  0  0
 26 55  1  0  0  0  0
 26 56  1  0  0  0  0
 27 28  1  0  0  0  0
 28 57  1  0  0  0  0
 28 58  1  0  0  0  0
M  END
> <s_m_source_file>
AV-unprocessed.smi

> <i_m_source_file_index>
229

> <i_lp_mmshare_version>
43012

> <i_f3d_flags>
0

> <s_epik_input>
W0NIMl0xT1tDSDJdW0NIMl1bQ0BdMTJbQ0gyXU4oW0NIMl1bQ0BIXShPMilbQ0gyXVtDSDNdKWMobltjSF1uMyljKGMzNCluW2NIXW40W0NIMl1bQ0BIXShbT0hdKVtDQEBIXTVbQ0gyXVtDSDJdW0NIMl1PNQ==

> <s_epik_cmdline>
J2VwaWtfcHl0aG9uJywgJy1waCcsICc3LjAnLCAnLXRuJywgJzgnLCAnLW1hJywgJzIwMCcsICctbWV0YWxfYmluZGluZycsICctaW1hZScsICc8aW5maWxlLm1hZT4nLCAnLW9tYWUnLCAnPG91dGZpbGUubWFlPic=

> <r_lp_tautomer_probability>
1

> <r_epik_Ionization_Penalty>
0.00318402

> <r_epik_Ionization_Penalty_Charging>
0

> <r_epik_Ionization_Penalty_Neutral>
0.00318402

> <r_epik_State_Penalty>
0.00215642

> <r_epik_Charging_Adjusted_Penalty>
0.00215642

> <i_epik_Tot_Q>
0

> <i_epik_Tot_abs_Q>
0

> <r_epik_Metal_State_Penalty>
-0

> <b_epik_Metal_Only>
0

> <s_lp_Force_Field>
OPLS_2005

> <r_lp_Energy>
54.9877

> <b_lp_Chiralities_Consistent>
1

> <s_lp_Variant>
AV-unprocessed.smi:229-5

> <Gold.Version>
5.8.1

> <Gold.Id.Protein>
6NUR|6NUR_protein|mol2

> <Gold.PLP.Fitness>
44.5727

> <Gold.PLP.PLP>
-38.3002

> <Gold.PLP.part.hbond>
-2.9012

> <Gold.PLP.part.metal>
0.0000

> <Gold.PLP.part.buried>
-4.3493

> <Gold.PLP.part.nonpolar>
-31.3173

> <Gold.PLP.part.repulsive>
0.5072

> <Gold.PLP.ligand.clash>
0.0000

> <Gold.PLP.ligand.torsion>
0.6546

> <Gold.PLP.Chemscore.Hbond>
1.4000

> <Gold.PLP.Chemscore.CHOScore>
1.0000

> <Gold.PLP.Chemscore.Metal>
0.0000

> <Gold.Chemscore.Hbonds>
donor molecule, donor type, donor heavy atom, donor atom, acceptor molecule, acceptor atom, score
      P1  H  6896  6908       L1    27  0.85
      P1  H  7989  7998       L1     9  0.35
      L1  C     8    38       P1  7957  0.90

> <Gold.PLP.Chemscore.Internal.Correction>
0.3817

> <Gold.Rescore>
     Score         DG    S(hbond)    S(metal)    S(lipo)     H(rot)  DE(clash)    DE(int)     intcor
     10.77     -11.57       0.23        0.00      99.44       2.46       0.14       0.67       ----

> <Gold.Chemscore.Fitness>
10.7664

> <Gold.Chemscore.DG>
-11.5702

> <Gold.Chemscore.ZeroCoef>
-5.4800

> <Gold.Chemscore.Hbond>
0.2250

> <Gold.Chemscore.Metal>
0.0000

> <Gold.Chemscore.Lipo>
99.4362

> <Gold.Chemscore.Internal_Hbond>
0.0000

> <Gold.Chemscore.DEClash>
0.1377

> <Gold.Chemscore.DEInternal>
0.6660

> <Gold.Chemscore.Rot>
2.4591

> <Gold.Chemscore.Internal.Correction>
   9.000000E+99

> <Gold.Chemscore.Hbonds>
donor molecule, donor type, donor heavy atom, donor atom, acceptor molecule, acceptor atom, score
      P1  H  6896  6908       L1    27  0.13
      P1  H  7989  7998       L1     9  0.01

> <Gold.Chemscore.Hbond.Weighted>
-0.7515

> <Gold.Chemscore.Metal.Weighted>
-0.0000

> <Gold.Chemscore.Lipo.Weighted>
-11.6340

> <Gold.Chemscore.Internal_Hbond.Weighted>
0.0000

> <Gold.Chemscore.DEClash.Weighted>
0.1377

> <Gold.Chemscore.DEInternal.Weighted>
0.6660

> <Gold.Chemscore.Rot.Weighted>
6.2953

> <Gold.Chemscore.Internal.Correction.Weighted>
   9.000000E+99

> <Gold.Protein.RotatedTorsions>
[ 6907 6896 6895 6894 ] final   93.10 input  -60.11 | X-H torsion
[ 7974 7965 7964 7962 ] final  -72.53 input  175.53 | X-H torsion
[ 8008 7997 7996 7995 ] final  -90.07 input   59.86 | X-H torsion
[ 10167 10162 10161 10158 ] final  -52.78 input  -65.29 | X-H torsion
[ 10718 10713 10712 10709 ] final  147.90 input   66.30 | X-H torsion
[ 10763 10752 10751 10750 ] final  110.30 input  -60.55 | X-H torsion
[ 11005 11000 10999 10996 ] final  148.61 input  -57.11 | X-H torsion

> <Gold.Protein.ActiveResidues>
 VAL166  LYS551  ARG553  GLY616  TRP617  ASP618  TYR619  PRO620  LYS621  CYS622 
 ASP623  PHE694  ASN695  SER759  ASP760  ASP761  ALA762  ILE779  LEU786  VAL792 
 PHE793  MET794  SER795  GLU796  ALA797  LYS798  CYS799  TRP800  GLU811  SER814 

> <Gold.Protein.RotatedAtoms>
  152.5453  134.1400  159.8474 H   0  0  0  0  0  0  0  0  0  0  0  0  # atno 6907 bound_to 6896
  151.1437  133.4947  159.2604 H   0  0  0  0  0  0  0  0  0  0  0  0  # atno 6908 bound_to 6896
  151.1546  135.0254  159.8738 H   0  0  0  0  0  0  0  0  0  0  0  0  # atno 6909 bound_to 6896
  145.6640  140.9243  143.0919 H   0  0  0  0  0  0  0  0  0  0  0  0  # atno 7974 bound_to 7965
  154.6941  140.0534  157.0393 H   0  0  0  0  0  0  0  0  0  0  0  0  # atno 8008 bound_to 7997
  155.0776  140.3206  155.4592 H   0  0  0  0  0  0  0  0  0  0  0  0  # atno 8009 bound_to 7997
  156.2738  140.2070  156.5904 H   0  0  0  0  0  0  0  0  0  0  0  0  # atno 8010 bound_to 7997
  140.6519  143.2572  151.4698 H   0  0  0  0  0  0  0  0  0  0  0  0  # atno 10167 bound_to 10162
  157.3153  131.0895  151.1284 H   0  0  0  0  0  0  0  0  0  0  0  0  # atno 10718 bound_to 10713
  153.4469  135.3753  155.2261 H   0  0  0  0  0  0  0  0  0  0  0  0  # atno 10763 bound_to 10752
  154.8755  135.3876  154.4085 H   0  0  0  0  0  0  0  0  0  0  0  0  # atno 10764 bound_to 10752
  153.4638  135.7087  153.6098 H   0  0  0  0  0  0  0  0  0  0  0  0  # atno 10765 bound_to 10752
  140.0974  134.9004  157.1745 H   0  0  0  0  0  0  0  0  0  0  0  0  # atno 11005 bound_to 11000
  144.7079  139.8485  143.7424 LP  0  0  0  0  0  0  0  0  0  0  0  0  # atno 17320 bound_to 7965
  146.1102  139.4105  143.0293 LP  0  0  0  0  0  0  0  0  0  0  0  0  # atno 17321 bound_to 7965
  139.5736  144.1872  152.1871 LP  0  0  0  0  0  0  0  0  0  0  0  0  # atno 17342 bound_to 10162
  140.1175  144.5402  150.6884 LP  0  0  0  0  0  0  0  0  0  0  0  0  # atno 17343 bound_to 10162
  157.2590  130.6650  149.5966 LP  0  0  0  0  0  0  0  0  0  0  0  0  # atno 17370 bound_to 10713
  155.9681  130.4514  150.5736 LP  0  0  0  0  0  0  0  0  0  0  0  0  # atno 17371 bound_to 10713
  140.3267  134.2856  155.7236 LP  0  0  0  0  0  0  0  0  0  0  0  0  # atno 17394 bound_to 11000
  141.2096  133.7744  156.9986 LP  0  0  0  0  0  0  0  0  0  0  0  0  # atno 17395 bound_to 11000

$$$$
