AV-unprocessed.smi:938|AV-procd|sdf|4217|dock1
  -GOLD-   22720 2123D 1   1.00000     0.00000
 Structure written by MMmdl.
 42 43  0  0  0  0  0  0  0  0  1 V2000
  152.8224  143.0741  160.4520 C   0  0  0  0  0  0  0  0  0  0  0  0
  152.8572  142.4284  159.0607 C   0  0  0  0  0  0  0  0  0  0  0  0
  152.3391  143.3805  157.9740 C   0  0  0  0  0  0  0  0  0  0  0  0
  152.0535  141.2093  159.0698 N   0  0  0  0  0  0  0  0  0  0  0  0
  152.5136  139.9532  158.9327 C   0  0  0  0  0  0  0  0  0  0  0  0
  153.7033  139.6803  158.7679 O   0  0  0  0  0  0  0  0  0  0  0  0
  151.4700  138.8675  158.9558 C   0  0  0  0  0  0  0  0  0  0  0  0
  150.2093  139.0837  158.3570 C   0  0  0  0  0  0  0  0  0  0  0  0
  149.2738  138.0362  158.3984 C   0  0  0  0  0  0  0  0  0  0  0  0
  149.6596  136.8411  159.0341 C   0  0  0  0  0  0  0  0  0  0  0  0
  148.7521  135.7751  159.0996 N   0  0  0  0  0  0  0  0  0  0  0  0
  147.8160  135.7414  157.9853 C   0  0  0  0  0  0  0  0  0  0  0  0
  146.9771  134.4566  158.0485 C   0  0  0  0  0  0  0  0  0  0  0  0
  146.3341  134.3545  159.3188 O   0  0  0  0  0  0  0  0  0  0  0  0
  147.2085  134.3872  160.4535 C   0  0  0  0  0  0  0  0  0  0  0  0
  146.2875  134.4496  161.6818 C   0  0  0  0  0  0  0  0  0  0  0  0
  148.0661  133.1055  160.5270 C   0  0  0  0  0  0  0  0  0  0  0  0
  148.0789  135.6646  160.3879 C   0  0  0  0  0  0  0  0  0  0  0  0
  150.8871  136.6874  159.5892 N   0  0  0  0  0  0  0  0  0  0  0  0
  151.7770  137.6845  159.5475 N   0  0  0  0  0  0  0  0  0  0  0  0
  153.4338  143.9764  160.4808 H   0  0  0  0  0  0  0  0  0  0  0  0
  153.2081  142.3916  161.2101 H   0  0  0  0  0  0  0  0  0  0  0  0
  151.8067  143.3502  160.7373 H   0  0  0  0  0  0  0  0  0  0  0  0
  153.8978  142.1935  158.8314 H   0  0  0  0  0  0  0  0  0  0  0  0
  152.9359  144.2922  157.9347 H   0  0  0  0  0  0  0  0  0  0  0  0
  151.3033  143.6684  158.1580 H   0  0  0  0  0  0  0  0  0  0  0  0
  152.3856  142.9146  156.9890 H   0  0  0  0  0  0  0  0  0  0  0  0
  151.0575  141.3253  159.1912 H   0  0  0  0  0  0  0  0  0  0  0  0
  149.9586  140.0203  157.8807 H   0  0  0  0  0  0  0  0  0  0  0  0
  148.2937  138.1479  157.9580 H   0  0  0  0  0  0  0  0  0  0  0  0
  147.1612  136.6130  158.0267 H   0  0  0  0  0  0  0  0  0  0  0  0
  148.3593  135.7894  157.0408 H   0  0  0  0  0  0  0  0  0  0  0  0
  146.2133  134.4735  157.2712 H   0  0  0  0  0  0  0  0  0  0  0  0
  147.5930  133.5780  157.8559 H   0  0  0  0  0  0  0  0  0  0  0  0
  146.8626  134.4910  162.6074 H   0  0  0  0  0  0  0  0  0  0  0  0
  145.6383  133.5748  161.7336 H   0  0  0  0  0  0  0  0  0  0  0  0
  145.6462  135.3312  161.6515 H   0  0  0  0  0  0  0  0  0  0  0  0
  148.6462  133.0773  161.4498 H   0  0  0  0  0  0  0  0  0  0  0  0
  148.7770  133.0320  159.7046 H   0  0  0  0  0  0  0  0  0  0  0  0
  147.4411  132.2123  160.5036 H   0  0  0  0  0  0  0  0  0  0  0  0
  148.8145  135.6633  161.1937 H   0  0  0  0  0  0  0  0  0  0  0  0
  147.4518  136.5459  160.5342 H   0  0  0  0  0  0  0  0  0  0  0  0
  1  2  1  0  0  0  0
  1 21  1  0  0  0  0
  1 22  1  0  0  0  0
  1 23  1  0  0  0  0
  2  3  1  0  0  0  0
  2  4  1  0  0  0  0
  2 24  1  0  0  0  0
  3 25  1  0  0  0  0
  3 26  1  0  0  0  0
  3 27  1  0  0  0  0
  4  5  1  0  0  0  0
  4 28  1  0  0  0  0
  5  6  2  0  0  0  0
  5  7  1  0  0  0  0
  7 20  1  0  0  0  0
  7  8  2  0  0  0  0
  8  9  1  0  0  0  0
  8 29  1  0  0  0  0
  9 10  2  0  0  0  0
  9 30  1  0  0  0  0
 10 11  1  0  0  0  0
 10 19  1  0  0  0  0
 11 18  1  0  0  0  0
 11 12  1  0  0  0  0
 12 13  1  0  0  0  0
 12 31  1  0  0  0  0
 12 32  1  0  0  0  0
 13 14  1  0  0  0  0
 13 33  1  0  0  0  0
 13 34  1  0  0  0  0
 14 15  1  0  0  0  0
 15 16  1  0  0  0  0
 15 17  1  0  0  0  0
 15 18  1  0  0  0  0
 16 35  1  0  0  0  0
 16 36  1  0  0  0  0
 16 37  1  0  0  0  0
 17 38  1  0  0  0  0
 17 39  1  0  0  0  0
 17 40  1  0  0  0  0
 18 41  1  0  0  0  0
 18 42  1  0  0  0  0
 19 20  2  0  0  0  0
M  END
> <s_m_source_file>
AV-unprocessed.smi

> <i_m_source_file_index>
938

> <i_lp_mmshare_version>
43012

> <i_f3d_flags>
0

> <s_epik_input>
W0NIM11bQ0hdKFtDSDNdKVtOSF1DKD1PKWMxW2NIXVtjSF1jKG5uMSlOKFtDSDJdMilbQ0gyXVtDSDJdT0MyKFtDSDNdKVtDSDNd

> <s_epik_cmdline>
J2VwaWtfcHl0aG9uJywgJy1waCcsICc3LjAnLCAnLXRuJywgJzgnLCAnLW1hJywgJzIwMCcsICctbWV0YWxfYmluZGluZycsICctaW1hZScsICc8aW5maWxlLm1hZT4nLCAnLW9tYWUnLCAnPG91dGZpbGUubWFlPic=

> <r_lp_tautomer_probability>
1

> <r_epik_Ionization_Penalty>
1.44833e-06

> <r_epik_Ionization_Penalty_Charging>
0

> <r_epik_Ionization_Penalty_Neutral>
1.44833e-06

> <r_epik_State_Penalty>
-0

> <r_epik_Charging_Adjusted_Penalty>
0

> <i_epik_Tot_Q>
0

> <i_epik_Tot_abs_Q>
0

> <r_epik_Metal_State_Penalty>
-0

> <b_epik_Metal_Only>
0

> <s_lp_Force_Field>
OPLS_2005

> <r_lp_Energy>
32.4644

> <b_lp_Chiralities_Consistent>
1

> <s_lp_Variant>
AV-unprocessed.smi:938-1

> <Gold.Version>
5.8.1

> <Gold.Id.Protein>
6NUR|6NUR_protein|mol2

> <Gold.PLP.Fitness>
31.7323

> <Gold.PLP.PLP>
-28.1030

> <Gold.PLP.part.hbond>
-2.0000

> <Gold.PLP.part.metal>
0.0000

> <Gold.PLP.part.buried>
-4.7836

> <Gold.PLP.part.nonpolar>
-21.9938

> <Gold.PLP.part.repulsive>
0.1336

> <Gold.PLP.ligand.clash>
0.0053

> <Gold.PLP.ligand.torsion>
1.2345

> <Gold.PLP.Chemscore.Hbond>
2.0000

> <Gold.PLP.Chemscore.CHOScore>
0.0000

> <Gold.PLP.Chemscore.Metal>
0.0000

> <Gold.Chemscore.Hbonds>
donor molecule, donor type, donor heavy atom, donor atom, acceptor molecule, acceptor atom, score
      P1  H  6896  6907       L1    19  1.00
      P1  H  7997  8010       L1     6  1.00

> <Gold.PLP.Chemscore.Internal.Correction>
0.1036

> <Gold.Rescore>
     Score         DG    S(hbond)    S(metal)    S(lipo)     H(rot)  DE(clash)    DE(int)     intcor
     16.52     -17.63       1.92        0.00      74.58       1.17       0.07       1.03       ----

> <Gold.Chemscore.Fitness>
16.5220

> <Gold.Chemscore.DG>
-17.6269

> <Gold.Chemscore.ZeroCoef>
-5.4800

> <Gold.Chemscore.Hbond>
1.9249

> <Gold.Chemscore.Metal>
0.0000

> <Gold.Chemscore.Lipo>
74.5754

> <Gold.Chemscore.Internal_Hbond>
0.0000

> <Gold.Chemscore.DEClash>
0.0736

> <Gold.Chemscore.DEInternal>
1.0313

> <Gold.Chemscore.Rot>
1.1749

> <Gold.Chemscore.Internal.Correction>
   9.000000E+99

> <Gold.Chemscore.Hbonds>
donor molecule, donor type, donor heavy atom, donor atom, acceptor molecule, acceptor atom, score
      P1  H  6896  6907       L1    19  0.55
      P1  H  7997  8010       L1     6  0.99

> <Gold.Chemscore.Hbond.Weighted>
-6.4292

> <Gold.Chemscore.Metal.Weighted>
-0.0000

> <Gold.Chemscore.Lipo.Weighted>
-8.7253

> <Gold.Chemscore.Internal_Hbond.Weighted>
0.0000

> <Gold.Chemscore.DEClash.Weighted>
0.0736

> <Gold.Chemscore.DEInternal.Weighted>
1.0313

> <Gold.Chemscore.Rot.Weighted>
3.0076

> <Gold.Chemscore.Internal.Correction.Weighted>
   9.000000E+99

> <Gold.Protein.RotatedTorsions>
[ 6907 6896 6895 6894 ] final  -31.65 input  -60.11 | X-H torsion
[ 7974 7965 7964 7962 ] final  -57.31 input  175.53 | X-H torsion
[ 8008 7997 7996 7995 ] final   17.88 input   59.86 | X-H torsion
[ 10167 10162 10161 10158 ] final   31.49 input  -65.29 | X-H torsion
[ 10718 10713 10712 10709 ] final  158.40 input   66.30 | X-H torsion
[ 10763 10752 10751 10750 ] final -123.37 input  -60.55 | X-H torsion
[ 11005 11000 10999 10996 ] final   95.75 input  -57.11 | X-H torsion

> <Gold.Protein.ActiveResidues>
 VAL166  LYS551  ARG553  GLY616  TRP617  ASP618  TYR619  PRO620  LYS621  CYS622 
 ASP623  PHE694  ASN695  SER759  ASP760  ASP761  ALA762  ILE779  LEU786  VAL792 
 PHE793  MET794  SER795  GLU796  ALA797  LYS798  CYS799  TRP800  GLU811  SER814 

> <Gold.Protein.RotatedAtoms>
  151.0892  134.9906  159.8393 H   0  0  0  0  0  0  0  0  0  0  0  0  # atno 6907 bound_to 6896
  152.5427  134.2086  159.8751 H   0  0  0  0  0  0  0  0  0  0  0  0  # atno 6908 bound_to 6896
  151.2121  133.4506  159.2632 H   0  0  0  0  0  0  0  0  0  0  0  0  # atno 6909 bound_to 6896
  145.8525  140.8342  142.9978 H   0  0  0  0  0  0  0  0  0  0  0  0  # atno 7974 bound_to 7965
  154.8979  140.2996  155.5334 H   0  0  0  0  0  0  0  0  0  0  0  0  # atno 8008 bound_to 7997
  156.3019  140.2412  156.3938 H   0  0  0  0  0  0  0  0  0  0  0  0  # atno 8009 bound_to 7997
  154.8551  140.0407  157.1618 H   0  0  0  0  0  0  0  0  0  0  0  0  # atno 8010 bound_to 7997
  140.4584  144.0943  150.6207 H   0  0  0  0  0  0  0  0  0  0  0  0  # atno 10167 bound_to 10162
  157.1784  131.0626  151.2145 H   0  0  0  0  0  0  0  0  0  0  0  0  # atno 10718 bound_to 10713
  154.8706  135.4101  154.2932 H   0  0  0  0  0  0  0  0  0  0  0  0  # atno 10763 bound_to 10752
  153.3804  135.7011  153.6575 H   0  0  0  0  0  0  0  0  0  0  0  0  # atno 10764 bound_to 10752
  153.5400  135.3650  155.2685 H   0  0  0  0  0  0  0  0  0  0  0  0  # atno 10765 bound_to 10752
  139.8786  134.8915  156.4057 H   0  0  0  0  0  0  0  0  0  0  0  0  # atno 11005 bound_to 11000
  144.6728  140.0975  143.7462 LP  0  0  0  0  0  0  0  0  0  0  0  0  # atno 17320 bound_to 7965
  145.9341  139.2625  143.1308 LP  0  0  0  0  0  0  0  0  0  0  0  0  # atno 17321 bound_to 7965
  140.4123  143.2651  151.9817 LP  0  0  0  0  0  0  0  0  0  0  0  0  # atno 17342 bound_to 10162
  139.4803  144.5904  151.7781 LP  0  0  0  0  0  0  0  0  0  0  0  0  # atno 17343 bound_to 10162
  157.3976  130.7316  149.6743 LP  0  0  0  0  0  0  0  0  0  0  0  0  # atno 17370 bound_to 10713
  155.9728  130.4129  150.4057 LP  0  0  0  0  0  0  0  0  0  0  0  0  # atno 17371 bound_to 10713
  140.9236  133.7628  155.9936 LP  0  0  0  0  0  0  0  0  0  0  0  0  # atno 17394 bound_to 11000
  140.8412  134.3065  157.5313 LP  0  0  0  0  0  0  0  0  0  0  0  0  # atno 17395 bound_to 11000

$$$$
