AV-unprocessed.smi:1867|AV-procd|sdf|7564|dock5
  -GOLD-   22720 9283D 1   1.00000     0.00000
 Structure written by MMmdl.
 52 55  0  0  0  0  0  0  0  0  2 V2000
  147.4419  135.9655  156.0833 O   0  0  0  0  0  0  0  0  0  0  0  0
  147.9160  136.0214  154.9513 C   0  0  0  0  0  0  0  0  0  0  0  0
  148.7858  136.9585  154.5261 N   0  0  0  0  0  0  0  0  0  0  0  0
  149.3713  138.0276  155.2556 C   0  0  0  0  0  0  0  0  0  0  0  0
  149.4230  138.1010  156.6673 C   0  0  0  0  0  0  0  0  0  0  0  0
  150.0494  139.2091  157.2696 C   0  0  0  0  0  0  0  0  0  0  0  0
  150.6186  140.2119  156.4491 C   0  0  0  0  0  0  0  0  0  0  0  0
  151.2485  141.3390  157.0130 N   0  0  0  0  0  0  0  0  0  0  0  0
  151.6822  141.3608  158.4013 C   0  0  0  0  0  0  0  0  0  0  0  0
  152.1749  142.7887  158.6295 C   0  0  0  0  0  0  0  0  0  0  0  0
  151.2733  143.6165  157.7140 C   0  0  0  0  0  0  0  0  0  0  0  0
  150.9877  142.6874  156.5280 C   0  0  0  0  0  0  0  0  0  0  0  0
  150.5737  140.1349  155.0977 N   0  0  0  0  0  0  0  0  0  0  0  0
  149.9733  139.0712  154.5254 C   0  0  0  0  0  0  0  0  0  0  0  0
  147.5712  135.1236  154.0106 N   0  0  0  0  0  0  0  0  0  0  0  0
  146.6566  133.9862  154.1373 C   0  0  2  0  0  0  0  0  0  0  0  0
  147.3394  132.6437  153.9075 C   0  0  0  0  0  0  0  0  0  0  0  0
  146.1666  131.7030  153.6143 C   0  0  0  0  0  0  0  0  0  0  0  0
  145.0797  132.5370  153.0449 N   0  3  2  0  0  0  0  0  0  0  0  0
  144.6001  132.0778  151.7138 C   0  0  0  0  0  0  0  0  0  0  0  0
  143.7795  133.1734  151.0178 C   0  0  0  0  0  0  0  0  0  0  0  0
  144.6261  134.4339  150.7584 C   0  0  0  0  0  0  0  0  0  0  0  0
  145.8261  134.5463  151.7181 C   0  0  0  0  0  0  0  0  0  0  0  0
  145.5010  133.9656  153.1163 C   0  0  2  0  0  0  0  0  0  0  0  0
  149.0197  136.9303  153.5448 H   0  0  0  0  0  0  0  0  0  0  0  0
  149.0092  137.3312  157.2995 H   0  0  0  0  0  0  0  0  0  0  0  0
  150.0813  139.2747  158.3470 H   0  0  0  0  0  0  0  0  0  0  0  0
  150.8349  141.1378  159.0510 H   0  0  0  0  0  0  0  0  0  0  0  0
  152.4670  140.6280  158.5915 H   0  0  0  0  0  0  0  0  0  0  0  0
  152.1202  143.0947  159.6745 H   0  0  0  0  0  0  0  0  0  0  0  0
  153.2121  142.8787  158.3039 H   0  0  0  0  0  0  0  0  0  0  0  0
  150.3408  143.8436  158.2325 H   0  0  0  0  0  0  0  0  0  0  0  0
  151.7268  144.5606  157.4117 H   0  0  0  0  0  0  0  0  0  0  0  0
  151.6629  142.9001  155.6984 H   0  0  0  0  0  0  0  0  0  0  0  0
  149.9623  142.8091  156.1772 H   0  0  0  0  0  0  0  0  0  0  0  0
  149.9708  139.0569  153.4452 H   0  0  0  0  0  0  0  0  0  0  0  0
  147.9856  135.2534  153.0987 H   0  0  0  0  0  0  0  0  0  0  0  0
  146.2399  133.9685  155.1467 H   0  0  0  0  0  0  0  0  0  0  0  0
  147.9964  132.6963  153.0377 H   0  0  0  0  0  0  0  0  0  0  0  0
  147.9367  132.3188  154.7601 H   0  0  0  0  0  0  0  0  0  0  0  0
  146.4649  130.8804  152.9628 H   0  0  0  0  0  0  0  0  0  0  0  0
  145.7991  131.2637  154.5422 H   0  0  0  0  0  0  0  0  0  0  0  0
  145.4471  131.8082  151.0801 H   0  0  0  0  0  0  0  0  0  0  0  0
  144.0037  131.1743  151.8436 H   0  0  0  0  0  0  0  0  0  0  0  0
  143.3648  132.8035  150.0795 H   0  0  0  0  0  0  0  0  0  0  0  0
  142.9261  133.4298  151.6473 H   0  0  0  0  0  0  0  0  0  0  0  0
  144.9936  134.4336  149.7315 H   0  0  0  0  0  0  0  0  0  0  0  0
  143.9892  135.3142  150.8516 H   0  0  0  0  0  0  0  0  0  0  0  0
  146.6781  134.0118  151.2951 H   0  0  0  0  0  0  0  0  0  0  0  0
  146.1280  135.5918  151.7846 H   0  0  0  0  0  0  0  0  0  0  0  0
  144.6655  134.5392  153.5203 H   0  0  0  0  0  0  0  0  0  0  0  0
  144.2972  132.4500  153.6775 H   0  0  0  0  0  0  0  0  0  0  0  0
  1  2  2  0  0  0  0
  2  3  1  0  0  0  0
  2 15  1  0  0  0  0
  3  4  1  0  0  0  0
  3 25  1  0  0  0  0
  4 14  1  0  0  0  0
  4  5  2  0  0  0  0
  5  6  1  0  0  0  0
  5 26  1  0  0  0  0
  6  7  2  0  0  0  0
  6 27  1  0  0  0  0
  7  8  1  0  0  0  0
  7 13  1  0  0  0  0
  8 12  1  0  0  0  0
  8  9  1  0  0  0  0
  9 10  1  0  0  0  0
  9 28  1  0  0  0  0
  9 29  1  0  0  0  0
 10 11  1  0  0  0  0
 10 30  1  0  0  0  0
 10 31  1  0  0  0  0
 11 12  1  0  0  0  0
 11 32  1  0  0  0  0
 11 33  1  0  0  0  0
 12 34  1  0  0  0  0
 12 35  1  0  0  0  0
 13 14  2  0  0  0  0
 14 36  1  0  0  0  0
 15 16  1  0  0  0  0
 15 37  1  0  0  0  0
 16 24  1  0  0  0  0
 16 17  1  0  0  0  0
 16 38  1  0  0  0  0
 17 18  1  0  0  0  0
 17 39  1  0  0  0  0
 17 40  1  0  0  0  0
 18 19  1  0  0  0  0
 18 41  1  0  0  0  0
 18 42  1  0  0  0  0
 19 24  1  0  0  0  0
 19 20  1  0  0  0  0
 19 52  1  0  0  0  0
 20 21  1  0  0  0  0
 20 43  1  0  0  0  0
 20 44  1  0  0  0  0
 21 22  1  0  0  0  0
 21 45  1  0  0  0  0
 21 46  1  0  0  0  0
 22 23  1  0  0  0  0
 22 47  1  0  0  0  0
 22 48  1  0  0  0  0
 23 24  1  0  0  0  0
 23 49  1  0  0  0  0
 23 50  1  0  0  0  0
 24 51  1  0  0  0  0
M  CHG  1  19   1
M  END
> <s_m_source_file>
AV-unprocessed.smi

> <i_m_source_file_index>
1867

> <i_lp_mmshare_version>
43012

> <i_f3d_flags>
0

> <s_epik_input>
W0NIMl0xW0NIMl1bQ0gyXVtDSDJdW0NASF0oTjEyKVtDQEBIXShbQ0gyXVtDSDJdMilbTkhdQyg9TylbTkhdYzNbY0hdW2NIXWMobltjSF0zKU40W0NIMl1bQ0gyXVtDSDJdW0NIMl00

> <s_epik_cmdline>
J2VwaWtfcHl0aG9uJywgJy1waCcsICc3LjAnLCAnLXRuJywgJzgnLCAnLW1hJywgJzIwMCcsICctbWV0YWxfYmluZGluZycsICctaW1hZScsICc8aW5maWxlLm1hZT4nLCAnLW9tYWUnLCAnPG91dGZpbGUubWFlPic=

> <r_lp_tautomer_probability>
1

> <r_epik_Ionization_Penalty>
0.0751123

> <r_epik_Ionization_Penalty_Charging>
0.000974069

> <r_epik_Ionization_Penalty_Neutral>
0.0741382

> <r_epik_State_Penalty>
0.0647261

> <r_epik_Charging_Adjusted_Penalty>
0.0657002

> <i_epik_Tot_Q>
1

> <i_epik_Tot_abs_Q>
1

> <r_epik_Metal_State_Penalty>
0.0580571

> <b_epik_Metal_Only>
0

> <s_lp_Force_Field>
OPLS_2005

> <r_lp_Energy>
76.8202

> <b_lp_Chiralities_Consistent>
1

> <s_lp_Variant>
AV-unprocessed.smi:1867-5

> <Gold.Version>
5.8.1

> <Gold.Id.Protein>
6NUR|6NUR_protein|mol2

> <Gold.PLP.Fitness>
50.2171

> <Gold.PLP.PLP>
-33.8211

> <Gold.PLP.part.hbond>
-3.8862

> <Gold.PLP.part.metal>
0.0000

> <Gold.PLP.part.buried>
-5.4106

> <Gold.PLP.part.nonpolar>
-26.2817

> <Gold.PLP.part.repulsive>
0.0745

> <Gold.PLP.ligand.clash>
0.0000

> <Gold.PLP.ligand.torsion>
0.5278

> <Gold.PLP.Chemscore.Hbond>
4.7550

> <Gold.PLP.Chemscore.CHOScore>
1.0000

> <Gold.PLP.Chemscore.Metal>
0.0000

> <Gold.Chemscore.Hbonds>
donor molecule, donor type, donor heavy atom, donor atom, acceptor molecule, acceptor atom, score
      L1  H     3    25       P1  7948  1.00
      L1  H    15    37       P1  7948  1.00
      L1  H    19    52       P1 10957  1.79
      P1  H  7989  7998       L1    13  0.94
      L1  C    14    36       P1  7957  1.00

> <Gold.PLP.Chemscore.Internal.Correction>
0.1867

> <Gold.Rescore>
     Score         DG    S(hbond)    S(metal)    S(lipo)     H(rot)  DE(clash)    DE(int)     intcor
     22.06     -23.85       3.14        0.00      89.37       1.00       0.36       1.43       ----

> <Gold.Chemscore.Fitness>
22.0606

> <Gold.Chemscore.DG>
-23.8511

> <Gold.Chemscore.ZeroCoef>
-5.4800

> <Gold.Chemscore.Hbond>
3.1362

> <Gold.Chemscore.Metal>
0.0000

> <Gold.Chemscore.Lipo>
89.3694

> <Gold.Chemscore.Internal_Hbond>
0.0000

> <Gold.Chemscore.DEClash>
0.3604

> <Gold.Chemscore.DEInternal>
1.4301

> <Gold.Chemscore.Rot>
1.0000

> <Gold.Chemscore.Internal.Correction>
   9.000000E+99

> <Gold.Chemscore.Hbonds>
donor molecule, donor type, donor heavy atom, donor atom, acceptor molecule, acceptor atom, score
      L1  H     3    25       P1  7948  0.98
      L1  H    15    37       P1  7948  0.97
      L1  H    19    52       P1 10957  0.26
      P1  H  7989  7998       L1    13  0.27

> <Gold.Chemscore.Hbond.Weighted>
-10.4749

> <Gold.Chemscore.Metal.Weighted>
-0.0000

> <Gold.Chemscore.Lipo.Weighted>
-10.4562

> <Gold.Chemscore.Internal_Hbond.Weighted>
0.0000

> <Gold.Chemscore.DEClash.Weighted>
0.3604

> <Gold.Chemscore.DEInternal.Weighted>
1.4301

> <Gold.Chemscore.Rot.Weighted>
2.5600

> <Gold.Chemscore.Internal.Correction.Weighted>
   9.000000E+99

> <Gold.Protein.RotatedTorsions>
[ 6907 6896 6895 6894 ] final -111.90 input  -60.11 | X-H torsion
[ 7974 7965 7964 7962 ] final  -75.19 input  175.53 | X-H torsion
[ 8008 7997 7996 7995 ] final  172.55 input   59.86 | X-H torsion
[ 10167 10162 10161 10158 ] final   26.38 input  -65.29 | X-H torsion
[ 10718 10713 10712 10709 ] final  118.94 input   66.30 | X-H torsion
[ 10763 10752 10751 10750 ] final  -42.57 input  -60.55 | X-H torsion
[ 11005 11000 10999 10996 ] final   -1.70 input  -57.11 | X-H torsion

> <Gold.Protein.ActiveResidues>
 VAL166  LYS551  ARG553  GLY616  TRP617  ASP618  TYR619  PRO620  LYS621  CYS622 
 ASP623  PHE694  ASN695  SER759  ASP760  ASP761  ALA762  ILE779  LEU786  VAL792 
 PHE793  MET794  SER795  GLU796  ALA797  LYS798  CYS799  TRP800  GLU811  SER814 

> <Gold.Protein.RotatedAtoms>
  150.7722  133.9167  159.3385 H   0  0  0  0  0  0  0  0  0  0  0  0  # atno 6907 bound_to 6896
  151.7051  135.0921  160.0267 H   0  0  0  0  0  0  0  0  0  0  0  0  # atno 6908 bound_to 6896
  152.3744  133.6423  159.6147 H   0  0  0  0  0  0  0  0  0  0  0  0  # atno 6909 bound_to 6896
  145.6292  140.9342  143.1096 H   0  0  0  0  0  0  0  0  0  0  0  0  # atno 7974 bound_to 7965
  156.1163  140.1483  156.9268 H   0  0  0  0  0  0  0  0  0  0  0  0  # atno 8008 bound_to 7997
  154.4803  140.0881  156.7403 H   0  0  0  0  0  0  0  0  0  0  0  0  # atno 8009 bound_to 7997
  155.4508  140.3434  155.4303 H   0  0  0  0  0  0  0  0  0  0  0  0  # atno 8010 bound_to 7997
  140.5028  144.0288  150.6339 H   0  0  0  0  0  0  0  0  0  0  0  0  # atno 10167 bound_to 10162
  157.5996  131.1053  150.7826 H   0  0  0  0  0  0  0  0  0  0  0  0  # atno 10718 bound_to 10713
  153.9813  135.6716  153.4750 H   0  0  0  0  0  0  0  0  0  0  0  0  # atno 10763 bound_to 10752
  153.0747  135.4955  154.8376 H   0  0  0  0  0  0  0  0  0  0  0  0  # atno 10764 bound_to 10752
  154.7163  135.3107  154.9080 H   0  0  0  0  0  0  0  0  0  0  0  0  # atno 10765 bound_to 10752
  140.6502  133.9411  155.8376 H   0  0  0  0  0  0  0  0  0  0  0  0  # atno 11005 bound_to 11000
  144.7200  139.8063  143.7385 LP  0  0  0  0  0  0  0  0  0  0  0  0  # atno 17320 bound_to 7965
  146.1370  139.4417  143.0133 LP  0  0  0  0  0  0  0  0  0  0  0  0  # atno 17321 bound_to 7965
  140.3588  143.2920  152.0406 LP  0  0  0  0  0  0  0  0  0  0  0  0  # atno 17342 bound_to 10162
  139.4876  144.6318  151.7054 LP  0  0  0  0  0  0  0  0  0  0  0  0  # atno 17343 bound_to 10162
  156.8229  130.4990  149.5341 LP  0  0  0  0  0  0  0  0  0  0  0  0  # atno 17370 bound_to 10713
  156.1066  130.6009  150.9980 LP  0  0  0  0  0  0  0  0  0  0  0  0  # atno 17371 bound_to 10713
  141.0542  134.0441  157.3744 LP  0  0  0  0  0  0  0  0  0  0  0  0  # atno 17394 bound_to 11000
  139.9048  135.0176  156.7437 LP  0  0  0  0  0  0  0  0  0  0  0  0  # atno 17395 bound_to 11000

$$$$
