AV-unprocessed.smi:486|AV-procd|sdf|2698|dock1
  -GOLD-   2262023133D 1   1.00000     0.00000
 Structure written by MMmdl.
 44 46  0  0  0  0  0  0  0  0  2 V2000
  156.0303  133.5063  163.9854 C   0  0  0  0  0  0  0  0  0  0  0  0
  155.4971  134.7682  164.3600 O   0  0  0  0  0  0  0  0  0  0  0  0
  154.9882  135.5781  163.3673 C   0  0  0  0  0  0  0  0  0  0  0  0
  154.4971  136.8395  163.7568 C   0  0  0  0  0  0  0  0  0  0  0  0
  153.9617  137.7292  162.8063 C   0  0  0  0  0  0  0  0  0  0  0  0
  153.9056  137.3802  161.4429 C   0  0  0  0  0  0  0  0  0  0  0  0
  153.3681  138.3105  160.5791 O   0  0  0  0  0  0  0  0  0  0  0  0
  153.3561  138.0117  159.1894 C   0  0  0  0  0  0  0  0  0  0  0  0
  153.0183  139.2925  158.4103 C   0  0  1  0  0  0  0  0  0  0  0  0
  153.2649  139.0594  157.0377 O   0  0  0  0  0  0  0  0  0  0  0  0
  151.5450  139.7058  158.5987 C   0  0  0  0  0  0  0  0  0  0  0  0
  151.2444  141.0312  158.0329 N   0  0  0  0  0  0  0  0  0  0  0  0
  150.5327  141.3637  156.9183 C   0  0  0  0  0  0  0  0  0  0  0  0
  149.8636  140.4215  155.9751 C   0  0  0  0  0  0  0  0  0  0  0  0
  150.5458  142.7227  156.8198 N   0  3  0  0  0  0  0  0  0  0  0  0
  151.2697  143.2658  157.8817 C   0  0  0  0  0  0  0  0  0  0  0  0
  151.5554  144.5885  158.2059 C   0  0  0  0  0  0  0  0  0  0  0  0
  152.3219  144.8033  159.3700 C   0  0  0  0  0  0  0  0  0  0  0  0
  152.7721  143.7268  160.1615 C   0  0  0  0  0  0  0  0  0  0  0  0
  152.4778  142.3898  159.8215 C   0  0  0  0  0  0  0  0  0  0  0  0
  151.7207  142.1851  158.6677 C   0  0  0  0  0  0  0  0  0  0  0  0
  154.3972  136.1121  161.0462 C   0  0  0  0  0  0  0  0  0  0  0  0
  154.9315  135.2212  161.9976 C   0  0  0  0  0  0  0  0  0  0  0  0
  156.3971  132.9930  164.8739 H   0  0  0  0  0  0  0  0  0  0  0  0
  156.8703  133.6158  163.2983 H   0  0  0  0  0  0  0  0  0  0  0  0
  155.2695  132.8720  163.5287 H   0  0  0  0  0  0  0  0  0  0  0  0
  154.5315  137.1300  164.7966 H   0  0  0  0  0  0  0  0  0  0  0  0
  153.5912  138.6913  163.1285 H   0  0  0  0  0  0  0  0  0  0  0  0
  154.3092  137.5961  158.8566 H   0  0  0  0  0  0  0  0  0  0  0  0
  152.5832  137.2637  159.0053 H   0  0  0  0  0  0  0  0  0  0  0  0
  153.6604  140.1060  158.7504 H   0  0  0  0  0  0  0  0  0  0  0  0
  152.4333  138.9959  156.5924 H   0  0  0  0  0  0  0  0  0  0  0  0
  150.8675  138.9663  158.1715 H   0  0  0  0  0  0  0  0  0  0  0  0
  151.3069  139.7522  159.6621 H   0  0  0  0  0  0  0  0  0  0  0  0
  149.3086  140.9698  155.2135 H   0  0  0  0  0  0  0  0  0  0  0  0
  149.1681  139.7784  156.5144 H   0  0  0  0  0  0  0  0  0  0  0  0
  150.6065  139.7953  155.4808 H   0  0  0  0  0  0  0  0  0  0  0  0
  151.2096  145.4145  157.6019 H   0  0  0  0  0  0  0  0  0  0  0  0
  152.5673  145.8140  159.6629 H   0  0  0  0  0  0  0  0  0  0  0  0
  153.3537  143.9299  161.0489 H   0  0  0  0  0  0  0  0  0  0  0  0
  152.8226  141.5742  160.4394 H   0  0  0  0  0  0  0  0  0  0  0  0
  154.3760  135.7957  160.0146 H   0  0  0  0  0  0  0  0  0  0  0  0
  155.2937  134.2663  161.6486 H   0  0  0  0  0  0  0  0  0  0  0  0
  150.0907  143.2396  156.0784 H   0  0  0  0  0  0  0  0  0  0  0  0
  1  2  1  0  0  0  0
  1 24  1  0  0  0  0
  1 25  1  0  0  0  0
  1 26  1  0  0  0  0
  2  3  1  0  0  0  0
  3 23  1  0  0  0  0
  3  4  2  0  0  0  0
  4  5  1  0  0  0  0
  4 27  1  0  0  0  0
  5  6  2  0  0  0  0
  5 28  1  0  0  0  0
  6  7  1  0  0  0  0
  6 22  1  0  0  0  0
  7  8  1  0  0  0  0
  8  9  1  0  0  0  0
  8 29  1  0  0  0  0
  8 30  1  0  0  0  0
  9 10  1  0  0  0  0
  9 11  1  0  0  0  0
  9 31  1  0  0  0  0
 10 32  1  0  0  0  0
 11 12  1  0  0  0  0
 11 33  1  0  0  0  0
 11 34  1  0  0  0  0
 12 21  1  0  0  0  0
 12 13  1  0  0  0  0
 13 14  1  0  0  0  0
 13 15  2  0  0  0  0
 14 35  1  0  0  0  0
 14 36  1  0  0  0  0
 14 37  1  0  0  0  0
 15 16  1  0  0  0  0
 15 44  1  0  0  0  0
 16 21  2  0  0  0  0
 16 17  1  0  0  0  0
 17 18  2  0  0  0  0
 17 38  1  0  0  0  0
 18 19  1  0  0  0  0
 18 39  1  0  0  0  0
 19 20  2  0  0  0  0
 19 40  1  0  0  0  0
 20 21  1  0  0  0  0
 20 41  1  0  0  0  0
 22 23  2  0  0  0  0
 22 42  1  0  0  0  0
 23 43  1  0  0  0  0
M  CHG  1  15   1
M  END
> <s_m_source_file>
AV-unprocessed.smi

> <i_m_source_file_index>
486

> <i_lp_mmshare_version>
43012

> <i_f3d_flags>
0

> <s_epik_input>
W0NIM11PYzFbY0hdW2NIXWMoW2NIXVtjSF0xKU9bQ0gyXVtDQEhdKFtPSF0pW0NIMl1uKGMobjIpW0NIM10pYyhjMjMpW2NIXVtjSF1bY0hdW2NIXTM=

> <s_epik_cmdline>
J2VwaWtfcHl0aG9uJywgJy1waCcsICc3LjAnLCAnLXRuJywgJzgnLCAnLW1hJywgJzIwMCcsICctbWV0YWxfYmluZGluZycsICctaW1hZScsICc8aW5maWxlLm1hZT4nLCAnLW9tYWUnLCAnPG91dGZpbGUubWFlPic=

> <r_lp_tautomer_probability>
1

> <r_epik_Ionization_Penalty>
1.03234

> <r_epik_Ionization_Penalty_Charging>
1.03234

> <r_epik_Ionization_Penalty_Neutral>
2.3993e-06

> <r_epik_State_Penalty>
1.0836

> <r_epik_Charging_Adjusted_Penalty>
2.11594

> <i_epik_Tot_Q>
1

> <i_epik_Tot_abs_Q>
1

> <r_epik_Metal_State_Penalty>
5.07275

> <b_epik_Metal_Only>
0

> <s_lp_Force_Field>
OPLS_2005

> <r_lp_Energy>
23.3843

> <b_lp_Chiralities_Consistent>
1

> <s_lp_Variant>
AV-unprocessed.smi:486-4

> <Gold.Version>
5.8.1

> <Gold.Id.Protein>
6NUR|6NUR_protein|mol2

> <Gold.PLP.Fitness>
53.7574

> <Gold.PLP.PLP>
-45.8594

> <Gold.PLP.part.hbond>
-1.5177

> <Gold.PLP.part.metal>
0.0000

> <Gold.PLP.part.buried>
-6.0724

> <Gold.PLP.part.nonpolar>
-39.1320

> <Gold.PLP.part.repulsive>
0.0927

> <Gold.PLP.ligand.clash>
0.0000

> <Gold.PLP.ligand.torsion>
0.2875

> <Gold.PLP.Chemscore.Hbond>
2.7770

> <Gold.PLP.Chemscore.CHOScore>
0.0000

> <Gold.PLP.Chemscore.Metal>
0.0000

> <Gold.Chemscore.Hbonds>
donor molecule, donor type, donor heavy atom, donor atom, acceptor molecule, acceptor atom, score
      L1  H    15    44       P1  8028  1.82
      P1  H  7997  8009       L1    10  0.39

> <Gold.PLP.Chemscore.Internal.Correction>
0.1419

> <Gold.Rescore>
     Score         DG    S(hbond)    S(metal)    S(lipo)     H(rot)  DE(clash)    DE(int)     intcor
     20.08     -20.46       1.43        0.00     139.77       2.40       0.23       0.15       ----

> <Gold.Chemscore.Fitness>
20.0834

> <Gold.Chemscore.DG>
-20.4637

> <Gold.Chemscore.ZeroCoef>
-5.4800

> <Gold.Chemscore.Hbond>
1.4260

> <Gold.Chemscore.Metal>
0.0000

> <Gold.Chemscore.Lipo>
139.7650

> <Gold.Chemscore.Internal_Hbond>
0.0000

> <Gold.Chemscore.DEClash>
0.2347

> <Gold.Chemscore.DEInternal>
0.1456

> <Gold.Chemscore.Rot>
2.3952

> <Gold.Chemscore.Internal.Correction>
   9.000000E+99

> <Gold.Chemscore.Hbonds>
donor molecule, donor type, donor heavy atom, donor atom, acceptor molecule, acceptor atom, score
      L1  H    15    44       P1  8028  0.87
      P1  H  7997  8009       L1    10  0.02

> <Gold.Chemscore.Hbond.Weighted>
-4.7628

> <Gold.Chemscore.Metal.Weighted>
-0.0000

> <Gold.Chemscore.Lipo.Weighted>
-16.3525

> <Gold.Chemscore.Internal_Hbond.Weighted>
0.0000

> <Gold.Chemscore.DEClash.Weighted>
0.2347

> <Gold.Chemscore.DEInternal.Weighted>
0.1456

> <Gold.Chemscore.Rot.Weighted>
6.1316

> <Gold.Chemscore.Internal.Correction.Weighted>
   9.000000E+99

> <Gold.Protein.RotatedTorsions>
[ 6907 6896 6895 6894 ] final  -59.23 input  -60.11 | X-H torsion
[ 7974 7965 7964 7962 ] final   47.06 input  175.53 | X-H torsion
[ 8008 7997 7996 7995 ] final  145.02 input   59.86 | X-H torsion
[ 10167 10162 10161 10158 ] final   -0.24 input  -65.29 | X-H torsion
[ 10718 10713 10712 10709 ] final -141.95 input   66.30 | X-H torsion
[ 10763 10752 10751 10750 ] final  140.89 input  -60.55 | X-H torsion
[ 11005 11000 10999 10996 ] final   93.93 input  -57.11 | X-H torsion

> <Gold.Protein.ActiveResidues>
 VAL166  LYS551  ARG553  GLY616  TRP617  ASP618  TYR619  PRO620  LYS621  CYS622 
 ASP623  PHE694  ASN695  SER759  ASP760  ASP761  ALA762  ILE779  LEU786  VAL792 
 PHE793  MET794  SER795  GLU796  ALA797  LYS798  CYS799  TRP800  GLU811  SER814 

> <Gold.Protein.RotatedAtoms>
  150.7946  134.6995  159.6541 H   0  0  0  0  0  0  0  0  0  0  0  0  # atno 6907 bound_to 6896
  152.4056  134.6209  160.0060 H   0  0  0  0  0  0  0  0  0  0  0  0  # atno 6908 bound_to 6896
  151.6467  133.3286  159.3178 H   0  0  0  0  0  0  0  0  0  0  0  0  # atno 6909 bound_to 6896
  146.0332  139.4789  142.9824 H   0  0  0  0  0  0  0  0  0  0  0  0  # atno 7974 bound_to 7965
  156.2894  140.2220  156.5147 H   0  0  0  0  0  0  0  0  0  0  0  0  # atno 8008 bound_to 7997
  154.7579  140.0475  157.0970 H   0  0  0  0  0  0  0  0  0  0  0  0  # atno 8009 bound_to 7997
  155.0027  140.3103  155.4864 H   0  0  0  0  0  0  0  0  0  0  0  0  # atno 8010 bound_to 7997
  140.6759  143.6918  150.8022 H   0  0  0  0  0  0  0  0  0  0  0  0  # atno 10167 bound_to 10162
  156.3401  130.7633  151.1767 H   0  0  0  0  0  0  0  0  0  0  0  0  # atno 10718 bound_to 10713
  153.9302  135.2991  155.3446 H   0  0  0  0  0  0  0  0  0  0  0  0  # atno 10763 bound_to 10752
  154.7531  135.4971  153.9327 H   0  0  0  0  0  0  0  0  0  0  0  0  # atno 10764 bound_to 10752
  153.1096  135.6755  153.9629 H   0  0  0  0  0  0  0  0  0  0  0  0  # atno 10765 bound_to 10752
  139.8804  134.8817  156.3790 H   0  0  0  0  0  0  0  0  0  0  0  0  # atno 11005 bound_to 11000
  145.7006  141.0137  143.1506 LP  0  0  0  0  0  0  0  0  0  0  0  0  # atno 17320 bound_to 7965
  144.7040  139.8640  143.7435 LP  0  0  0  0  0  0  0  0  0  0  0  0  # atno 17321 bound_to 7965
  140.0611  143.5154  152.2627 LP  0  0  0  0  0  0  0  0  0  0  0  0  # atno 17342 bound_to 10162
  139.6051  144.7594  151.3081 LP  0  0  0  0  0  0  0  0  0  0  0  0  # atno 17343 bound_to 10162
  157.7445  131.0457  150.4856 LP  0  0  0  0  0  0  0  0  0  0  0  0  # atno 17370 bound_to 10713
  156.5035  130.4122  149.6340 LP  0  0  0  0  0  0  0  0  0  0  0  0  # atno 17371 bound_to 10713
  140.9411  133.7514  156.0148 LP  0  0  0  0  0  0  0  0  0  0  0  0  # atno 17394 bound_to 11000
  140.8218  134.3281  157.5379 LP  0  0  0  0  0  0  0  0  0  0  0  0  # atno 17395 bound_to 11000

$$$$
