AV-unprocessed.smi:2147|AV-procd|sdf|8742|dock3
  -GOLD-   2272011513D 1   1.00000     0.00000
 Structure written by MMmdl.
 41 43  0  0  0  0  0  0  0  0  1 V2000
  142.6245  146.6062  154.3738 C   0  0  0  0  0  0  0  0  0  0  0  0
  143.1763  145.6952  155.4691 C   0  0  0  0  0  0  0  0  0  0  0  0
  142.7204  145.7967  156.6076 O   0  0  0  0  0  0  0  0  0  0  0  0
  144.2457  144.7265  155.0947 C   0  0  0  0  0  0  0  0  0  0  0  0
  144.7093  144.6033  153.7645 C   0  0  0  0  0  0  0  0  0  0  0  0
  145.7233  143.6799  153.4446 C   0  0  0  0  0  0  0  0  0  0  0  0
  146.2971  142.8609  154.4368 C   0  0  0  0  0  0  0  0  0  0  0  0
  147.2855  141.9879  154.0359 O   0  0  0  0  0  0  0  0  0  0  0  0
  148.0043  141.2809  155.0383 C   0  0  0  0  0  0  0  0  0  0  0  0
  149.5095  141.4041  154.7600 C   0  0  2  0  0  0  0  0  0  0  0  0
  149.7840  140.7765  153.5230 O   0  0  0  0  0  0  0  0  0  0  0  0
  150.3667  140.7683  155.8721 C   0  0  0  0  0  0  0  0  0  0  0  0
  151.0045  141.7597  156.7202 N   0  0  0  0  0  0  0  0  0  0  0  0
  151.0180  143.0940  156.5367 C   0  0  0  0  0  0  0  0  0  0  0  0
  151.6629  143.8269  157.4399 N   0  0  0  0  0  0  0  0  0  0  0  0
  152.1204  142.8552  158.3134 C   0  0  0  0  0  0  0  0  0  0  0  0
  152.8818  142.9718  159.4983 C   0  0  0  0  0  0  0  0  0  0  0  0
  153.2372  141.8226  160.2350 C   0  0  0  0  0  0  0  0  0  0  0  0
  152.8396  140.5420  159.7988 C   0  0  0  0  0  0  0  0  0  0  0  0
  152.0804  140.4006  158.6214 C   0  0  0  0  0  0  0  0  0  0  0  0
  151.7259  141.5498  157.8905 C   0  0  0  0  0  0  0  0  0  0  0  0
  145.8314  142.9811  155.7690 C   0  0  0  0  0  0  0  0  0  0  0  0
  144.8182  143.9045  156.0912 C   0  0  0  0  0  0  0  0  0  0  0  0
  143.4166  147.2305  153.9603 H   0  0  0  0  0  0  0  0  0  0  0  0
  141.8505  147.2604  154.7761 H   0  0  0  0  0  0  0  0  0  0  0  0
  142.1861  146.0154  153.5695 H   0  0  0  0  0  0  0  0  0  0  0  0
  144.3018  145.2094  152.9692 H   0  0  0  0  0  0  0  0  0  0  0  0
  146.0657  143.6004  152.4232 H   0  0  0  0  0  0  0  0  0  0  0  0
  147.7760  141.6753  156.0301 H   0  0  0  0  0  0  0  0  0  0  0  0
  147.7122  140.2293  155.0164 H   0  0  0  0  0  0  0  0  0  0  0  0
  149.7675  142.4589  154.6573 H   0  0  0  0  0  0  0  0  0  0  0  0
  149.1277  140.1133  153.3716 H   0  0  0  0  0  0  0  0  0  0  0  0
  149.7502  140.1278  156.5041 H   0  0  0  0  0  0  0  0  0  0  0  0
  151.1383  140.1282  155.4425 H   0  0  0  0  0  0  0  0  0  0  0  0
  150.5265  143.5532  155.6912 H   0  0  0  0  0  0  0  0  0  0  0  0
  153.1929  143.9474  159.8415 H   0  0  0  0  0  0  0  0  0  0  0  0
  153.8187  141.9242  161.1397 H   0  0  0  0  0  0  0  0  0  0  0  0
  153.1180  139.6677  160.3689 H   0  0  0  0  0  0  0  0  0  0  0  0
  151.7759  139.4212  158.2831 H   0  0  0  0  0  0  0  0  0  0  0  0
  146.2350  142.3755  156.5661 H   0  0  0  0  0  0  0  0  0  0  0  0
  144.4866  143.9731  157.1173 H   0  0  0  0  0  0  0  0  0  0  0  0
  1  2  1  0  0  0  0
  1 24  1  0  0  0  0
  1 25  1  0  0  0  0
  1 26  1  0  0  0  0
  2  3  2  0  0  0  0
  2  4  1  0  0  0  0
  4 23  1  0  0  0  0
  4  5  2  0  0  0  0
  5  6  1  0  0  0  0
  5 27  1  0  0  0  0
  6  7  2  0  0  0  0
  6 28  1  0  0  0  0
  7  8  1  0  0  0  0
  7 22  1  0  0  0  0
  8  9  1  0  0  0  0
  9 10  1  0  0  0  0
  9 29  1  0  0  0  0
  9 30  1  0  0  0  0
 10 11  1  0  0  0  0
 10 12  1  0  0  0  0
 10 31  1  0  0  0  0
 11 32  1  0  0  0  0
 12 13  1  0  0  0  0
 12 33  1  0  0  0  0
 12 34  1  0  0  0  0
 13 21  1  0  0  0  0
 13 14  1  0  0  0  0
 14 15  2  0  0  0  0
 14 35  1  0  0  0  0
 15 16  1  0  0  0  0
 16 21  2  0  0  0  0
 16 17  1  0  0  0  0
 17 18  2  0  0  0  0
 17 36  1  0  0  0  0
 18 19  1  0  0  0  0
 18 37  1  0  0  0  0
 19 20  2  0  0  0  0
 19 38  1  0  0  0  0
 20 21  1  0  0  0  0
 20 39  1  0  0  0  0
 22 23  2  0  0  0  0
 22 40  1  0  0  0  0
 23 41  1  0  0  0  0
M  END
> <s_m_source_file>
AV-unprocessed.smi

> <i_m_source_file_index>
2147

> <i_lp_mmshare_version>
43012

> <i_f3d_flags>
0

> <s_epik_input>
W0NIM11DKD1PKWMxW2NIXVtjSF1jKFtjSF1bY0hdMSlPW0NIMl1bQ0BIXShbT0hdKVtDSDJdbihbY0hdbjIpYyhjMjMpW2NIXVtjSF1bY0hdW2NIXTM=

> <s_epik_cmdline>
J2VwaWtfcHl0aG9uJywgJy1waCcsICc3LjAnLCAnLXRuJywgJzgnLCAnLW1hJywgJzIwMCcsICctbWV0YWxfYmluZGluZycsICctaW1hZScsICc8aW5maWxlLm1hZT4nLCAnLW9tYWUnLCAnPG91dGZpbGUubWFlPic=

> <r_lp_tautomer_probability>
0.99995

> <r_epik_Ionization_Penalty>
0.0583018

> <r_epik_Ionization_Penalty_Charging>
0

> <r_epik_Ionization_Penalty_Neutral>
0.0583018

> <r_epik_State_Penalty>
0.0504087

> <r_epik_Charging_Adjusted_Penalty>
0.0504087

> <i_epik_Tot_Q>
0

> <i_epik_Tot_abs_Q>
0

> <r_epik_Metal_State_Penalty>
5.26129e-05

> <b_epik_Metal_Only>
0

> <s_lp_Force_Field>
OPLS_2005

> <r_lp_Energy>
19.9149

> <b_lp_Chiralities_Consistent>
1

> <s_lp_Variant>
AV-unprocessed.smi:2147-1

> <Gold.Version>
5.8.1

> <Gold.Id.Protein>
6NUR|6NUR_protein|mol2

> <Gold.PLP.Fitness>
54.3906

> <Gold.PLP.PLP>
-49.7539

> <Gold.PLP.part.hbond>
-2.5508

> <Gold.PLP.part.metal>
0.0000

> <Gold.PLP.part.buried>
-4.1572

> <Gold.PLP.part.nonpolar>
-41.7937

> <Gold.PLP.part.repulsive>
0.2804

> <Gold.PLP.ligand.clash>
0.0000

> <Gold.PLP.ligand.torsion>
1.1300

> <Gold.PLP.Chemscore.Hbond>
1.3520

> <Gold.PLP.Chemscore.CHOScore>
0.9306

> <Gold.PLP.Chemscore.Metal>
0.0000

> <Gold.Chemscore.Hbonds>
donor molecule, donor type, donor heavy atom, donor atom, acceptor molecule, acceptor atom, score
      P1  H  7989  7998       L1    11  0.37
      P1  H  8011  8017       L1    11  0.95
      L1  C    14    35       P1  8028  0.92

> <Gold.PLP.Chemscore.Internal.Correction>
0.0489

> <Gold.Rescore>
     Score         DG    S(hbond)    S(metal)    S(lipo)     H(rot)  DE(clash)    DE(int)     intcor
     13.43     -15.02       0.78        0.00     111.86       2.40       0.54       1.05       ----

> <Gold.Chemscore.Fitness>
13.4321

> <Gold.Chemscore.DG>
-15.0224

> <Gold.Chemscore.ZeroCoef>
-5.4800

> <Gold.Chemscore.Hbond>
0.7784

> <Gold.Chemscore.Metal>
0.0000

> <Gold.Chemscore.Lipo>
111.8618

> <Gold.Chemscore.Internal_Hbond>
0.0000

> <Gold.Chemscore.DEClash>
0.5423

> <Gold.Chemscore.DEInternal>
1.0480

> <Gold.Chemscore.Rot>
2.4005

> <Gold.Chemscore.Internal.Correction>
   9.000000E+99

> <Gold.Chemscore.Hbonds>
donor molecule, donor type, donor heavy atom, donor atom, acceptor molecule, acceptor atom, score
      P1  H  7989  7998       L1    11  0.11
      P1  H  8011  8017       L1    11  0.19

> <Gold.Chemscore.Hbond.Weighted>
-2.5999

> <Gold.Chemscore.Metal.Weighted>
-0.0000

> <Gold.Chemscore.Lipo.Weighted>
-13.0878

> <Gold.Chemscore.Internal_Hbond.Weighted>
0.0000

> <Gold.Chemscore.DEClash.Weighted>
0.5423

> <Gold.Chemscore.DEInternal.Weighted>
1.0480

> <Gold.Chemscore.Rot.Weighted>
6.1453

> <Gold.Chemscore.Internal.Correction.Weighted>
   9.000000E+99

> <Gold.Protein.RotatedTorsions>
[ 6907 6896 6895 6894 ] final -159.73 input  -60.11 | X-H torsion
[ 7974 7965 7964 7962 ] final -153.10 input  175.53 | X-H torsion
[ 8008 7997 7996 7995 ] final  -27.22 input   59.86 | X-H torsion
[ 10167 10162 10161 10158 ] final    4.07 input  -65.29 | X-H torsion
[ 10718 10713 10712 10709 ] final -100.32 input   66.30 | X-H torsion
[ 10763 10752 10751 10750 ] final   72.58 input  -60.55 | X-H torsion
[ 11005 11000 10999 10996 ] final   65.33 input  -57.11 | X-H torsion

> <Gold.Protein.ActiveResidues>
 VAL166  LYS551  ARG553  GLY616  TRP617  ASP618  TYR619  PRO620  LYS621  CYS622 
 ASP623  PHE694  ASN695  SER759  ASP760  ASP761  ALA762  ILE779  LEU786  VAL792 
 PHE793  MET794  SER795  GLU796  ALA797  LYS798  CYS799  TRP800  GLU811  SER814 

> <Gold.Protein.RotatedAtoms>
  151.3382  133.3973  159.2668 H   0  0  0  0  0  0  0  0  0  0  0  0  # atno 6907 bound_to 6896
  150.9900  134.9238  159.7904 H   0  0  0  0  0  0  0  0  0  0  0  0  # atno 6908 bound_to 6896
  152.5244  134.3346  159.9247 H   0  0  0  0  0  0  0  0  0  0  0  0  # atno 6909 bound_to 6896
  144.7759  140.4572  143.5874 H   0  0  0  0  0  0  0  0  0  0  0  0  # atno 7974 bound_to 7965
  154.4388  140.1878  156.0897 H   0  0  0  0  0  0  0  0  0  0  0  0  # atno 8008 bound_to 7997
  156.0375  140.3323  155.7181 H   0  0  0  0  0  0  0  0  0  0  0  0  # atno 8009 bound_to 7997
  155.5748  140.0616  157.2788 H   0  0  0  0  0  0  0  0  0  0  0  0  # atno 8010 bound_to 7997
  140.6553  143.7442  150.7644 H   0  0  0  0  0  0  0  0  0  0  0  0  # atno 10167 bound_to 10162
  156.0159  130.5322  150.6799 H   0  0  0  0  0  0  0  0  0  0  0  0  # atno 10718 bound_to 10713
  153.0468  135.5094  154.7766 H   0  0  0  0  0  0  0  0  0  0  0  0  # atno 10763 bound_to 10752
  154.6659  135.2945  154.9808 H   0  0  0  0  0  0  0  0  0  0  0  0  # atno 10764 bound_to 10752
  154.0642  135.6686  153.4868 H   0  0  0  0  0  0  0  0  0  0  0  0  # atno 10765 bound_to 10752
  139.9901  134.6605  156.0106 H   0  0  0  0  0  0  0  0  0  0  0  0  # atno 11005 bound_to 11000
  145.6188  139.1521  143.3034 LP  0  0  0  0  0  0  0  0  0  0  0  0  # atno 17320 bound_to 7965
  146.1937  140.6300  142.9134 LP  0  0  0  0  0  0  0  0  0  0  0  0  # atno 17321 bound_to 7965
  140.1100  143.4708  152.2375 LP  0  0  0  0  0  0  0  0  0  0  0  0  # atno 17342 bound_to 10162
  139.5775  144.7494  151.3727 LP  0  0  0  0  0  0  0  0  0  0  0  0  # atno 17343 bound_to 10162
  157.4504  131.0872  151.0852 LP  0  0  0  0  0  0  0  0  0  0  0  0  # atno 17370 bound_to 10713
  157.1369  130.6126  149.5544 LP  0  0  0  0  0  0  0  0  0  0  0  0  # atno 17371 bound_to 10713
  141.1558  133.6543  156.4159 LP  0  0  0  0  0  0  0  0  0  0  0  0  # atno 17394 bound_to 11000
  140.4925  134.6562  157.5216 LP  0  0  0  0  0  0  0  0  0  0  0  0  # atno 17395 bound_to 11000

$$$$
