AV-unprocessed.smi:160|AV-procd|sdf|1364|dock6
  -GOLD-   2262019 73D 1   1.00000     0.00000
 Structure written by MMmdl.
 28 29  0  0  0  0  0  0  0  0  2 V2000
  154.5010  136.1808  157.0611 N   0  5  0  0  0  0  0  0  0  0  0  0
  154.2147  137.4953  157.1828 C   0  0  0  0  0  0  0  0  0  0  0  0
  154.7811  138.2955  157.9268 O   0  0  0  0  0  0  0  0  0  0  0  0
  153.0843  137.9784  156.3048 C   0  0  0  0  0  0  0  0  0  0  0  0
  152.4319  137.1118  155.4713 N   0  0  0  0  0  0  0  0  0  0  0  0
  151.5654  137.9542  154.9252 C   0  0  0  0  0  0  0  0  0  0  0  0
  151.6700  139.2113  155.3647 N   0  0  0  0  0  0  0  0  0  0  0  0
  150.8763  140.4267  154.9837 C   0  0  1  0  0  0  0  0  0  0  0  0
  149.9415  140.0604  154.0135 O   0  0  0  0  0  0  0  0  0  0  0  0
  148.6549  139.9336  154.6091 C   0  0  2  0  0  0  0  0  0  0  0  0
  147.5397  140.0181  153.5519 C   0  0  0  0  0  0  0  0  0  0  0  0
  147.6937  138.9902  152.5969 O   0  0  0  0  0  0  0  0  0  0  0  0
  148.6605  141.0568  155.6568 C   0  0  2  0  0  0  0  0  0  0  0  0
  148.3485  142.3065  155.0667 O   0  0  0  0  0  0  0  0  0  0  0  0
  150.0987  141.0574  156.1657 C   0  0  1  0  0  0  0  0  0  0  0  0
  150.1861  140.3364  157.3825 O   0  0  0  0  0  0  0  0  0  0  0  0
  152.6658  139.2476  156.2853 N   0  0  0  0  0  0  0  0  0  0  0  0
  151.6126  141.1020  154.5466 H   0  0  0  0  0  0  0  0  0  0  0  0
  148.5945  138.9790  155.1349 H   0  0  0  0  0  0  0  0  0  0  0  0
  147.9345  140.8718  156.4499 H   0  0  0  0  0  0  0  0  0  0  0  0
  150.4695  142.0679  156.3431 H   0  0  0  0  0  0  0  0  0  0  0  0
  154.3799  135.5740  157.8803 H   0  0  0  0  0  0  0  0  0  0  0  0
  150.8411  137.6483  154.1848 H   0  0  0  0  0  0  0  0  0  0  0  0
  146.5664  139.8792  154.0230 H   0  0  0  0  0  0  0  0  0  0  0  0
  147.5293  140.9910  153.0596 H   0  0  0  0  0  0  0  0  0  0  0  0
  148.4499  139.1833  152.0646 H   0  0  0  0  0  0  0  0  0  0  0  0
  148.7575  142.9886  155.5765 H   0  0  0  0  0  0  0  0  0  0  0  0
  149.3115  140.1728  157.7005 H   0  0  0  0  0  0  0  0  0  0  0  0
  1  2  1  0  0  0  0
  1 22  1  0  0  0  0
  2  3  2  0  0  0  0
  2  4  1  0  0  0  0
  4 17  2  0  0  0  0
  4  5  1  0  0  0  0
  5  6  2  0  0  0  0
  6  7  1  0  0  0  0
  6 23  1  0  0  0  0
  7  8  1  0  0  0  0
  7 17  1  0  0  0  0
  8 18  1  0  0  0  0
  8 15  1  0  0  0  0
  8  9  1  0  0  0  0
  9 10  1  0  0  0  0
 10 19  1  0  0  0  0
 10 11  1  0  0  0  0
 10 13  1  0  0  0  0
 11 12  1  0  0  0  0
 11 24  1  0  0  0  0
 11 25  1  0  0  0  0
 12 26  1  0  0  0  0
 13 20  1  0  0  0  0
 13 14  1  0  0  0  0
 13 15  1  0  0  0  0
 14 27  1  0  0  0  0
 15 21  1  0  0  0  0
 15 16  1  0  0  0  0
 16 28  1  0  0  0  0
M  CHG  1   1  -1
M  END
> <s_m_source_file>
AV-unprocessed.smi

> <i_m_source_file_index>
160

> <i_lp_mmshare_version>
43012

> <i_f3d_flags>
0

> <s_epik_input>
W05IMl1DKD1PKWMxbltjSF1uKG4xKVtDQEBIXTJPW0NASF0oW0NIMl1bT0hdKVtDQEBIXShbT0hdKVtDQEhdMltPSF0=

> <s_epik_cmdline>
J2VwaWtfcHl0aG9uJywgJy1waCcsICc3LjAnLCAnLXRuJywgJzgnLCAnLW1hJywgJzIwMCcsICctbWV0YWxfYmluZGluZycsICctaW1hZScsICc8aW5maWxlLm1hZT4nLCAnLW9tYWUnLCAnPG91dGZpbGUubWFlPic=

> <r_lp_tautomer_probability>
1

> <r_epik_Ionization_Penalty>
6.6993

> <r_epik_Ionization_Penalty_Charging>
6.6993

> <r_epik_Ionization_Penalty_Neutral>
6.01698e-06

> <r_epik_State_Penalty>
6.69929

> <r_epik_Charging_Adjusted_Penalty>
13.3986

> <i_epik_Tot_Q>
-1

> <i_epik_Tot_abs_Q>
1

> <r_epik_Metal_State_Penalty>
2.62798

> <b_epik_Metal_Only>
1

> <s_epik_Chemistry_Notes>
This compound contains an acetal/aminal-like group ( X-CH(R)-Y where X, Y are N, S, or O) that may be acid/base labile, releasing an aldehyde.

> <s_lp_Force_Field>
OPLS_2005

> <r_lp_Energy>
46.6633

> <b_lp_Chiralities_Consistent>
1

> <s_lp_Variant>
AV-unprocessed.smi:160-22

> <Gold.Version>
5.8.1

> <Gold.Id.Protein>
6NUR|6NUR_protein|mol2

> <Gold.PLP.Fitness>
41.6853

> <Gold.PLP.PLP>
-23.9804

> <Gold.PLP.part.hbond>
-7.8164

> <Gold.PLP.part.metal>
0.0000

> <Gold.PLP.part.buried>
-1.4122

> <Gold.PLP.part.nonpolar>
-16.2235

> <Gold.PLP.part.repulsive>
1.7502

> <Gold.PLP.ligand.clash>
0.0000

> <Gold.PLP.ligand.torsion>
0.0057

> <Gold.PLP.Chemscore.Hbond>
5.9040

> <Gold.PLP.Chemscore.CHOScore>
0.0000

> <Gold.PLP.Chemscore.Metal>
0.0000

> <Gold.Chemscore.Hbonds>
donor molecule, donor type, donor heavy atom, donor atom, acceptor molecule, acceptor atom, score
      L1  H    12    26       P1  7957  1.00
      L1  H    14    27       P1  8028  0.80
      P1  H  7997  8008       L1     3  0.54
      P1  H  7997  8009       L1    17  1.00
      P1  H 10752 10764       L1     5  0.54
      P1  H 10752 10765       L1     1  2.00

> <Gold.PLP.Chemscore.Internal.Correction>
0.0044

> <Gold.Rescore>
     Score         DG    S(hbond)    S(metal)    S(lipo)     H(rot)  DE(clash)    DE(int)     intcor
      8.60     -11.59       4.13        0.00      22.67       4.04       1.82       1.17       ----

> <Gold.Chemscore.Fitness>
8.6010

> <Gold.Chemscore.DG>
-11.5946

> <Gold.Chemscore.ZeroCoef>
-5.4800

> <Gold.Chemscore.Hbond>
4.1335

> <Gold.Chemscore.Metal>
0.0000

> <Gold.Chemscore.Lipo>
22.6660

> <Gold.Chemscore.Internal_Hbond>
0.0000

> <Gold.Chemscore.DEClash>
1.8232

> <Gold.Chemscore.DEInternal>
1.1704

> <Gold.Chemscore.Rot>
4.0403

> <Gold.Chemscore.Internal.Correction>
   9.000000E+99

> <Gold.Chemscore.Hbonds>
donor molecule, donor type, donor heavy atom, donor atom, acceptor molecule, acceptor atom, score
      L1  H    12    26       P1  7957  0.99
      L1  H    14    27       P1  8028  0.80
      P1  H  7997  8008       L1     3  0.53
      P1  H  7997  8009       L1    17  0.24
      P1  H 10752 10764       L1     5  0.51
      P1  H 10752 10765       L1     1  0.85

> <Gold.Chemscore.Hbond.Weighted>
-13.8057

> <Gold.Chemscore.Metal.Weighted>
-0.0000

> <Gold.Chemscore.Lipo.Weighted>
-2.6519

> <Gold.Chemscore.Internal_Hbond.Weighted>
0.0000

> <Gold.Chemscore.DEClash.Weighted>
1.8232

> <Gold.Chemscore.DEInternal.Weighted>
1.1704

> <Gold.Chemscore.Rot.Weighted>
10.3431

> <Gold.Chemscore.Internal.Correction.Weighted>
   9.000000E+99

> <Gold.Protein.RotatedTorsions>
[ 6907 6896 6895 6894 ] final -139.14 input  -60.11 | X-H torsion
[ 7974 7965 7964 7962 ] final -118.98 input  175.53 | X-H torsion
[ 8008 7997 7996 7995 ] final -144.57 input   59.86 | X-H torsion
[ 10167 10162 10161 10158 ] final -172.88 input  -65.29 | X-H torsion
[ 10718 10713 10712 10709 ] final  -49.74 input   66.30 | X-H torsion
[ 10763 10752 10751 10750 ] final  -71.75 input  -60.55 | X-H torsion
[ 11005 11000 10999 10996 ] final -167.18 input  -57.11 | X-H torsion

> <Gold.Protein.ActiveResidues>
 VAL166  LYS551  ARG553  GLY616  TRP617  ASP618  TYR619  PRO620  LYS621  CYS622 
 ASP623  PHE694  ASN695  SER759  ASP760  ASP761  ALA762  ILE779  LEU786  VAL792 
 PHE793  MET794  SER795  GLU796  ALA797  LYS798  CYS799  TRP800  GLU811  SER814 

> <Gold.Protein.RotatedAtoms>
  151.0439  133.5682  159.2648 H   0  0  0  0  0  0  0  0  0  0  0  0  # atno 6907 bound_to 6896
  151.2718  135.0686  159.9146 H   0  0  0  0  0  0  0  0  0  0  0  0  # atno 6908 bound_to 6896
  152.5369  134.0168  159.8017 H   0  0  0  0  0  0  0  0  0  0  0  0  # atno 6909 bound_to 6896
  145.0677  140.8336  143.4114 H   0  0  0  0  0  0  0  0  0  0  0  0  # atno 7974 bound_to 7965
  155.5290  140.0598  157.2892 H   0  0  0  0  0  0  0  0  0  0  0  0  # atno 8008 bound_to 7997
  154.4491  140.1939  156.0520 H   0  0  0  0  0  0  0  0  0  0  0  0  # atno 8009 bound_to 7997
  156.0665  140.3265  155.7528 H   0  0  0  0  0  0  0  0  0  0  0  0  # atno 8010 bound_to 7997
  139.5719  144.1621  152.1396 H   0  0  0  0  0  0  0  0  0  0  0  0  # atno 10167 bound_to 10162
  156.1865  130.4151  149.9432 H   0  0  0  0  0  0  0  0  0  0  0  0  # atno 10718 bound_to 10713
  154.4361  135.5952  153.6099 H   0  0  0  0  0  0  0  0  0  0  0  0  # atno 10763 bound_to 10752
  152.9802  135.5987  154.3780 H   0  0  0  0  0  0  0  0  0  0  0  0  # atno 10764 bound_to 10752
  154.3624  135.2841  155.2291 H   0  0  0  0  0  0  0  0  0  0  0  0  # atno 10765 bound_to 10752
  140.5562  134.5379  157.5133 H   0  0  0  0  0  0  0  0  0  0  0  0  # atno 11005 bound_to 11000
  145.1330  139.2620  143.5529 LP  0  0  0  0  0  0  0  0  0  0  0  0  # atno 17320 bound_to 7965
  146.3527  140.0987  142.8609 LP  0  0  0  0  0  0  0  0  0  0  0  0  # atno 17321 bound_to 7965
  140.1156  144.5419  150.6896 LP  0  0  0  0  0  0  0  0  0  0  0  0  # atno 17342 bound_to 10162
  140.7003  143.2431  151.4882 LP  0  0  0  0  0  0  0  0  0  0  0  0  # atno 17343 bound_to 10162
  156.7186  130.8998  151.3616 LP  0  0  0  0  0  0  0  0  0  0  0  0  # atno 17370 bound_to 10713
  157.6902  130.9226  150.0493 LP  0  0  0  0  0  0  0  0  0  0  0  0  # atno 17371 bound_to 10713
  139.9430  134.7752  156.0630 LP  0  0  0  0  0  0  0  0  0  0  0  0  # atno 17394 bound_to 11000
  141.1142  133.6633  156.3053 LP  0  0  0  0  0  0  0  0  0  0  0  0  # atno 17395 bound_to 11000

$$$$
