AV-unprocessed.smi:2771|AV-procd|sdf|10663|dock4
  -GOLD-   2272015113D 1   1.00000     0.00000
 Structure written by MMmdl.
 43 44  0  0  0  0  0  0  0  0  1 V2000
  153.4595  142.0960  160.9899 C   0  0  0  0  0  0  0  0  0  0  0  0
  152.5163  143.1275  160.4075 C   0  0  0  0  0  0  0  0  0  0  0  0
  152.5723  144.4746  160.8157 C   0  0  0  0  0  0  0  0  0  0  0  0
  151.6670  145.3809  160.2354 C   0  0  0  0  0  0  0  0  0  0  0  0
  150.7505  144.9070  159.2770 C   0  0  0  0  0  0  0  0  0  0  0  0
  150.7620  143.5395  158.9212 C   0  0  0  0  0  0  0  0  0  0  0  0
  149.8050  143.1645  157.9412 N   0  0  0  0  0  0  0  0  0  0  0  0
  149.5001  141.9289  157.5066 C   0  0  0  0  0  0  0  0  0  0  0  0
  149.9886  140.8815  157.9316 O   0  0  0  0  0  0  0  0  0  0  0  0
  148.5818  141.9726  156.5319 N   0  0  0  0  0  0  0  0  0  0  0  0
  148.0661  140.8065  155.8229 C   0  0  0  0  0  0  0  0  0  0  0  0
  148.5790  140.7827  154.3676 C   0  0  1  0  0  0  0  0  0  0  0  0
  148.7830  142.1338  153.9959 O   0  0  0  0  0  0  0  0  0  0  0  0
  149.9173  140.0198  154.1669 C   0  0  0  0  0  0  0  0  0  0  0  0
  149.7207  138.4883  154.3014 C   0  0  0  0  0  0  0  0  0  0  0  0
  151.0312  137.7107  154.1043 C   0  0  0  0  0  0  0  0  0  0  0  0
  152.1076  138.1821  155.0893 C   0  0  0  0  0  0  0  0  0  0  0  0
  152.3324  139.6942  154.9615 C   0  0  0  0  0  0  0  0  0  0  0  0
  151.0217  140.4763  155.1517 C   0  0  0  0  0  0  0  0  0  0  0  0
  151.6381  142.6728  159.4879 N   0  0  0  0  0  0  0  0  0  0  0  0
  154.1352  142.5444  161.7187 H   0  0  0  0  0  0  0  0  0  0  0  0
  154.0615  141.6444  160.2008 H   0  0  0  0  0  0  0  0  0  0  0  0
  152.8969  141.3058  161.4878 H   0  0  0  0  0  0  0  0  0  0  0  0
  153.2882  144.8074  161.5527 H   0  0  0  0  0  0  0  0  0  0  0  0
  151.6749  146.4230  160.5187 H   0  0  0  0  0  0  0  0  0  0  0  0
  150.0496  145.5912  158.8211 H   0  0  0  0  0  0  0  0  0  0  0  0
  149.3121  143.9280  157.5026 H   0  0  0  0  0  0  0  0  0  0  0  0
  148.2258  142.8737  156.2482 H   0  0  0  0  0  0  0  0  0  0  0  0
  148.3346  139.8815  156.3370 H   0  0  0  0  0  0  0  0  0  0  0  0
  146.9806  140.8842  155.8566 H   0  0  0  0  0  0  0  0  0  0  0  0
  147.8174  140.3517  153.7158 H   0  0  0  0  0  0  0  0  0  0  0  0
  148.5488  142.6844  154.7271 H   0  0  0  0  0  0  0  0  0  0  0  0
  150.2716  140.2250  153.1552 H   0  0  0  0  0  0  0  0  0  0  0  0
  149.3072  138.2568  155.2839 H   0  0  0  0  0  0  0  0  0  0  0  0
  148.9950  138.1271  153.5725 H   0  0  0  0  0  0  0  0  0  0  0  0
  150.8521  136.6429  154.2328 H   0  0  0  0  0  0  0  0  0  0  0  0
  151.3855  137.8437  153.0811 H   0  0  0  0  0  0  0  0  0  0  0  0
  151.8047  137.9395  156.1085 H   0  0  0  0  0  0  0  0  0  0  0  0
  153.0406  137.6482  154.9065 H   0  0  0  0  0  0  0  0  0  0  0  0
  153.0701  140.0220  155.6944 H   0  0  0  0  0  0  0  0  0  0  0  0
  152.7522  139.9191  153.9801 H   0  0  0  0  0  0  0  0  0  0  0  0
  151.2451  141.5339  155.0212 H   0  0  0  0  0  0  0  0  0  0  0  0
  150.6722  140.3574  156.1781 H   0  0  0  0  0  0  0  0  0  0  0  0
  1  2  1  0  0  0  0
  1 21  1  0  0  0  0
  1 22  1  0  0  0  0
  1 23  1  0  0  0  0
  2 20  1  0  0  0  0
  2  3  2  0  0  0  0
  3  4  1  0  0  0  0
  3 24  1  0  0  0  0
  4  5  2  0  0  0  0
  4 25  1  0  0  0  0
  5  6  1  0  0  0  0
  5 26  1  0  0  0  0
  6  7  1  0  0  0  0
  6 20  2  0  0  0  0
  7  8  1  0  0  0  0
  7 27  1  0  0  0  0
  8  9  2  0  0  0  0
  8 10  1  0  0  0  0
 10 11  1  0  0  0  0
 10 28  1  0  0  0  0
 11 12  1  0  0  0  0
 11 29  1  0  0  0  0
 11 30  1  0  0  0  0
 12 13  1  0  0  0  0
 12 14  1  0  0  0  0
 12 31  1  0  0  0  0
 13 32  1  0  0  0  0
 14 19  1  0  0  0  0
 14 15  1  0  0  0  0
 14 33  1  0  0  0  0
 15 16  1  0  0  0  0
 15 34  1  0  0  0  0
 15 35  1  0  0  0  0
 16 17  1  0  0  0  0
 16 36  1  0  0  0  0
 16 37  1  0  0  0  0
 17 18  1  0  0  0  0
 17 38  1  0  0  0  0
 17 39  1  0  0  0  0
 18 19  1  0  0  0  0
 18 40  1  0  0  0  0
 18 41  1  0  0  0  0
 19 42  1  0  0  0  0
 19 43  1  0  0  0  0
M  END
> <s_m_source_file>
AV-unprocessed.smi

> <i_m_source_file_index>
2771

> <i_lp_mmshare_version>
43012

> <i_f3d_flags>
0

> <s_epik_input>
W0NIM11jMVtjSF1bY0hdW2NIXWMobjEpW05IXUMoPU8pW05IXVtDSDJdW0NASF0oW09IXSlbQ0hdMltDSDJdW0NIMl1bQ0gyXVtDSDJdW0NIMl0y

> <s_epik_cmdline>
J2VwaWtfcHl0aG9uJywgJy1waCcsICc3LjAnLCAnLXRuJywgJzgnLCAnLW1hJywgJzIwMCcsICctbWV0YWxfYmluZGluZycsICctaW1hZScsICc8aW5maWxlLm1hZT4nLCAnLW9tYWUnLCAnPG91dGZpbGUubWFlPic=

> <r_lp_tautomer_probability>
1

> <r_epik_Ionization_Penalty>
8.92802e-05

> <r_epik_Ionization_Penalty_Charging>
0

> <r_epik_Ionization_Penalty_Neutral>
8.92802e-05

> <r_epik_State_Penalty>
-0

> <r_epik_Charging_Adjusted_Penalty>
0

> <i_epik_Tot_Q>
0

> <i_epik_Tot_abs_Q>
0

> <r_epik_Metal_State_Penalty>
-0

> <b_epik_Metal_Only>
0

> <s_lp_Force_Field>
OPLS_2005

> <r_lp_Energy>
17.4783

> <b_lp_Chiralities_Consistent>
1

> <s_lp_Variant>
AV-unprocessed.smi:2771-2

> <Gold.Version>
5.8.1

> <Gold.Id.Protein>
6NUR|6NUR_protein|mol2

> <Gold.PLP.Fitness>
49.8539

> <Gold.PLP.PLP>
-42.4862

> <Gold.PLP.part.hbond>
-4.2041

> <Gold.PLP.part.metal>
0.0000

> <Gold.PLP.part.buried>
-4.0564

> <Gold.PLP.part.nonpolar>
-34.3263

> <Gold.PLP.part.repulsive>
0.0744

> <Gold.PLP.ligand.clash>
0.0000

> <Gold.PLP.ligand.torsion>
0.5459

> <Gold.PLP.Chemscore.Hbond>
2.8148

> <Gold.PLP.Chemscore.CHOScore>
0.0000

> <Gold.PLP.Chemscore.Metal>
0.0000

> <Gold.Chemscore.Hbonds>
donor molecule, donor type, donor heavy atom, donor atom, acceptor molecule, acceptor atom, score
      L1  H     7    27       P1  8028  0.82
      L1  H    10    28       P1  8028  0.82
      L1  H    13    32       P1  8028  0.41
      P1  H  8011  8017       L1    13  0.35

> <Gold.PLP.Chemscore.Internal.Correction>
0.0153

> <Gold.Rescore>
     Score         DG    S(hbond)    S(metal)    S(lipo)     H(rot)  DE(clash)    DE(int)     intcor
     17.86     -19.76       2.26        0.00     100.14       1.95       0.06       1.83       ----

> <Gold.Chemscore.Fitness>
17.8611

> <Gold.Chemscore.DG>
-19.7555

> <Gold.Chemscore.ZeroCoef>
-5.4800

> <Gold.Chemscore.Hbond>
2.2637

> <Gold.Chemscore.Metal>
0.0000

> <Gold.Chemscore.Lipo>
100.1377

> <Gold.Chemscore.Internal_Hbond>
0.0000

> <Gold.Chemscore.DEClash>
0.0649

> <Gold.Chemscore.DEInternal>
1.8296

> <Gold.Chemscore.Rot>
1.9536

> <Gold.Chemscore.Internal.Correction>
   9.000000E+99

> <Gold.Chemscore.Hbonds>
donor molecule, donor type, donor heavy atom, donor atom, acceptor molecule, acceptor atom, score
      L1  H     7    27       P1  8028  0.17
      L1  H    10    28       P1  8028  0.60
      L1  H    13    32       P1  8028  0.41
      P1  H  8011  8017       L1    13  0.32

> <Gold.Chemscore.Hbond.Weighted>
-7.5607

> <Gold.Chemscore.Metal.Weighted>
-0.0000

> <Gold.Chemscore.Lipo.Weighted>
-11.7161

> <Gold.Chemscore.Internal_Hbond.Weighted>
0.0000

> <Gold.Chemscore.DEClash.Weighted>
0.0649

> <Gold.Chemscore.DEInternal.Weighted>
1.8296

> <Gold.Chemscore.Rot.Weighted>
5.0013

> <Gold.Chemscore.Internal.Correction.Weighted>
   9.000000E+99

> <Gold.Protein.RotatedTorsions>
[ 6907 6896 6895 6894 ] final  151.03 input  -60.11 | X-H torsion
[ 7974 7965 7964 7962 ] final  148.21 input  175.53 | X-H torsion
[ 8008 7997 7996 7995 ] final -133.91 input   59.86 | X-H torsion
[ 10167 10162 10161 10158 ] final  -86.46 input  -65.29 | X-H torsion
[ 10718 10713 10712 10709 ] final  121.62 input   66.30 | X-H torsion
[ 10763 10752 10751 10750 ] final  -65.64 input  -60.55 | X-H torsion
[ 11005 11000 10999 10996 ] final -122.17 input  -57.11 | X-H torsion

> <Gold.Protein.ActiveResidues>
 VAL166  LYS551  ARG553  GLY616  TRP617  ASP618  TYR619  PRO620  LYS621  CYS622 
 ASP623  PHE694  ASN695  SER759  ASP760  ASP761  ALA762  ILE779  LEU786  VAL792 
 PHE793  MET794  SER795  GLU796  ALA797  LYS798  CYS799  TRP800  GLU811  SER814 

> <Gold.Protein.RotatedAtoms>
  152.1063  133.4277  159.4610 H   0  0  0  0  0  0  0  0  0  0  0  0  # atno 6907 bound_to 6896
  150.6865  134.2701  159.4593 H   0  0  0  0  0  0  0  0  0  0  0  0  # atno 6908 bound_to 6896
  152.0565  134.9620  160.0625 H   0  0  0  0  0  0  0  0  0  0  0  0  # atno 6909 bound_to 6896
  144.8531  139.6125  143.5964 H   0  0  0  0  0  0  0  0  0  0  0  0  # atno 7974 bound_to 7965
  155.3534  140.0478  157.3046 H   0  0  0  0  0  0  0  0  0  0  0  0  # atno 8008 bound_to 7997
  154.5215  140.2227  155.8931 H   0  0  0  0  0  0  0  0  0  0  0  0  # atno 8009 bound_to 7997
  156.1695  140.3099  155.8954 H   0  0  0  0  0  0  0  0  0  0  0  0  # atno 8010 bound_to 7997
  140.3939  143.2692  151.9229 H   0  0  0  0  0  0  0  0  0  0  0  0  # atno 10167 bound_to 10162
  157.5804  131.1075  150.8198 H   0  0  0  0  0  0  0  0  0  0  0  0  # atno 10718 bound_to 10713
  154.3480  135.6142  153.5629 H   0  0  0  0  0  0  0  0  0  0  0  0  # atno 10763 bound_to 10752
  152.9800  135.5785  154.4776 H   0  0  0  0  0  0  0  0  0  0  0  0  # atno 10764 bound_to 10752
  154.4492  135.2852  155.1770 H   0  0  0  0  0  0  0  0  0  0  0  0  # atno 10765 bound_to 10752
  141.0016  134.0395  157.3531 H   0  0  0  0  0  0  0  0  0  0  0  0  # atno 11005 bound_to 11000
  146.2801  139.6856  142.9235 LP  0  0  0  0  0  0  0  0  0  0  0  0  # atno 17320 bound_to 7965
  145.4459  141.0425  143.2831 LP  0  0  0  0  0  0  0  0  0  0  0  0  # atno 17321 bound_to 7965
  139.4787  144.5700  151.8103 LP  0  0  0  0  0  0  0  0  0  0  0  0  # atno 17342 bound_to 10162
  140.4811  144.1448  150.5933 LP  0  0  0  0  0  0  0  0  0  0  0  0  # atno 17343 bound_to 10162
  156.8646  130.5125  149.5301 LP  0  0  0  0  0  0  0  0  0  0  0  0  # atno 17370 bound_to 10713
  156.0850  130.5851  150.9631 LP  0  0  0  0  0  0  0  0  0  0  0  0  # atno 17371 bound_to 10713
  139.9041  135.0174  156.7407 LP  0  0  0  0  0  0  0  0  0  0  0  0  # atno 17394 bound_to 11000
  140.6880  133.9415  155.7949 LP  0  0  0  0  0  0  0  0  0  0  0  0  # atno 17395 bound_to 11000

$$$$
