AV-unprocessed.smi:406|AV-procd|sdf|2499|dock3
  -GOLD-   2262022443D 1   1.00000     0.00000
 Structure written by MMmdl.
 35 36  0  0  0  0  0  0  0  0  1 V2000
  151.7623  145.1280  158.9996 C   0  0  0  0  0  0  0  0  0  0  0  0
  151.8367  143.7375  159.6389 C   0  0  0  0  0  0  0  0  0  0  0  0
  151.9572  142.6165  158.5939 C   0  0  0  0  0  0  0  0  0  0  0  0
  152.0516  141.3038  159.2216 N   0  0  0  0  0  0  0  0  0  0  0  0
  152.2716  140.1507  158.5703 C   0  0  0  0  0  0  0  0  0  0  0  0
  152.4153  140.0776  157.3499 O   0  0  0  0  0  0  0  0  0  0  0  0
  152.3437  138.8850  159.4258 C   0  0  0  0  0  0  0  0  0  0  0  0
  151.3643  137.8664  158.9205 C   0  0  0  0  0  0  0  0  0  0  0  0
  151.2210  137.4273  157.6262 C   0  0  0  0  0  0  0  0  0  0  0  0
  149.9622  136.2301  157.4767 S   0  0  0  0  0  0  0  0  0  0  0  0
  149.6562  136.3931  159.1986 C   0  0  0  0  0  0  0  0  0  0  0  0
  148.6835  135.6067  159.8705 N   0  0  0  0  0  0  0  0  0  0  0  0
  148.1668  135.7421  161.1087 C   0  0  0  0  0  0  0  0  0  0  0  0
  148.5414  136.6657  161.8299 O   0  0  0  0  0  0  0  0  0  0  0  0
  147.1373  134.7516  161.5679 C   0  0  0  0  0  0  0  0  0  0  0  0
  146.5912  134.9295  162.9687 C   0  0  0  0  0  0  0  0  0  0  0  0
  147.5133  133.7764  162.6683 C   0  0  0  0  0  0  0  0  0  0  0  0
  150.4791  137.2509  159.8109 N   0  0  0  0  0  0  0  0  0  0  0  0
  151.6803  145.9024  159.7626 H   0  0  0  0  0  0  0  0  0  0  0  0
  150.8954  145.2138  158.3439 H   0  0  0  0  0  0  0  0  0  0  0  0
  152.6537  145.3371  158.4076 H   0  0  0  0  0  0  0  0  0  0  0  0
  152.6890  143.6997  160.3182 H   0  0  0  0  0  0  0  0  0  0  0  0
  150.9477  143.5801  160.2509 H   0  0  0  0  0  0  0  0  0  0  0  0
  151.1117  142.6419  157.9044 H   0  0  0  0  0  0  0  0  0  0  0  0
  152.8532  142.7663  157.9911 H   0  0  0  0  0  0  0  0  0  0  0  0
  151.9456  141.2697  160.2252 H   0  0  0  0  0  0  0  0  0  0  0  0
  153.3582  138.4844  159.4133 H   0  0  0  0  0  0  0  0  0  0  0  0
  152.1302  139.1467  160.4630 H   0  0  0  0  0  0  0  0  0  0  0  0
  151.7797  137.7336  156.7543 H   0  0  0  0  0  0  0  0  0  0  0  0
  148.3498  134.8087  159.3498 H   0  0  0  0  0  0  0  0  0  0  0  0
  146.4589  134.3609  160.8120 H   0  0  0  0  0  0  0  0  0  0  0  0
  146.9869  135.7422  163.5755 H   0  0  0  0  0  0  0  0  0  0  0  0
  145.5335  134.7193  163.1132 H   0  0  0  0  0  0  0  0  0  0  0  0
  147.0803  132.7799  162.6124 H   0  0  0  0  0  0  0  0  0  0  0  0
  148.5142  133.8162  163.0942 H   0  0  0  0  0  0  0  0  0  0  0  0
  1  2  1  0  0  0  0
  1 19  1  0  0  0  0
  1 20  1  0  0  0  0
  1 21  1  0  0  0  0
  2  3  1  0  0  0  0
  2 22  1  0  0  0  0
  2 23  1  0  0  0  0
  3  4  1  0  0  0  0
  3 24  1  0  0  0  0
  3 25  1  0  0  0  0
  4  5  1  0  0  0  0
  4 26  1  0  0  0  0
  5  6  2  0  0  0  0
  5  7  1  0  0  0  0
  7  8  1  0  0  0  0
  7 27  1  0  0  0  0
  7 28  1  0  0  0  0
  8 18  1  0  0  0  0
  8  9  2  0  0  0  0
  9 10  1  0  0  0  0
  9 29  1  0  0  0  0
 10 11  1  0  0  0  0
 11 12  1  0  0  0  0
 11 18  2  0  0  0  0
 12 13  1  0  0  0  0
 12 30  1  0  0  0  0
 13 14  2  0  0  0  0
 13 15  1  0  0  0  0
 15 17  1  0  0  0  0
 15 16  1  0  0  0  0
 15 31  1  0  0  0  0
 16 17  1  0  0  0  0
 16 32  1  0  0  0  0
 16 33  1  0  0  0  0
 17 34  1  0  0  0  0
 17 35  1  0  0  0  0
M  END
> <s_m_source_file>
AV-unprocessed.smi

> <i_m_source_file_index>
406

> <i_lp_mmshare_version>
43012

> <i_f3d_flags>
0

> <s_epik_input>
W0NIM11bQ0gyXVtDSDJdW05IXUMoPU8pW0NIMl1jMVtjSF1zYyhuMSlbTkhdQyg9TylbQ0hdMltDSDJdW0NIMl0y

> <s_epik_cmdline>
J2VwaWtfcHl0aG9uJywgJy1waCcsICc3LjAnLCAnLXRuJywgJzgnLCAnLW1hJywgJzIwMCcsICctbWV0YWxfYmluZGluZycsICctaW1hZScsICc8aW5maWxlLm1hZT4nLCAnLW9tYWUnLCAnPG91dGZpbGUubWFlPic=

> <r_lp_tautomer_probability>
1

> <r_epik_Ionization_Penalty>
0.000156784

> <r_epik_Ionization_Penalty_Charging>
0

> <r_epik_Ionization_Penalty_Neutral>
0.000156784

> <r_epik_State_Penalty>
-0

> <r_epik_Charging_Adjusted_Penalty>
0

> <i_epik_Tot_Q>
0

> <i_epik_Tot_abs_Q>
0

> <r_epik_Metal_State_Penalty>
0.0968639

> <b_epik_Metal_Only>
0

> <s_lp_Force_Field>
OPLS_2005

> <r_lp_Energy>
11.5054

> <b_lp_Chiralities_Consistent>
1

> <s_lp_Variant>
AV-unprocessed.smi:406-1

> <Gold.Version>
5.8.1

> <Gold.Id.Protein>
6NUR|6NUR_protein|mol2

> <Gold.PLP.Fitness>
40.2664

> <Gold.PLP.PLP>
-34.6790

> <Gold.PLP.part.hbond>
-3.2680

> <Gold.PLP.part.metal>
0.0000

> <Gold.PLP.part.buried>
-5.3851

> <Gold.PLP.part.nonpolar>
-27.2951

> <Gold.PLP.part.repulsive>
0.2798

> <Gold.PLP.ligand.clash>
0.0000

> <Gold.PLP.ligand.torsion>
0.2522

> <Gold.PLP.Chemscore.Hbond>
2.0000

> <Gold.PLP.Chemscore.CHOScore>
0.0000

> <Gold.PLP.Chemscore.Metal>
0.0000

> <Gold.Chemscore.Hbonds>
donor molecule, donor type, donor heavy atom, donor atom, acceptor molecule, acceptor atom, score
      P1  H  6931  6943       L1    14  1.00
      P1  H  7997  8008       L1     6  0.88

> <Gold.PLP.Chemscore.Internal.Correction>
0.0919

> <Gold.Rescore>
     Score         DG    S(hbond)    S(metal)    S(lipo)     H(rot)  DE(clash)    DE(int)     intcor
     14.41     -16.05       2.00        0.00      75.00       1.91       0.02       1.61       ----

> <Gold.Chemscore.Fitness>
14.4136

> <Gold.Chemscore.DG>
-16.0491

> <Gold.Chemscore.ZeroCoef>
-5.4800

> <Gold.Chemscore.Hbond>
1.9987

> <Gold.Chemscore.Metal>
0.0000

> <Gold.Chemscore.Lipo>
75.0047

> <Gold.Chemscore.Internal_Hbond>
0.0000

> <Gold.Chemscore.DEClash>
0.0234

> <Gold.Chemscore.DEInternal>
1.6120

> <Gold.Chemscore.Rot>
1.9070

> <Gold.Chemscore.Internal.Correction>
   9.000000E+99

> <Gold.Chemscore.Hbonds>
donor molecule, donor type, donor heavy atom, donor atom, acceptor molecule, acceptor atom, score
      P1  H  6931  6943       L1    14  1.00
      P1  H  7997  8008       L1     6  0.79

> <Gold.Chemscore.Hbond.Weighted>
-6.6755

> <Gold.Chemscore.Metal.Weighted>
-0.0000

> <Gold.Chemscore.Lipo.Weighted>
-8.7755

> <Gold.Chemscore.Internal_Hbond.Weighted>
0.0000

> <Gold.Chemscore.DEClash.Weighted>
0.0234

> <Gold.Chemscore.DEInternal.Weighted>
1.6120

> <Gold.Chemscore.Rot.Weighted>
4.8820

> <Gold.Chemscore.Internal.Correction.Weighted>
   9.000000E+99

> <Gold.Protein.RotatedTorsions>
[ 6907 6896 6895 6894 ] final  112.49 input  -60.11 | X-H torsion
[ 7974 7965 7964 7962 ] final  153.51 input  175.53 | X-H torsion
[ 8008 7997 7996 7995 ] final  -58.78 input   59.86 | X-H torsion
[ 10167 10162 10161 10158 ] final  -11.76 input  -65.29 | X-H torsion
[ 10718 10713 10712 10709 ] final  -96.61 input   66.30 | X-H torsion
[ 10763 10752 10751 10750 ] final  -86.87 input  -60.55 | X-H torsion
[ 11005 11000 10999 10996 ] final  -91.36 input  -57.11 | X-H torsion

> <Gold.Protein.ActiveResidues>
 VAL166  LYS551  ARG553  GLY616  TRP617  ASP618  TYR619  PRO620  LYS621  CYS622 
 ASP623  PHE694  ASN695  SER759  ASP760  ASP761  ALA762  ILE779  LEU786  VAL792 
 PHE793  MET794  SER795  GLU796  ALA797  LYS798  CYS799  TRP800  GLU811  SER814 

> <Gold.Protein.RotatedAtoms>
  152.4913  133.8508  159.7200 H   0  0  0  0  0  0  0  0  0  0  0  0  # atno 6907 bound_to 6896
  150.9046  133.7065  159.2877 H   0  0  0  0  0  0  0  0  0  0  0  0  # atno 6908 bound_to 6896
  151.4495  135.1032  159.9746 H   0  0  0  0  0  0  0  0  0  0  0  0  # atno 6909 bound_to 6896
  144.8150  139.6810  143.6125 H   0  0  0  0  0  0  0  0  0  0  0  0  # atno 7974 bound_to 7965
  154.4323  140.1076  156.6011 H   0  0  0  0  0  0  0  0  0  0  0  0  # atno 8008 bound_to 7997
  155.5909  140.3492  155.4547 H   0  0  0  0  0  0  0  0  0  0  0  0  # atno 8009 bound_to 7997
  156.0247  140.1247  157.0311 H   0  0  0  0  0  0  0  0  0  0  0  0  # atno 8010 bound_to 7997
  140.7146  143.5605  150.9201 H   0  0  0  0  0  0  0  0  0  0  0  0  # atno 10167 bound_to 10162
  156.0066  130.5158  150.6251 H   0  0  0  0  0  0  0  0  0  0  0  0  # atno 10718 bound_to 10713
  154.6273  135.5434  153.7641 H   0  0  0  0  0  0  0  0  0  0  0  0  # atno 10763 bound_to 10752
  153.0267  135.6427  154.1353 H   0  0  0  0  0  0  0  0  0  0  0  0  # atno 10764 bound_to 10752
  154.1285  135.2916  155.3171 H   0  0  0  0  0  0  0  0  0  0  0  0  # atno 10765 bound_to 10752
  141.1546  133.7750  156.9868 H   0  0  0  0  0  0  0  0  0  0  0  0  # atno 11005 bound_to 11000
  146.2452  139.6084  142.9464 LP  0  0  0  0  0  0  0  0  0  0  0  0  # atno 17320 bound_to 7965
  145.5236  141.0431  143.2422 LP  0  0  0  0  0  0  0  0  0  0  0  0  # atno 17321 bound_to 7965
  139.9330  143.6471  152.3072 LP  0  0  0  0  0  0  0  0  0  0  0  0  # atno 17342 bound_to 10162
  139.6928  144.7645  151.1408 LP  0  0  0  0  0  0  0  0  0  0  0  0  # atno 17343 bound_to 10162
  157.4059  131.0816  151.1266 LP  0  0  0  0  0  0  0  0  0  0  0  0  # atno 17370 bound_to 10713
  157.1912  130.6353  149.5705 LP  0  0  0  0  0  0  0  0  0  0  0  0  # atno 17371 bound_to 10713
  140.1029  134.9524  157.1951 LP  0  0  0  0  0  0  0  0  0  0  0  0  # atno 17394 bound_to 11000
  140.3294  134.2827  155.7231 LP  0  0  0  0  0  0  0  0  0  0  0  0  # atno 17395 bound_to 11000

$$$$
