#       Name:                AV-unprocessed.smi:2178
#       Creating user name   scv26
#       Creation time:       Fri Mar 27 12:05:06 2020


#       File generated by GOLD software.
#

@<TRIPOS>MOLECULE
AV-unprocessed.smi:2178
    53    55     1
SMALL
NO_CHARGES


@<TRIPOS>ATOM
      1 ****        -3.0676   0.6314  -3.0161 C.3            1 S1                 0.0000
      2 ****        -3.7967   0.6374  -1.6854 C.ar           1 S1                 0.0000
      3 ****        -5.1993   0.7806  -1.6638 C.ar           1 S1                 0.0000
      4 ****        -5.8912   0.8014  -0.4387 C.ar           1 S1                 0.0000
      5 ****        -5.1831   0.6849   0.7716 C.ar           1 S1                 0.0000
      6 ****        -3.7803   0.5413   0.7624 C.ar           1 S1                 0.0000
      7 ****        -3.0294   0.4286   2.0764 C.3            1 S1                 0.0000
      8 ****        -3.0854   0.5027  -0.4695 C.ar           1 S1                 0.0000
      9 ****        -1.7219   0.3638  -0.4795 O.3            1 S1                 0.0000
     10 ****        -1.2855  -0.9852  -0.5741 C.3            1 S1                 0.0000
     11 ****         0.2466  -1.0480  -0.4793 C.3            1 S1                 0.0000
     12 ****         0.8066  -0.6528  -1.7156 O.3            1 S1                 0.0000
     13 ****         0.8227  -0.2366   0.6992 C.3            1 S1                 0.0000
     14 ****         2.2864  -0.3487   0.8079 N.pl3          1 S1                 0.0000
     15 ****         3.0536  -1.2940   1.4244 C.2            1 S1                 0.0000
     16 ****         2.5745  -2.4998   2.1634 C.3            1 S1                 0.0000
     17 ****         2.3048  -3.5835   1.3022 O.3            1 S1                 0.0000
     18 ****         4.3567  -0.9444   1.2324 N.pl3          1 S1                 1.0000
     19 ****         4.4261   0.2343   0.4892 C.ar           1 S1                 0.0000
     20 ****         5.5220   0.9696   0.0482 C.ar           1 S1                 0.0000
     21 ****         5.2444   2.1335  -0.6983 C.ar           1 S1                 0.0000
     22 ****         3.9199   2.5249  -0.9818 C.ar           1 S1                 0.0000
     23 ****         2.8169   1.7709  -0.5300 C.ar           1 S1                 0.0000
     24 ****         3.0995   0.6231   0.2110 C.ar           1 S1                 0.0000
     25 ****        -3.6644   1.1125  -3.7917 H              1 S1                 0.0000
     26 ****        -2.8630  -0.3921  -3.3300 H              1 S1                 0.0000
     27 ****        -2.1204   1.1668  -2.9450 H              1 S1                 0.0000
     28 ****        -5.7497   0.8776  -2.5882 H              1 S1                 0.0000
     29 ****        -6.9655   0.9124  -0.4276 H              1 S1                 0.0000
     30 ****        -5.7216   0.7081   1.7077 H              1 S1                 0.0000
     31 ****        -2.1090   1.0126   2.0478 H              1 S1                 0.0000
     32 ****        -2.7714  -0.6113   2.2770 H              1 S1                 0.0000
     33 ****        -3.6322   0.7966   2.9072 H              1 S1                 0.0000
     34 ****        -1.7149  -1.5594   0.2482 H              1 S1                 0.0000
     35 ****        -1.6353  -1.4490  -1.4975 H              1 S1                 0.0000
     36 ****         0.5246  -2.0940  -0.3477 H              1 S1                 0.0000
     37 ****         1.7394  -0.7992  -1.6808 H              1 S1                 0.0000
     38 ****         0.5514   0.8168   0.6307 H              1 S1                 0.0000
     39 ****         0.3944  -0.5920   1.6366 H              1 S1                 0.0000
     40 ****         3.3293  -2.8032   2.8895 H              1 S1                 0.0000
     41 ****         1.6733  -2.2542   2.7249 H              1 S1                 0.0000
     42 ****         1.9983  -4.3119   1.8209 H              1 S1                 0.0000
     43 ****         6.5377   0.6705   0.2618 H              1 S1                 0.0000
     44 ****         6.0634   2.7370  -1.0619 H              1 S1                 0.0000
     45 ****         3.7451   3.4213  -1.5591 H              1 S1                 0.0000
     46 ****         1.8073   2.0785  -0.7598 H              1 S1                 0.0000
     47 ****         5.1408  -1.4796   1.5829 H              1 S1                 0.0000
     48 ****        -1.3586   0.7545   0.3662 LP             1 S1                 0.0000
     49 ****        -1.3589   0.8686  -1.2627 LP             1 S1                 0.0000
     50 ****         0.6227   0.3171  -1.8751 LP             1 S1                 0.0000
     51 ****         0.4072  -1.1939  -2.4557 LP             1 S1                 0.0000
     52 ****         3.1393  -3.8434   0.8163 LP             1 S1                 0.0000
     53 ****         1.6020  -3.3215   0.6409 LP             1 S1                 0.0000
@<TRIPOS>BOND
    1    1    2 1     
    2    1   25 1     
    3    1   26 1     
    4    1   27 1     
    5    2    8 ar    
    6    2    3 ar    
    7    3    4 ar    
    8    3   28 1     
    9    4    5 ar    
   10    4   29 1     
   11    5    6 ar    
   12    5   30 1     
   13    6    7 1     
   14    6    8 ar    
   15    7   31 1     
   16    7   32 1     
   17    7   33 1     
   18    8    9 1     
   19    9   10 1     
   20   10   11 1     
   21   10   34 1     
   22   10   35 1     
   23   11   12 1     
   24   11   13 1     
   25   11   36 1     
   26   12   37 1     
   27   13   14 1     
   28   13   38 1     
   29   13   39 1     
   30   14   24 1     
   31   14   15 1     
   32   15   16 1     
   33   15   18 2     
   34   16   17 1     
   35   16   40 1     
   36   16   41 1     
   37   17   42 1     
   38   18   19 1     
   39   18   47 1     
   40   19   24 ar    
   41   19   20 ar    
   42   20   21 ar    
   43   20   43 1     
   44   21   22 ar    
   45   21   44 1     
   46   22   23 ar    
   47   22   45 1     
   48   23   24 ar    
   49   23   46 1     
   50    9   48 1     
   51    9   49 1     
   52   12   50 1     
   53   12   51 1     
   54   17   52 1     
   55   17   53 1     
@<TRIPOS>SUBSTRUCTURE
      1 S1             1
@<TRIPOS>SET
LONE_PAIRS      STATIC     ATOMS    <user>   **** ""
6 48 49 50 51 52 53
DONOR_HYDROGENS      STATIC     ATOMS    <user>   **** ""
3 37 42 47
ATOM$BLUE        STATIC     ATOMS    COLORGROUP SYSTEM
6 48 49 50 51 52 53
ATOM$RED        STATIC     ATOMS    COLORGROUP SYSTEM
3 37 42 47
