AV-unprocessed.smi:2768|AV-procd|sdf|10651|dock1
  -GOLD-   2272015103D 1   1.00000     0.00000
 Structure written by MMmdl.
 35 36  0  0  0  0  0  0  0  0  1 V2000
  152.5346  139.9547  155.1624 O   0  0  0  0  0  0  0  0  0  0  0  0
  151.3990  139.8976  155.6354 C   0  0  0  0  0  0  0  0  0  0  0  0
  150.9959  140.6501  156.6727 N   0  0  0  0  0  0  0  0  0  0  0  0
  151.8262  141.5931  157.4189 C   0  0  1  0  0  0  0  0  0  0  0  0
  151.2576  143.0075  157.1780 C   0  0  0  0  0  0  0  0  0  0  0  0
  151.9363  144.0696  158.0543 C   0  0  0  0  0  0  0  0  0  0  0  0
  151.8295  143.7008  159.5389 C   0  0  0  0  0  0  0  0  0  0  0  0
  152.4523  142.3230  159.7966 C   0  0  0  0  0  0  0  0  0  0  0  0
  151.8091  141.2275  158.9245 C   0  0  2  0  0  0  0  0  0  0  0  0
  152.5477  140.0412  159.1395 O   0  0  0  0  0  0  0  0  0  0  0  0
  150.3671  138.9148  155.0626 C   0  0  0  0  0  0  0  0  0  0  0  0
  150.9444  138.2181  154.0810 F   0  0  0  0  0  0  0  0  0  0  0  0
  149.9987  138.0543  156.0146 F   0  0  0  0  0  0  0  0  0  0  0  0
  149.1440  139.6716  154.5489 C   0  0  0  0  0  0  0  0  0  0  0  0
  148.0862  138.9969  153.8967 C   0  0  0  0  0  0  0  0  0  0  0  0
  146.9926  139.7495  153.4270 C   0  0  0  0  0  0  0  0  0  0  0  0
  146.9935  141.1434  153.6222 C   0  0  0  0  0  0  0  0  0  0  0  0
  148.0933  141.7258  154.2818 C   0  0  0  0  0  0  0  0  0  0  0  0
  149.1465  141.0135  154.7353 N   0  0  0  0  0  0  0  0  0  0  0  0
  152.8557  141.5796  157.0550 H   0  0  0  0  0  0  0  0  0  0  0  0
  150.7819  141.0648  159.2548 H   0  0  0  0  0  0  0  0  0  0  0  0
  150.0445  140.5364  156.9918 H   0  0  0  0  0  0  0  0  0  0  0  0
  151.3661  143.2770  156.1267 H   0  0  0  0  0  0  0  0  0  0  0  0
  150.1866  143.0144  157.3866 H   0  0  0  0  0  0  0  0  0  0  0  0
  152.9855  144.1653  157.7718 H   0  0  0  0  0  0  0  0  0  0  0  0
  151.4781  145.0433  157.8793 H   0  0  0  0  0  0  0  0  0  0  0  0
  152.3302  144.4548  160.1468 H   0  0  0  0  0  0  0  0  0  0  0  0
  150.7830  143.6973  159.8462 H   0  0  0  0  0  0  0  0  0  0  0  0
  153.5228  142.3755  159.5913 H   0  0  0  0  0  0  0  0  0  0  0  0
  152.3540  142.0659  160.8520 H   0  0  0  0  0  0  0  0  0  0  0  0
  152.8941  140.0580  160.0189 H   0  0  0  0  0  0  0  0  0  0  0  0
  148.1080  137.9271  153.7518 H   0  0  0  0  0  0  0  0  0  0  0  0
  146.1683  139.2662  152.9238 H   0  0  0  0  0  0  0  0  0  0  0  0
  146.1721  141.7524  153.2745 H   0  0  0  0  0  0  0  0  0  0  0  0
  148.1285  142.7922  154.4484 H   0  0  0  0  0  0  0  0  0  0  0  0
  1  2  2  0  0  0  0
  2  3  1  0  0  0  0
  2 11  1  0  0  0  0
  3  4  1  0  0  0  0
  3 22  1  0  0  0  0
  4 20  1  0  0  0  0
  4  9  1  0  0  0  0
  4  5  1  0  0  0  0
  5  6  1  0  0  0  0
  5 23  1  0  0  0  0
  5 24  1  0  0  0  0
  6  7  1  0  0  0  0
  6 25  1  0  0  0  0
  6 26  1  0  0  0  0
  7  8  1  0  0  0  0
  7 27  1  0  0  0  0
  7 28  1  0  0  0  0
  8  9  1  0  0  0  0
  8 29  1  0  0  0  0
  8 30  1  0  0  0  0
  9 21  1  0  0  0  0
  9 10  1  0  0  0  0
 10 31  1  0  0  0  0
 11 12  1  0  0  0  0
 11 13  1  0  0  0  0
 11 14  1  0  0  0  0
 14 19  1  0  0  0  0
 14 15  2  0  0  0  0
 15 16  1  0  0  0  0
 15 32  1  0  0  0  0
 16 17  2  0  0  0  0
 16 33  1  0  0  0  0
 17 18  1  0  0  0  0
 17 34  1  0  0  0  0
 18 19  2  0  0  0  0
 18 35  1  0  0  0  0
M  END
> <s_m_source_file>
AV-unprocessed.smi

> <i_m_source_file_index>
2768

> <i_lp_mmshare_version>
43012

> <i_f3d_flags>
0

> <s_epik_input>
bjFbY0hdW2NIXVtjSF1bY0hdYzFDKEYpKEYpQyg9TylbTkhdW0NAQEhdMltDSDJdW0NIMl1bQ0gyXVtDSDJdW0NASF0yW09IXQ==

> <s_epik_cmdline>
J2VwaWtfcHl0aG9uJywgJy1waCcsICc3LjAnLCAnLXRuJywgJzgnLCAnLW1hJywgJzIwMCcsICctbWV0YWxfYmluZGluZycsICctaW1hZScsICc8aW5maWxlLm1hZT4nLCAnLW9tYWUnLCAnPG91dGZpbGUubWFlPic=

> <r_lp_tautomer_probability>
1

> <r_epik_Ionization_Penalty>
4.19456e-05

> <r_epik_Ionization_Penalty_Charging>
0

> <r_epik_Ionization_Penalty_Neutral>
4.19456e-05

> <r_epik_State_Penalty>
-0

> <r_epik_Charging_Adjusted_Penalty>
0

> <i_epik_Tot_Q>
0

> <i_epik_Tot_abs_Q>
0

> <r_epik_Metal_State_Penalty>
0.0354684

> <b_epik_Metal_Only>
0

> <s_lp_Force_Field>
OPLS_2005

> <r_lp_Energy>
17.5256

> <b_lp_Chiralities_Consistent>
1

> <s_lp_Variant>
AV-unprocessed.smi:2768-4

> <Gold.Version>
5.8.1

> <Gold.Id.Protein>
6NUR|6NUR_protein|mol2

> <Gold.PLP.Fitness>
46.4392

> <Gold.PLP.PLP>
-40.2331

> <Gold.PLP.part.hbond>
-2.0000

> <Gold.PLP.part.metal>
0.0000

> <Gold.PLP.part.buried>
-4.2704

> <Gold.PLP.part.nonpolar>
-32.5483

> <Gold.PLP.part.repulsive>
0.2278

> <Gold.PLP.ligand.clash>
0.0000

> <Gold.PLP.ligand.torsion>
0.0622

> <Gold.PLP.Chemscore.Hbond>
1.1058

> <Gold.PLP.Chemscore.CHOScore>
1.0000

> <Gold.PLP.Chemscore.Metal>
0.0000

> <Gold.Chemscore.Hbonds>
donor molecule, donor type, donor heavy atom, donor atom, acceptor molecule, acceptor atom, score
      P1  H  7989  7998       L1     1  0.18
      P1  H  7997  8009       L1     1  0.94
      L1  C    18    35       P1  8028  1.00

> <Gold.PLP.Chemscore.Internal.Correction>
0.0129

> <Gold.Rescore>
     Score         DG    S(hbond)    S(metal)    S(lipo)     H(rot)  DE(clash)    DE(int)     intcor
     13.80     -15.37       1.00        0.00      99.77       2.00       0.09       1.48       ----

> <Gold.Chemscore.Fitness>
13.8039

> <Gold.Chemscore.DG>
-15.3735

> <Gold.Chemscore.ZeroCoef>
-5.4800

> <Gold.Chemscore.Hbond>
0.9977

> <Gold.Chemscore.Metal>
0.0000

> <Gold.Chemscore.Lipo>
99.7723

> <Gold.Chemscore.Internal_Hbond>
0.0000

> <Gold.Chemscore.DEClash>
0.0871

> <Gold.Chemscore.DEInternal>
1.4824

> <Gold.Chemscore.Rot>
1.9969

> <Gold.Chemscore.Internal.Correction>
   9.000000E+99

> <Gold.Chemscore.Hbonds>
donor molecule, donor type, donor heavy atom, donor atom, acceptor molecule, acceptor atom, score
      P1  H  7997  8009       L1     1  0.90

> <Gold.Chemscore.Hbond.Weighted>
-3.3323

> <Gold.Chemscore.Metal.Weighted>
-0.0000

> <Gold.Chemscore.Lipo.Weighted>
-11.6734

> <Gold.Chemscore.Internal_Hbond.Weighted>
0.0000

> <Gold.Chemscore.DEClash.Weighted>
0.0871

> <Gold.Chemscore.DEInternal.Weighted>
1.4824

> <Gold.Chemscore.Rot.Weighted>
5.1122

> <Gold.Chemscore.Internal.Correction.Weighted>
   9.000000E+99

> <Gold.Protein.RotatedTorsions>
[ 6907 6896 6895 6894 ] final  -77.95 input  -60.11 | X-H torsion
[ 7974 7965 7964 7962 ] final   20.58 input  175.53 | X-H torsion
[ 8008 7997 7996 7995 ] final -142.00 input   59.86 | X-H torsion
[ 10167 10162 10161 10158 ] final  -29.78 input  -65.29 | X-H torsion
[ 10718 10713 10712 10709 ] final  161.49 input   66.30 | X-H torsion
[ 10763 10752 10751 10750 ] final  113.61 input  -60.55 | X-H torsion
[ 11005 11000 10999 10996 ] final -164.21 input  -57.11 | X-H torsion

> <Gold.Protein.ActiveResidues>
 VAL166  LYS551  ARG553  GLY616  TRP617  ASP618  TYR619  PRO620  LYS621  CYS622 
 ASP623  PHE694  ASN695  SER759  ASP760  ASP761  ALA762  ILE779  LEU786  VAL792 
 PHE793  MET794  SER795  GLU796  ALA797  LYS798  CYS799  TRP800  GLU811  SER814 

> <Gold.Protein.RotatedAtoms>
  150.6985  134.4345  159.5263 H   0  0  0  0  0  0  0  0  0  0  0  0  # atno 6907 bound_to 6896
  152.2066  134.8537  160.0511 H   0  0  0  0  0  0  0  0  0  0  0  0  # atno 6908 bound_to 6896
  151.9438  133.3610  159.4011 H   0  0  0  0  0  0  0  0  0  0  0  0  # atno 6909 bound_to 6896
  146.2106  139.8149  142.8692 H   0  0  0  0  0  0  0  0  0  0  0  0  # atno 7974 bound_to 7965
  155.4870  140.0565  157.2959 H   0  0  0  0  0  0  0  0  0  0  0  0  # atno 8008 bound_to 7997
  154.4638  140.2009  156.0125 H   0  0  0  0  0  0  0  0  0  0  0  0  # atno 8009 bound_to 7997
  156.0938  140.3229  155.7855 H   0  0  0  0  0  0  0  0  0  0  0  0  # atno 8010 bound_to 7997
  140.7257  143.3901  151.1446 H   0  0  0  0  0  0  0  0  0  0  0  0  # atno 10167 bound_to 10162
  157.1358  131.0528  151.2350 H   0  0  0  0  0  0  0  0  0  0  0  0  # atno 10718 bound_to 10713
  153.4950  135.3650  155.2511 H   0  0  0  0  0  0  0  0  0  0  0  0  # atno 10763 bound_to 10752
  154.8750  135.3986  154.3544 H   0  0  0  0  0  0  0  0  0  0  0  0  # atno 10764 bound_to 10752
  153.4170  135.7079  153.6386 H   0  0  0  0  0  0  0  0  0  0  0  0  # atno 10765 bound_to 10752
  140.5894  134.5060  157.5190 H   0  0  0  0  0  0  0  0  0  0  0  0  # atno 11005 bound_to 11000
  145.3157  141.0231  143.3529 LP  0  0  0  0  0  0  0  0  0  0  0  0  # atno 17320 bound_to 7965
  144.8903  139.4783  143.6681 LP  0  0  0  0  0  0  0  0  0  0  0  0  # atno 17321 bound_to 7965
  139.7504  143.8787  152.3075 LP  0  0  0  0  0  0  0  0  0  0  0  0  # atno 17342 bound_to 10162
  139.8639  144.7103  150.9067 LP  0  0  0  0  0  0  0  0  0  0  0  0  # atno 17343 bound_to 10162
  157.4351  130.7512  149.7022 LP  0  0  0  0  0  0  0  0  0  0  0  0  # atno 17370 bound_to 10713
  155.9798  130.4036  150.3563 LP  0  0  0  0  0  0  0  0  0  0  0  0  # atno 17371 bound_to 10713
  139.9281  134.8017  156.1010 LP  0  0  0  0  0  0  0  0  0  0  0  0  # atno 17394 bound_to 11000
  141.0945  133.6701  156.2613 LP  0  0  0  0  0  0  0  0  0  0  0  0  # atno 17395 bound_to 11000

$$$$
