AV-unprocessed.smi:211|AV-procd|sdf|1616|dock9
  -GOLD-   2262019543D 1   1.00000     0.00000
 Structure written by MMmdl.
 59 62  0  0  0  0  0  0  0  0  1 V2000
  151.8767  145.6464  160.0955 C   0  0  0  0  0  0  0  0  0  0  0  0
  151.9782  144.1533  160.3870 C   0  0  0  0  0  0  0  0  0  0  0  0
  151.0662  143.5764  160.9782 O   0  0  0  0  0  0  0  0  0  0  0  0
  153.0970  143.5436  159.9663 N   0  0  0  0  0  0  0  0  0  0  0  0
  153.4223  142.1304  160.1577 C   0  0  1  0  0  0  0  0  0  0  0  0
  153.6300  141.8705  161.6618 C   0  0  0  0  0  0  0  0  0  0  0  0
  152.3199  141.2402  159.5251 C   0  0  0  0  0  0  0  0  0  0  0  0
  152.8325  139.8299  159.1550 C   0  0  0  0  0  0  0  0  0  0  0  0
  151.7312  138.9734  158.5092 C   0  0  0  0  0  0  0  0  0  0  0  0
  151.1457  139.6515  157.3530 N   0  0  0  0  0  0  0  0  0  0  0  0
  150.3717  138.9118  156.5178 C   0  0  0  0  0  0  0  0  0  0  0  0
  150.0798  139.3763  155.2729 N   0  0  0  0  0  0  0  0  0  0  0  0
  149.3352  138.6471  154.4366 C   0  0  0  0  0  0  0  0  0  0  0  0
  148.7858  137.4484  154.6385 N   0  0  0  0  0  0  0  0  0  0  0  0
  149.0637  136.9813  155.8893 C   0  0  0  0  0  0  0  0  0  0  0  0
  149.8446  137.6400  156.8810 C   0  0  0  0  0  0  0  0  0  0  0  0
  149.9119  136.8548  158.0262 N   0  0  0  0  0  0  0  0  0  0  0  0
  149.2267  135.7866  157.7219 C   0  0  0  0  0  0  0  0  0  0  0  0
  148.6594  135.7909  156.4677 N   0  0  0  0  0  0  0  0  0  0  0  0
  147.8988  134.7373  155.8629 C   0  0  0  0  0  0  0  0  0  0  0  0
  148.5349  133.3809  155.5494 C   0  0  0  0  0  0  0  0  0  0  0  0
  147.5998  133.2348  154.3288 C   0  0  0  0  0  0  0  0  0  0  0  0
  148.2550  132.6496  153.0667 C   0  0  0  0  0  0  0  0  0  0  0  0
  147.3317  132.5673  151.9998 O   0  0  0  0  0  0  0  0  0  0  0  0
  146.2763  132.4918  154.6037 C   0  0  0  0  0  0  0  0  0  0  0  0
  145.3471  132.6886  153.5573 O   0  0  0  0  0  0  0  0  0  0  0  0
  147.5144  134.7775  154.3820 C   0  0  0  0  0  0  0  0  0  0  0  0
  150.6217  140.9859  157.6339 C   0  0  0  0  0  0  0  0  0  0  0  0
  151.7025  141.8813  158.2592 C   0  0  0  0  0  0  0  0  0  0  0  0
  151.9901  145.8368  159.0279 H   0  0  0  0  0  0  0  0  0  0  0  0
  152.6562  146.1908  160.6293 H   0  0  0  0  0  0  0  0  0  0  0  0
  150.9092  146.0387  160.4111 H   0  0  0  0  0  0  0  0  0  0  0  0
  153.7848  144.1047  159.4850 H   0  0  0  0  0  0  0  0  0  0  0  0
  154.3604  141.9128  159.6434 H   0  0  0  0  0  0  0  0  0  0  0  0
  154.0158  140.8692  161.8500 H   0  0  0  0  0  0  0  0  0  0  0  0
  152.6978  141.9816  162.2169 H   0  0  0  0  0  0  0  0  0  0  0  0
  154.3529  142.5682  162.0863 H   0  0  0  0  0  0  0  0  0  0  0  0
  151.5221  141.1220  160.2603 H   0  0  0  0  0  0  0  0  0  0  0  0
  153.6772  139.9129  158.4698 H   0  0  0  0  0  0  0  0  0  0  0  0
  153.1984  139.3064  160.0375 H   0  0  0  0  0  0  0  0  0  0  0  0
  152.1522  138.0139  158.2050 H   0  0  0  0  0  0  0  0  0  0  0  0
  150.9484  138.7650  159.2401 H   0  0  0  0  0  0  0  0  0  0  0  0
  149.1542  139.0871  153.4669 H   0  0  0  0  0  0  0  0  0  0  0  0
  149.1124  134.9634  158.4124 H   0  0  0  0  0  0  0  0  0  0  0  0
  147.0129  134.6128  156.4876 H   0  0  0  0  0  0  0  0  0  0  0  0
  149.5876  133.4685  155.2728 H   0  0  0  0  0  0  0  0  0  0  0  0
  148.3976  132.6273  156.3253 H   0  0  0  0  0  0  0  0  0  0  0  0
  149.1132  133.2414  152.7480 H   0  0  0  0  0  0  0  0  0  0  0  0
  148.6323  131.6445  153.2575 H   0  0  0  0  0  0  0  0  0  0  0  0
  147.6822  131.9843  151.3437 H   0  0  0  0  0  0  0  0  0  0  0  0
  146.4386  131.4215  154.7329 H   0  0  0  0  0  0  0  0  0  0  0  0
  145.8133  132.8382  155.5276 H   0  0  0  0  0  0  0  0  0  0  0  0
  144.4979  132.3963  153.8518 H   0  0  0  0  0  0  0  0  0  0  0  0
  146.5264  135.1947  154.1853 H   0  0  0  0  0  0  0  0  0  0  0  0
  148.2722  135.2667  153.7668 H   0  0  0  0  0  0  0  0  0  0  0  0
  150.2410  141.4632  156.7314 H   0  0  0  0  0  0  0  0  0  0  0  0
  149.7761  140.8934  158.3170 H   0  0  0  0  0  0  0  0  0  0  0  0
  151.2575  142.8492  158.4896 H   0  0  0  0  0  0  0  0  0  0  0  0
  152.4858  142.0702  157.5237 H   0  0  0  0  0  0  0  0  0  0  0  0
  1  2  1  0  0  0  0
  1 30  1  0  0  0  0
  1 31  1  0  0  0  0
  1 32  1  0  0  0  0
  2  3  2  0  0  0  0
  2  4  1  0  0  0  0
  4  5  1  0  0  0  0
  4 33  1  0  0  0  0
  5  6  1  0  0  0  0
  5  7  1  0  0  0  0
  5 34  1  0  0  0  0
  6 35  1  0  0  0  0
  6 36  1  0  0  0  0
  6 37  1  0  0  0  0
  7 29  1  0  0  0  0
  7  8  1  0  0  0  0
  7 38  1  0  0  0  0
  8  9  1  0  0  0  0
  8 39  1  0  0  0  0
  8 40  1  0  0  0  0
  9 10  1  0  0  0  0
  9 41  1  0  0  0  0
  9 42  1  0  0  0  0
 10 11  1  0  0  0  0
 10 28  1  0  0  0  0
 11 16  1  0  0  0  0
 11 12  2  0  0  0  0
 12 13  1  0  0  0  0
 13 14  2  0  0  0  0
 13 43  1  0  0  0  0
 14 15  1  0  0  0  0
 15 19  1  0  0  0  0
 15 16  2  0  0  0  0
 16 17  1  0  0  0  0
 17 18  2  0  0  0  0
 18 19  1  0  0  0  0
 18 44  1  0  0  0  0
 19 20  1  0  0  0  0
 20 27  1  0  0  0  0
 20 21  1  0  0  0  0
 20 45  1  0  0  0  0
 21 22  1  0  0  0  0
 21 46  1  0  0  0  0
 21 47  1  0  0  0  0
 22 23  1  0  0  0  0
 22 25  1  0  0  0  0
 22 27  1  0  0  0  0
 23 24  1  0  0  0  0
 23 48  1  0  0  0  0
 23 49  1  0  0  0  0
 24 50  1  0  0  0  0
 25 26  1  0  0  0  0
 25 51  1  0  0  0  0
 25 52  1  0  0  0  0
 26 53  1  0  0  0  0
 27 54  1  0  0  0  0
 27 55  1  0  0  0  0
 28 29  1  0  0  0  0
 28 56  1  0  0  0  0
 28 57  1  0  0  0  0
 29 58  1  0  0  0  0
 29 59  1  0  0  0  0
M  END
> <s_m_source_file>
AV-unprocessed.smi

> <i_m_source_file_index>
211

> <i_lp_mmshare_version>
43012

> <i_f3d_flags>
0

> <s_epik_input>
W0NIM11DKD1PKVtOSF1bQ0BIXShbQ0gzXSlbQ0hdMVtDSDJdW0NIMl1OKFtDSDJdW0NIMl0xKWMobltjSF1uMiljKGMyMyluW2NIXW4zW0NIXShbQ0gyXTQpW0NIMl1DNChbQ0gyXVtPSF0pW0NIMl1bT0hd

> <s_epik_cmdline>
J2VwaWtfcHl0aG9uJywgJy1waCcsICc3LjAnLCAnLXRuJywgJzgnLCAnLW1hJywgJzIwMCcsICctbWV0YWxfYmluZGluZycsICctaW1hZScsICc8aW5maWxlLm1hZT4nLCAnLW9tYWUnLCAnPG91dGZpbGUubWFlPic=

> <r_lp_tautomer_probability>
1

> <r_epik_Ionization_Penalty>
0.00335435

> <r_epik_Ionization_Penalty_Charging>
0

> <r_epik_Ionization_Penalty_Neutral>
0.00335435

> <r_epik_State_Penalty>
0.00231338

> <r_epik_Charging_Adjusted_Penalty>
0.00231338

> <i_epik_Tot_Q>
0

> <i_epik_Tot_abs_Q>
0

> <r_epik_Metal_State_Penalty>
-0

> <b_epik_Metal_Only>
0

> <s_lp_Force_Field>
OPLS_2005

> <r_lp_Energy>
40.8238

> <b_lp_Chiralities_Consistent>
1

> <s_lp_Variant>
AV-unprocessed.smi:211-2

> <Gold.Version>
5.8.1

> <Gold.Id.Protein>
6NUR|6NUR_protein|mol2

> <Gold.PLP.Fitness>
45.5877

> <Gold.PLP.PLP>
-38.6197

> <Gold.PLP.part.hbond>
-2.8789

> <Gold.PLP.part.metal>
0.0000

> <Gold.PLP.part.buried>
-7.5478

> <Gold.PLP.part.nonpolar>
-29.7966

> <Gold.PLP.part.repulsive>
1.0131

> <Gold.PLP.ligand.clash>
0.0000

> <Gold.PLP.ligand.torsion>
1.0996

> <Gold.PLP.Chemscore.Hbond>
1.7597

> <Gold.PLP.Chemscore.CHOScore>
1.0000

> <Gold.PLP.Chemscore.Metal>
0.0000

> <Gold.Chemscore.Hbonds>
donor molecule, donor type, donor heavy atom, donor atom, acceptor molecule, acceptor atom, score
      L1  H    24    50       P1 10747  1.00
      L1  H    26    53       P1 10957  0.75
      P1  H  6933  6945       L1     3  0.01
      L1  C    13    43       P1  7957  1.00

> <Gold.PLP.Chemscore.Internal.Correction>
0.8882

> <Gold.Rescore>
     Score         DG    S(hbond)    S(metal)    S(lipo)     H(rot)  DE(clash)    DE(int)     intcor
      5.97     -10.41       1.37        0.00      88.66       3.92       0.08       4.36       ----

> <Gold.Chemscore.Fitness>
5.9686

> <Gold.Chemscore.DG>
-10.4079

> <Gold.Chemscore.ZeroCoef>
-5.4800

> <Gold.Chemscore.Hbond>
1.3706

> <Gold.Chemscore.Metal>
0.0000

> <Gold.Chemscore.Lipo>
88.6637

> <Gold.Chemscore.Internal_Hbond>
0.0000

> <Gold.Chemscore.DEClash>
0.0778

> <Gold.Chemscore.DEInternal>
4.3616

> <Gold.Chemscore.Rot>
3.9155

> <Gold.Chemscore.Internal.Correction>
   9.000000E+99

> <Gold.Chemscore.Hbonds>
donor molecule, donor type, donor heavy atom, donor atom, acceptor molecule, acceptor atom, score
      L1  H    24    50       P1 10747  0.94
      L1  H    26    53       P1 10957  0.22
      P1  H  6933  6945       L1     3  0.01

> <Gold.Chemscore.Hbond.Weighted>
-4.5778

> <Gold.Chemscore.Metal.Weighted>
-0.0000

> <Gold.Chemscore.Lipo.Weighted>
-10.3737

> <Gold.Chemscore.Internal_Hbond.Weighted>
0.0000

> <Gold.Chemscore.DEClash.Weighted>
0.0778

> <Gold.Chemscore.DEInternal.Weighted>
4.3616

> <Gold.Chemscore.Rot.Weighted>
10.0236

> <Gold.Chemscore.Internal.Correction.Weighted>
   9.000000E+99

> <Gold.Protein.RotatedTorsions>
[ 6907 6896 6895 6894 ] final  131.53 input  -60.11 | X-H torsion
[ 7974 7965 7964 7962 ] final -122.28 input  175.53 | X-H torsion
[ 8008 7997 7996 7995 ] final -117.03 input   59.86 | X-H torsion
[ 10167 10162 10161 10158 ] final  178.11 input  -65.29 | X-H torsion
[ 10718 10713 10712 10709 ] final  -77.14 input   66.30 | X-H torsion
[ 10763 10752 10751 10750 ] final   11.10 input  -60.55 | X-H torsion
[ 11005 11000 10999 10996 ] final  -75.36 input  -57.11 | X-H torsion

> <Gold.Protein.ActiveResidues>
 VAL166  LYS551  ARG553  GLY616  TRP617  ASP618  TYR619  PRO620  LYS621  CYS622 
 ASP623  PHE694  ASN695  SER759  ASP760  ASP761  ALA762  ILE779  LEU786  VAL792 
 PHE793  MET794  SER795  GLU796  ALA797  LYS798  CYS799  TRP800  GLU811  SER814 

> <Gold.Protein.RotatedAtoms>
  152.3416  133.6074  159.5880 H   0  0  0  0  0  0  0  0  0  0  0  0  # atno 6907 bound_to 6896
  150.7482  133.9713  159.3555 H   0  0  0  0  0  0  0  0  0  0  0  0  # atno 6908 bound_to 6896
  151.7576  135.0818  160.0391 H   0  0  0  0  0  0  0  0  0  0  0  0  # atno 6909 bound_to 6896
  145.0311  140.8069  143.4323 H   0  0  0  0  0  0  0  0  0  0  0  0  # atno 7974 bound_to 7965
  155.0773  140.0394  157.2628 H   0  0  0  0  0  0  0  0  0  0  0  0  # atno 8008 bound_to 7997
  154.6935  140.2658  155.6765 H   0  0  0  0  0  0  0  0  0  0  0  0  # atno 8009 bound_to 7997
  156.2736  140.2755  156.1521 H   0  0  0  0  0  0  0  0  0  0  0  0  # atno 8010 bound_to 7997
  139.5280  144.2719  152.0621 H   0  0  0  0  0  0  0  0  0  0  0  0  # atno 10167 bound_to 10162
  156.0154  130.4483  150.3300 H   0  0  0  0  0  0  0  0  0  0  0  0  # atno 10718 bound_to 10713
  153.1961  135.6849  153.8290 H   0  0  0  0  0  0  0  0  0  0  0  0  # atno 10763 bound_to 10752
  153.7572  135.3215  155.3332 H   0  0  0  0  0  0  0  0  0  0  0  0  # atno 10764 bound_to 10752
  154.8145  135.4695  154.0706 H   0  0  0  0  0  0  0  0  0  0  0  0  # atno 10765 bound_to 10752
  141.1644  133.6944  156.7505 H   0  0  0  0  0  0  0  0  0  0  0  0  # atno 11005 bound_to 11000
  145.1769  139.2373  143.5313 LP  0  0  0  0  0  0  0  0  0  0  0  0  # atno 17320 bound_to 7965
  146.3498  140.1533  142.8592 LP  0  0  0  0  0  0  0  0  0  0  0  0  # atno 17321 bound_to 7965
  140.2178  144.4497  150.6356 LP  0  0  0  0  0  0  0  0  0  0  0  0  # atno 17342 bound_to 10162
  140.6438  143.2209  151.6231 LP  0  0  0  0  0  0  0  0  0  0  0  0  # atno 17343 bound_to 10162
  157.1398  131.0293  151.2933 LP  0  0  0  0  0  0  0  0  0  0  0  0  # atno 17370 bound_to 10713
  157.4481  130.7583  149.7127 LP  0  0  0  0  0  0  0  0  0  0  0  0  # atno 17371 bound_to 10713
  140.2607  134.8469  157.3756 LP  0  0  0  0  0  0  0  0  0  0  0  0  # atno 17394 bound_to 11000
  140.1614  134.4724  155.7892 LP  0  0  0  0  0  0  0  0  0  0  0  0  # atno 17395 bound_to 11000

$$$$
