AV-unprocessed.smi:2784|AV-procd|sdf|10727|dock3
  -GOLD-   2272015163D 1   1.00000     0.00000
 Structure written by MMmdl.
 31 32  0  0  0  0  0  0  0  0  1 V2000
  151.5832  139.6348  158.0946 C   0  0  0  0  0  0  0  0  0  0  0  0
  151.6522  141.0239  157.8158 O   0  0  0  0  0  0  0  0  0  0  0  0
  151.2204  141.8494  158.8944 C   0  0  1  0  0  0  0  0  0  0  0  0
  152.4444  142.3107  159.6932 C   0  0  0  0  0  0  0  0  0  0  0  0
  152.9940  143.4850  158.8879 C   0  0  0  0  0  0  0  0  0  0  0  0
  151.7558  144.1960  158.3341 C   0  0  0  0  0  0  0  0  0  0  0  0
  150.6132  143.1613  158.3469 C   0  0  1  0  0  0  0  0  0  0  0  0
  150.0190  143.0098  157.0203 N   0  0  0  0  0  0  0  0  0  0  0  0
  149.3563  141.9232  156.5990 C   0  0  0  0  0  0  0  0  0  0  0  0
  149.1690  140.9280  157.2998 O   0  0  0  0  0  0  0  0  0  0  0  0
  148.9371  142.0682  155.3310 N   0  0  0  0  0  0  0  0  0  0  0  0
  148.2164  141.1318  154.5479 C   0  0  0  0  0  0  0  0  0  0  0  0
  147.3036  141.4102  153.6157 N   0  0  0  0  0  0  0  0  0  0  0  0
  146.8954  140.1707  153.1449 C   0  0  0  0  0  0  0  0  0  0  0  0
  147.5908  139.2046  153.8254 C   0  0  0  0  0  0  0  0  0  0  0  0
  148.4356  139.8018  154.7222 O   0  0  0  0  0  0  0  0  0  0  0  0
  151.9409  139.0726  157.2321 H   0  0  0  0  0  0  0  0  0  0  0  0
  150.5559  139.3262  158.2912 H   0  0  0  0  0  0  0  0  0  0  0  0
  152.1994  139.3617  158.9511 H   0  0  0  0  0  0  0  0  0  0  0  0
  150.4943  141.3230  159.5166 H   0  0  0  0  0  0  0  0  0  0  0  0
  152.1256  142.6620  160.6754 H   0  0  0  0  0  0  0  0  0  0  0  0
  153.1863  141.5281  159.8511 H   0  0  0  0  0  0  0  0  0  0  0  0
  153.6241  144.1441  159.4852 H   0  0  0  0  0  0  0  0  0  0  0  0
  153.5989  143.1073  158.0625 H   0  0  0  0  0  0  0  0  0  0  0  0
  151.4921  145.0395  158.9735 H   0  0  0  0  0  0  0  0  0  0  0  0
  151.9531  144.5996  157.3398 H   0  0  0  0  0  0  0  0  0  0  0  0
  149.8494  143.5152  159.0420 H   0  0  0  0  0  0  0  0  0  0  0  0
  150.1349  143.7802  156.3785 H   0  0  0  0  0  0  0  0  0  0  0  0
  149.1599  142.9403  154.8750 H   0  0  0  0  0  0  0  0  0  0  0  0
  146.1495  140.0740  152.3700 H   0  0  0  0  0  0  0  0  0  0  0  0
  147.6012  138.1251  153.7930 H   0  0  0  0  0  0  0  0  0  0  0  0
  1  2  1  0  0  0  0
  1 17  1  0  0  0  0
  1 18  1  0  0  0  0
  1 19  1  0  0  0  0
  2  3  1  0  0  0  0
  3  7  1  0  0  0  0
  3  4  1  0  0  0  0
  3 20  1  0  0  0  0
  4  5  1  0  0  0  0
  4 21  1  0  0  0  0
  4 22  1  0  0  0  0
  5  6  1  0  0  0  0
  5 23  1  0  0  0  0
  5 24  1  0  0  0  0
  6  7  1  0  0  0  0
  6 25  1  0  0  0  0
  6 26  1  0  0  0  0
  7  8  1  0  0  0  0
  7 27  1  0  0  0  0
  8  9  1  0  0  0  0
  8 28  1  0  0  0  0
  9 10  2  0  0  0  0
  9 11  1  0  0  0  0
 11 12  1  0  0  0  0
 11 29  1  0  0  0  0
 12 16  1  0  0  0  0
 12 13  2  0  0  0  0
 13 14  1  0  0  0  0
 14 15  2  0  0  0  0
 14 30  1  0  0  0  0
 15 16  1  0  0  0  0
 15 31  1  0  0  0  0
M  END
> <s_m_source_file>
AV-unprocessed.smi

> <i_m_source_file_index>
2784

> <i_lp_mmshare_version>
43012

> <i_f3d_flags>
0

> <s_epik_input>
W0NIM11PW0NAQEhdMVtDSDJdW0NIMl1bQ0gyXVtDQEhdMVtOSF1DKD1PKVtOSF1jMm5bY0hdW2NIXW8y

> <s_epik_cmdline>
J2VwaWtfcHl0aG9uJywgJy1waCcsICc3LjAnLCAnLXRuJywgJzgnLCAnLW1hJywgJzIwMCcsICctbWV0YWxfYmluZGluZycsICctaW1hZScsICc8aW5maWxlLm1hZT4nLCAnLW9tYWUnLCAnPG91dGZpbGUubWFlPic=

> <r_lp_tautomer_probability>
0.785861

> <r_epik_Ionization_Penalty>
4.58897e-05

> <r_epik_Ionization_Penalty_Charging>
0

> <r_epik_Ionization_Penalty_Neutral>
4.58897e-05

> <r_epik_State_Penalty>
0.0380021

> <r_epik_Charging_Adjusted_Penalty>
0.0380021

> <i_epik_Tot_Q>
0

> <i_epik_Tot_abs_Q>
0

> <r_epik_Metal_State_Penalty>
0.0585611

> <b_epik_Metal_Only>
0

> <s_lp_Force_Field>
OPLS_2005

> <r_lp_Energy>
20.0634

> <b_lp_Chiralities_Consistent>
1

> <s_lp_Variant>
AV-unprocessed.smi:2784-2

> <Gold.Version>
5.8.1

> <Gold.Id.Protein>
6NUR|6NUR_protein|mol2

> <Gold.PLP.Fitness>
36.2136

> <Gold.PLP.PLP>
-26.3914

> <Gold.PLP.part.hbond>
-2.0000

> <Gold.PLP.part.metal>
0.0000

> <Gold.PLP.part.buried>
-2.3288

> <Gold.PLP.part.nonpolar>
-22.7304

> <Gold.PLP.part.repulsive>
0.4503

> <Gold.PLP.ligand.clash>
0.0112

> <Gold.PLP.ligand.torsion>
1.0006

> <Gold.PLP.Chemscore.Hbond>
1.9840

> <Gold.PLP.Chemscore.CHOScore>
1.9568

> <Gold.PLP.Chemscore.Metal>
0.0000

> <Gold.Chemscore.Hbonds>
donor molecule, donor type, donor heavy atom, donor atom, acceptor molecule, acceptor atom, score
      L1  H     8    28       P1  8028  0.56
      L1  H    11    29       P1  8028  0.51
      L1  C    14    30       P1 10175  1.00

> <Gold.PLP.Chemscore.Internal.Correction>
0.0123

> <Gold.Rescore>
     Score         DG    S(hbond)    S(metal)    S(lipo)     H(rot)  DE(clash)    DE(int)     intcor
     10.26     -15.92       1.82        0.00      66.16       1.32       0.03       5.63       ----

> <Gold.Chemscore.Fitness>
10.2592

> <Gold.Chemscore.DG>
-15.9215

> <Gold.Chemscore.ZeroCoef>
-5.4800

> <Gold.Chemscore.Hbond>
1.8229

> <Gold.Chemscore.Metal>
0.0000

> <Gold.Chemscore.Lipo>
66.1629

> <Gold.Chemscore.Internal_Hbond>
0.0000

> <Gold.Chemscore.DEClash>
0.0274

> <Gold.Chemscore.DEInternal>
5.6348

> <Gold.Chemscore.Rot>
1.3235

> <Gold.Chemscore.Internal.Correction>
   9.000000E+99

> <Gold.Chemscore.Hbonds>
donor molecule, donor type, donor heavy atom, donor atom, acceptor molecule, acceptor atom, score
      L1  H     8    28       P1  8028  0.56
      L1  H    11    29       P1  8028  0.51

> <Gold.Chemscore.Hbond.Weighted>
-6.0886

> <Gold.Chemscore.Metal.Weighted>
-0.0000

> <Gold.Chemscore.Lipo.Weighted>
-7.7411

> <Gold.Chemscore.Internal_Hbond.Weighted>
0.0000

> <Gold.Chemscore.DEClash.Weighted>
0.0274

> <Gold.Chemscore.DEInternal.Weighted>
5.6348

> <Gold.Chemscore.Rot.Weighted>
3.3882

> <Gold.Chemscore.Internal.Correction.Weighted>
   9.000000E+99

> <Gold.Protein.RotatedTorsions>
[ 6907 6896 6895 6894 ] final  139.65 input  -60.11 | X-H torsion
[ 7974 7965 7964 7962 ] final -141.01 input  175.53 | X-H torsion
[ 8008 7997 7996 7995 ] final  110.29 input   59.86 | X-H torsion
[ 10167 10162 10161 10158 ] final  -64.69 input  -65.29 | X-H torsion
[ 10718 10713 10712 10709 ] final  -50.40 input   66.30 | X-H torsion
[ 10763 10752 10751 10750 ] final -175.42 input  -60.55 | X-H torsion
[ 11005 11000 10999 10996 ] final   11.27 input  -57.11 | X-H torsion

> <Gold.Protein.ActiveResidues>
 VAL166  LYS551  ARG553  GLY616  TRP617  ASP618  TYR619  PRO620  LYS621  CYS622 
 ASP623  PHE694  ASN695  SER759  ASP760  ASP761  ALA762  ILE779  LEU786  VAL792 
 PHE793  MET794  SER795  GLU796  ALA797  LYS798  CYS799  TRP800  GLU811  SER814 

> <Gold.Protein.RotatedAtoms>
  152.2523  133.5226  159.5332 H   0  0  0  0  0  0  0  0  0  0  0  0  # atno 6907 bound_to 6896
  150.7098  134.0943  159.3952 H   0  0  0  0  0  0  0  0  0  0  0  0  # atno 6908 bound_to 6896
  151.8862  135.0434  160.0544 H   0  0  0  0  0  0  0  0  0  0  0  0  # atno 6909 bound_to 6896
  144.8552  140.6131  143.5364 H   0  0  0  0  0  0  0  0  0  0  0  0  # atno 7974 bound_to 7965
  156.2042  140.3041  155.9591 H   0  0  0  0  0  0  0  0  0  0  0  0  # atno 8008 bound_to 7997
  155.2881  140.0441  157.3038 H   0  0  0  0  0  0  0  0  0  0  0  0  # atno 8009 bound_to 7997
  154.5611  140.2320  155.8343 H   0  0  0  0  0  0  0  0  0  0  0  0  # atno 8010 bound_to 7997
  140.5783  143.2324  151.6396 H   0  0  0  0  0  0  0  0  0  0  0  0  # atno 10167 bound_to 10162
  156.1804  130.4150  149.9515 H   0  0  0  0  0  0  0  0  0  0  0  0  # atno 10718 bound_to 10713
  154.5846  135.2839  155.0698 H   0  0  0  0  0  0  0  0  0  0  0  0  # atno 10763 bound_to 10752
  154.2021  135.6422  153.5094 H   0  0  0  0  0  0  0  0  0  0  0  0  # atno 10764 bound_to 10752
  153.0100  135.5471  154.6511 H   0  0  0  0  0  0  0  0  0  0  0  0  # atno 10765 bound_to 10752
  140.5051  134.0707  155.7803 H   0  0  0  0  0  0  0  0  0  0  0  0  # atno 11005 bound_to 11000
  145.4420  139.1534  143.3965 LP  0  0  0  0  0  0  0  0  0  0  0  0  # atno 17320 bound_to 7965
  146.2817  140.4542  142.8774 LP  0  0  0  0  0  0  0  0  0  0  0  0  # atno 17321 bound_to 7965
  139.5155  144.3377  152.0769 LP  0  0  0  0  0  0  0  0  0  0  0  0  # atno 17342 bound_to 10162
  140.2523  144.4156  150.6217 LP  0  0  0  0  0  0  0  0  0  0  0  0  # atno 17343 bound_to 10162
  156.7287  130.9035  151.3624 LP  0  0  0  0  0  0  0  0  0  0  0  0  # atno 17370 bound_to 10713
  157.6864  130.9190  150.0398 LP  0  0  0  0  0  0  0  0  0  0  0  0  # atno 17371 bound_to 10713
  141.1415  133.9130  157.2315 LP  0  0  0  0  0  0  0  0  0  0  0  0  # atno 17394 bound_to 11000
  139.9691  135.0133  156.9464 LP  0  0  0  0  0  0  0  0  0  0  0  0  # atno 17395 bound_to 11000

$$$$
