#       Name:                AV-unprocessed.smi:2072
#       Creating user name   scv26
#       Creation time:       Fri Mar 27 11:14:26 2020


#       File generated by GOLD software.
#

@<TRIPOS>MOLECULE
AV-unprocessed.smi:2072
    43    45     1
SMALL
NO_CHARGES


@<TRIPOS>ATOM
      1 ****         1.7540   0.9834  -0.2855 O.2            1 S1                 0.0000
      2 ****         1.4695  -0.1054  -0.7824 C.2            1 S1                 0.0000
      3 ****         2.3289  -1.1143  -1.0088 N.am           1 S1                 0.0000
      4 ****         3.7270  -1.1882  -0.7530 C.ar           1 S1                 0.0000
      5 ****         4.5289  -0.1130  -0.2953 C.ar           1 S1                 0.0000
      6 ****         5.9051  -0.3296  -0.0899 C.ar           1 S1                 0.0000
      7 ****         6.4325  -1.6086  -0.3509 C.ar           1 S1                 0.0000
      8 ****         5.6835  -2.6409  -0.7908 N.ar           1 S1                 0.0000
      9 ****         4.3649  -2.4259  -0.9852 C.ar           1 S1                 0.0000
     10 ****         0.2270  -0.4351  -1.1632 N.am           1 S1                 0.0000
     11 ****        -0.9420   0.4341  -1.0577 C.3            1 S1                 0.0000
     12 ****        -2.0269   0.1093  -2.0998 C.3            1 S1                 0.0000
     13 ****        -3.3692   0.3301  -1.3745 C.3            1 S1                 0.0000
     14 ****        -3.0119   0.8264  -0.0317 N.4            1 S1                 1.0000
     15 ****        -3.9935   0.6040   1.0521 C.3            1 S1                 0.0000
     16 ****        -3.4813   1.2689   2.3453 C.3            1 S1                 0.0000
     17 ****        -2.0553   0.8018   2.7008 C.3            1 S1                 0.0000
     18 ****        -1.0992   0.9696   1.5040 C.3            1 S1                 0.0000
     19 ****        -1.6865   0.2637   0.2697 C.3            1 S1                 0.0000
     20 ****         1.9263  -1.9515  -1.4041 H              1 S1                 0.0000
     21 ****         4.1321   0.8700  -0.1011 H              1 S1                 0.0000
     22 ****         6.5431   0.4688   0.2588 H              1 S1                 0.0000
     23 ****         7.4840  -1.8065  -0.2040 H              1 S1                 0.0000
     24 ****         3.7988  -3.2755  -1.3388 H              1 S1                 0.0000
     25 ****         0.0807  -1.3512  -1.5617 H              1 S1                 0.0000
     26 ****        -0.6526   1.4802  -1.1802 H              1 S1                 0.0000
     27 ****        -1.9303   0.7448  -2.9809 H              1 S1                 0.0000
     28 ****        -1.9588  -0.9268  -2.4354 H              1 S1                 0.0000
     29 ****        -4.0089   1.0457  -1.8917 H              1 S1                 0.0000
     30 ****        -3.9111  -0.6136  -1.2951 H              1 S1                 0.0000
     31 ****        -4.9568   1.0280   0.7669 H              1 S1                 0.0000
     32 ****        -4.1432  -0.4658   1.2053 H              1 S1                 0.0000
     33 ****        -3.4828   2.3525   2.2189 H              1 S1                 0.0000
     34 ****        -4.1614   1.0553   3.1704 H              1 S1                 0.0000
     35 ****        -1.6813   1.3571   3.5615 H              1 S1                 0.0000
     36 ****        -2.0822  -0.2473   2.9984 H              1 S1                 0.0000
     37 ****        -0.9457   2.0290   1.2945 H              1 S1                 0.0000
     38 ****        -0.1225   0.5538   1.7520 H              1 S1                 0.0000
     39 ****        -1.8009  -0.8021   0.4819 H              1 S1                 0.0000
     40 ****        -2.8830   1.8244  -0.1202 H              1 S1                 0.0000
     41 ****         2.6960   1.1771  -0.0113 LP             1 S1                 0.0000
     42 ****         1.0433   1.6748  -0.1557 LP             1 S1                 0.0000
     43 ****         6.0919  -3.5365  -0.9672 LP             1 S1                 0.0000
@<TRIPOS>BOND
    1    1    2 2     
    2    2    3 am    
    3    2   10 am    
    4    3    4 1     
    5    3   20 1     
    6    4    9 ar    
    7    4    5 ar    
    8    5    6 ar    
    9    5   21 1     
   10    6    7 ar    
   11    6   22 1     
   12    7    8 ar    
   13    7   23 1     
   14    8    9 ar    
   15    9   24 1     
   16   10   11 1     
   17   10   25 1     
   18   11   19 1     
   19   11   12 1     
   20   11   26 1     
   21   12   13 1     
   22   12   27 1     
   23   12   28 1     
   24   13   14 1     
   25   13   29 1     
   26   13   30 1     
   27   14   19 1     
   28   14   15 1     
   29   14   40 1     
   30   15   16 1     
   31   15   31 1     
   32   15   32 1     
   33   16   17 1     
   34   16   33 1     
   35   16   34 1     
   36   17   18 1     
   37   17   35 1     
   38   17   36 1     
   39   18   19 1     
   40   18   37 1     
   41   18   38 1     
   42   19   39 1     
   43    1   41 1     
   44    1   42 1     
   45    8   43 1     
@<TRIPOS>SUBSTRUCTURE
      1 S1             1
@<TRIPOS>SET
LONE_PAIRS      STATIC     ATOMS    <user>   **** ""
3 41 42 43
DONOR_HYDROGENS      STATIC     ATOMS    <user>   **** ""
3 20 25 40
ATOM$BLUE        STATIC     ATOMS    COLORGROUP SYSTEM
3 41 42 43
ATOM$RED        STATIC     ATOMS    COLORGROUP SYSTEM
3 20 25 40
