AV-unprocessed.smi:1944|AV-procd|sdf|7853|dock2
  -GOLD-   2272010 03D 1   1.00000     0.00000
 Structure written by MMmdl.
 46 47  0  0  0  0  0  0  0  0  2 V2000
  151.7403  138.2981  154.1874 C   0  0  0  0  0  0  0  0  0  0  0  0
  150.3498  138.2225  153.8927 O   0  0  0  0  0  0  0  0  0  0  0  0
  149.5577  139.3232  154.1590 C   0  0  0  0  0  0  0  0  0  0  0  0
  150.1323  140.4060  154.7405 N   0  0  0  0  0  0  0  0  0  0  0  0
  149.3618  141.4832  154.9958 C   0  0  0  0  0  0  0  0  0  0  0  0
  147.9916  141.5414  154.6828 C   0  0  0  0  0  0  0  0  0  0  0  0
  147.3930  140.4197  154.0800 C   0  0  0  0  0  0  0  0  0  0  0  0
  148.1852  139.2750  153.8190 C   0  0  0  0  0  0  0  0  0  0  0  0
  147.6902  138.0956  153.1962 N   0  0  0  0  0  0  0  0  0  0  0  0
  146.4262  137.6435  153.1352 C   0  0  0  0  0  0  0  0  0  0  0  0
  145.4479  138.1839  153.6509 O   0  0  0  0  0  0  0  0  0  0  0  0
  146.3546  136.4944  152.4486 N   0  0  0  0  0  0  0  0  0  0  0  0
  145.1264  135.7486  152.2001 C   0  0  0  0  0  0  0  0  0  0  0  0
  145.3189  134.7024  151.0797 C   0  0  0  0  0  0  0  0  0  0  0  0
  145.4206  133.2971  151.5638 N   0  3  2  0  0  0  0  0  0  0  0  0
  146.7259  133.0154  152.2202 C   0  0  0  0  0  0  0  0  0  0  0  0
  146.7063  131.6582  152.9382 C   0  0  0  0  0  0  0  0  0  0  0  0
  146.3454  130.5371  151.9589 C   0  0  0  0  0  0  0  0  0  0  0  0
  145.0115  130.8555  151.2726 C   0  0  0  0  0  0  0  0  0  0  0  0
  145.0357  132.2357  150.5805 C   0  0  1  0  0  0  0  0  0  0  0  0
  143.6714  132.5028  149.9148 C   0  0  0  0  0  0  0  0  0  0  0  0
  152.2180  137.3579  153.9124 H   0  0  0  0  0  0  0  0  0  0  0  0
  151.9149  138.4587  155.2521 H   0  0  0  0  0  0  0  0  0  0  0  0
  152.2260  139.0936  153.6207 H   0  0  0  0  0  0  0  0  0  0  0  0
  149.8538  142.3266  155.4574 H   0  0  0  0  0  0  0  0  0  0  0  0
  147.4138  142.4285  154.8955 H   0  0  0  0  0  0  0  0  0  0  0  0
  146.3476  140.4672  153.8186 H   0  0  0  0  0  0  0  0  0  0  0  0
  148.3968  137.4956  152.7958 H   0  0  0  0  0  0  0  0  0  0  0  0
  147.2071  136.1163  152.0613 H   0  0  0  0  0  0  0  0  0  0  0  0
  144.7987  135.2829  153.1303 H   0  0  0  0  0  0  0  0  0  0  0  0
  144.3560  136.4684  151.9248 H   0  0  0  0  0  0  0  0  0  0  0  0
  144.4860  134.7675  150.3780 H   0  0  0  0  0  0  0  0  0  0  0  0
  146.2017  134.9382  150.4862 H   0  0  0  0  0  0  0  0  0  0  0  0
  147.5257  133.0262  151.4787 H   0  0  0  0  0  0  0  0  0  0  0  0
  146.9531  133.7993  152.9436 H   0  0  0  0  0  0  0  0  0  0  0  0
  147.6788  131.4605  153.3901 H   0  0  0  0  0  0  0  0  0  0  0  0
  145.9835  131.6823  153.7548 H   0  0  0  0  0  0  0  0  0  0  0  0
  147.1315  130.4306  151.2104 H   0  0  0  0  0  0  0  0  0  0  0  0
  146.2815  129.5836  152.4839 H   0  0  0  0  0  0  0  0  0  0  0  0
  144.7849  130.0756  150.5448 H   0  0  0  0  0  0  0  0  0  0  0  0
  144.2091  130.8275  152.0116 H   0  0  0  0  0  0  0  0  0  0  0  0
  145.7940  132.2011  149.7971 H   0  0  0  0  0  0  0  0  0  0  0  0
  143.3834  131.6698  149.2729 H   0  0  0  0  0  0  0  0  0  0  0  0
  143.6888  133.3893  149.2811 H   0  0  0  0  0  0  0  0  0  0  0  0
  142.8841  132.6333  150.6577 H   0  0  0  0  0  0  0  0  0  0  0  0
  144.7352  133.2318  152.3030 H   0  0  0  0  0  0  0  0  0  0  0  0
  1  2  1  0  0  0  0
  1 22  1  0  0  0  0
  1 23  1  0  0  0  0
  1 24  1  0  0  0  0
  2  3  1  0  0  0  0
  3  8  1  0  0  0  0
  3  4  2  0  0  0  0
  4  5  1  0  0  0  0
  5  6  2  0  0  0  0
  5 25  1  0  0  0  0
  6  7  1  0  0  0  0
  6 26  1  0  0  0  0
  7  8  2  0  0  0  0
  7 27  1  0  0  0  0
  8  9  1  0  0  0  0
  9 10  1  0  0  0  0
  9 28  1  0  0  0  0
 10 11  2  0  0  0  0
 10 12  1  0  0  0  0
 12 13  1  0  0  0  0
 12 29  1  0  0  0  0
 13 14  1  0  0  0  0
 13 30  1  0  0  0  0
 13 31  1  0  0  0  0
 14 15  1  0  0  0  0
 14 32  1  0  0  0  0
 14 33  1  0  0  0  0
 15 20  1  0  0  0  0
 15 16  1  0  0  0  0
 15 46  1  0  0  0  0
 16 17  1  0  0  0  0
 16 34  1  0  0  0  0
 16 35  1  0  0  0  0
 17 18  1  0  0  0  0
 17 36  1  0  0  0  0
 17 37  1  0  0  0  0
 18 19  1  0  0  0  0
 18 38  1  0  0  0  0
 18 39  1  0  0  0  0
 19 20  1  0  0  0  0
 19 40  1  0  0  0  0
 19 41  1  0  0  0  0
 20 21  1  0  0  0  0
 20 42  1  0  0  0  0
 21 43  1  0  0  0  0
 21 44  1  0  0  0  0
 21 45  1  0  0  0  0
M  CHG  1  15   1
M  END
> <s_m_source_file>
AV-unprocessed.smi

> <i_m_source_file_index>
1944

> <i_lp_mmshare_version>
43012

> <i_f3d_flags>
0

> <s_epik_input>
W0NIM11PYzFuW2NIXVtjSF1bY0hdYzFbTkhdQyg9TylbTkhdW0NIMl1bQ0gyXU4yW0NIMl1bQ0gyXVtDSDJdW0NIMl1bQ0BIXTJbQ0gzXQ==

> <s_epik_cmdline>
J2VwaWtfcHl0aG9uJywgJy1waCcsICc3LjAnLCAnLXRuJywgJzgnLCAnLW1hJywgJzIwMCcsICctbWV0YWxfYmluZGluZycsICctaW1hZScsICc8aW5maWxlLm1hZT4nLCAnLW9tYWUnLCAnPG91dGZpbGUubWFlPic=

> <r_lp_tautomer_probability>
1

> <r_epik_Ionization_Penalty>
0.00219525

> <r_epik_Ionization_Penalty_Charging>
0.00211816

> <r_epik_Ionization_Penalty_Neutral>
7.7088e-05

> <r_epik_State_Penalty>
0.00145254

> <r_epik_Charging_Adjusted_Penalty>
0.0035707

> <i_epik_Tot_Q>
1

> <i_epik_Tot_abs_Q>
1

> <r_epik_Metal_State_Penalty>
-0

> <b_epik_Metal_Only>
0

> <s_lp_Force_Field>
OPLS_2005

> <r_lp_Energy>
22.1071

> <b_lp_Chiralities_Consistent>
1

> <s_lp_Variant>
AV-unprocessed.smi:1944-1

> <Gold.Version>
5.8.1

> <Gold.Id.Protein>
6NUR|6NUR_protein|mol2

> <Gold.PLP.Fitness>
48.6677

> <Gold.PLP.PLP>
-38.3102

> <Gold.PLP.part.hbond>
-3.4491

> <Gold.PLP.part.metal>
0.0000

> <Gold.PLP.part.buried>
-2.1579

> <Gold.PLP.part.nonpolar>
-35.5602

> <Gold.PLP.part.repulsive>
2.5892

> <Gold.PLP.ligand.clash>
0.0000

> <Gold.PLP.ligand.torsion>
0.7153

> <Gold.PLP.Chemscore.Hbond>
2.9040

> <Gold.PLP.Chemscore.CHOScore>
1.0000

> <Gold.PLP.Chemscore.Metal>
0.0000

> <Gold.Chemscore.Hbonds>
donor molecule, donor type, donor heavy atom, donor atom, acceptor molecule, acceptor atom, score
      L1  H     9    28       P1  7948  1.00
      L1  H    12    29       P1  7948  1.00
      P1  H  7989  7998       L1     4  0.98
      L1  C     5    25       P1  8028  0.78

> <Gold.PLP.Chemscore.Internal.Correction>
0.0762

> <Gold.Rescore>
     Score         DG    S(hbond)    S(metal)    S(lipo)     H(rot)  DE(clash)    DE(int)     intcor
     16.17     -18.24       1.99        0.00      89.68       1.71       0.13       1.95       ----

> <Gold.Chemscore.Fitness>
16.1660

> <Gold.Chemscore.DG>
-18.2432

> <Gold.Chemscore.ZeroCoef>
-5.4800

> <Gold.Chemscore.Hbond>
1.9911

> <Gold.Chemscore.Metal>
0.0000

> <Gold.Chemscore.Lipo>
89.6786

> <Gold.Chemscore.Internal_Hbond>
0.0000

> <Gold.Chemscore.DEClash>
0.1284

> <Gold.Chemscore.DEInternal>
1.9487

> <Gold.Chemscore.Rot>
1.7107

> <Gold.Chemscore.Internal.Correction>
   9.000000E+99

> <Gold.Chemscore.Hbonds>
donor molecule, donor type, donor heavy atom, donor atom, acceptor molecule, acceptor atom, score
      L1  H     9    28       P1  7948  0.98
      L1  H    12    29       P1  7948  0.94
      P1  H  7989  7998       L1     4  0.30

> <Gold.Chemscore.Hbond.Weighted>
-6.6503

> <Gold.Chemscore.Metal.Weighted>
-0.0000

> <Gold.Chemscore.Lipo.Weighted>
-10.4924

> <Gold.Chemscore.Internal_Hbond.Weighted>
0.0000

> <Gold.Chemscore.DEClash.Weighted>
0.1284

> <Gold.Chemscore.DEInternal.Weighted>
1.9487

> <Gold.Chemscore.Rot.Weighted>
4.3794

> <Gold.Chemscore.Internal.Correction.Weighted>
   9.000000E+99

> <Gold.Protein.RotatedTorsions>
[ 6907 6896 6895 6894 ] final -178.23 input  -60.11 | X-H torsion
[ 7974 7965 7964 7962 ] final   58.94 input  175.53 | X-H torsion
[ 8008 7997 7996 7995 ] final   42.03 input   59.86 | X-H torsion
[ 10167 10162 10161 10158 ] final  -85.10 input  -65.29 | X-H torsion
[ 10718 10713 10712 10709 ] final  -20.60 input   66.30 | X-H torsion
[ 10763 10752 10751 10750 ] final  -99.49 input  -60.55 | X-H torsion
[ 11005 11000 10999 10996 ] final   82.46 input  -57.11 | X-H torsion

> <Gold.Protein.ActiveResidues>
 VAL166  LYS551  ARG553  GLY616  TRP617  ASP618  TYR619  PRO620  LYS621  CYS622 
 ASP623  PHE694  ASN695  SER759  ASP760  ASP761  ALA762  ILE779  LEU786  VAL792 
 PHE793  MET794  SER795  GLU796  ALA797  LYS798  CYS799  TRP800  GLU811  SER814 

> <Gold.Protein.RotatedAtoms>
  151.6339  133.3330  159.3114 H   0  0  0  0  0  0  0  0  0  0  0  0  # atno 6907 bound_to 6896
  150.8042  134.7160  159.6640 H   0  0  0  0  0  0  0  0  0  0  0  0  # atno 6908 bound_to 6896
  152.4137  134.6084  160.0070 H   0  0  0  0  0  0  0  0  0  0  0  0  # atno 6909 bound_to 6896
  145.9126  139.3666  143.0526 H   0  0  0  0  0  0  0  0  0  0  0  0  # atno 7974 bound_to 7965
  155.2795  140.3371  155.4259 H   0  0  0  0  0  0  0  0  0  0  0  0  # atno 8008 bound_to 7997
  156.2096  140.1765  156.7765 H   0  0  0  0  0  0  0  0  0  0  0  0  # atno 8009 bound_to 7997
  154.5668  140.0677  156.8888 H   0  0  0  0  0  0  0  0  0  0  0  0  # atno 8010 bound_to 7997
  140.4069  143.2639  151.9068 H   0  0  0  0  0  0  0  0  0  0  0  0  # atno 10167 bound_to 10162
  156.5297  130.4652  149.6553 H   0  0  0  0  0  0  0  0  0  0  0  0  # atno 10718 bound_to 10713
  154.7502  135.4970  153.9276 H   0  0  0  0  0  0  0  0  0  0  0  0  # atno 10763 bound_to 10752
  153.1135  135.6715  153.9466 H   0  0  0  0  0  0  0  0  0  0  0  0  # atno 10764 bound_to 10752
  153.9218  135.3087  155.3426 H   0  0  0  0  0  0  0  0  0  0  0  0  # atno 10765 bound_to 10752
  139.9063  134.8073  156.2177 H   0  0  0  0  0  0  0  0  0  0  0  0  # atno 11005 bound_to 11000
  145.8652  140.9452  143.0679 LP  0  0  0  0  0  0  0  0  0  0  0  0  # atno 17320 bound_to 7965
  144.6745  140.0582  143.7477 LP  0  0  0  0  0  0  0  0  0  0  0  0  # atno 17321 bound_to 7965
  139.4783  144.5576  151.8289 LP  0  0  0  0  0  0  0  0  0  0  0  0  # atno 17342 bound_to 10162
  140.4679  144.1628  150.5914 LP  0  0  0  0  0  0  0  0  0  0  0  0  # atno 17343 bound_to 10162
  156.3072  130.7209  151.2094 LP  0  0  0  0  0  0  0  0  0  0  0  0  # atno 17370 bound_to 10713
  157.7424  131.0491  150.5029 LP  0  0  0  0  0  0  0  0  0  0  0  0  # atno 17371 bound_to 10713
  141.0425  133.6930  156.1624 LP  0  0  0  0  0  0  0  0  0  0  0  0  # atno 17394 bound_to 11000
  140.6934  134.4642  157.5588 LP  0  0  0  0  0  0  0  0  0  0  0  0  # atno 17395 bound_to 11000

$$$$
