AV-unprocessed.smi:1433|AV-procd|sdf|5836|dock6
  -GOLD-   22720 5493D 1   1.00000     0.00000
 Structure written by MMmdl.
 44 45  0  0  0  0  0  0  0  0  1 V2000
  153.2132  138.4379  155.1870 C   0  0  0  0  0  0  0  0  0  0  0  0
  151.7945  138.2995  154.6250 C   0  0  1  0  0  0  0  0  0  0  0  0
  150.9460  137.2941  155.4267 C   0  0  0  0  0  0  0  0  0  0  0  0
  149.5621  137.2034  154.9486 N   0  0  0  0  0  0  0  0  0  0  0  0
  148.7505  136.2464  155.7366 C   0  0  2  0  0  0  0  0  0  0  0  0
  149.4571  134.8792  155.9307 C   0  0  0  0  0  0  0  0  0  0  0  0
  147.3378  136.0009  155.1381 C   0  0  0  0  0  0  0  0  0  0  0  0
  147.3873  135.1965  153.9236 N   0  0  0  0  0  0  0  0  0  0  0  0
  146.9011  133.9528  153.8018 C   0  0  0  0  0  0  0  0  0  0  0  0
  146.3961  133.3269  154.7332 O   0  0  0  0  0  0  0  0  0  0  0  0
  146.9986  133.3173  152.4137 C   0  0  0  0  0  0  0  0  0  0  0  0
  146.0715  133.9389  151.4833 N   0  0  0  0  0  0  0  0  0  0  0  0
  146.0269  135.2540  151.0694 C   0  0  0  0  0  0  0  0  0  0  0  0
  144.9957  135.3659  150.1816 C   0  0  0  0  0  0  0  0  0  0  0  0
  144.4624  134.0484  150.1146 C   0  0  0  0  0  0  0  0  0  0  0  0
  145.1076  133.1964  150.8948 N   0  0  0  0  0  0  0  0  0  0  0  0
  148.9977  138.5574  154.9432 C   0  0  0  0  0  0  0  0  0  0  0  0
  149.8508  139.5607  154.1436 C   0  0  1  0  0  0  0  0  0  0  0  0
  149.2886  140.9844  154.2143 C   0  0  0  0  0  0  0  0  0  0  0  0
  151.1709  139.5765  154.6714 O   0  0  0  0  0  0  0  0  0  0  0  0
  153.7405  137.4838  155.1619 H   0  0  0  0  0  0  0  0  0  0  0  0
  153.1968  138.7843  156.2208 H   0  0  0  0  0  0  0  0  0  0  0  0
  153.7941  139.1537  154.6050 H   0  0  0  0  0  0  0  0  0  0  0  0
  151.8614  137.9740  153.5853 H   0  0  0  0  0  0  0  0  0  0  0  0
  151.4407  136.3277  155.3490 H   0  0  0  0  0  0  0  0  0  0  0  0
  150.9535  137.5704  156.4824 H   0  0  0  0  0  0  0  0  0  0  0  0
  148.6037  136.6712  156.7310 H   0  0  0  0  0  0  0  0  0  0  0  0
  148.8388  134.1589  156.4655 H   0  0  0  0  0  0  0  0  0  0  0  0
  150.3657  134.9640  156.5251 H   0  0  0  0  0  0  0  0  0  0  0  0
  149.7214  134.4331  154.9714 H   0  0  0  0  0  0  0  0  0  0  0  0
  146.6973  135.4515  155.8261 H   0  0  0  0  0  0  0  0  0  0  0  0
  146.8513  136.9569  154.9373 H   0  0  0  0  0  0  0  0  0  0  0  0
  147.7856  135.6311  153.1034 H   0  0  0  0  0  0  0  0  0  0  0  0
  148.0174  133.4104  152.0338 H   0  0  0  0  0  0  0  0  0  0  0  0
  146.7732  132.2517  152.4724 H   0  0  0  0  0  0  0  0  0  0  0  0
  146.7270  135.9905  151.4359 H   0  0  0  0  0  0  0  0  0  0  0  0
  144.6725  136.2541  149.6591 H   0  0  0  0  0  0  0  0  0  0  0  0
  143.6316  133.6883  149.5262 H   0  0  0  0  0  0  0  0  0  0  0  0
  148.0075  138.5582  154.4926 H   0  0  0  0  0  0  0  0  0  0  0  0
  148.8809  138.9117  155.9684 H   0  0  0  0  0  0  0  0  0  0  0  0
  149.8907  139.2529  153.0972 H   0  0  0  0  0  0  0  0  0  0  0  0
  148.2772  141.0277  153.8096 H   0  0  0  0  0  0  0  0  0  0  0  0
  149.9057  141.6758  153.6398 H   0  0  0  0  0  0  0  0  0  0  0  0
  149.2541  141.3446  155.2429 H   0  0  0  0  0  0  0  0  0  0  0  0
  1  2  1  0  0  0  0
  1 21  1  0  0  0  0
  1 22  1  0  0  0  0
  1 23  1  0  0  0  0
  2 20  1  0  0  0  0
  2  3  1  0  0  0  0
  2 24  1  0  0  0  0
  3  4  1  0  0  0  0
  3 25  1  0  0  0  0
  3 26  1  0  0  0  0
  4  5  1  0  0  0  0
  4 17  1  0  0  0  0
  5  6  1  0  0  0  0
  5  7  1  0  0  0  0
  5 27  1  0  0  0  0
  6 28  1  0  0  0  0
  6 29  1  0  0  0  0
  6 30  1  0  0  0  0
  7  8  1  0  0  0  0
  7 31  1  0  0  0  0
  7 32  1  0  0  0  0
  8  9  1  0  0  0  0
  8 33  1  0  0  0  0
  9 10  2  0  0  0  0
  9 11  1  0  0  0  0
 11 12  1  0  0  0  0
 11 34  1  0  0  0  0
 11 35  1  0  0  0  0
 12 16  1  0  0  0  0
 12 13  1  0  0  0  0
 13 14  2  0  0  0  0
 13 36  1  0  0  0  0
 14 15  1  0  0  0  0
 14 37  1  0  0  0  0
 15 16  2  0  0  0  0
 15 38  1  0  0  0  0
 17 18  1  0  0  0  0
 17 39  1  0  0  0  0
 17 40  1  0  0  0  0
 18 19  1  0  0  0  0
 18 20  1  0  0  0  0
 18 41  1  0  0  0  0
 19 42  1  0  0  0  0
 19 43  1  0  0  0  0
 19 44  1  0  0  0  0
M  END
> <s_m_source_file>
AV-unprocessed.smi

> <i_m_source_file_index>
1433

> <i_lp_mmshare_version>
43012

> <i_f3d_flags>
0

> <s_epik_input>
W0NIM11bQ0BASF0xW0NIMl1OKFtDSDJdW0NASF0oTzEpW0NIM10pW0NASF0oW0NIM10pW0NIMl1bTkhdQyg9TylbQ0gyXW4yW2NIXVtjSF1bY0hdbjI=

> <s_epik_cmdline>
J2VwaWtfcHl0aG9uJywgJy1waCcsICc3LjAnLCAnLXRuJywgJzgnLCAnLW1hJywgJzIwMCcsICctbWV0YWxfYmluZGluZycsICctaW1hZScsICc8aW5maWxlLm1hZT4nLCAnLW9tYWUnLCAnPG91dGZpbGUubWFlPic=

> <r_lp_tautomer_probability>
1

> <r_epik_Ionization_Penalty>
0.196927

> <r_epik_Ionization_Penalty_Charging>
0

> <r_epik_Ionization_Penalty_Neutral>
0.196927

> <r_epik_State_Penalty>
0.186684

> <r_epik_Charging_Adjusted_Penalty>
0.186684

> <i_epik_Tot_Q>
0

> <i_epik_Tot_abs_Q>
0

> <r_epik_Metal_State_Penalty>
0.186682

> <b_epik_Metal_Only>
0

> <s_lp_Force_Field>
OPLS_2005

> <r_lp_Energy>
26.9477

> <b_lp_Chiralities_Consistent>
1

> <s_lp_Variant>
AV-unprocessed.smi:1433-2

> <Gold.Version>
5.8.1

> <Gold.Id.Protein>
6NUR|6NUR_protein|mol2

> <Gold.PLP.Fitness>
45.8237

> <Gold.PLP.PLP>
-34.3169

> <Gold.PLP.part.hbond>
-2.0000

> <Gold.PLP.part.metal>
0.0000

> <Gold.PLP.part.buried>
-4.9587

> <Gold.PLP.part.nonpolar>
-27.9625

> <Gold.PLP.part.repulsive>
0.5161

> <Gold.PLP.ligand.clash>
0.0000

> <Gold.PLP.ligand.torsion>
0.2674

> <Gold.PLP.Chemscore.Hbond>
2.0000

> <Gold.PLP.Chemscore.CHOScore>
2.0000

> <Gold.PLP.Chemscore.Metal>
0.0000

> <Gold.Chemscore.Hbonds>
donor molecule, donor type, donor heavy atom, donor atom, acceptor molecule, acceptor atom, score
      L1  H     8    33       P1  7948  1.00
      P1  H  7989  7998       L1    20  0.55
      L1  C    13    36       P1  7948  1.00
      L1  C    15    38       P1 10186  0.52

> <Gold.PLP.Chemscore.Internal.Correction>
0.0417

> <Gold.Rescore>
     Score         DG    S(hbond)    S(metal)    S(lipo)     H(rot)  DE(clash)    DE(int)     intcor
     14.06     -14.75       1.48        0.00      76.33       1.80       0.42       0.26       ----

> <Gold.Chemscore.Fitness>
14.0642

> <Gold.Chemscore.DG>
-14.7495

> <Gold.Chemscore.ZeroCoef>
-5.4800

> <Gold.Chemscore.Hbond>
1.4842

> <Gold.Chemscore.Metal>
0.0000

> <Gold.Chemscore.Lipo>
76.3256

> <Gold.Chemscore.Internal_Hbond>
0.0000

> <Gold.Chemscore.DEClash>
0.4208

> <Gold.Chemscore.DEInternal>
0.2645

> <Gold.Chemscore.Rot>
1.8038

> <Gold.Chemscore.Internal.Correction>
   9.000000E+99

> <Gold.Chemscore.Hbonds>
donor molecule, donor type, donor heavy atom, donor atom, acceptor molecule, acceptor atom, score
      L1  H     8    33       P1  7948  1.00
      P1  H  7989  7998       L1    20  0.03

> <Gold.Chemscore.Hbond.Weighted>
-4.9571

> <Gold.Chemscore.Metal.Weighted>
-0.0000

> <Gold.Chemscore.Lipo.Weighted>
-8.9301

> <Gold.Chemscore.Internal_Hbond.Weighted>
0.0000

> <Gold.Chemscore.DEClash.Weighted>
0.4208

> <Gold.Chemscore.DEInternal.Weighted>
0.2645

> <Gold.Chemscore.Rot.Weighted>
4.6178

> <Gold.Chemscore.Internal.Correction.Weighted>
   9.000000E+99

> <Gold.Protein.RotatedTorsions>
[ 6907 6896 6895 6894 ] final  -47.80 input  -60.11 | X-H torsion
[ 7974 7965 7964 7962 ] final  -52.83 input  175.53 | X-H torsion
[ 8008 7997 7996 7995 ] final   72.41 input   59.86 | X-H torsion
[ 10167 10162 10161 10158 ] final   -1.53 input  -65.29 | X-H torsion
[ 10718 10713 10712 10709 ] final  163.58 input   66.30 | X-H torsion
[ 10763 10752 10751 10750 ] final  -57.88 input  -60.55 | X-H torsion
[ 11005 11000 10999 10996 ] final -133.88 input  -57.11 | X-H torsion

> <Gold.Protein.ActiveResidues>
 VAL166  LYS551  ARG553  GLY616  TRP617  ASP618  TYR619  PRO620  LYS621  CYS622 
 ASP623  PHE694  ASN695  SER759  ASP760  ASP761  ALA762  ILE779  LEU786  VAL792 
 PHE793  MET794  SER795  GLU796  ALA797  LYS798  CYS799  TRP800  GLU811  SER814 

> <Gold.Protein.RotatedAtoms>
  150.8971  134.8380  159.7333 H   0  0  0  0  0  0  0  0  0  0  0  0  # atno 6907 bound_to 6896
  152.4871  134.4560  159.9599 H   0  0  0  0  0  0  0  0  0  0  0  0  # atno 6908 bound_to 6896
  151.4616  133.3552  159.2845 H   0  0  0  0  0  0  0  0  0  0  0  0  # atno 6909 bound_to 6896
  145.9036  140.7974  142.9731 H   0  0  0  0  0  0  0  0  0  0  0  0  # atno 7974 bound_to 7965
  155.7684  140.3485  155.5234 H   0  0  0  0  0  0  0  0  0  0  0  0  # atno 8008 bound_to 7997
  155.8846  140.1008  157.1482 H   0  0  0  0  0  0  0  0  0  0  0  0  # atno 8009 bound_to 7997
  154.4028  140.1316  156.4226 H   0  0  0  0  0  0  0  0  0  0  0  0  # atno 8010 bound_to 7997
  140.6814  143.6764  150.8142 H   0  0  0  0  0  0  0  0  0  0  0  0  # atno 10167 bound_to 10162
  157.1065  131.0456  151.2475 H   0  0  0  0  0  0  0  0  0  0  0  0  # atno 10718 bound_to 10713
  154.2294  135.6363  153.5170 H   0  0  0  0  0  0  0  0  0  0  0  0  # atno 10763 bound_to 10752
  152.9952  135.5515  154.6029 H   0  0  0  0  0  0  0  0  0  0  0  0  # atno 10764 bound_to 10752
  154.5508  135.2901  155.0984 H   0  0  0  0  0  0  0  0  0  0  0  0  # atno 10765 bound_to 10752
  140.9041  134.1653  157.4439 H   0  0  0  0  0  0  0  0  0  0  0  0  # atno 11005 bound_to 11000
  144.6737  140.1715  143.7414 LP  0  0  0  0  0  0  0  0  0  0  0  0  # atno 17320 bound_to 7965
  145.8760  139.2297  143.1633 LP  0  0  0  0  0  0  0  0  0  0  0  0  # atno 17321 bound_to 7965
  140.0465  143.5293  152.2694 LP  0  0  0  0  0  0  0  0  0  0  0  0  # atno 17342 bound_to 10162
  139.6139  144.7615  151.2890 LP  0  0  0  0  0  0  0  0  0  0  0  0  # atno 17343 bound_to 10162
  157.4596  130.7645  149.7224 LP  0  0  0  0  0  0  0  0  0  0  0  0  # atno 17370 bound_to 10713
  155.9861  130.3978  150.3231 LP  0  0  0  0  0  0  0  0  0  0  0  0  # atno 17371 bound_to 10713
  139.8746  134.9910  156.5527 LP  0  0  0  0  0  0  0  0  0  0  0  0  # atno 17394 bound_to 11000
  140.8193  133.8366  155.8881 LP  0  0  0  0  0  0  0  0  0  0  0  0  # atno 17395 bound_to 11000

$$$$
