AV-unprocessed.smi:1224|AV-procd|sdf|5129|dock4
  -GOLD-   22720 4183D 1   1.00000     0.00000
 Structure written by MMmdl.
 44 46  0  0  0  0  0  0  0  0  2 V2000
  152.5629  143.4094  161.8716 C   0  0  0  0  0  0  0  0  0  0  0  0
  152.1447  142.9827  160.4755 C   0  0  0  0  0  0  0  0  0  0  0  0
  152.6812  141.7944  159.9306 C   0  0  0  0  0  0  0  0  0  0  0  0
  152.3149  141.3608  158.6377 C   0  0  0  0  0  0  0  0  0  0  0  0
  152.7086  140.2459  157.9175 N   0  0  0  0  0  0  0  0  0  0  0  0
  152.0223  140.3993  156.7888 C   0  0  0  0  0  0  0  0  0  0  0  0
  151.2306  141.4848  156.6915 N   0  0  0  0  0  0  0  0  0  0  0  0
  150.3928  141.8655  155.5688 C   0  0  0  0  0  0  0  0  0  0  0  0
  148.9761  141.2679  155.6649 C   0  0  1  0  0  0  0  0  0  0  0  0
  148.2234  141.9990  156.6144 O   0  0  0  0  0  0  0  0  0  0  0  0
  148.2436  141.3012  154.3143 C   0  0  0  0  0  0  0  0  0  0  0  0
  147.5607  142.5964  154.1078 N   0  3  0  0  0  0  0  0  0  0  0  0
  146.1871  142.5007  153.5712 C   0  0  0  0  0  0  0  0  0  0  0  0
  145.2580  143.4974  154.1851 C   0  0  0  0  0  0  0  0  0  0  0  0
  144.8374  143.5605  155.4895 C   0  0  0  0  0  0  0  0  0  0  0  0
  143.9410  144.6406  155.7378 C   0  0  0  0  0  0  0  0  0  0  0  0
  143.6892  145.3886  154.6189 C   0  0  0  0  0  0  0  0  0  0  0  0
  144.5503  144.7779  153.2329 S   0  0  0  0  0  0  0  0  0  0  0  0
  151.3904  142.1554  157.8989 C   0  0  0  0  0  0  0  0  0  0  0  0
  150.8508  143.3403  158.4294 C   0  0  0  0  0  0  0  0  0  0  0  0
  151.2268  143.7586  159.7230 C   0  0  0  0  0  0  0  0  0  0  0  0
  150.6369  145.0385  160.2886 C   0  0  0  0  0  0  0  0  0  0  0  0
  153.2940  142.7212  162.2967 H   0  0  0  0  0  0  0  0  0  0  0  0
  151.6994  143.4336  162.5366 H   0  0  0  0  0  0  0  0  0  0  0  0
  153.0127  144.4022  161.8504 H   0  0  0  0  0  0  0  0  0  0  0  0
  153.3800  141.2030  160.5039 H   0  0  0  0  0  0  0  0  0  0  0  0
  152.1018  139.6822  155.9848 H   0  0  0  0  0  0  0  0  0  0  0  0
  150.3490  142.9546  155.5161 H   0  0  0  0  0  0  0  0  0  0  0  0
  150.8830  141.5294  154.6543 H   0  0  0  0  0  0  0  0  0  0  0  0
  149.0489  140.2349  156.0086 H   0  0  0  0  0  0  0  0  0  0  0  0
  148.2172  142.9100  156.3617 H   0  0  0  0  0  0  0  0  0  0  0  0
  148.9429  141.1060  153.5002 H   0  0  0  0  0  0  0  0  0  0  0  0
  147.4925  140.5104  154.2864 H   0  0  0  0  0  0  0  0  0  0  0  0
  147.5163  143.0700  154.9988 H   0  0  0  0  0  0  0  0  0  0  0  0
  146.2113  142.6199  152.4873 H   0  0  0  0  0  0  0  0  0  0  0  0
  145.8167  141.4932  153.7627 H   0  0  0  0  0  0  0  0  0  0  0  0
  145.1379  142.8746  156.2679 H   0  0  0  0  0  0  0  0  0  0  0  0
  143.5188  144.8287  156.7140 H   0  0  0  0  0  0  0  0  0  0  0  0
  143.0543  146.2575  154.5248 H   0  0  0  0  0  0  0  0  0  0  0  0
  150.1523  143.9215  157.8459 H   0  0  0  0  0  0  0  0  0  0  0  0
  149.9373  145.4970  159.5893 H   0  0  0  0  0  0  0  0  0  0  0  0
  151.4250  145.7624  160.4970 H   0  0  0  0  0  0  0  0  0  0  0  0
  150.0990  144.8352  161.2148 H   0  0  0  0  0  0  0  0  0  0  0  0
  148.1170  143.1560  153.4771 H   0  0  0  0  0  0  0  0  0  0  0  0
  1  2  1  0  0  0  0
  1 23  1  0  0  0  0
  1 24  1  0  0  0  0
  1 25  1  0  0  0  0
  2 21  1  0  0  0  0
  2  3  2  0  0  0  0
  3  4  1  0  0  0  0
  3 26  1  0  0  0  0
  4 19  2  0  0  0  0
  4  5  1  0  0  0  0
  5  6  2  0  0  0  0
  6  7  1  0  0  0  0
  6 27  1  0  0  0  0
  7  8  1  0  0  0  0
  7 19  1  0  0  0  0
  8  9  1  0  0  0  0
  8 28  1  0  0  0  0
  8 29  1  0  0  0  0
  9 10  1  0  0  0  0
  9 11  1  0  0  0  0
  9 30  1  0  0  0  0
 10 31  1  0  0  0  0
 11 12  1  0  0  0  0
 11 32  1  0  0  0  0
 11 33  1  0  0  0  0
 12 13  1  0  0  0  0
 12 34  1  0  0  0  0
 12 44  1  0  0  0  0
 13 14  1  0  0  0  0
 13 35  1  0  0  0  0
 13 36  1  0  0  0  0
 14 18  1  0  0  0  0
 14 15  2  0  0  0  0
 15 16  1  0  0  0  0
 15 37  1  0  0  0  0
 16 17  2  0  0  0  0
 16 38  1  0  0  0  0
 17 18  1  0  0  0  0
 17 39  1  0  0  0  0
 19 20  1  0  0  0  0
 20 21  2  0  0  0  0
 20 40  1  0  0  0  0
 21 22  1  0  0  0  0
 22 41  1  0  0  0  0
 22 42  1  0  0  0  0
 22 43  1  0  0  0  0
M  CHG  1  12   1
M  END
> <s_m_source_file>
AV-unprocessed.smi

> <i_m_source_file_index>
1224

> <i_lp_mmshare_version>
43012

> <i_f3d_flags>
0

> <s_epik_input>
W0NIM11jKFtjSF0xKWMoW0NIM10pW2NIXWMoYzEyKW4oW2NIXW4yKVtDSDJdW0NASF0oW09IXSlbQ0gyXVtOSF1bQ0gyXWMzW2NIXVtjSF1bY0hdczM=

> <s_epik_cmdline>
J2VwaWtfcHl0aG9uJywgJy1waCcsICc3LjAnLCAnLXRuJywgJzgnLCAnLW1hJywgJzIwMCcsICctbWV0YWxfYmluZGluZycsICctaW1hZScsICc8aW5maWxlLm1hZT4nLCAnLW9tYWUnLCAnPG91dGZpbGUubWFlPic=

> <r_epik_Ionization_Penalty>
0.145091

> <r_epik_Ionization_Penalty_Charging>
0.0551904

> <r_epik_Ionization_Penalty_Neutral>
0.0899003

> <r_epik_State_Penalty>
0.131364

> <r_epik_Charging_Adjusted_Penalty>
0.186554

> <i_epik_Tot_Q>
1

> <i_epik_Tot_abs_Q>
1

> <r_epik_Metal_State_Penalty>
0.0472291

> <b_epik_Metal_Only>
0

> <s_lp_Force_Field>
OPLS_2005

> <r_lp_Energy>
7.75101

> <b_lp_Chiralities_Consistent>
1

> <s_lp_Variant>
AV-unprocessed.smi:1224-2

> <Gold.Version>
5.8.1

> <Gold.Id.Protein>
6NUR|6NUR_protein|mol2

> <Gold.PLP.Fitness>
57.2636

> <Gold.PLP.PLP>
-51.7672

> <Gold.PLP.part.hbond>
-3.0000

> <Gold.PLP.part.metal>
0.0000

> <Gold.PLP.part.buried>
-7.1016

> <Gold.PLP.part.nonpolar>
-39.2895

> <Gold.PLP.part.repulsive>
0.2037

> <Gold.PLP.ligand.clash>
0.0000

> <Gold.PLP.ligand.torsion>
1.4198

> <Gold.PLP.Chemscore.Hbond>
2.7525

> <Gold.PLP.Chemscore.CHOScore>
0.0000

> <Gold.PLP.Chemscore.Metal>
0.0000

> <Gold.Chemscore.Hbonds>
donor molecule, donor type, donor heavy atom, donor atom, acceptor molecule, acceptor atom, score
      L1  H    10    31       P1  8028  0.98
      L1  H    12    34       P1  8028  0.58
      P1  H  7997  8010       L1     5  0.62

> <Gold.PLP.Chemscore.Internal.Correction>
0.0786

> <Gold.Rescore>
     Score         DG    S(hbond)    S(metal)    S(lipo)     H(rot)  DE(clash)    DE(int)     intcor
     19.24     -21.23       1.59        0.00     142.34       2.42       0.57       1.42       ----

> <Gold.Chemscore.Fitness>
19.2438

> <Gold.Chemscore.DG>
-21.2339

> <Gold.Chemscore.ZeroCoef>
-5.4800

> <Gold.Chemscore.Hbond>
1.5885

> <Gold.Chemscore.Metal>
0.0000

> <Gold.Chemscore.Lipo>
142.3403

> <Gold.Chemscore.Internal_Hbond>
0.0000

> <Gold.Chemscore.DEClash>
0.5687

> <Gold.Chemscore.DEInternal>
1.4213

> <Gold.Chemscore.Rot>
2.4240

> <Gold.Chemscore.Internal.Correction>
   9.000000E+99

> <Gold.Chemscore.Hbonds>
donor molecule, donor type, donor heavy atom, donor atom, acceptor molecule, acceptor atom, score
      L1  H    10    31       P1  8028  0.64
      L1  H    12    34       P1  8028  0.13
      P1  H  7997  8010       L1     5  0.09

> <Gold.Chemscore.Hbond.Weighted>
-5.3056

> <Gold.Chemscore.Metal.Weighted>
-0.0000

> <Gold.Chemscore.Lipo.Weighted>
-16.6538

> <Gold.Chemscore.Internal_Hbond.Weighted>
0.0000

> <Gold.Chemscore.DEClash.Weighted>
0.5687

> <Gold.Chemscore.DEInternal.Weighted>
1.4213

> <Gold.Chemscore.Rot.Weighted>
6.2055

> <Gold.Chemscore.Internal.Correction.Weighted>
   9.000000E+99

> <Gold.Protein.RotatedTorsions>
[ 6907 6896 6895 6894 ] final  177.66 input  -60.11 | X-H torsion
[ 7974 7965 7964 7962 ] final  -35.08 input  175.53 | X-H torsion
[ 8008 7997 7996 7995 ] final   34.68 input   59.86 | X-H torsion
[ 10167 10162 10161 10158 ] final   78.86 input  -65.29 | X-H torsion
[ 10718 10713 10712 10709 ] final -123.37 input   66.30 | X-H torsion
[ 10763 10752 10751 10750 ] final   64.17 input  -60.55 | X-H torsion
[ 11005 11000 10999 10996 ] final   46.76 input  -57.11 | X-H torsion

> <Gold.Protein.ActiveResidues>
 VAL166  LYS551  ARG553  GLY616  TRP617  ASP618  TYR619  PRO620  LYS621  CYS622 
 ASP623  PHE694  ASN695  SER759  ASP760  ASP761  ALA762  ILE779  LEU786  VAL792 
 PHE793  MET794  SER795  GLU796  ALA797  LYS798  CYS799  TRP800  GLU811  SER814 

> <Gold.Protein.RotatedAtoms>
  151.7005  133.3311  159.3264 H   0  0  0  0  0  0  0  0  0  0  0  0  # atno 6907 bound_to 6896
  150.7738  134.6620  159.6354 H   0  0  0  0  0  0  0  0  0  0  0  0  # atno 6908 bound_to 6896
  152.3773  134.6647  160.0207 H   0  0  0  0  0  0  0  0  0  0  0  0  # atno 6909 bound_to 6896
  146.0776  140.6116  142.8923 H   0  0  0  0  0  0  0  0  0  0  0  0  # atno 7974 bound_to 7965
  155.1588  140.3281  155.4416 H   0  0  0  0  0  0  0  0  0  0  0  0  # atno 8008 bound_to 7997
  156.2550  140.1964  156.6646 H   0  0  0  0  0  0  0  0  0  0  0  0  # atno 8009 bound_to 7997
  154.6420  140.0569  156.9843 H   0  0  0  0  0  0  0  0  0  0  0  0  # atno 8010 bound_to 7997
  139.9665  144.5925  150.8024 H   0  0  0  0  0  0  0  0  0  0  0  0  # atno 10167 bound_to 10162
  156.1496  130.6525  150.9894 H   0  0  0  0  0  0  0  0  0  0  0  0  # atno 10718 bound_to 10713
  153.0045  135.5403  154.6467 H   0  0  0  0  0  0  0  0  0  0  0  0  # atno 10763 bound_to 10752
  154.5709  135.2841  155.0830 H   0  0  0  0  0  0  0  0  0  0  0  0  # atno 10764 bound_to 10752
  154.1996  135.6486  153.5136 H   0  0  0  0  0  0  0  0  0  0  0  0  # atno 10765 bound_to 10752
  140.1340  134.4669  155.8499 H   0  0  0  0  0  0  0  0  0  0  0  0  # atno 11005 bound_to 11000
  144.7272  140.4561  143.6964 LP  0  0  0  0  0  0  0  0  0  0  0  0  # atno 17320 bound_to 7965
  145.6277  139.1532  143.2986 LP  0  0  0  0  0  0  0  0  0  0  0  0  # atno 17321 bound_to 7965
  140.7536  143.3012  151.3077 LP  0  0  0  0  0  0  0  0  0  0  0  0  # atno 17342 bound_to 10162
  139.6514  144.0356  152.2629 LP  0  0  0  0  0  0  0  0  0  0  0  0  # atno 17343 bound_to 10162
  157.6646  131.0874  150.7759 LP  0  0  0  0  0  0  0  0  0  0  0  0  # atno 17370 bound_to 10713
  156.7828  130.4865  149.5398 LP  0  0  0  0  0  0  0  0  0  0  0  0  # atno 17371 bound_to 10713
  141.2175  133.6807  156.7123 LP  0  0  0  0  0  0  0  0  0  0  0  0  # atno 17394 bound_to 11000
  140.2806  134.8320  157.3929 LP  0  0  0  0  0  0  0  0  0  0  0  0  # atno 17395 bound_to 11000

$$$$
