AV-unprocessed.smi:1830|AV-procd|sdf|7432|dock2
  -GOLD-   22720 9113D 1   1.00000     0.00000
 Structure written by MMmdl.
 53 56  0  0  0  0  0  0  0  0  2 V2000
  150.7980  132.1836  157.6081 O   0  0  0  0  0  0  0  0  0  0  0  0
  149.8728  132.8755  157.1831 C   0  0  0  0  0  0  0  0  0  0  0  0
  149.6547  133.1135  155.8826 N   0  0  0  0  0  0  0  0  0  0  0  0
  150.3513  132.4509  154.7833 C   0  0  0  0  0  0  0  0  0  0  0  0
  149.3830  132.0041  153.6671 C   0  0  2  0  0  0  0  0  0  0  0  0
  148.6509  133.1891  152.9824 C   0  0  0  0  0  0  0  0  0  0  0  0
  147.6539  132.6499  152.0406 N   0  3  2  0  0  0  0  0  0  0  0  0
  146.8300  133.6046  151.2776 C   0  0  0  0  0  0  0  0  0  0  0  0
  145.5290  132.8424  150.9543 C   0  0  0  0  0  0  0  0  0  0  0  0
  145.6606  131.4787  151.6538 C   0  0  0  0  0  0  0  0  0  0  0  0
  146.7191  131.7481  152.7169 C   0  0  1  0  0  0  0  0  0  0  0  0
  147.5007  130.5569  153.2816 C   0  0  0  0  0  0  0  0  0  0  0  0
  148.4450  131.0724  154.2198 O   0  0  0  0  0  0  0  0  0  0  0  0
  148.9279  133.4446  157.9471 N   0  0  0  0  0  0  0  0  0  0  0  0
  148.6683  133.1265  159.3054 C   0  0  0  0  0  0  0  0  0  0  0  0
  148.7130  131.7812  159.7398 C   0  0  0  0  0  0  0  0  0  0  0  0
  148.5188  131.4917  161.1011 C   0  0  0  0  0  0  0  0  0  0  0  0
  148.3011  132.5640  161.9824 C   0  0  0  0  0  0  0  0  0  0  0  0
  148.2649  133.8515  161.5830 N   0  0  0  0  0  0  0  0  0  0  0  0
  148.4338  134.1483  160.2706 C   0  0  0  0  0  0  0  0  0  0  0  0
  148.3546  135.5158  159.9129 N   0  0  0  0  0  0  0  0  0  0  0  0
  147.3003  135.9905  159.0223 C   0  0  0  0  0  0  0  0  0  0  0  0
  147.7532  137.3766  158.5700 C   0  0  0  0  0  0  0  0  0  0  0  0
  149.2678  137.2168  158.4899 C   0  0  0  0  0  0  0  0  0  0  0  0
  149.5854  136.2488  159.6326 C   0  0  0  0  0  0  0  0  0  0  0  0
  148.8849  133.7175  155.6345 H   0  0  0  0  0  0  0  0  0  0  0  0
  151.0739  133.1583  154.3761 H   0  0  0  0  0  0  0  0  0  0  0  0
  150.9293  131.6013  155.1506 H   0  0  0  0  0  0  0  0  0  0  0  0
  149.9640  131.4712  152.9125 H   0  0  0  0  0  0  0  0  0  0  0  0
  148.1438  133.8190  153.7130 H   0  0  0  0  0  0  0  0  0  0  0  0
  149.3604  133.8209  152.4473 H   0  0  0  0  0  0  0  0  0  0  0  0
  146.6099  134.4838  151.8846 H   0  0  0  0  0  0  0  0  0  0  0  0
  147.3542  133.9345  150.3804 H   0  0  0  0  0  0  0  0  0  0  0  0
  144.6713  133.3912  151.3452 H   0  0  0  0  0  0  0  0  0  0  0  0
  145.3814  132.7231  149.8806 H   0  0  0  0  0  0  0  0  0  0  0  0
  144.7187  131.1251  152.0744 H   0  0  0  0  0  0  0  0  0  0  0  0
  146.0178  130.7296  150.9458 H   0  0  0  0  0  0  0  0  0  0  0  0
  146.2446  132.2854  153.5410 H   0  0  0  0  0  0  0  0  0  0  0  0
  146.8309  129.8646  153.7918 H   0  0  0  0  0  0  0  0  0  0  0  0
  148.0108  130.0006  152.4938 H   0  0  0  0  0  0  0  0  0  0  0  0
  148.1864  133.9259  157.4596 H   0  0  0  0  0  0  0  0  0  0  0  0
  148.9089  130.9775  159.0454 H   0  0  0  0  0  0  0  0  0  0  0  0
  148.5471  130.4740  161.4615 H   0  0  0  0  0  0  0  0  0  0  0  0
  148.1540  132.3846  163.0371 H   0  0  0  0  0  0  0  0  0  0  0  0
  147.2092  135.3374  158.1533 H   0  0  0  0  0  0  0  0  0  0  0  0
  146.3359  136.0247  159.5296 H   0  0  0  0  0  0  0  0  0  0  0  0
  147.3041  137.6832  157.6252 H   0  0  0  0  0  0  0  0  0  0  0  0
  147.4962  138.1191  159.3268 H   0  0  0  0  0  0  0  0  0  0  0  0
  149.5389  136.7616  157.5365 H   0  0  0  0  0  0  0  0  0  0  0  0
  149.8020  138.1632  158.5749 H   0  0  0  0  0  0  0  0  0  0  0  0
  149.8612  136.8097  160.5252 H   0  0  0  0  0  0  0  0  0  0  0  0
  150.4123  135.5860  159.3747 H   0  0  0  0  0  0  0  0  0  0  0  0
  148.1490  132.0902  151.3611 H   0  0  0  0  0  0  0  0  0  0  0  0
  1  2  2  0  0  0  0
  2  3  1  0  0  0  0
  2 14  1  0  0  0  0
  3  4  1  0  0  0  0
  3 26  1  0  0  0  0
  4  5  1  0  0  0  0
  4 27  1  0  0  0  0
  4 28  1  0  0  0  0
  5 13  1  0  0  0  0
  5  6  1  0  0  0  0
  5 29  1  0  0  0  0
  6  7  1  0  0  0  0
  6 30  1  0  0  0  0
  6 31  1  0  0  0  0
  7 11  1  0  0  0  0
  7  8  1  0  0  0  0
  7 53  1  0  0  0  0
  8  9  1  0  0  0  0
  8 32  1  0  0  0  0
  8 33  1  0  0  0  0
  9 10  1  0  0  0  0
  9 34  1  0  0  0  0
  9 35  1  0  0  0  0
 10 11  1  0  0  0  0
 10 36  1  0  0  0  0
 10 37  1  0  0  0  0
 11 12  1  0  0  0  0
 11 38  1  0  0  0  0
 12 13  1  0  0  0  0
 12 39  1  0  0  0  0
 12 40  1  0  0  0  0
 14 15  1  0  0  0  0
 14 41  1  0  0  0  0
 15 20  1  0  0  0  0
 15 16  2  0  0  0  0
 16 17  1  0  0  0  0
 16 42  1  0  0  0  0
 17 18  2  0  0  0  0
 17 43  1  0  0  0  0
 18 19  1  0  0  0  0
 18 44  1  0  0  0  0
 19 20  2  0  0  0  0
 20 21  1  0  0  0  0
 21 25  1  0  0  0  0
 21 22  1  0  0  0  0
 22 23  1  0  0  0  0
 22 45  1  0  0  0  0
 22 46  1  0  0  0  0
 23 24  1  0  0  0  0
 23 47  1  0  0  0  0
 23 48  1  0  0  0  0
 24 25  1  0  0  0  0
 24 49  1  0  0  0  0
 24 50  1  0  0  0  0
 25 51  1  0  0  0  0
 25 52  1  0  0  0  0
M  CHG  1   7   1
M  END
> <s_m_source_file>
AV-unprocessed.smi

> <i_m_source_file_index>
1830

> <i_lp_mmshare_version>
43012

> <i_f3d_flags>
0

> <s_epik_input>
W0NIMl0xW0NIMl1bQ0gyXVtDQEhdKE4xMilbQ0gyXU9bQ0BASF0oW0NIMl0yKVtDSDJdW05IXUMoPU8pW05IXWMzW2NIXVtjSF1bY0hdbmMzTjRbQ0gyXVtDSDJdW0NIMl1bQ0gyXTQ=

> <s_epik_cmdline>
J2VwaWtfcHl0aG9uJywgJy1waCcsICc3LjAnLCAnLXRuJywgJzgnLCAnLW1hJywgJzIwMCcsICctbWV0YWxfYmluZGluZycsICctaW1hZScsICc8aW5maWxlLm1hZT4nLCAnLW9tYWUnLCAnPG91dGZpbGUubWFlPic=

> <r_lp_tautomer_probability>
1

> <r_epik_Ionization_Penalty>
0.193547

> <r_epik_Ionization_Penalty_Charging>
0.10673

> <r_epik_Ionization_Penalty_Neutral>
0.0868166

> <r_epik_State_Penalty>
0.173595

> <r_epik_Charging_Adjusted_Penalty>
0.280326

> <i_epik_Tot_Q>
1

> <i_epik_Tot_abs_Q>
1

> <r_epik_Metal_State_Penalty>
0.164683

> <b_epik_Metal_Only>
0

> <s_lp_Force_Field>
OPLS_2005

> <r_lp_Energy>
64.1667

> <b_lp_Chiralities_Consistent>
1

> <s_lp_Variant>
AV-unprocessed.smi:1830-1

> <Gold.Version>
5.8.1

> <Gold.Id.Protein>
6NUR|6NUR_protein|mol2

> <Gold.PLP.Fitness>
41.0235

> <Gold.PLP.PLP>
-35.8676

> <Gold.PLP.part.hbond>
-2.0000

> <Gold.PLP.part.metal>
0.0000

> <Gold.PLP.part.buried>
-6.6841

> <Gold.PLP.part.nonpolar>
-27.1688

> <Gold.PLP.part.repulsive>
0.1465

> <Gold.PLP.ligand.clash>
0.0000

> <Gold.PLP.ligand.torsion>
0.6605

> <Gold.PLP.Chemscore.Hbond>
2.0000

> <Gold.PLP.Chemscore.CHOScore>
0.0000

> <Gold.PLP.Chemscore.Metal>
0.0000

> <Gold.Chemscore.Hbonds>
donor molecule, donor type, donor heavy atom, donor atom, acceptor molecule, acceptor atom, score
      L1  H     7    53       P1 10747  1.00
      P1  H  6896  6908       L1     1  0.80

> <Gold.PLP.Chemscore.Internal.Correction>
0.4769

> <Gold.Rescore>
     Score         DG    S(hbond)    S(metal)    S(lipo)     H(rot)  DE(clash)    DE(int)     intcor
     16.22     -17.99       1.99        0.00      80.90       1.41       0.00       1.76       ----

> <Gold.Chemscore.Fitness>
16.2188

> <Gold.Chemscore.DG>
-17.9882

> <Gold.Chemscore.ZeroCoef>
-5.4800

> <Gold.Chemscore.Hbond>
1.9892

> <Gold.Chemscore.Metal>
0.0000

> <Gold.Chemscore.Lipo>
80.9002

> <Gold.Chemscore.Internal_Hbond>
0.0000

> <Gold.Chemscore.DEClash>
0.0048

> <Gold.Chemscore.DEInternal>
1.7646

> <Gold.Chemscore.Rot>
1.4067

> <Gold.Chemscore.Internal.Correction>
   9.000000E+99

> <Gold.Chemscore.Hbonds>
donor molecule, donor type, donor heavy atom, donor atom, acceptor molecule, acceptor atom, score
      L1  H     7    53       P1 10747  1.00
      P1  H  6896  6908       L1     1  0.13

> <Gold.Chemscore.Hbond.Weighted>
-6.6440

> <Gold.Chemscore.Metal.Weighted>
-0.0000

> <Gold.Chemscore.Lipo.Weighted>
-9.4653

> <Gold.Chemscore.Internal_Hbond.Weighted>
0.0000

> <Gold.Chemscore.DEClash.Weighted>
0.0048

> <Gold.Chemscore.DEInternal.Weighted>
1.7646

> <Gold.Chemscore.Rot.Weighted>
3.6011

> <Gold.Chemscore.Internal.Correction.Weighted>
   9.000000E+99

> <Gold.Protein.RotatedTorsions>
[ 6907 6896 6895 6894 ] final   82.95 input  -60.11 | X-H torsion
[ 7974 7965 7964 7962 ] final   33.25 input  175.53 | X-H torsion
[ 8008 7997 7996 7995 ] final  124.05 input   59.86 | X-H torsion
[ 10167 10162 10161 10158 ] final  101.01 input  -65.29 | X-H torsion
[ 10718 10713 10712 10709 ] final   92.22 input   66.30 | X-H torsion
[ 10763 10752 10751 10750 ] final -156.73 input  -60.55 | X-H torsion
[ 11005 11000 10999 10996 ] final  -63.10 input  -57.11 | X-H torsion

> <Gold.Protein.ActiveResidues>
 VAL166  LYS551  ARG553  GLY616  TRP617  ASP618  TYR619  PRO620  LYS621  CYS622 
 ASP623  PHE694  ASN695  SER759  ASP760  ASP761  ALA762  ILE779  LEU786  VAL792 
 PHE793  MET794  SER795  GLU796  ALA797  LYS798  CYS799  TRP800  GLU811  SER814 

> <Gold.Protein.RotatedAtoms>
  152.5314  134.2970  159.9063 H   0  0  0  0  0  0  0  0  0  0  0  0  # atno 6907 bound_to 6896
  151.2921  133.4154  159.2641 H   0  0  0  0  0  0  0  0  0  0  0  0  # atno 6908 bound_to 6896
  151.0192  134.9472  159.8107 H   0  0  0  0  0  0  0  0  0  0  0  0  # atno 6909 bound_to 6896
  146.1433  139.6421  142.9148 H   0  0  0  0  0  0  0  0  0  0  0  0  # atno 7974 bound_to 7965
  156.2788  140.2748  156.1726 H   0  0  0  0  0  0  0  0  0  0  0  0  # atno 8008 bound_to 7997
  155.0639  140.0387  157.2604 H   0  0  0  0  0  0  0  0  0  0  0  0  # atno 8009 bound_to 7997
  154.7095  140.2665  155.6648 H   0  0  0  0  0  0  0  0  0  0  0  0  # atno 8010 bound_to 7997
  139.7476  144.6993  151.0481 H   0  0  0  0  0  0  0  0  0  0  0  0  # atno 10167 bound_to 10162
  157.6959  131.0435  150.3848 H   0  0  0  0  0  0  0  0  0  0  0  0  # atno 10718 bound_to 10713
  154.7690  135.3139  154.8227 H   0  0  0  0  0  0  0  0  0  0  0  0  # atno 10763 bound_to 10752
  153.8968  135.6820  153.4761 H   0  0  0  0  0  0  0  0  0  0  0  0  # atno 10764 bound_to 10752
  153.1301  135.4784  154.9269 H   0  0  0  0  0  0  0  0  0  0  0  0  # atno 10765 bound_to 10752
  141.1382  133.6648  156.5629 H   0  0  0  0  0  0  0  0  0  0  0  0  # atno 11005 bound_to 11000
  145.4996  141.0438  143.2548 LP  0  0  0  0  0  0  0  0  0  0  0  0  # atno 17320 bound_to 7965
  144.7817  139.6511  143.7151 LP  0  0  0  0  0  0  0  0  0  0  0  0  # atno 17321 bound_to 7965
  140.7794  143.4848  150.9970 LP  0  0  0  0  0  0  0  0  0  0  0  0  # atno 17342 bound_to 10162
  139.8536  143.7406  152.3177 LP  0  0  0  0  0  0  0  0  0  0  0  0  # atno 17343 bound_to 10162
  156.4258  130.3962  149.6794 LP  0  0  0  0  0  0  0  0  0  0  0  0  # atno 17370 bound_to 10713
  156.4029  130.7683  151.2692 LP  0  0  0  0  0  0  0  0  0  0  0  0  # atno 17371 bound_to 10713
  140.3974  134.7387  157.4759 LP  0  0  0  0  0  0  0  0  0  0  0  0  # atno 17394 bound_to 11000
  140.0521  134.6115  155.8849 LP  0  0  0  0  0  0  0  0  0  0  0  0  # atno 17395 bound_to 11000

$$$$
