AV-unprocessed.smi:1624|AV-procd|sdf|6504|dock2
  -GOLD-   22720 7173D 1   1.00000     0.00000
 Structure written by MMmdl.
 35 36  0  0  0  0  0  0  0  0  2 V2000
  141.4232  136.5609  158.4624 O   0  0  0  0  0  0  0  0  0  0  0  0
  142.3172  137.2417  157.9537 C   0  0  0  0  0  0  0  0  0  0  0  0
  143.4387  137.4952  158.6438 N   0  0  0  0  0  0  0  0  0  0  0  0
  143.7340  137.0226  159.9918 C   0  0  0  0  0  0  0  0  0  0  0  0
  144.8782  137.8283  160.6341 C   0  0  0  0  0  0  0  0  0  0  0  0
  145.5411  137.0632  161.6956 N   0  0  0  0  0  0  0  0  0  0  0  0
  144.6779  136.6198  162.8011 C   0  0  0  0  0  0  0  0  0  0  0  0
  144.4127  135.0977  162.8052 C   0  0  0  0  0  0  0  0  0  0  0  0
  145.5539  134.2101  162.2704 C   0  0  0  0  0  0  0  0  0  0  0  0
  146.9409  134.4874  162.8873 C   0  0  0  0  0  0  0  0  0  0  0  0
  147.4658  135.9417  162.7948 C   0  0  0  0  0  0  0  0  0  0  0  0
  146.8639  136.7717  161.6485 C   0  0  0  0  0  0  0  0  0  0  0  0
  147.6013  137.1416  160.7345 O   0  0  0  0  0  0  0  0  0  0  0  0
  142.3018  137.7869  156.7159 N   0  5  0  0  0  0  0  0  0  0  0  0
  141.3130  137.4791  155.8605 C   0  0  0  0  0  0  0  0  0  0  0  0
  140.0904  137.1104  156.2757 N   0  0  0  0  0  0  0  0  0  0  0  0
  139.2176  136.8388  155.2304 N   0  0  0  0  0  0  0  0  0  0  0  0
  139.8048  137.0198  154.0477 C   0  0  0  0  0  0  0  0  0  0  0  0
  141.4757  137.5403  154.1032 S   0  0  0  0  0  0  0  0  0  0  0  0
  144.1456  138.0562  158.1913 H   0  0  0  0  0  0  0  0  0  0  0  0
  142.8264  137.1149  160.5885 H   0  0  0  0  0  0  0  0  0  0  0  0
  143.9803  135.9597  159.9664 H   0  0  0  0  0  0  0  0  0  0  0  0
  145.6091  138.1171  159.8774 H   0  0  0  0  0  0  0  0  0  0  0  0
  144.4945  138.7702  161.0300 H   0  0  0  0  0  0  0  0  0  0  0  0
  145.1267  136.9181  163.7487 H   0  0  0  0  0  0  0  0  0  0  0  0
  143.7246  137.1498  162.7861 H   0  0  0  0  0  0  0  0  0  0  0  0
  144.1531  134.7892  163.8182 H   0  0  0  0  0  0  0  0  0  0  0  0
  143.5269  134.8988  162.2012 H   0  0  0  0  0  0  0  0  0  0  0  0
  145.2942  133.1651  162.4418 H   0  0  0  0  0  0  0  0  0  0  0  0
  145.6123  134.3108  161.1856 H   0  0  0  0  0  0  0  0  0  0  0  0
  146.9255  134.1908  163.9365 H   0  0  0  0  0  0  0  0  0  0  0  0
  147.6634  133.8255  162.4088 H   0  0  0  0  0  0  0  0  0  0  0  0
  147.2890  136.4637  163.7350 H   0  0  0  0  0  0  0  0  0  0  0  0
  148.5512  135.9229  162.6889 H   0  0  0  0  0  0  0  0  0  0  0  0
  139.2501  136.8489  153.1372 H   0  0  0  0  0  0  0  0  0  0  0  0
  1  2  2  0  0  0  0
  2  3  1  0  0  0  0
  2 14  1  0  0  0  0
  3  4  1  0  0  0  0
  3 20  1  0  0  0  0
  4  5  1  0  0  0  0
  4 21  1  0  0  0  0
  4 22  1  0  0  0  0
  5  6  1  0  0  0  0
  5 23  1  0  0  0  0
  5 24  1  0  0  0  0
  6 12  1  0  0  0  0
  6  7  1  0  0  0  0
  7  8  1  0  0  0  0
  7 25  1  0  0  0  0
  7 26  1  0  0  0  0
  8  9  1  0  0  0  0
  8 27  1  0  0  0  0
  8 28  1  0  0  0  0
  9 10  1  0  0  0  0
  9 29  1  0  0  0  0
  9 30  1  0  0  0  0
 10 11  1  0  0  0  0
 10 31  1  0  0  0  0
 10 32  1  0  0  0  0
 11 12  1  0  0  0  0
 11 33  1  0  0  0  0
 11 34  1  0  0  0  0
 12 13  2  0  0  0  0
 14 15  1  0  0  0  0
 15 19  1  0  0  0  0
 15 16  2  0  0  0  0
 16 17  1  0  0  0  0
 17 18  2  0  0  0  0
 18 19  1  0  0  0  0
 18 35  1  0  0  0  0
M  CHG  1  14  -1
M  END
> <s_m_source_file>
AV-unprocessed.smi

> <i_m_source_file_index>
1624

> <i_lp_mmshare_version>
43012

> <i_f3d_flags>
0

> <s_epik_input>
czFbY0hdbm5jMVtOSF1DKD1PKVtOSF1bQ0gyXVtDSDJdTjJbQ0gyXVtDSDJdW0NIMl1bQ0gyXVtDSDJdQzI9Tw==

> <s_epik_cmdline>
J2VwaWtfcHl0aG9uJywgJy1waCcsICc3LjAnLCAnLXRuJywgJzgnLCAnLW1hJywgJzIwMCcsICctbWV0YWxfYmluZGluZycsICctaW1hZScsICc8aW5maWxlLm1hZT4nLCAnLW9tYWUnLCAnPG91dGZpbGUubWFlPic=

> <r_lp_tautomer_probability>
1

> <r_epik_Ionization_Penalty>
3.35684

> <r_epik_Ionization_Penalty_Charging>
3.31562

> <r_epik_Ionization_Penalty_Neutral>
0.0412242

> <r_epik_State_Penalty>
3.31341

> <r_epik_Charging_Adjusted_Penalty>
6.62903

> <i_epik_Tot_Q>
-1

> <i_epik_Tot_abs_Q>
1

> <r_epik_Metal_State_Penalty>
0.484053

> <b_epik_Metal_Only>
1

> <s_lp_Force_Field>
OPLS_2005

> <r_lp_Energy>
19.6576

> <b_lp_Chiralities_Consistent>
1

> <s_lp_Variant>
AV-unprocessed.smi:1624-2

> <Gold.Version>
5.8.1

> <Gold.Id.Protein>
6NUR|6NUR_protein|mol2

> <Gold.PLP.Fitness>
41.0752

> <Gold.PLP.PLP>
-31.1139

> <Gold.PLP.part.hbond>
-5.0000

> <Gold.PLP.part.metal>
0.0000

> <Gold.PLP.part.buried>
-5.1625

> <Gold.PLP.part.nonpolar>
-22.0043

> <Gold.PLP.part.repulsive>
0.0763

> <Gold.PLP.ligand.clash>
0.0000

> <Gold.PLP.ligand.torsion>
0.4070

> <Gold.PLP.Chemscore.Hbond>
2.5920

> <Gold.PLP.Chemscore.CHOScore>
0.9668

> <Gold.PLP.Chemscore.Metal>
0.0000

> <Gold.Chemscore.Hbonds>
donor molecule, donor type, donor heavy atom, donor atom, acceptor molecule, acceptor atom, score
      P1  H  6931  6943       L1    13  0.55
      P1  H  6934  6947       L1    13  0.73
      P1  H 11000 11005       L1     1  0.23
      L1  C    18    35       P1 10187  0.13

> <Gold.PLP.Chemscore.Internal.Correction>
0.0990

> <Gold.Rescore>
     Score         DG    S(hbond)    S(metal)    S(lipo)     H(rot)  DE(clash)    DE(int)     intcor
     14.54     -16.73       2.76        0.00      55.34       1.73       0.18       2.01       ----

> <Gold.Chemscore.Fitness>
14.5402

> <Gold.Chemscore.DG>
-16.7328

> <Gold.Chemscore.ZeroCoef>
-5.4800

> <Gold.Chemscore.Hbond>
2.7600

> <Gold.Chemscore.Metal>
0.0000

> <Gold.Chemscore.Lipo>
55.3423

> <Gold.Chemscore.Internal_Hbond>
0.0000

> <Gold.Chemscore.DEClash>
0.1818

> <Gold.Chemscore.DEInternal>
2.0108

> <Gold.Chemscore.Rot>
1.7346

> <Gold.Chemscore.Internal.Correction>
   9.000000E+99

> <Gold.Chemscore.Hbonds>
donor molecule, donor type, donor heavy atom, donor atom, acceptor molecule, acceptor atom, score
      P1  H  6931  6943       L1    13  0.12
      P1  H  6934  6947       L1    13  0.09
      P1  H 11000 11005       L1     1  0.24

> <Gold.Chemscore.Hbond.Weighted>
-9.2183

> <Gold.Chemscore.Metal.Weighted>
-0.0000

> <Gold.Chemscore.Lipo.Weighted>
-6.4751

> <Gold.Chemscore.Internal_Hbond.Weighted>
0.0000

> <Gold.Chemscore.DEClash.Weighted>
0.1818

> <Gold.Chemscore.DEInternal.Weighted>
2.0108

> <Gold.Chemscore.Rot.Weighted>
4.4406

> <Gold.Chemscore.Internal.Correction.Weighted>
   9.000000E+99

> <Gold.Protein.RotatedTorsions>
[ 6907 6896 6895 6894 ] final  142.73 input  -60.11 | X-H torsion
[ 7974 7965 7964 7962 ] final  120.09 input  175.53 | X-H torsion
[ 8008 7997 7996 7995 ] final -169.85 input   59.86 | X-H torsion
[ 10167 10162 10161 10158 ] final  -43.91 input  -65.29 | X-H torsion
[ 10718 10713 10712 10709 ] final  132.71 input   66.30 | X-H torsion
[ 10763 10752 10751 10750 ] final -166.64 input  -60.55 | X-H torsion
[ 11005 11000 10999 10996 ] final -167.17 input  -57.11 | X-H torsion

> <Gold.Protein.ActiveResidues>
 VAL166  LYS551  ARG553  GLY616  TRP617  ASP618  TYR619  PRO620  LYS621  CYS622 
 ASP623  PHE694  ASN695  SER759  ASP760  ASP761  ALA762  ILE779  LEU786  VAL792 
 PHE793  MET794  SER795  GLU796  ALA797  LYS798  CYS799  TRP800  GLU811  SER814 

> <Gold.Protein.RotatedAtoms>
  152.2151  133.4941  159.5131 H   0  0  0  0  0  0  0  0  0  0  0  0  # atno 6907 bound_to 6896
  150.6999  134.1416  159.4116 H   0  0  0  0  0  0  0  0  0  0  0  0  # atno 6908 bound_to 6896
  151.9336  135.0245  160.0581 H   0  0  0  0  0  0  0  0  0  0  0  0  # atno 6909 bound_to 6896
  145.1354  139.3301  143.4644 H   0  0  0  0  0  0  0  0  0  0  0  0  # atno 7974 bound_to 7965
  155.9105  140.1056  157.1283 H   0  0  0  0  0  0  0  0  0  0  0  0  # atno 8008 bound_to 7997
  154.4039  140.1275  156.4616 H   0  0  0  0  0  0  0  0  0  0  0  0  # atno 8009 bound_to 7997
  155.7316  140.3468  155.5064 H   0  0  0  0  0  0  0  0  0  0  0  0  # atno 8010 bound_to 7997
  140.6916  143.2958  151.3419 H   0  0  0  0  0  0  0  0  0  0  0  0  # atno 10167 bound_to 10162
  157.4844  131.1087  150.9639 H   0  0  0  0  0  0  0  0  0  0  0  0  # atno 10718 bound_to 10713
  154.6812  135.2955  154.9610 H   0  0  0  0  0  0  0  0  0  0  0  0  # atno 10763 bound_to 10752
  154.0604  135.6632  153.4815 H   0  0  0  0  0  0  0  0  0  0  0  0  # atno 10764 bound_to 10752
  153.0549  135.5151  154.7856 H   0  0  0  0  0  0  0  0  0  0  0  0  # atno 10765 bound_to 10752
  140.5563  134.5378  157.5133 H   0  0  0  0  0  0  0  0  0  0  0  0  # atno 11005 bound_to 11000
  146.3510  140.1369  142.8595 LP  0  0  0  0  0  0  0  0  0  0  0  0  # atno 17320 bound_to 7965
  145.0590  140.9074  143.4950 LP  0  0  0  0  0  0  0  0  0  0  0  0  # atno 17321 bound_to 7965
  139.6326  144.0692  152.2489 LP  0  0  0  0  0  0  0  0  0  0  0  0  # atno 17342 bound_to 10162
  140.0171  144.6180  150.7598 LP  0  0  0  0  0  0  0  0  0  0  0  0  # atno 17343 bound_to 10162
  157.0361  130.5730  149.5349 LP  0  0  0  0  0  0  0  0  0  0  0  0  # atno 17370 bound_to 10713
  156.0139  130.5232  150.8074 LP  0  0  0  0  0  0  0  0  0  0  0  0  # atno 17371 bound_to 10713
  139.9430  134.7753  156.0631 LP  0  0  0  0  0  0  0  0  0  0  0  0  # atno 17394 bound_to 11000
  141.1141  133.6633  156.3052 LP  0  0  0  0  0  0  0  0  0  0  0  0  # atno 17395 bound_to 11000

$$$$
