#       Name:                AV-unprocessed.smi:2190
#       Creating user name   scv26
#       Creation time:       Fri Mar 27 12:09:15 2020


#       File generated by GOLD software.
#

@<TRIPOS>MOLECULE
AV-unprocessed.smi:2190
    53    55     1
SMALL
NO_CHARGES


@<TRIPOS>ATOM
      1 ****        -5.8770   0.0418  -2.2909 C.3            1 S1                 0.0000
      2 ****        -4.6729   0.9192  -2.0161 C.ar           1 S1                 0.0000
      3 ****        -4.7634   2.3170  -2.1619 C.ar           1 S1                 0.0000
      4 ****        -3.6401   3.1241  -1.9069 C.ar           1 S1                 0.0000
      5 ****        -2.4204   2.5401  -1.5068 C.ar           1 S1                 0.0000
      6 ****        -1.2183   3.4252  -1.2349 C.3            1 S1                 0.0000
      7 ****        -2.3151   1.1377  -1.3590 C.ar           1 S1                 0.0000
      8 ****        -1.0920   0.6324  -0.9702 O.3            1 S1                 0.0000
      9 ****        -0.9646  -0.7693  -0.7680 C.3            1 S1                 0.0000
     10 ****         0.4664  -1.1017  -0.3133 C.3            1 S1                 0.0000
     11 ****         1.3276  -1.0805  -1.4344 O.3            1 S1                 0.0000
     12 ****         0.9843  -0.1906   0.8190 C.3            1 S1                 0.0000
     13 ****         2.3096  -0.5781   1.2836 N.pl3          1 S1                 0.0000
     14 ****         3.5078  -0.0180   0.9779 C.2            1 S1                 0.0000
     15 ****         3.6098   1.1639   0.0550 C.3            1 S1                 0.0000
     16 ****         4.9331   1.4845  -0.3246 O.3            1 S1                 0.0000
     17 ****         4.5708  -0.5814   1.5580 N.2            1 S1                 0.0000
     18 ****         4.0105  -1.5990   2.3043 C.ar           1 S1                 0.0000
     19 ****         4.6137  -2.5606   3.1462 C.ar           1 S1                 0.0000
     20 ****         3.8239  -3.5162   3.8189 C.ar           1 S1                 0.0000
     21 ****         2.4228  -3.5238   3.6599 C.ar           1 S1                 0.0000
     22 ****         1.8020  -2.5743   2.8255 C.ar           1 S1                 0.0000
     23 ****         2.5953  -1.6232   2.1561 C.ar           1 S1                 0.0000
     24 ****        -3.4547   0.3335  -1.6165 C.ar           1 S1                 0.0000
     25 ****        -6.7819   0.6370  -2.4174 H              1 S1                 0.0000
     26 ****        -6.0400  -0.6505  -1.4645 H              1 S1                 0.0000
     27 ****        -5.7198  -0.5388  -3.2002 H              1 S1                 0.0000
     28 ****        -5.6919   2.7753  -2.4696 H              1 S1                 0.0000
     29 ****        -3.7198   4.1953  -2.0208 H              1 S1                 0.0000
     30 ****        -0.8436   3.2575  -0.2247 H              1 S1                 0.0000
     31 ****        -1.4697   4.4818  -1.3310 H              1 S1                 0.0000
     32 ****        -0.4175   3.2009  -1.9401 H              1 S1                 0.0000
     33 ****        -1.6622  -1.0790   0.0120 H              1 S1                 0.0000
     34 ****        -1.2119  -1.3240  -1.6749 H              1 S1                 0.0000
     35 ****         0.4668  -2.1322   0.0438 H              1 S1                 0.0000
     36 ****         1.0012  -1.6925  -2.0763 H              1 S1                 0.0000
     37 ****         1.0019   0.8526   0.5036 H              1 S1                 0.0000
     38 ****         0.3026  -0.2352   1.6692 H              1 S1                 0.0000
     39 ****         3.0355   0.9698  -0.8506 H              1 S1                 0.0000
     40 ****         3.1669   2.0325   0.5429 H              1 S1                 0.0000
     41 ****         4.9066   2.2300  -0.9042 H              1 S1                 0.0000
     42 ****         5.6860  -2.5622   3.2748 H              1 S1                 0.0000
     43 ****         4.2955  -4.2462   4.4604 H              1 S1                 0.0000
     44 ****         1.8253  -4.2586   4.1791 H              1 S1                 0.0000
     45 ****         0.7294  -2.5769   2.7013 H              1 S1                 0.0000
     46 ****        -3.4179  -0.7406  -1.5159 H              1 S1                 0.0000
     47 ****        -0.8506   1.0772  -0.1077 LP             1 S1                 0.0000
     48 ****        -0.4302   0.8894  -1.6744 LP             1 S1                 0.0000
     49 ****         2.2507  -1.3451  -1.1553 LP             1 S1                 0.0000
     50 ****         1.3485  -0.1605  -1.8259 LP             1 S1                 0.0000
     51 ****         5.3469   0.7056  -0.7957 LP             1 S1                 0.0000
     52 ****         5.4722   1.7077   0.4875 LP             1 S1                 0.0000
     53 ****         5.5346  -0.3286   1.4729 LP             1 S1                 0.0000
@<TRIPOS>BOND
    1    1    2 1     
    2    1   25 1     
    3    1   26 1     
    4    1   27 1     
    5    2   24 ar    
    6    2    3 ar    
    7    3    4 ar    
    8    3   28 1     
    9    4    5 ar    
   10    4   29 1     
   11    5    6 1     
   12    5    7 ar    
   13    6   30 1     
   14    6   31 1     
   15    6   32 1     
   16    7    8 1     
   17    7   24 ar    
   18    8    9 1     
   19    9   10 1     
   20    9   33 1     
   21    9   34 1     
   22   10   11 1     
   23   10   12 1     
   24   10   35 1     
   25   11   36 1     
   26   12   13 1     
   27   12   37 1     
   28   12   38 1     
   29   13   23 1     
   30   13   14 1     
   31   14   15 1     
   32   14   17 2     
   33   15   16 1     
   34   15   39 1     
   35   15   40 1     
   36   16   41 1     
   37   17   18 1     
   38   18   23 ar    
   39   18   19 ar    
   40   19   20 ar    
   41   19   42 1     
   42   20   21 ar    
   43   20   43 1     
   44   21   22 ar    
   45   21   44 1     
   46   22   23 ar    
   47   22   45 1     
   48   24   46 1     
   49    8   47 1     
   50    8   48 1     
   51   11   49 1     
   52   11   50 1     
   53   16   51 1     
   54   16   52 1     
   55   17   53 1     
@<TRIPOS>SUBSTRUCTURE
      1 S1             1
@<TRIPOS>SET
LONE_PAIRS      STATIC     ATOMS    <user>   **** ""
7 47 48 49 50 51 52 53
DONOR_HYDROGENS      STATIC     ATOMS    <user>   **** ""
2 36 41
ATOM$BLUE        STATIC     ATOMS    COLORGROUP SYSTEM
7 47 48 49 50 51 52 53
ATOM$RED        STATIC     ATOMS    COLORGROUP SYSTEM
2 36 41
