AV-unprocessed.smi:1725|AV-procd|sdf|6953|dock2
  -GOLD-   22720 8163D 1   1.00000     0.00000
 Structure written by MMmdl.
 36 37  0  0  0  0  0  0  0  0  1 V2000
  150.6555  135.2943  156.5604 C   0  0  0  0  0  0  0  0  0  0  0  0
  150.0462  135.4389  155.1580 C   0  0  2  0  0  0  0  0  0  0  0  0
  149.3410  136.6765  155.1231 O   0  0  0  0  0  0  0  0  0  0  0  0
  150.0445  137.7596  154.5280 C   0  0  0  0  0  0  0  0  0  0  0  0
  151.2952  138.0289  155.3360 C   0  0  0  0  0  0  0  0  0  0  0  0
  151.7770  139.4458  155.5495 C   0  0  0  0  0  0  0  0  0  0  0  0
  152.5609  138.5108  154.6639 C   0  0  0  0  0  0  0  0  0  0  0  0
  149.0939  134.2748  154.8395 C   0  0  0  0  0  0  0  0  0  0  0  0
  148.8098  133.4687  155.7250 O   0  0  0  0  0  0  0  0  0  0  0  0
  148.6102  134.2508  153.5814 N   0  0  0  0  0  0  0  0  0  0  0  0
  147.7416  133.3299  152.9708 C   0  0  0  0  0  0  0  0  0  0  0  0
  146.7393  133.6527  152.1119 C   0  0  0  0  0  0  0  0  0  0  0  0
  145.8698  132.6468  151.5276 C   0  0  0  0  0  0  0  0  0  0  0  0
  144.7691  133.0390  150.5551 C   0  0  0  0  0  0  0  0  0  0  0  0
  144.7661  134.3502  150.3107 F   0  0  0  0  0  0  0  0  0  0  0  0
  144.9309  132.3971  149.3987 F   0  0  0  0  0  0  0  0  0  0  0  0
  143.5782  132.7017  151.0489 F   0  0  0  0  0  0  0  0  0  0  0  0
  146.0984  131.3703  151.8881 C   0  0  0  0  0  0  0  0  0  0  0  0
  147.1194  131.0306  152.7783 N   0  0  0  0  0  0  0  0  0  0  0  0
  147.9608  131.9231  153.3471 C   0  0  0  0  0  0  0  0  0  0  0  0
  148.8371  131.5428  154.1227 O   0  0  0  0  0  0  0  0  0  0  0  0
  147.2251  130.0516  153.0031 H   0  0  0  0  0  0  0  0  0  0  0  0
  151.2007  134.3553  156.6611 H   0  0  0  0  0  0  0  0  0  0  0  0
  149.8899  135.3233  157.3366 H   0  0  0  0  0  0  0  0  0  0  0  0
  151.3569  136.1043  156.7612 H   0  0  0  0  0  0  0  0  0  0  0  0
  150.8618  135.4649  154.4324 H   0  0  0  0  0  0  0  0  0  0  0  0
  150.3144  137.5185  153.4987 H   0  0  0  0  0  0  0  0  0  0  0  0
  149.4403  138.6670  154.5123 H   0  0  0  0  0  0  0  0  0  0  0  0
  151.4276  137.3519  156.1779 H   0  0  0  0  0  0  0  0  0  0  0  0
  151.2237  140.2483  155.0658 H   0  0  0  0  0  0  0  0  0  0  0  0
  152.2000  139.6913  156.5214 H   0  0  0  0  0  0  0  0  0  0  0  0
  153.5063  138.1296  155.0448 H   0  0  0  0  0  0  0  0  0  0  0  0
  152.5291  138.6903  153.5910 H   0  0  0  0  0  0  0  0  0  0  0  0
  148.8868  135.0192  152.9869 H   0  0  0  0  0  0  0  0  0  0  0  0
  146.5377  134.6760  151.8420 H   0  0  0  0  0  0  0  0  0  0  0  0
  145.5315  130.5229  151.5316 H   0  0  0  0  0  0  0  0  0  0  0  0
  1  2  1  0  0  0  0
  1 23  1  0  0  0  0
  1 24  1  0  0  0  0
  1 25  1  0  0  0  0
  2  3  1  0  0  0  0
  2  8  1  0  0  0  0
  2 26  1  0  0  0  0
  3  4  1  0  0  0  0
  4  5  1  0  0  0  0
  4 27  1  0  0  0  0
  4 28  1  0  0  0  0
  5  7  1  0  0  0  0
  5  6  1  0  0  0  0
  5 29  1  0  0  0  0
  6  7  1  0  0  0  0
  6 30  1  0  0  0  0
  6 31  1  0  0  0  0
  7 32  1  0  0  0  0
  7 33  1  0  0  0  0
  8  9  2  0  0  0  0
  8 10  1  0  0  0  0
 10 11  1  0  0  0  0
 10 34  1  0  0  0  0
 11 20  1  0  0  0  0
 11 12  2  0  0  0  0
 12 13  1  0  0  0  0
 12 35  1  0  0  0  0
 13 14  1  0  0  0  0
 13 18  2  0  0  0  0
 14 15  1  0  0  0  0
 14 16  1  0  0  0  0
 14 17  1  0  0  0  0
 18 19  1  0  0  0  0
 18 36  1  0  0  0  0
 19 22  1  0  0  0  0
 19 20  1  0  0  0  0
 20 21  2  0  0  0  0
M  END
> <s_m_source_file>
AV-unprocessed.smi

> <i_m_source_file_index>
1725

> <i_lp_mmshare_version>
43012

> <i_f3d_flags>
0

> <s_epik_input>
W0NIMl0xW0NIMl1bQ0hdMVtDSDJdT1tDQEBIXShbQ0gzXSlDKD1PKVtOSF1jMltjSF1jKEMoRikoRilGKVtjSF1bbkhdYzI9Tw==

> <s_epik_cmdline>
J2VwaWtfcHl0aG9uJywgJy1waCcsICc3LjAnLCAnLXRuJywgJzgnLCAnLW1hJywgJzIwMCcsICctbWV0YWxfYmluZGluZycsICctaW1hZScsICc8aW5maWxlLm1hZT4nLCAnLW9tYWUnLCAnPG91dGZpbGUubWFlPic=

> <r_lp_tautomer_probability>
0.999

> <r_epik_Ionization_Penalty>
0.00763408

> <r_epik_Ionization_Penalty_Charging>
0.00763398

> <r_epik_Ionization_Penalty_Neutral>
9.25705e-08

> <r_epik_State_Penalty>
0.00571302

> <r_epik_Charging_Adjusted_Penalty>
0.013347

> <i_epik_Tot_Q>
0

> <i_epik_Tot_abs_Q>
0

> <r_epik_Metal_State_Penalty>
0.392814

> <b_epik_Metal_Only>
0

> <s_lp_Force_Field>
OPLS_2005

> <r_lp_Energy>
28.2776

> <b_lp_Chiralities_Consistent>
1

> <s_lp_Variant>
AV-unprocessed.smi:1725-1

> <Gold.Version>
5.8.1

> <Gold.Id.Protein>
6NUR|6NUR_protein|mol2

> <Gold.PLP.Fitness>
40.6093

> <Gold.PLP.PLP>
-40.4235

> <Gold.PLP.part.hbond>
-2.0000

> <Gold.PLP.part.metal>
0.0000

> <Gold.PLP.part.buried>
-4.1196

> <Gold.PLP.part.nonpolar>
-34.4736

> <Gold.PLP.part.repulsive>
0.2319

> <Gold.PLP.ligand.clash>
0.0000

> <Gold.PLP.ligand.torsion>
1.4504

> <Gold.PLP.Chemscore.Hbond>
0.8000

> <Gold.PLP.Chemscore.CHOScore>
0.0000

> <Gold.PLP.Chemscore.Metal>
0.0000

> <Gold.Chemscore.Hbonds>
donor molecule, donor type, donor heavy atom, donor atom, acceptor molecule, acceptor atom, score
      L1  H    10    34       P1  7948  0.95

> <Gold.PLP.Chemscore.Internal.Correction>
0.6867

> <Gold.Rescore>
     Score         DG    S(hbond)    S(metal)    S(lipo)     H(rot)  DE(clash)    DE(int)     intcor
      5.78     -11.47       0.91        0.00      64.41       1.79       0.11       5.57       ----

> <Gold.Chemscore.Fitness>
5.7812

> <Gold.Chemscore.DG>
-11.4666

> <Gold.Chemscore.ZeroCoef>
-5.4800

> <Gold.Chemscore.Hbond>
0.9111

> <Gold.Chemscore.Metal>
0.0000

> <Gold.Chemscore.Lipo>
64.4085

> <Gold.Chemscore.Internal_Hbond>
0.0000

> <Gold.Chemscore.DEClash>
0.1119

> <Gold.Chemscore.DEInternal>
5.5734

> <Gold.Chemscore.Rot>
1.7938

> <Gold.Chemscore.Internal.Correction>
   9.000000E+99

> <Gold.Chemscore.Hbonds>
donor molecule, donor type, donor heavy atom, donor atom, acceptor molecule, acceptor atom, score
      L1  H    10    34       P1  7948  0.21

> <Gold.Chemscore.Hbond.Weighted>
-3.0430

> <Gold.Chemscore.Metal.Weighted>
-0.0000

> <Gold.Chemscore.Lipo.Weighted>
-7.5358

> <Gold.Chemscore.Internal_Hbond.Weighted>
0.0000

> <Gold.Chemscore.DEClash.Weighted>
0.1119

> <Gold.Chemscore.DEInternal.Weighted>
5.5734

> <Gold.Chemscore.Rot.Weighted>
4.5922

> <Gold.Chemscore.Internal.Correction.Weighted>
   9.000000E+99

> <Gold.Protein.RotatedTorsions>
[ 6907 6896 6895 6894 ] final  -78.35 input  -60.11 | X-H torsion
[ 7974 7965 7964 7962 ] final  -45.83 input  175.53 | X-H torsion
[ 8008 7997 7996 7995 ] final  -62.36 input   59.86 | X-H torsion
[ 10167 10162 10161 10158 ] final   54.09 input  -65.29 | X-H torsion
[ 10718 10713 10712 10709 ] final   35.45 input   66.30 | X-H torsion
[ 10763 10752 10751 10750 ] final -159.48 input  -60.55 | X-H torsion
[ 11005 11000 10999 10996 ] final  -54.83 input  -57.11 | X-H torsion

> <Gold.Protein.ActiveResidues>
 VAL166  LYS551  ARG553  GLY616  TRP617  ASP618  TYR619  PRO620  LYS621  CYS622 
 ASP623  PHE694  ASN695  SER759  ASP760  ASP761  ALA762  ILE779  LEU786  VAL792 
 PHE793  MET794  SER795  GLU796  ALA797  LYS798  CYS799  TRP800  GLU811  SER814 

> <Gold.Protein.RotatedAtoms>
  150.6975  134.4285  159.5237 H   0  0  0  0  0  0  0  0  0  0  0  0  # atno 6907 bound_to 6896
  152.2016  134.8580  160.0516 H   0  0  0  0  0  0  0  0  0  0  0  0  # atno 6908 bound_to 6896
  151.9498  133.3627  159.4032 H   0  0  0  0  0  0  0  0  0  0  0  0  # atno 6909 bound_to 6896
  145.9781  140.7313  142.9377 H   0  0  0  0  0  0  0  0  0  0  0  0  # atno 7974 bound_to 7965
  154.4496  140.0997  156.6576 H   0  0  0  0  0  0  0  0  0  0  0  0  # atno 8008 bound_to 7997
  155.5329  140.3482  155.4411 H   0  0  0  0  0  0  0  0  0  0  0  0  # atno 8009 bound_to 7997
  156.0651  140.1336  156.9884 H   0  0  0  0  0  0  0  0  0  0  0  0  # atno 8010 bound_to 7997
  140.2338  144.3658  150.6405 H   0  0  0  0  0  0  0  0  0  0  0  0  # atno 10167 bound_to 10162
  157.3228  130.7457  149.6796 H   0  0  0  0  0  0  0  0  0  0  0  0  # atno 10718 bound_to 10713
  154.7471  135.3083  154.8625 H   0  0  0  0  0  0  0  0  0  0  0  0  # atno 10763 bound_to 10752
  153.9422  135.6773  153.4748 H   0  0  0  0  0  0  0  0  0  0  0  0  # atno 10764 bound_to 10752
  153.1067  135.4885  154.8891 H   0  0  0  0  0  0  0  0  0  0  0  0  # atno 10765 bound_to 10752
  141.1045  133.6614  156.4379 H   0  0  0  0  0  0  0  0  0  0  0  0  # atno 11005 bound_to 11000
  144.6854  140.2862  143.7285 LP  0  0  0  0  0  0  0  0  0  0  0  0  # atno 17320 bound_to 7965
  145.7809  139.1891  143.2158 LP  0  0  0  0  0  0  0  0  0  0  0  0  # atno 17321 bound_to 7965
  140.6165  143.2173  151.6781 LP  0  0  0  0  0  0  0  0  0  0  0  0  # atno 17342 bound_to 10162
  139.5101  144.3555  152.0611 LP  0  0  0  0  0  0  0  0  0  0  0  0  # atno 17343 bound_to 10162
  155.9687  130.4218  150.4486 LP  0  0  0  0  0  0  0  0  0  0  0  0  # atno 17370 bound_to 10713
  157.2505  131.0545  151.2382 LP  0  0  0  0  0  0  0  0  0  0  0  0  # atno 17371 bound_to 10713
  140.4938  134.6550  157.5221 LP  0  0  0  0  0  0  0  0  0  0  0  0  # atno 17394 bound_to 11000
  139.9909  134.6987  155.9691 LP  0  0  0  0  0  0  0  0  0  0  0  0  # atno 17395 bound_to 11000

$$$$
