AV-unprocessed.smi:2896|AV-procd|sdf|11139|dock1
  -GOLD-   2272016 13D 1   1.00000     0.00000
 Structure written by MMmdl.
 49 50  0  0  0  0  0  0  0  0  1 V2000
  149.2683  132.9871  155.0349 C   0  0  0  0  0  0  0  0  0  0  0  0
  148.9899  134.4910  154.8399 C   0  0  1  0  0  0  0  0  0  0  0  0
  147.5173  134.8879  155.0943 C   0  0  0  0  0  0  0  0  0  0  0  0
  146.8036  135.2020  153.8614 N   0  0  0  0  0  0  0  0  0  0  0  0
  145.4824  135.4270  153.7623 C   0  0  0  0  0  0  0  0  0  0  0  0
  144.7336  135.3588  154.7387 O   0  0  0  0  0  0  0  0  0  0  0  0
  144.9136  135.7576  152.3583 C   0  0  0  0  0  0  0  0  0  0  0  0
  143.4693  136.3052  152.5067 C   0  0  0  0  0  0  0  0  0  0  0  0
  145.7293  136.8884  151.6781 C   0  0  0  0  0  0  0  0  0  0  0  0
  144.9719  134.4641  151.5198 C   0  0  0  0  0  0  0  0  0  0  0  0
  146.1809  133.7636  151.2835 C   0  0  0  0  0  0  0  0  0  0  0  0
  146.1637  132.5929  150.5017 C   0  0  0  0  0  0  0  0  0  0  0  0
  144.9355  132.1561  149.9731 C   0  0  0  0  0  0  0  0  0  0  0  0
  143.7732  132.8074  150.1775 N   0  0  0  0  0  0  0  0  0  0  0  0
  143.8000  133.9282  150.9289 C   0  0  0  0  0  0  0  0  0  0  0  0
  150.0033  135.4034  155.5745 C   0  0  0  0  0  0  0  0  0  0  0  0
  150.4179  136.6405  154.9046 N   0  0  0  0  0  0  0  0  0  0  0  0
  151.6038  137.1987  155.5475 C   0  0  0  0  0  0  0  0  0  0  0  0
  152.0772  138.4942  154.8674 C   0  0  0  0  0  0  0  0  0  0  0  0
  151.0174  139.4438  154.8703 O   0  0  0  0  0  0  0  0  0  0  0  0
  149.8534  138.9626  154.2077 C   0  0  0  0  0  0  0  0  0  0  0  0
  149.3731  137.6609  154.8740 C   0  0  0  0  0  0  0  0  0  0  0  0
  148.9978  132.6354  156.0282 H   0  0  0  0  0  0  0  0  0  0  0  0
  150.3228  132.7601  154.8769 H   0  0  0  0  0  0  0  0  0  0  0  0
  148.7037  132.3886  154.3195 H   0  0  0  0  0  0  0  0  0  0  0  0
  149.1801  134.6691  153.7805 H   0  0  0  0  0  0  0  0  0  0  0  0
  146.9829  134.0722  155.5807 H   0  0  0  0  0  0  0  0  0  0  0  0
  147.4656  135.7368  155.7782 H   0  0  0  0  0  0  0  0  0  0  0  0
  147.3569  135.2643  153.0191 H   0  0  0  0  0  0  0  0  0  0  0  0
  142.8044  135.6160  153.0286 H   0  0  0  0  0  0  0  0  0  0  0  0
  143.0242  136.5153  151.5335 H   0  0  0  0  0  0  0  0  0  0  0  0
  143.4570  137.2383  153.0717 H   0  0  0  0  0  0  0  0  0  0  0  0
  146.7822  136.6446  151.5395 H   0  0  0  0  0  0  0  0  0  0  0  0
  145.6931  137.8090  152.2626 H   0  0  0  0  0  0  0  0  0  0  0  0
  145.3260  137.1174  150.6911 H   0  0  0  0  0  0  0  0  0  0  0  0
  147.1253  134.0973  151.6833 H   0  0  0  0  0  0  0  0  0  0  0  0
  147.0732  132.0432  150.3101 H   0  0  0  0  0  0  0  0  0  0  0  0
  144.8860  131.2626  149.3686 H   0  0  0  0  0  0  0  0  0  0  0  0
  142.8443  134.4151  151.0480 H   0  0  0  0  0  0  0  0  0  0  0  0
  149.6420  135.6267  156.5795 H   0  0  0  0  0  0  0  0  0  0  0  0
  150.8982  134.7975  155.7249 H   0  0  0  0  0  0  0  0  0  0  0  0
  151.3935  137.4016  156.5989 H   0  0  0  0  0  0  0  0  0  0  0  0
  152.4139  136.4689  155.5279 H   0  0  0  0  0  0  0  0  0  0  0  0
  152.9321  138.9120  155.3993 H   0  0  0  0  0  0  0  0  0  0  0  0
  152.3999  138.2990  153.8435 H   0  0  0  0  0  0  0  0  0  0  0  0
  149.0747  139.7236  154.2574 H   0  0  0  0  0  0  0  0  0  0  0  0
  150.0716  138.7966  153.1517 H   0  0  0  0  0  0  0  0  0  0  0  0
  148.5124  137.3007  154.3161 H   0  0  0  0  0  0  0  0  0  0  0  0
  149.0310  137.8743  155.8878 H   0  0  0  0  0  0  0  0  0  0  0  0
  1  2  1  0  0  0  0
  1 23  1  0  0  0  0
  1 24  1  0  0  0  0
  1 25  1  0  0  0  0
  2  3  1  0  0  0  0
  2 16  1  0  0  0  0
  2 26  1  0  0  0  0
  3  4  1  0  0  0  0
  3 27  1  0  0  0  0
  3 28  1  0  0  0  0
  4  5  1  0  0  0  0
  4 29  1  0  0  0  0
  5  6  2  0  0  0  0
  5  7  1  0  0  0  0
  7  8  1  0  0  0  0
  7  9  1  0  0  0  0
  7 10  1  0  0  0  0
  8 30  1  0  0  0  0
  8 31  1  0  0  0  0
  8 32  1  0  0  0  0
  9 33  1  0  0  0  0
  9 34  1  0  0  0  0
  9 35  1  0  0  0  0
 10 15  1  0  0  0  0
 10 11  2  0  0  0  0
 11 12  1  0  0  0  0
 11 36  1  0  0  0  0
 12 13  2  0  0  0  0
 12 37  1  0  0  0  0
 13 14  1  0  0  0  0
 13 38  1  0  0  0  0
 14 15  2  0  0  0  0
 15 39  1  0  0  0  0
 16 17  1  0  0  0  0
 16 40  1  0  0  0  0
 16 41  1  0  0  0  0
 17 22  1  0  0  0  0
 17 18  1  0  0  0  0
 18 19  1  0  0  0  0
 18 42  1  0  0  0  0
 18 43  1  0  0  0  0
 19 20  1  0  0  0  0
 19 44  1  0  0  0  0
 19 45  1  0  0  0  0
 20 21  1  0  0  0  0
 21 22  1  0  0  0  0
 21 46  1  0  0  0  0
 21 47  1  0  0  0  0
 22 48  1  0  0  0  0
 22 49  1  0  0  0  0
M  END
> <s_m_source_file>
AV-unprocessed.smi

> <i_m_source_file_index>
2896

> <i_lp_mmshare_version>
43012

> <i_f3d_flags>
0

> <s_epik_input>
W0NIMl0xW0NIMl1PW0NIMl1bQ0gyXU4xW0NIMl1bQ0BIXShbQ0gzXSlbQ0gyXVtOSF1DKD1PKUMoW0NIM10pKFtDSDNdKWMyW2NIXVtjSF1bY0hdbltjSF0y

> <s_epik_cmdline>
J2VwaWtfcHl0aG9uJywgJy1waCcsICc3LjAnLCAnLXRuJywgJzgnLCAnLW1hJywgJzIwMCcsICctbWV0YWxfYmluZGluZycsICctaW1hZScsICc8aW5maWxlLm1hZT4nLCAnLW9tYWUnLCAnPG91dGZpbGUubWFlPic=

> <r_epik_Ionization_Penalty>
0.458454

> <r_epik_Ionization_Penalty_Charging>
0

> <r_epik_Ionization_Penalty_Neutral>
0.458454

> <r_epik_State_Penalty>
0.453234

> <r_epik_Charging_Adjusted_Penalty>
0.453234

> <i_epik_Tot_Q>
0

> <i_epik_Tot_abs_Q>
0

> <r_epik_Metal_State_Penalty>
0.448418

> <b_epik_Metal_Only>
0

> <s_lp_Force_Field>
OPLS_2005

> <r_lp_Energy>
37.0423

> <b_lp_Chiralities_Consistent>
1

> <s_lp_Variant>
AV-unprocessed.smi:2896-4

> <Gold.Version>
5.8.1

> <Gold.Id.Protein>
6NUR|6NUR_protein|mol2

> <Gold.PLP.Fitness>
41.7781

> <Gold.PLP.PLP>
-35.6513

> <Gold.PLP.part.hbond>
-2.0000

> <Gold.PLP.part.metal>
0.0000

> <Gold.PLP.part.buried>
-1.1175

> <Gold.PLP.part.nonpolar>
-32.7931

> <Gold.PLP.part.repulsive>
0.4783

> <Gold.PLP.ligand.clash>
0.0000

> <Gold.PLP.ligand.torsion>
1.6428

> <Gold.PLP.Chemscore.Hbond>
2.0000

> <Gold.PLP.Chemscore.CHOScore>
1.0000

> <Gold.PLP.Chemscore.Metal>
0.0000

> <Gold.Chemscore.Hbonds>
donor molecule, donor type, donor heavy atom, donor atom, acceptor molecule, acceptor atom, score
      L1  H     4    29       P1  7948  0.63
      P1  H  7989  7998       L1    20  0.91
      L1  C    15    39       P1 10186  0.93

> <Gold.PLP.Chemscore.Internal.Correction>
0.4124

> <Gold.Rescore>
     Score         DG    S(hbond)    S(metal)    S(lipo)     H(rot)  DE(clash)    DE(int)     intcor
     13.71     -16.52       1.04        0.00     101.36       1.68       0.80       2.01       ----

> <Gold.Chemscore.Fitness>
13.7071

> <Gold.Chemscore.DG>
-16.5157

> <Gold.Chemscore.ZeroCoef>
-5.4800

> <Gold.Chemscore.Hbond>
1.0437

> <Gold.Chemscore.Metal>
0.0000

> <Gold.Chemscore.Lipo>
101.3562

> <Gold.Chemscore.Internal_Hbond>
0.0000

> <Gold.Chemscore.DEClash>
0.7954

> <Gold.Chemscore.DEInternal>
2.0132

> <Gold.Chemscore.Rot>
1.6832

> <Gold.Chemscore.Internal.Correction>
   9.000000E+99

> <Gold.Chemscore.Hbonds>
donor molecule, donor type, donor heavy atom, donor atom, acceptor molecule, acceptor atom, score
      L1  H     4    29       P1  7948  0.60
      P1  H  7989  7998       L1    20  0.09

> <Gold.Chemscore.Hbond.Weighted>
-3.4860

> <Gold.Chemscore.Metal.Weighted>
-0.0000

> <Gold.Chemscore.Lipo.Weighted>
-11.8587

> <Gold.Chemscore.Internal_Hbond.Weighted>
0.0000

> <Gold.Chemscore.DEClash.Weighted>
0.7954

> <Gold.Chemscore.DEInternal.Weighted>
2.0132

> <Gold.Chemscore.Rot.Weighted>
4.3090

> <Gold.Chemscore.Internal.Correction.Weighted>
   9.000000E+99

> <Gold.Protein.RotatedTorsions>
[ 6907 6896 6895 6894 ] final   89.45 input  -60.11 | X-H torsion
[ 7974 7965 7964 7962 ] final -141.64 input  175.53 | X-H torsion
[ 8008 7997 7996 7995 ] final  107.69 input   59.86 | X-H torsion
[ 10167 10162 10161 10158 ] final -122.31 input  -65.29 | X-H torsion
[ 10718 10713 10712 10709 ] final   53.76 input   66.30 | X-H torsion
[ 10763 10752 10751 10750 ] final  146.05 input  -60.55 | X-H torsion
[ 11005 11000 10999 10996 ] final   38.98 input  -57.11 | X-H torsion

> <Gold.Protein.ActiveResidues>
 VAL166  LYS551  ARG553  GLY616  TRP617  ASP618  TYR619  PRO620  LYS621  CYS622 
 ASP623  PHE694  ASN695  SER759  ASP760  ASP761  ALA762  ILE779  LEU786  VAL792 
 PHE793  MET794  SER795  GLU796  ALA797  LYS798  CYS799  TRP800  GLU811  SER814 

> <Gold.Protein.RotatedAtoms>
  152.5436  134.1964  159.8694 H   0  0  0  0  0  0  0  0  0  0  0  0  # atno 6907 bound_to 6896
  151.1956  133.4634  159.2603 H   0  0  0  0  0  0  0  0  0  0  0  0  # atno 6908 bound_to 6896
  151.1040  135.0001  159.8518 H   0  0  0  0  0  0  0  0  0  0  0  0  # atno 6909 bound_to 6896
  144.8503  140.6055  143.5394 H   0  0  0  0  0  0  0  0  0  0  0  0  # atno 7974 bound_to 7965
  156.1844  140.3090  155.9210 H   0  0  0  0  0  0  0  0  0  0  0  0  # atno 8008 bound_to 7997
  155.3313  140.0461  157.3059 H   0  0  0  0  0  0  0  0  0  0  0  0  # atno 8009 bound_to 7997
  154.5379  140.2252  155.8701 H   0  0  0  0  0  0  0  0  0  0  0  0  # atno 8010 bound_to 7997
  140.0157  143.5396  152.2243 H   0  0  0  0  0  0  0  0  0  0  0  0  # atno 10167 bound_to 10162
  157.5196  130.8556  149.8541 H   0  0  0  0  0  0  0  0  0  0  0  0  # atno 10718 bound_to 10713
  154.0155  135.2910  155.3387 H   0  0  0  0  0  0  0  0  0  0  0  0  # atno 10763 bound_to 10752
  154.7077  135.5162  153.8623 H   0  0  0  0  0  0  0  0  0  0  0  0  # atno 10764 bound_to 10752
  153.0704  135.6645  154.0382 H   0  0  0  0  0  0  0  0  0  0  0  0  # atno 10765 bound_to 10752
  140.2073  134.3797  155.8066 H   0  0  0  0  0  0  0  0  0  0  0  0  # atno 11005 bound_to 11000
  145.4512  139.1523  143.3917 LP  0  0  0  0  0  0  0  0  0  0  0  0  # atno 17320 bound_to 7965
  146.2779  140.4638  142.8788 LP  0  0  0  0  0  0  0  0  0  0  0  0  # atno 17321 bound_to 7965
  139.6174  144.7622  151.2815 LP  0  0  0  0  0  0  0  0  0  0  0  0  # atno 17342 bound_to 10162
  140.7363  143.6710  150.8081 LP  0  0  0  0  0  0  0  0  0  0  0  0  # atno 17343 bound_to 10162
  156.0344  130.3755  150.1600 LP  0  0  0  0  0  0  0  0  0  0  0  0  # atno 17370 bound_to 10713
  156.9788  130.9857  151.3442 LP  0  0  0  0  0  0  0  0  0  0  0  0  # atno 17371 bound_to 10713
  141.2227  133.7125  156.8359 LP  0  0  0  0  0  0  0  0  0  0  0  0  # atno 17394 bound_to 11000
  140.1989  134.8912  157.3146 LP  0  0  0  0  0  0  0  0  0  0  0  0  # atno 17395 bound_to 11000

$$$$
