#       Name:                AV-unprocessed.smi:798
#       Creating user name   scv26
#       Creation time:       Fri Mar 27 01:20:21 2020


#       File generated by GOLD software.
#

@<TRIPOS>MOLECULE
AV-unprocessed.smi:798
    40    42     1
SMALL
NO_CHARGES


@<TRIPOS>ATOM
      1 ****        -0.8485   2.2397   0.7815 O.2            1 S1                 0.0000
      2 ****        -1.3254   1.1070   0.7088 C.2            1 S1                 0.0000
      3 ****        -2.6366   0.8109   0.7255 N.am           1 S1                 0.0000
      4 ****        -3.7411   1.7009   0.7838 C.2            1 S1                 0.0000
      5 ****        -3.6203   3.0372   0.8186 N.2            1 S1                 0.0000
      6 ****        -4.8564   3.6692   0.8670 N.2            1 S1                 0.0000
      7 ****        -5.8588   2.7859   0.8664 C.2            1 S1                 0.0000
      8 ****        -5.3912   1.0954   0.8047 S.3            1 S1                 0.0000
      9 ****        -0.5821  -0.0030   0.5937 N.am           1 S1                 0.0000
     10 ****         0.8805  -0.0471   0.5546 C.3            1 S1                 0.0000
     11 ****         1.3812  -1.4090   1.0817 C.3            1 S1                 0.0000
     12 ****         2.8854  -1.3083   1.3941 C.3            1 S1                 0.0000
     13 ****         3.5150  -1.2471  -0.0106 C.3            1 S1                 0.0000
     14 ****         2.2871  -1.3161  -0.9405 C.3            1 S1                 0.0000
     15 ****         1.3821  -2.2722  -0.1745 C.3            1 S1                 0.0000
     16 ****         1.5125   0.0234  -0.8698 C.3            1 S1                 0.0000
     17 ****         0.5299   0.2253  -2.0459 C.3            1 S1                 0.0000
     18 ****         1.2342   0.3484  -3.2634 O.3            1 S1                 0.0000
     19 ****        -2.8744  -0.1687   0.6760 H              1 S1                 0.0000
     20 ****        -6.8811   3.1322   0.9012 H              1 S1                 0.0000
     21 ****        -1.0607  -0.8902   0.5388 H              1 S1                 0.0000
     22 ****         1.2712   0.7548   1.1841 H              1 S1                 0.0000
     23 ****         0.7970  -1.8053   1.9134 H              1 S1                 0.0000
     24 ****         3.1290  -0.4347   1.9998 H              1 S1                 0.0000
     25 ****         3.2312  -2.1933   1.9298 H              1 S1                 0.0000
     26 ****         4.1052  -0.3431  -0.1654 H              1 S1                 0.0000
     27 ****         4.1712  -2.1035  -0.1712 H              1 S1                 0.0000
     28 ****         2.5371  -1.6364  -1.9523 H              1 S1                 0.0000
     29 ****         1.8249  -3.2581  -0.0213 H              1 S1                 0.0000
     30 ****         0.3944  -2.3927  -0.6219 H              1 S1                 0.0000
     31 ****         2.2208   0.8535  -0.8970 H              1 S1                 0.0000
     32 ****        -0.1781  -0.5999  -2.1244 H              1 S1                 0.0000
     33 ****        -0.0472   1.1398  -1.9088 H              1 S1                 0.0000
     34 ****         0.6108   0.5043  -3.9564 H              1 S1                 0.0000
     35 ****        -1.4528   3.0325   0.8606 LP             1 S1                 0.0000
     36 ****         0.1432   2.3669   0.7614 LP             1 S1                 0.0000
     37 ****        -2.7447   3.5203   0.8106 LP             1 S1                 0.0000
     38 ****        -4.9804   4.6610   0.8984 LP             1 S1                 0.0000
     39 ****         1.7393  -0.4948  -3.4476 LP             1 S1                 0.0000
     40 ****         1.8742   1.1147  -3.2068 LP             1 S1                 0.0000
@<TRIPOS>BOND
    1    1    2 2     
    2    2    3 am    
    3    2    9 am    
    4    3    4 1     
    5    3   19 1     
    6    4    8 1     
    7    4    5 2     
    8    5    6 1     
    9    6    7 2     
   10    7    8 1     
   11    7   20 1     
   12    9   10 1     
   13    9   21 1     
   14   10   16 1     
   15   10   11 1     
   16   10   22 1     
   17   11   15 1     
   18   11   12 1     
   19   11   23 1     
   20   12   13 1     
   21   12   24 1     
   22   12   25 1     
   23   13   14 1     
   24   13   26 1     
   25   13   27 1     
   26   14   15 1     
   27   14   16 1     
   28   14   28 1     
   29   15   29 1     
   30   15   30 1     
   31   16   17 1     
   32   16   31 1     
   33   17   18 1     
   34   17   32 1     
   35   17   33 1     
   36   18   34 1     
   37    1   35 1     
   38    1   36 1     
   39    5   37 1     
   40    6   38 1     
   41   18   39 1     
   42   18   40 1     
@<TRIPOS>SUBSTRUCTURE
      1 S1             1
@<TRIPOS>SET
LONE_PAIRS      STATIC     ATOMS    <user>   **** ""
6 35 36 37 38 39 40
DONOR_HYDROGENS      STATIC     ATOMS    <user>   **** ""
3 19 21 34
ATOM$BLUE        STATIC     ATOMS    COLORGROUP SYSTEM
6 35 36 37 38 39 40
ATOM$RED        STATIC     ATOMS    COLORGROUP SYSTEM
3 19 21 34
