AV-unprocessed.smi:229|AV-procd|sdf|1747|dock4
  -GOLD-   2262020263D 1   1.00000     0.00000
 Structure written by MMmdl.
 58 62  0  0  0  0  0  0  0  0  1 V2000
  153.8845  142.5625  162.8477 C   0  0  0  0  0  0  0  0  0  0  0  0
  153.9743  141.5247  161.7210 C   0  0  0  0  0  0  0  0  0  0  0  0
  152.8728  141.6680  160.6579 C   0  0  2  0  0  0  0  0  0  0  0  0
  153.0557  140.7048  159.4705 C   0  0  0  0  0  0  0  0  0  0  0  0
  152.0521  140.9767  158.4495 N   0  0  0  0  0  0  0  0  0  0  0  0
  151.8966  139.9989  157.5214 C   0  0  0  0  0  0  0  0  0  0  0  0
  152.2860  140.2129  156.2357 N   0  0  0  0  0  0  0  0  0  0  0  0
  152.1450  139.2519  155.3178 C   0  0  0  0  0  0  0  0  0  0  0  0
  151.6435  138.0244  155.4654 N   0  0  0  0  0  0  0  0  0  0  0  0
  151.2433  137.8055  156.7502 C   0  0  0  0  0  0  0  0  0  0  0  0
  151.3315  138.7290  157.8303 C   0  0  0  0  0  0  0  0  0  0  0  0
  150.8114  138.1555  158.9854 N   0  0  0  0  0  0  0  0  0  0  0  0
  150.4491  136.9585  158.6127 C   0  0  0  0  0  0  0  0  0  0  0  0
  150.6743  136.6642  157.2876 N   0  0  0  0  0  0  0  0  0  0  0  0
  150.3710  135.4137  156.6142 C   0  0  0  0  0  0  0  0  0  0  0  0
  149.0408  134.7981  157.0908 C   0  0  2  0  0  0  0  0  0  0  0  0
  149.1806  134.2450  158.3860 O   0  0  0  0  0  0  0  0  0  0  0  0
  148.4814  133.7501  156.1069 C   0  0  2  0  0  0  0  0  0  0  0  0
  149.3683  132.5332  155.8274 C   0  0  0  0  0  0  0  0  0  0  0  0
  148.8388  132.0858  154.4831 C   0  0  0  0  0  0  0  0  0  0  0  0
  148.5603  133.4217  153.7986 C   0  0  0  0  0  0  0  0  0  0  0  0
  148.1719  134.3179  154.8362 O   0  0  0  0  0  0  0  0  0  0  0  0
  152.0696  142.3632  157.9944 C   0  0  0  0  0  0  0  0  0  0  0  0
  151.9319  143.3341  159.1896 C   0  0  1  0  0  0  0  0  0  0  0  0
  152.1659  144.7765  158.7522 C   0  0  0  0  0  0  0  0  0  0  0  0
  150.7595  145.2943  158.4927 C   0  0  0  0  0  0  0  0  0  0  0  0
  150.0261  144.7225  159.5593 O   0  0  0  0  0  0  0  0  0  0  0  0
  150.4957  143.3943  159.7615 C   0  0  0  0  0  0  0  0  0  0  0  0
  152.9144  143.0139  160.1793 O   0  0  0  0  0  0  0  0  0  0  0  0
  154.7221  142.4561  163.5370 H   0  0  0  0  0  0  0  0  0  0  0  0
  152.9682  142.4491  163.4270 H   0  0  0  0  0  0  0  0  0  0  0  0
  153.9086  143.5777  162.4508 H   0  0  0  0  0  0  0  0  0  0  0  0
  154.9458  141.6278  161.2363 H   0  0  0  0  0  0  0  0  0  0  0  0
  153.9526  140.5197  162.1444 H   0  0  0  0  0  0  0  0  0  0  0  0
  151.9094  141.4777  161.1317 H   0  0  0  0  0  0  0  0  0  0  0  0
  154.0470  140.8304  159.0326 H   0  0  0  0  0  0  0  0  0  0  0  0
  152.9934  139.6747  159.8176 H   0  0  0  0  0  0  0  0  0  0  0  0
  152.4822  139.5021  154.3230 H   0  0  0  0  0  0  0  0  0  0  0  0
  150.0057  136.2516  159.2988 H   0  0  0  0  0  0  0  0  0  0  0  0
  150.3337  135.6058  155.5414 H   0  0  0  0  0  0  0  0  0  0  0  0
  151.1965  134.7196  156.7769 H   0  0  0  0  0  0  0  0  0  0  0  0
  148.3039  135.5974  157.1770 H   0  0  0  0  0  0  0  0  0  0  0  0
  148.8368  133.3650  158.3753 H   0  0  0  0  0  0  0  0  0  0  0  0
  147.5334  133.3832  156.5040 H   0  0  0  0  0  0  0  0  0  0  0  0
  150.4182  132.8112  155.7299 H   0  0  0  0  0  0  0  0  0  0  0  0
  149.2891  131.7644  156.5966 H   0  0  0  0  0  0  0  0  0  0  0  0
  149.5405  131.4611  153.9297 H   0  0  0  0  0  0  0  0  0  0  0  0
  147.9102  131.5278  154.6119 H   0  0  0  0  0  0  0  0  0  0  0  0
  149.4693  133.8057  153.3337 H   0  0  0  0  0  0  0  0  0  0  0  0
  147.7925  133.3450  153.0286 H   0  0  0  0  0  0  0  0  0  0  0  0
  153.0120  142.5450  157.4754 H   0  0  0  0  0  0  0  0  0  0  0  0
  151.2682  142.5378  157.2748 H   0  0  0  0  0  0  0  0  0  0  0  0
  152.6088  145.3497  159.5682 H   0  0  0  0  0  0  0  0  0  0  0  0
  152.8226  144.8733  157.8871 H   0  0  0  0  0  0  0  0  0  0  0  0
  150.7006  146.3829  158.5008 H   0  0  0  0  0  0  0  0  0  0  0  0
  150.3737  144.9305  157.5392 H   0  0  0  0  0  0  0  0  0  0  0  0
  149.8322  142.6957  159.2501 H   0  0  0  0  0  0  0  0  0  0  0  0
  150.4528  143.1705  160.8270 H   0  0  0  0  0  0  0  0  0  0  0  0
  1  2  1  0  0  0  0
  1 30  1  0  0  0  0
  1 31  1  0  0  0  0
  1 32  1  0  0  0  0
  2  3  1  0  0  0  0
  2 33  1  0  0  0  0
  2 34  1  0  0  0  0
  3 29  1  0  0  0  0
  3  4  1  0  0  0  0
  3 35  1  0  0  0  0
  4  5  1  0  0  0  0
  4 36  1  0  0  0  0
  4 37  1  0  0  0  0
  5  6  1  0  0  0  0
  5 23  1  0  0  0  0
  6 11  1  0  0  0  0
  6  7  2  0  0  0  0
  7  8  1  0  0  0  0
  8  9  2  0  0  0  0
  8 38  1  0  0  0  0
  9 10  1  0  0  0  0
 10 14  1  0  0  0  0
 10 11  2  0  0  0  0
 11 12  1  0  0  0  0
 12 13  2  0  0  0  0
 13 14  1  0  0  0  0
 13 39  1  0  0  0  0
 14 15  1  0  0  0  0
 15 16  1  0  0  0  0
 15 40  1  0  0  0  0
 15 41  1  0  0  0  0
 16 17  1  0  0  0  0
 16 18  1  0  0  0  0
 16 42  1  0  0  0  0
 17 43  1  0  0  0  0
 18 22  1  0  0  0  0
 18 19  1  0  0  0  0
 18 44  1  0  0  0  0
 19 20  1  0  0  0  0
 19 45  1  0  0  0  0
 19 46  1  0  0  0  0
 20 21  1  0  0  0  0
 20 47  1  0  0  0  0
 20 48  1  0  0  0  0
 21 22  1  0  0  0  0
 21 49  1  0  0  0  0
 21 50  1  0  0  0  0
 23 24  1  0  0  0  0
 23 51  1  0  0  0  0
 23 52  1  0  0  0  0
 24 28  1  0  0  0  0
 24 25  1  0  0  0  0
 24 29  1  0  0  0  0
 25 26  1  0  0  0  0
 25 53  1  0  0  0  0
 25 54  1  0  0  0  0
 26 27  1  0  0  0  0
 26 55  1  0  0  0  0
 26 56  1  0  0  0  0
 27 28  1  0  0  0  0
 28 57  1  0  0  0  0
 28 58  1  0  0  0  0
M  END
> <s_m_source_file>
AV-unprocessed.smi

> <i_m_source_file_index>
229

> <i_lp_mmshare_version>
43012

> <i_f3d_flags>
0

> <s_epik_input>
W0NIMl0xT1tDSDJdW0NIMl1bQ0BdMTJbQ0gyXU4oW0NIMl1bQ0BIXShPMilbQ0gyXVtDSDNdKWMobltjSF1uMyljKGMzNCluW2NIXW40W0NIMl1bQ0BIXShbT0hdKVtDQEBIXTVbQ0gyXVtDSDJdW0NIMl1PNQ==

> <s_epik_cmdline>
J2VwaWtfcHl0aG9uJywgJy1waCcsICc3LjAnLCAnLXRuJywgJzgnLCAnLW1hJywgJzIwMCcsICctbWV0YWxfYmluZGluZycsICctaW1hZScsICc8aW5maWxlLm1hZT4nLCAnLW9tYWUnLCAnPG91dGZpbGUubWFlPic=

> <r_lp_tautomer_probability>
1

> <r_epik_Ionization_Penalty>
0.00318402

> <r_epik_Ionization_Penalty_Charging>
0

> <r_epik_Ionization_Penalty_Neutral>
0.00318402

> <r_epik_State_Penalty>
0.00215642

> <r_epik_Charging_Adjusted_Penalty>
0.00215642

> <i_epik_Tot_Q>
0

> <i_epik_Tot_abs_Q>
0

> <r_epik_Metal_State_Penalty>
-0

> <b_epik_Metal_Only>
0

> <s_lp_Force_Field>
OPLS_2005

> <r_lp_Energy>
57.781

> <b_lp_Chiralities_Consistent>
1

> <s_lp_Variant>
AV-unprocessed.smi:229-1

> <Gold.Version>
5.8.1

> <Gold.Id.Protein>
6NUR|6NUR_protein|mol2

> <Gold.PLP.Fitness>
45.5689

> <Gold.PLP.PLP>
-41.0282

> <Gold.PLP.part.hbond>
-2.0000

> <Gold.PLP.part.metal>
0.0000

> <Gold.PLP.part.buried>
-4.0872

> <Gold.PLP.part.nonpolar>
-34.7090

> <Gold.PLP.part.repulsive>
0.3054

> <Gold.PLP.ligand.clash>
0.0000

> <Gold.PLP.ligand.torsion>
0.9082

> <Gold.PLP.Chemscore.Hbond>
2.0000

> <Gold.PLP.Chemscore.CHOScore>
0.0000

> <Gold.PLP.Chemscore.Metal>
0.0000

> <Gold.Chemscore.Hbonds>
donor molecule, donor type, donor heavy atom, donor atom, acceptor molecule, acceptor atom, score
      P1  H  6896  6907       L1    17  1.00
      P1  H  7997  8009       L1     7  0.66

> <Gold.PLP.Chemscore.Internal.Correction>
0.3570

> <Gold.Rescore>
     Score         DG    S(hbond)    S(metal)    S(lipo)     H(rot)  DE(clash)    DE(int)     intcor
     15.24     -17.30       1.23        0.00     119.84       2.46       1.02       1.05       ----

> <Gold.Chemscore.Fitness>
15.2400

> <Gold.Chemscore.DG>
-17.3020

> <Gold.Chemscore.ZeroCoef>
-5.4800

> <Gold.Chemscore.Hbond>
1.2265

> <Gold.Chemscore.Metal>
0.0000

> <Gold.Chemscore.Lipo>
119.8355

> <Gold.Chemscore.Internal_Hbond>
0.0000

> <Gold.Chemscore.DEClash>
1.0157

> <Gold.Chemscore.DEInternal>
1.0462

> <Gold.Chemscore.Rot>
2.4591

> <Gold.Chemscore.Internal.Correction>
   9.000000E+99

> <Gold.Chemscore.Hbonds>
donor molecule, donor type, donor heavy atom, donor atom, acceptor molecule, acceptor atom, score
      P1  H  6896  6907       L1    17  0.55
      P1  H  7997  8009       L1     7  0.03

> <Gold.Chemscore.Hbond.Weighted>
-4.0966

> <Gold.Chemscore.Metal.Weighted>
-0.0000

> <Gold.Chemscore.Lipo.Weighted>
-14.0208

> <Gold.Chemscore.Internal_Hbond.Weighted>
0.0000

> <Gold.Chemscore.DEClash.Weighted>
1.0157

> <Gold.Chemscore.DEInternal.Weighted>
1.0462

> <Gold.Chemscore.Rot.Weighted>
6.2953

> <Gold.Chemscore.Internal.Correction.Weighted>
   9.000000E+99

> <Gold.Protein.RotatedTorsions>
[ 6907 6896 6895 6894 ] final  -93.75 input  -60.11 | X-H torsion
[ 7974 7965 7964 7962 ] final   62.67 input  175.53 | X-H torsion
[ 8008 7997 7996 7995 ] final -176.93 input   59.86 | X-H torsion
[ 10167 10162 10161 10158 ] final   38.41 input  -65.29 | X-H torsion
[ 10718 10713 10712 10709 ] final   82.30 input   66.30 | X-H torsion
[ 10763 10752 10751 10750 ] final  118.67 input  -60.55 | X-H torsion
[ 11005 11000 10999 10996 ] final -120.89 input  -57.11 | X-H torsion

> <Gold.Protein.ActiveResidues>
 VAL166  LYS551  ARG553  GLY616  TRP617  ASP618  TYR619  PRO620  LYS621  CYS622 
 ASP623  PHE694  ASN695  SER759  ASP760  ASP761  ALA762  ILE779  LEU786  VAL792 
 PHE793  MET794  SER795  GLU796  ALA797  LYS798  CYS799  TRP800  GLU811  SER814 

> <Gold.Protein.RotatedAtoms>
  150.6928  134.1918  159.4287 H   0  0  0  0  0  0  0  0  0  0  0  0  # atno 6907 bound_to 6896
  151.9889  134.9987  160.0570 H   0  0  0  0  0  0  0  0  0  0  0  0  # atno 6908 bound_to 6896
  152.1686  133.4594  159.4934 H   0  0  0  0  0  0  0  0  0  0  0  0  # atno 6909 bound_to 6896
  145.8707  139.3376  143.0764 H   0  0  0  0  0  0  0  0  0  0  0  0  # atno 7974 bound_to 7965
  156.0008  140.1220  157.0549 H   0  0  0  0  0  0  0  0  0  0  0  0  # atno 8008 bound_to 7997
  154.4242  140.1107  156.5763 H   0  0  0  0  0  0  0  0  0  0  0  0  # atno 8009 bound_to 7997
  155.6215  140.3472  155.4656 H   0  0  0  0  0  0  0  0  0  0  0  0  # atno 8010 bound_to 7997
  140.3939  144.1816  150.6131 H   0  0  0  0  0  0  0  0  0  0  0  0  # atno 10167 bound_to 10162
  157.6854  131.0042  150.2355 H   0  0  0  0  0  0  0  0  0  0  0  0  # atno 10718 bound_to 10713
  153.5712  135.3502  155.2838 H   0  0  0  0  0  0  0  0  0  0  0  0  # atno 10763 bound_to 10752
  154.8681  135.4160  154.2723 H   0  0  0  0  0  0  0  0  0  0  0  0  # atno 10764 bound_to 10752
  153.3489  135.7054  153.6874 H   0  0  0  0  0  0  0  0  0  0  0  0  # atno 10765 bound_to 10752
  141.0111  134.0264  157.3413 H   0  0  0  0  0  0  0  0  0  0  0  0  # atno 11005 bound_to 11000
  145.9141  140.9160  143.0439 LP  0  0  0  0  0  0  0  0  0  0  0  0  # atno 17320 bound_to 7965
  144.6726  140.1199  143.7450 LP  0  0  0  0  0  0  0  0  0  0  0  0  # atno 17321 bound_to 7965
  140.4811  143.2379  151.8954 LP  0  0  0  0  0  0  0  0  0  0  0  0  # atno 17342 bound_to 10162
  139.4787  144.5268  151.8724 LP  0  0  0  0  0  0  0  0  0  0  0  0  # atno 17343 bound_to 10162
  156.2979  130.3754  149.7778 LP  0  0  0  0  0  0  0  0  0  0  0  0  # atno 17370 bound_to 10713
  156.5417  130.8303  151.3271 LP  0  0  0  0  0  0  0  0  0  0  0  0  # atno 17371 bound_to 10713
  139.9090  135.0186  156.7611 LP  0  0  0  0  0  0  0  0  0  0  0  0  # atno 17394 bound_to 11000
  140.6733  133.9540  155.7868 LP  0  0  0  0  0  0  0  0  0  0  0  0  # atno 17395 bound_to 11000

$$$$
