AV-unprocessed.smi:229|AV-procd|sdf|1755|dock9
  -GOLD-   2262020283D 1   1.00000     0.00000
 Structure written by MMmdl.
 58 62  0  0  0  0  0  0  0  0  1 V2000
  147.4707  131.7965  153.0454 C   0  0  0  0  0  0  0  0  0  0  0  0
  148.6446  132.7806  152.9542 C   0  0  0  0  0  0  0  0  0  0  0  0
  149.1854  133.2269  154.3225 C   0  0  2  0  0  0  0  0  0  0  0  0
  149.9805  134.5432  154.2542 C   0  0  0  0  0  0  0  0  0  0  0  0
  150.5585  134.8430  155.5577 N   0  0  0  0  0  0  0  0  0  0  0  0
  150.9900  136.1197  155.7196 C   0  0  0  0  0  0  0  0  0  0  0  0
  151.4304  136.8292  154.6457 N   0  0  0  0  0  0  0  0  0  0  0  0
  151.8506  138.0892  154.7935 C   0  0  0  0  0  0  0  0  0  0  0  0
  151.9179  138.8213  155.9069 N   0  0  0  0  0  0  0  0  0  0  0  0
  151.4868  138.1126  156.9890 C   0  0  0  0  0  0  0  0  0  0  0  0
  151.0108  136.7710  156.9859 C   0  0  0  0  0  0  0  0  0  0  0  0
  150.6741  136.3878  158.2796 N   0  0  0  0  0  0  0  0  0  0  0  0
  150.9276  137.4443  159.0030 C   0  0  0  0  0  0  0  0  0  0  0  0
  151.4208  138.5243  158.3074 N   0  0  0  0  0  0  0  0  0  0  0  0
  151.7942  139.8180  158.8510 C   0  0  0  0  0  0  0  0  0  0  0  0
  151.0959  140.9852  158.1210 C   0  0  2  0  0  0  0  0  0  0  0  0
  151.6960  141.1273  156.8479 O   0  0  0  0  0  0  0  0  0  0  0  0
  151.2362  142.3308  158.8594 C   0  0  2  0  0  0  0  0  0  0  0  0
  150.8994  143.5619  158.0149 C   0  0  0  0  0  0  0  0  0  0  0  0
  151.6806  144.6815  158.6825 C   0  0  0  0  0  0  0  0  0  0  0  0
  152.7290  143.9471  159.5212 C   0  0  0  0  0  0  0  0  0  0  0  0
  152.6020  142.5790  159.1596 O   0  0  0  0  0  0  0  0  0  0  0  0
  151.3913  133.7612  156.0747 C   0  0  0  0  0  0  0  0  0  0  0  0
  150.6136  132.4261  156.0928 C   0  0  2  0  0  0  0  0  0  0  0  0
  149.5517  132.3475  157.1963 C   0  0  0  0  0  0  0  0  0  0  0  0
  150.1822  131.4454  158.2480 C   0  0  0  0  0  0  0  0  0  0  0  0
  150.8911  130.5111  157.4563 O   0  0  0  0  0  0  0  0  0  0  0  0
  151.5449  131.2465  156.4322 C   0  0  0  0  0  0  0  0  0  0  0  0
  150.0445  132.1905  154.8010 O   0  0  0  0  0  0  0  0  0  0  0  0
  147.1685  131.4648  152.0519 H   0  0  0  0  0  0  0  0  0  0  0  0
  146.6001  132.2522  153.5169 H   0  0  0  0  0  0  0  0  0  0  0  0
  147.7420  130.9119  153.6220 H   0  0  0  0  0  0  0  0  0  0  0  0
  149.4509  132.3019  152.3975 H   0  0  0  0  0  0  0  0  0  0  0  0
  148.3491  133.6525  152.3698 H   0  0  0  0  0  0  0  0  0  0  0  0
  148.3431  133.3458  155.0053 H   0  0  0  0  0  0  0  0  0  0  0  0
  150.7852  134.4597  153.5224 H   0  0  0  0  0  0  0  0  0  0  0  0
  149.3309  135.3489  153.9168 H   0  0  0  0  0  0  0  0  0  0  0  0
  152.1816  138.5802  153.8904 H   0  0  0  0  0  0  0  0  0  0  0  0
  150.7675  137.4627  160.0713 H   0  0  0  0  0  0  0  0  0  0  0  0
  151.5388  139.8165  159.9109 H   0  0  0  0  0  0  0  0  0  0  0  0
  152.8785  139.9237  158.7920 H   0  0  0  0  0  0  0  0  0  0  0  0
  150.0391  140.7494  157.9878 H   0  0  0  0  0  0  0  0  0  0  0  0
  151.3384  141.8997  156.4365 H   0  0  0  0  0  0  0  0  0  0  0  0
  150.6463  142.3403  159.7784 H   0  0  0  0  0  0  0  0  0  0  0  0
  151.2601  143.4264  156.9940 H   0  0  0  0  0  0  0  0  0  0  0  0
  149.8289  143.7648  157.9697 H   0  0  0  0  0  0  0  0  0  0  0  0
  152.1369  145.3391  157.9419 H   0  0  0  0  0  0  0  0  0  0  0  0
  151.0371  145.2873  159.3214 H   0  0  0  0  0  0  0  0  0  0  0  0
  153.7413  144.3065  159.3346 H   0  0  0  0  0  0  0  0  0  0  0  0
  152.5176  144.0603  160.5854 H   0  0  0  0  0  0  0  0  0  0  0  0
  152.2733  133.6655  155.4392 H   0  0  0  0  0  0  0  0  0  0  0  0
  151.7426  134.0001  157.0797 H   0  0  0  0  0  0  0  0  0  0  0  0
  149.2617  133.3195  157.5966 H   0  0  0  0  0  0  0  0  0  0  0  0
  148.6507  131.8622  156.8191 H   0  0  0  0  0  0  0  0  0  0  0  0
  150.8769  132.0013  158.8799 H   0  0  0  0  0  0  0  0  0  0  0  0
  149.4437  130.9589  158.8852 H   0  0  0  0  0  0  0  0  0  0  0  0
  151.7564  130.6110  155.5718 H   0  0  0  0  0  0  0  0  0  0  0  0
  152.5009  131.5982  156.8232 H   0  0  0  0  0  0  0  0  0  0  0  0
  1  2  1  0  0  0  0
  1 30  1  0  0  0  0
  1 31  1  0  0  0  0
  1 32  1  0  0  0  0
  2  3  1  0  0  0  0
  2 33  1  0  0  0  0
  2 34  1  0  0  0  0
  3 29  1  0  0  0  0
  3  4  1  0  0  0  0
  3 35  1  0  0  0  0
  4  5  1  0  0  0  0
  4 36  1  0  0  0  0
  4 37  1  0  0  0  0
  5  6  1  0  0  0  0
  5 23  1  0  0  0  0
  6 11  1  0  0  0  0
  6  7  2  0  0  0  0
  7  8  1  0  0  0  0
  8  9  2  0  0  0  0
  8 38  1  0  0  0  0
  9 10  1  0  0  0  0
 10 14  1  0  0  0  0
 10 11  2  0  0  0  0
 11 12  1  0  0  0  0
 12 13  2  0  0  0  0
 13 14  1  0  0  0  0
 13 39  1  0  0  0  0
 14 15  1  0  0  0  0
 15 16  1  0  0  0  0
 15 40  1  0  0  0  0
 15 41  1  0  0  0  0
 16 17  1  0  0  0  0
 16 18  1  0  0  0  0
 16 42  1  0  0  0  0
 17 43  1  0  0  0  0
 18 22  1  0  0  0  0
 18 19  1  0  0  0  0
 18 44  1  0  0  0  0
 19 20  1  0  0  0  0
 19 45  1  0  0  0  0
 19 46  1  0  0  0  0
 20 21  1  0  0  0  0
 20 47  1  0  0  0  0
 20 48  1  0  0  0  0
 21 22  1  0  0  0  0
 21 49  1  0  0  0  0
 21 50  1  0  0  0  0
 23 24  1  0  0  0  0
 23 51  1  0  0  0  0
 23 52  1  0  0  0  0
 24 28  1  0  0  0  0
 24 25  1  0  0  0  0
 24 29  1  0  0  0  0
 25 26  1  0  0  0  0
 25 53  1  0  0  0  0
 25 54  1  0  0  0  0
 26 27  1  0  0  0  0
 26 55  1  0  0  0  0
 26 56  1  0  0  0  0
 27 28  1  0  0  0  0
 28 57  1  0  0  0  0
 28 58  1  0  0  0  0
M  END
> <s_m_source_file>
AV-unprocessed.smi

> <i_m_source_file_index>
229

> <i_lp_mmshare_version>
43012

> <i_f3d_flags>
0

> <s_epik_input>
W0NIMl0xT1tDSDJdW0NIMl1bQ0BdMTJbQ0gyXU4oW0NIMl1bQ0BIXShPMilbQ0gyXVtDSDNdKWMobltjSF1uMyljKGMzNCluW2NIXW40W0NIMl1bQ0BIXShbT0hdKVtDQEBIXTVbQ0gyXVtDSDJdW0NIMl1PNQ==

> <s_epik_cmdline>
J2VwaWtfcHl0aG9uJywgJy1waCcsICc3LjAnLCAnLXRuJywgJzgnLCAnLW1hJywgJzIwMCcsICctbWV0YWxfYmluZGluZycsICctaW1hZScsICc8aW5maWxlLm1hZT4nLCAnLW9tYWUnLCAnPG91dGZpbGUubWFlPic=

> <r_lp_tautomer_probability>
1

> <r_epik_Ionization_Penalty>
0.00318402

> <r_epik_Ionization_Penalty_Charging>
0

> <r_epik_Ionization_Penalty_Neutral>
0.00318402

> <r_epik_State_Penalty>
0.00215642

> <r_epik_Charging_Adjusted_Penalty>
0.00215642

> <i_epik_Tot_Q>
0

> <i_epik_Tot_abs_Q>
0

> <r_epik_Metal_State_Penalty>
-0

> <b_epik_Metal_Only>
0

> <s_lp_Force_Field>
OPLS_2005

> <r_lp_Energy>
54.5162

> <b_lp_Chiralities_Consistent>
1

> <s_lp_Variant>
AV-unprocessed.smi:229-9

> <Gold.Version>
5.8.1

> <Gold.Id.Protein>
6NUR|6NUR_protein|mol2

> <Gold.PLP.Fitness>
46.7000

> <Gold.PLP.PLP>
-42.5616

> <Gold.PLP.part.hbond>
-2.0000

> <Gold.PLP.part.metal>
0.0000

> <Gold.PLP.part.buried>
-6.6938

> <Gold.PLP.part.nonpolar>
-34.4234

> <Gold.PLP.part.repulsive>
0.1985

> <Gold.PLP.ligand.clash>
0.0000

> <Gold.PLP.ligand.torsion>
0.9561

> <Gold.PLP.Chemscore.Hbond>
1.8800

> <Gold.PLP.Chemscore.CHOScore>
0.0000

> <Gold.PLP.Chemscore.Metal>
0.0000

> <Gold.Chemscore.Hbonds>
donor molecule, donor type, donor heavy atom, donor atom, acceptor molecule, acceptor atom, score
      P1  H  6896  6908       L1    12  0.66
      P1  H 10752 10765       L1     7  0.55

> <Gold.PLP.Chemscore.Internal.Correction>
0.4105

> <Gold.Rescore>
     Score         DG    S(hbond)    S(metal)    S(lipo)     H(rot)  DE(clash)    DE(int)     intcor
     14.05     -15.85       1.53        0.00      98.67       2.46       0.21       1.59       ----

> <Gold.Chemscore.Fitness>
14.0550

> <Gold.Chemscore.DG>
-15.8526

> <Gold.Chemscore.ZeroCoef>
-5.4800

> <Gold.Chemscore.Hbond>
1.5341

> <Gold.Chemscore.Metal>
0.0000

> <Gold.Chemscore.Lipo>
98.6668

> <Gold.Chemscore.Internal_Hbond>
0.0000

> <Gold.Chemscore.DEClash>
0.2104

> <Gold.Chemscore.DEInternal>
1.5872

> <Gold.Chemscore.Rot>
2.4591

> <Gold.Chemscore.Internal.Correction>
   9.000000E+99

> <Gold.Chemscore.Hbonds>
donor molecule, donor type, donor heavy atom, donor atom, acceptor molecule, acceptor atom, score
      P1  H  6896  6908       L1    12  0.26
      P1  H 10752 10765       L1     7  0.02

> <Gold.Chemscore.Hbond.Weighted>
-5.1239

> <Gold.Chemscore.Metal.Weighted>
-0.0000

> <Gold.Chemscore.Lipo.Weighted>
-11.5440

> <Gold.Chemscore.Internal_Hbond.Weighted>
0.0000

> <Gold.Chemscore.DEClash.Weighted>
0.2104

> <Gold.Chemscore.DEInternal.Weighted>
1.5872

> <Gold.Chemscore.Rot.Weighted>
6.2953

> <Gold.Chemscore.Internal.Correction.Weighted>
   9.000000E+99

> <Gold.Protein.RotatedTorsions>
[ 6907 6896 6895 6894 ] final -172.48 input  -60.11 | X-H torsion
[ 7974 7965 7964 7962 ] final   98.29 input  175.53 | X-H torsion
[ 8008 7997 7996 7995 ] final   34.59 input   59.86 | X-H torsion
[ 10167 10162 10161 10158 ] final   24.59 input  -65.29 | X-H torsion
[ 10718 10713 10712 10709 ] final  156.37 input   66.30 | X-H torsion
[ 10763 10752 10751 10750 ] final  170.63 input  -60.55 | X-H torsion
[ 11005 11000 10999 10996 ] final  -35.64 input  -57.11 | X-H torsion

> <Gold.Protein.ActiveResidues>
 VAL166  LYS551  ARG553  GLY616  TRP617  ASP618  TYR619  PRO620  LYS621  CYS622 
 ASP623  PHE694  ASN695  SER759  ASP760  ASP761  ALA762  ILE779  LEU786  VAL792 
 PHE793  MET794  SER795  GLU796  ALA797  LYS798  CYS799  TRP800  GLU811  SER814 

> <Gold.Protein.RotatedAtoms>
  151.5407  133.3433  159.2934 H   0  0  0  0  0  0  0  0  0  0  0  0  # atno 6907 bound_to 6896
  150.8537  134.7872  159.7040 H   0  0  0  0  0  0  0  0  0  0  0  0  # atno 6908 bound_to 6896
  152.4576  134.5264  159.9849 H   0  0  0  0  0  0  0  0  0  0  0  0  # atno 6909 bound_to 6896
  145.4142  139.2330  143.3231 H   0  0  0  0  0  0  0  0  0  0  0  0  # atno 7974 bound_to 7965
  155.1573  140.3280  155.4418 H   0  0  0  0  0  0  0  0  0  0  0  0  # atno 8008 bound_to 7997
  156.2554  140.1966  156.6633 H   0  0  0  0  0  0  0  0  0  0  0  0  # atno 8009 bound_to 7997
  154.6430  140.0568  156.9854 H   0  0  0  0  0  0  0  0  0  0  0  0  # atno 8010 bound_to 7997
  140.5175  144.0058  150.6401 H   0  0  0  0  0  0  0  0  0  0  0  0  # atno 10167 bound_to 10162
  157.2059  131.0687  151.1998 H   0  0  0  0  0  0  0  0  0  0  0  0  # atno 10718 bound_to 10713
  154.4004  135.2755  155.2100 H   0  0  0  0  0  0  0  0  0  0  0  0  # atno 10763 bound_to 10752
  154.4128  135.6018  153.5966 H   0  0  0  0  0  0  0  0  0  0  0  0  # atno 10764 bound_to 10752
  152.9831  135.5953  154.4271 H   0  0  0  0  0  0  0  0  0  0  0  0  # atno 10765 bound_to 10752
  140.9812  133.7055  156.1688 H   0  0  0  0  0  0  0  0  0  0  0  0  # atno 11005 bound_to 11000
  146.2689  140.4858  142.8822 LP  0  0  0  0  0  0  0  0  0  0  0  0  # atno 17320 bound_to 7965
  144.8288  140.6673  143.6304 LP  0  0  0  0  0  0  0  0  0  0  0  0  # atno 17321 bound_to 7965
  140.3397  143.3027  152.0601 LP  0  0  0  0  0  0  0  0  0  0  0  0  # atno 17342 bound_to 10162
  139.4913  144.6451  151.6795 LP  0  0  0  0  0  0  0  0  0  0  0  0  # atno 17343 bound_to 10162
  157.3721  130.7186  149.6572 LP  0  0  0  0  0  0  0  0  0  0  0  0  # atno 17370 bound_to 10713
  155.9695  130.4196  150.4383 LP  0  0  0  0  0  0  0  0  0  0  0  0  # atno 17371 bound_to 10713
  140.7183  134.4386  157.5577 LP  0  0  0  0  0  0  0  0  0  0  0  0  # atno 17394 bound_to 11000
  139.8951  134.8691  156.2146 LP  0  0  0  0  0  0  0  0  0  0  0  0  # atno 17395 bound_to 11000

$$$$
