AV-unprocessed.smi:2496|AV-procd|sdf|9826|dock3
  -GOLD-   2272013453D 1   1.00000     0.00000
 Structure written by MMmdl.
 40 40  0  0  0  0  0  0  0  0  1 V2000
  150.6230  141.9800  156.2917 C   0  0  0  0  0  0  0  0  0  0  0  0
  150.7001  140.5385  155.8763 C   0  0  0  0  0  0  0  0  0  0  0  0
  150.5769  140.2284  154.5952 N   0  0  0  0  0  0  0  0  0  0  0  0
  150.7011  138.8911  154.5742 N   0  0  0  0  0  0  0  0  0  0  0  0
  150.9038  138.3459  155.8200 C   0  0  0  0  0  0  0  0  0  0  0  0
  151.0775  136.8749  156.0084 C   0  0  0  0  0  0  0  0  0  0  0  0
  150.9059  139.3933  156.7064 C   0  0  0  0  0  0  0  0  0  0  0  0
  151.0989  139.3881  158.2100 C   0  0  1  0  0  0  0  0  0  0  0  0
  150.9827  137.9699  158.7997 C   0  0  0  0  0  0  0  0  0  0  0  0
  152.4264  140.0816  158.5584 C   0  0  0  0  0  0  0  0  0  0  0  0
  153.5036  139.6072  158.1963 O   0  0  0  0  0  0  0  0  0  0  0  0
  152.3246  141.2206  159.2626 N   0  0  0  0  0  0  0  0  0  0  0  0
  153.4262  142.1103  159.6221 C   0  0  2  0  0  0  0  0  0  0  0  0
  154.3702  141.3645  160.5828 C   0  0  0  0  0  0  0  0  0  0  0  0
  152.8648  143.4330  160.2079 C   0  0  0  0  0  0  0  0  0  0  0  0
  152.2382  143.2351  161.6034 C   0  0  0  0  0  0  0  0  0  0  0  0
  151.8378  144.0969  159.2733 C   0  0  0  0  0  0  0  0  0  0  0  0
  150.6490  138.3679  153.7117 H   0  0  0  0  0  0  0  0  0  0  0  0
  151.5247  142.2786  156.8264 H   0  0  0  0  0  0  0  0  0  0  0  0
  149.7730  142.1489  156.9532 H   0  0  0  0  0  0  0  0  0  0  0  0
  150.5125  142.6448  155.4341 H   0  0  0  0  0  0  0  0  0  0  0  0
  151.8403  136.6637  156.7575 H   0  0  0  0  0  0  0  0  0  0  0  0
  151.3828  136.3921  155.0799 H   0  0  0  0  0  0  0  0  0  0  0  0
  150.1450  136.4155  156.3360 H   0  0  0  0  0  0  0  0  0  0  0  0
  150.3191  139.9849  158.6842 H   0  0  0  0  0  0  0  0  0  0  0  0
  151.7462  137.2987  158.4068 H   0  0  0  0  0  0  0  0  0  0  0  0
  150.0101  137.5342  158.5696 H   0  0  0  0  0  0  0  0  0  0  0  0
  151.0831  137.9841  159.8855 H   0  0  0  0  0  0  0  0  0  0  0  0
  151.3973  141.5278  159.5179 H   0  0  0  0  0  0  0  0  0  0  0  0
  153.9885  142.3600  158.7202 H   0  0  0  0  0  0  0  0  0  0  0  0
  155.2746  141.9369  160.7865 H   0  0  0  0  0  0  0  0  0  0  0  0
  154.6901  140.4125  160.1575 H   0  0  0  0  0  0  0  0  0  0  0  0
  153.8832  141.1542  161.5356 H   0  0  0  0  0  0  0  0  0  0  0  0
  153.6957  144.1304  160.3257 H   0  0  0  0  0  0  0  0  0  0  0  0
  151.4315  142.5021  161.5730 H   0  0  0  0  0  0  0  0  0  0  0  0
  151.8233  144.1687  161.9839 H   0  0  0  0  0  0  0  0  0  0  0  0
  152.9699  142.8943  162.3364 H   0  0  0  0  0  0  0  0  0  0  0  0
  151.0031  143.4279  159.0628 H   0  0  0  0  0  0  0  0  0  0  0  0
  152.2831  144.3882  158.3225 H   0  0  0  0  0  0  0  0  0  0  0  0
  151.4301  145.0040  159.7202 H   0  0  0  0  0  0  0  0  0  0  0  0
  1  2  1  0  0  0  0
  1 19  1  0  0  0  0
  1 20  1  0  0  0  0
  1 21  1  0  0  0  0
  2  7  1  0  0  0  0
  2  3  2  0  0  0  0
  3  4  1  0  0  0  0
  4 18  1  0  0  0  0
  4  5  1  0  0  0  0
  5  6  1  0  0  0  0
  5  7  2  0  0  0  0
  6 22  1  0  0  0  0
  6 23  1  0  0  0  0
  6 24  1  0  0  0  0
  7  8  1  0  0  0  0
  8  9  1  0  0  0  0
  8 10  1  0  0  0  0
  8 25  1  0  0  0  0
  9 26  1  0  0  0  0
  9 27  1  0  0  0  0
  9 28  1  0  0  0  0
 10 11  2  0  0  0  0
 10 12  1  0  0  0  0
 12 13  1  0  0  0  0
 12 29  1  0  0  0  0
 13 14  1  0  0  0  0
 13 15  1  0  0  0  0
 13 30  1  0  0  0  0
 14 31  1  0  0  0  0
 14 32  1  0  0  0  0
 14 33  1  0  0  0  0
 15 16  1  0  0  0  0
 15 17  1  0  0  0  0
 15 34  1  0  0  0  0
 16 35  1  0  0  0  0
 16 36  1  0  0  0  0
 16 37  1  0  0  0  0
 17 38  1  0  0  0  0
 17 39  1  0  0  0  0
 17 40  1  0  0  0  0
M  END
> <s_m_source_file>
AV-unprocessed.smi

> <i_m_source_file_index>
2496

> <i_lp_mmshare_version>
43012

> <i_f3d_flags>
0

> <s_epik_input>
W0NIM11jMW5bbkhdYyhbQ0gzXSljMVtDQEhdKFtDSDNdKUMoPU8pW05IXVtDQEhdKFtDSDNdKVtDSF0oW0NIM10pW0NIM10=

> <s_epik_cmdline>
J2VwaWtfcHl0aG9uJywgJy1waCcsICc3LjAnLCAnLXRuJywgJzgnLCAnLW1hJywgJzIwMCcsICctbWV0YWxfYmluZGluZycsICctaW1hZScsICc8aW5maWxlLm1hZT4nLCAnLW9tYWUnLCAnPG91dGZpbGUubWFlPic=

> <r_lp_tautomer_probability>
1

> <r_epik_Ionization_Penalty>
0.000456212

> <r_epik_Ionization_Penalty_Charging>
0

> <r_epik_Ionization_Penalty_Neutral>
0.000456212

> <r_epik_State_Penalty>
-0

> <r_epik_Charging_Adjusted_Penalty>
0

> <i_epik_Tot_Q>
0

> <i_epik_Tot_abs_Q>
0

> <r_epik_Metal_State_Penalty>
-0

> <b_epik_Metal_Only>
0

> <s_lp_Force_Field>
OPLS_2005

> <r_lp_Energy>
1.41326

> <b_lp_Chiralities_Consistent>
1

> <s_lp_Variant>
AV-unprocessed.smi:2496-2

> <Gold.Version>
5.8.1

> <Gold.Id.Protein>
6NUR|6NUR_protein|mol2

> <Gold.PLP.Fitness>
41.3731

> <Gold.PLP.PLP>
-35.9488

> <Gold.PLP.part.hbond>
-2.0000

> <Gold.PLP.part.metal>
0.0000

> <Gold.PLP.part.buried>
-5.9207

> <Gold.PLP.part.nonpolar>
-28.3226

> <Gold.PLP.part.repulsive>
0.3084

> <Gold.PLP.ligand.clash>
0.0033

> <Gold.PLP.ligand.torsion>
0.3417

> <Gold.PLP.Chemscore.Hbond>
2.0000

> <Gold.PLP.Chemscore.CHOScore>
0.0000

> <Gold.PLP.Chemscore.Metal>
0.0000

> <Gold.Chemscore.Hbonds>
donor molecule, donor type, donor heavy atom, donor atom, acceptor molecule, acceptor atom, score
      P1  H  7989  7998       L1     3  1.00
      P1  H  7997  8010       L1    11  1.00

> <Gold.PLP.Chemscore.Internal.Correction>
0.1108

> <Gold.Rescore>
     Score         DG    S(hbond)    S(metal)    S(lipo)     H(rot)  DE(clash)    DE(int)     intcor
     17.97     -19.44       1.96        0.00      95.31       1.47       0.00       1.46       ----

> <Gold.Chemscore.Fitness>
17.9671

> <Gold.Chemscore.DG>
-19.4363

> <Gold.Chemscore.ZeroCoef>
-5.4800

> <Gold.Chemscore.Hbond>
1.9637

> <Gold.Chemscore.Metal>
0.0000

> <Gold.Chemscore.Lipo>
95.3084

> <Gold.Chemscore.Internal_Hbond>
0.0000

> <Gold.Chemscore.DEClash>
0.0044

> <Gold.Chemscore.DEInternal>
1.4648

> <Gold.Chemscore.Rot>
1.4662

> <Gold.Chemscore.Internal.Correction>
   9.000000E+99

> <Gold.Chemscore.Hbonds>
donor molecule, donor type, donor heavy atom, donor atom, acceptor molecule, acceptor atom, score
      P1  H  7989  7998       L1     3  0.68
      P1  H  7997  8010       L1    11  0.97

> <Gold.Chemscore.Hbond.Weighted>
-6.5586

> <Gold.Chemscore.Metal.Weighted>
-0.0000

> <Gold.Chemscore.Lipo.Weighted>
-11.1511

> <Gold.Chemscore.Internal_Hbond.Weighted>
0.0000

> <Gold.Chemscore.DEClash.Weighted>
0.0044

> <Gold.Chemscore.DEInternal.Weighted>
1.4648

> <Gold.Chemscore.Rot.Weighted>
3.7534

> <Gold.Chemscore.Internal.Correction.Weighted>
   9.000000E+99

> <Gold.Protein.RotatedTorsions>
[ 6907 6896 6895 6894 ] final -135.53 input  -60.11 | X-H torsion
[ 7974 7965 7964 7962 ] final   49.17 input  175.53 | X-H torsion
[ 8008 7997 7996 7995 ] final   15.19 input   59.86 | X-H torsion
[ 10167 10162 10161 10158 ] final -148.07 input  -65.29 | X-H torsion
[ 10718 10713 10712 10709 ] final   47.18 input   66.30 | X-H torsion
[ 10763 10752 10751 10750 ] final   79.68 input  -60.55 | X-H torsion
[ 11005 11000 10999 10996 ] final  -70.16 input  -57.11 | X-H torsion

> <Gold.Protein.ActiveResidues>
 VAL166  LYS551  ARG553  GLY616  TRP617  ASP618  TYR619  PRO620  LYS621  CYS622 
 ASP623  PHE694  ASN695  SER759  ASP760  ASP761  ALA762  ILE779  LEU786  VAL792 
 PHE793  MET794  SER795  GLU796  ALA797  LYS798  CYS799  TRP800  GLU811  SER814 

> <Gold.Protein.RotatedAtoms>
  150.9990  133.6075  159.2697 H   0  0  0  0  0  0  0  0  0  0  0  0  # atno 6907 bound_to 6896
  151.3268  135.0831  159.9335 H   0  0  0  0  0  0  0  0  0  0  0  0  # atno 6908 bound_to 6896
  152.5268  133.9626  159.7779 H   0  0  0  0  0  0  0  0  0  0  0  0  # atno 6909 bound_to 6896
  146.0134  139.4569  142.9942 H   0  0  0  0  0  0  0  0  0  0  0  0  # atno 7974 bound_to 7965
  154.8592  140.2941  155.5550 H   0  0  0  0  0  0  0  0  0  0  0  0  # atno 8008 bound_to 7997
  156.3019  140.2481  156.3495 H   0  0  0  0  0  0  0  0  0  0  0  0  # atno 8009 bound_to 7997
  154.8937  140.0393  157.1842 H   0  0  0  0  0  0  0  0  0  0  0  0  # atno 8010 bound_to 7997
  139.7564  143.8441  152.2598 H   0  0  0  0  0  0  0  0  0  0  0  0  # atno 10167 bound_to 10162
  157.4558  130.8166  149.7835 H   0  0  0  0  0  0  0  0  0  0  0  0  # atno 10718 bound_to 10713
  153.0972  135.4831  154.8800 H   0  0  0  0  0  0  0  0  0  0  0  0  # atno 10763 bound_to 10752
  154.7338  135.3066  154.8849 H   0  0  0  0  0  0  0  0  0  0  0  0  # atno 10764 bound_to 10752
  153.9477  135.6827  153.4797 H   0  0  0  0  0  0  0  0  0  0  0  0  # atno 10765 bound_to 10752
  141.1568  133.6783  156.6710 H   0  0  0  0  0  0  0  0  0  0  0  0  # atno 11005 bound_to 11000
  145.7306  141.0043  143.1353 LP  0  0  0  0  0  0  0  0  0  0  0  0  # atno 17320 bound_to 7965
  144.6961  139.8980  143.7457 LP  0  0  0  0  0  0  0  0  0  0  0  0  # atno 17321 bound_to 7965
  139.8434  144.7199  150.9302 LP  0  0  0  0  0  0  0  0  0  0  0  0  # atno 17342 bound_to 10162
  140.7803  143.3963  151.1225 LP  0  0  0  0  0  0  0  0  0  0  0  0  # atno 17343 bound_to 10162
  156.0007  130.3882  150.2618 LP  0  0  0  0  0  0  0  0  0  0  0  0  # atno 17370 bound_to 10713
  157.0793  131.0139  151.3162 LP  0  0  0  0  0  0  0  0  0  0  0  0  # atno 17371 bound_to 10713
  140.3175  134.8035  157.4226 LP  0  0  0  0  0  0  0  0  0  0  0  0  # atno 17394 bound_to 11000
  140.1125  134.5326  155.8253 LP  0  0  0  0  0  0  0  0  0  0  0  0  # atno 17395 bound_to 11000

$$$$
