#       Name:                AV-unprocessed.smi:1688
#       Creating user name   scv26
#       Creation time:       Fri Mar 27 07:53:10 2020


#       File generated by GOLD software.
#

@<TRIPOS>MOLECULE
AV-unprocessed.smi:1688
    38    40     1
SMALL
NO_CHARGES


@<TRIPOS>ATOM
      1 ****        -1.0773   0.6342   0.8015 O.3            1 S1                 0.0000
      2 ****        -0.6132  -0.7033   0.7735 C.3            1 S1                 0.0000
      3 ****         0.9371  -0.6671   0.7315 C.3            1 S1                 0.0000
      4 ****         1.5053  -0.0940  -0.5006 N.pl3          1 S1                 0.0000
      5 ****         1.8530  -0.7095  -1.6640 C.2            1 S1                 0.0000
      6 ****         2.3371   0.2434  -2.5072 N.pl3          1 S1                 1.0000
      7 ****         2.3076   1.4861  -1.8720 C.ar           1 S1                 0.0000
      8 ****         2.6940   2.7457  -2.3197 C.ar           1 S1                 0.0000
      9 ****         2.5351   3.8153  -1.4146 C.ar           1 S1                 0.0000
     10 ****         2.0141   3.6106  -0.1206 C.ar           1 S1                 0.0000
     11 ****         1.6278   2.3288   0.3235 C.ar           1 S1                 0.0000
     12 ****         1.7812   1.2767  -0.5793 C.ar           1 S1                 0.0000
     13 ****        -1.0855  -1.4037   2.0696 C.3            1 S1                 0.0000
     14 ****        -2.6135  -1.5719   2.1451 C.3            1 S1                 0.0000
     15 ****        -3.1547  -2.3015   0.9083 C.3            1 S1                 0.0000
     16 ****        -2.7495  -1.5702  -0.3786 C.3            1 S1                 0.0000
     17 ****        -1.2227  -1.3954  -0.4721 C.3            1 S1                 0.0000
     18 ****        -0.7720   1.0406   1.5979 H              1 S1                 0.0000
     19 ****         1.3440  -0.1308   1.5897 H              1 S1                 0.0000
     20 ****         1.3262  -1.6835   0.8063 H              1 S1                 0.0000
     21 ****         1.7561  -1.7635  -1.8810 H              1 S1                 0.0000
     22 ****         3.0960   2.9046  -3.3096 H              1 S1                 0.0000
     23 ****         2.8193   4.8124  -1.7186 H              1 S1                 0.0000
     24 ****         1.9066   4.4546   0.5453 H              1 S1                 0.0000
     25 ****         1.2278   2.1854   1.3160 H              1 S1                 0.0000
     26 ****        -0.6275  -2.3921   2.1291 H              1 S1                 0.0000
     27 ****        -0.7332  -0.8568   2.9452 H              1 S1                 0.0000
     28 ****        -2.8801  -2.1250   3.0462 H              1 S1                 0.0000
     29 ****        -3.0908  -0.5952   2.2331 H              1 S1                 0.0000
     30 ****        -2.7724  -3.3228   0.8870 H              1 S1                 0.0000
     31 ****        -4.2407  -2.3779   0.9670 H              1 S1                 0.0000
     32 ****        -3.1116  -2.1217  -1.2466 H              1 S1                 0.0000
     33 ****        -3.2355  -0.5943  -0.4123 H              1 S1                 0.0000
     34 ****        -0.9872  -0.8360  -1.3779 H              1 S1                 0.0000
     35 ****        -0.7656  -2.3782  -0.5939 H              1 S1                 0.0000
     36 ****         2.6645   0.0563  -3.4464 H              1 S1                 0.0000
     37 ****        -2.0770   0.6450   0.7790 LP             1 S1                 0.0000
     38 ****        -0.7207   1.1317   0.0107 LP             1 S1                 0.0000
@<TRIPOS>BOND
    1    1    2 1     
    2    1   18 1     
    3    2   17 1     
    4    2    3 1     
    5    2   13 1     
    6    3    4 1     
    7    3   19 1     
    8    3   20 1     
    9    4   12 1     
   10    4    5 1     
   11    5    6 2     
   12    5   21 1     
   13    6    7 1     
   14    6   36 1     
   15    7   12 ar    
   16    7    8 ar    
   17    8    9 ar    
   18    8   22 1     
   19    9   10 ar    
   20    9   23 1     
   21   10   11 ar    
   22   10   24 1     
   23   11   12 ar    
   24   11   25 1     
   25   13   14 1     
   26   13   26 1     
   27   13   27 1     
   28   14   15 1     
   29   14   28 1     
   30   14   29 1     
   31   15   16 1     
   32   15   30 1     
   33   15   31 1     
   34   16   17 1     
   35   16   32 1     
   36   16   33 1     
   37   17   34 1     
   38   17   35 1     
   39    1   37 1     
   40    1   38 1     
@<TRIPOS>SUBSTRUCTURE
      1 S1             1
@<TRIPOS>SET
LONE_PAIRS      STATIC     ATOMS    <user>   **** ""
2 37 38
DONOR_HYDROGENS      STATIC     ATOMS    <user>   **** ""
2 18 36
ATOM$BLUE        STATIC     ATOMS    COLORGROUP SYSTEM
2 37 38
ATOM$RED        STATIC     ATOMS    COLORGROUP SYSTEM
2 18 36
