AV-unprocessed.smi:1010|AV-procd|sdf|4418|dock10
  -GOLD-   22720 2363D 1   1.00000     0.00000
 Structure written by MMmdl.
 55 57  0  0  0  0  0  0  0  0  4 V2000
  140.9486  137.6682  157.5779 C   0  0  0  0  0  0  0  0  0  0  0  0
  139.5363  137.2360  157.3783 N   0  3  0  0  0  0  0  0  0  0  0  0
  139.1223  136.2986  158.4628 C   0  0  0  0  0  0  0  0  0  0  0  0
  139.0746  136.9278  155.9585 C   0  0  0  0  0  0  0  0  0  0  0  0
  139.7662  135.6592  155.3159 C   0  0  0  0  0  0  0  0  0  0  0  0
  141.2055  135.8459  155.1195 N   0  5  0  0  0  0  0  0  0  0  0  0
  142.0128  135.0081  154.4171 C   0  0  0  0  0  0  0  0  0  0  0  0
  141.8926  133.7872  154.2672 O   0  0  0  0  0  0  0  0  0  0  0  0
  143.0371  135.6621  153.8454 N   0  0  0  0  0  0  0  0  0  0  0  0
  143.9898  135.1544  152.9211 C   0  0  0  0  0  0  0  0  0  0  0  0
  143.8205  133.8864  152.3120 C   0  0  0  0  0  0  0  0  0  0  0  0
  144.8043  133.3974  151.4305 C   0  0  0  0  0  0  0  0  0  0  0  0
  145.9474  134.1790  151.1811 C   0  0  0  0  0  0  0  0  0  0  0  0
  146.0865  135.3762  151.7889 N   0  3  0  0  0  0  0  0  0  0  0  0
  145.1724  135.8943  152.6399 C   0  0  0  0  0  0  0  0  0  0  0  0
  145.4865  137.1542  153.1774 N   0  0  0  0  0  0  0  0  0  0  0  0
  146.3629  137.1730  154.3448 C   0  0  0  0  0  0  0  0  0  0  0  0
  147.4948  138.1535  154.0233 C   0  0  0  0  0  0  0  0  0  0  0  0
  146.8712  139.0806  152.9858 C   0  0  0  0  0  0  0  0  0  0  0  0
  145.9392  138.1488  152.2129 C   0  0  0  0  0  0  0  0  0  0  0  0
  137.5280  136.6953  155.9758 C   0  0  0  0  0  0  0  0  0  0  0  0
  136.7511  137.9505  156.4163 C   0  0  0  0  0  0  0  0  0  0  0  0
  137.0242  139.0222  155.5244 O   0  0  0  0  0  0  0  0  0  0  0  0
  138.3997  139.3763  155.4872 C   0  0  0  0  0  0  0  0  0  0  0  0
  139.2430  138.1720  155.0235 C   0  0  0  0  0  0  0  0  0  0  0  0
  141.6548  136.8509  157.4442 H   0  0  0  0  0  0  0  0  0  0  0  0
  141.0799  138.0334  158.5968 H   0  0  0  0  0  0  0  0  0  0  0  0
  141.2419  138.4901  156.9286 H   0  0  0  0  0  0  0  0  0  0  0  0
  139.6846  135.3647  158.4278 H   0  0  0  0  0  0  0  0  0  0  0  0
  138.0612  136.0611  158.4367 H   0  0  0  0  0  0  0  0  0  0  0  0
  139.3120  136.7502  159.4369 H   0  0  0  0  0  0  0  0  0  0  0  0
  139.5386  134.7905  155.9350 H   0  0  0  0  0  0  0  0  0  0  0  0
  139.2855  135.4476  154.3605 H   0  0  0  0  0  0  0  0  0  0  0  0
  143.0151  136.6664  153.9455 H   0  0  0  0  0  0  0  0  0  0  0  0
  142.9531  133.2785  152.5222 H   0  0  0  0  0  0  0  0  0  0  0  0
  144.6853  132.4334  150.9581 H   0  0  0  0  0  0  0  0  0  0  0  0
  146.7518  133.8833  150.5234 H   0  0  0  0  0  0  0  0  0  0  0  0
  145.7829  137.5360  155.1935 H   0  0  0  0  0  0  0  0  0  0  0  0
  146.7462  136.1874  154.6116 H   0  0  0  0  0  0  0  0  0  0  0  0
  147.8602  138.6820  154.9038 H   0  0  0  0  0  0  0  0  0  0  0  0
  148.3369  137.6206  153.5806 H   0  0  0  0  0  0  0  0  0  0  0  0
  146.2898  139.8559  153.4865 H   0  0  0  0  0  0  0  0  0  0  0  0
  147.6094  139.5681  152.3486 H   0  0  0  0  0  0  0  0  0  0  0  0
  146.4745  137.6750  151.3892 H   0  0  0  0  0  0  0  0  0  0  0  0
  145.0941  138.6928  151.7905 H   0  0  0  0  0  0  0  0  0  0  0  0
  137.1597  136.4402  154.9783 H   0  0  0  0  0  0  0  0  0  0  0  0
  137.2348  135.8537  156.6037 H   0  0  0  0  0  0  0  0  0  0  0  0
  135.6799  137.7498  156.3961 H   0  0  0  0  0  0  0  0  0  0  0  0
  136.9970  138.2367  157.4396 H   0  0  0  0  0  0  0  0  0  0  0  0
  138.5241  140.2061  154.7913 H   0  0  0  0  0  0  0  0  0  0  0  0
  138.7177  139.7382  156.4654 H   0  0  0  0  0  0  0  0  0  0  0  0
  140.2849  138.4760  154.9142 H   0  0  0  0  0  0  0  0  0  0  0  0
  138.9171  137.9359  154.0071 H   0  0  0  0  0  0  0  0  0  0  0  0
  139.0178  138.0764  157.5884 H   0  0  0  0  0  0  0  0  0  0  0  0
  146.9259  135.9220  151.5938 H   0  0  0  0  0  0  0  0  0  0  0  0
  1  2  1  0  0  0  0
  1 26  1  0  0  0  0
  1 27  1  0  0  0  0
  1 28  1  0  0  0  0
  2  3  1  0  0  0  0
  2  4  1  0  0  0  0
  2 54  1  0  0  0  0
  3 29  1  0  0  0  0
  3 30  1  0  0  0  0
  3 31  1  0  0  0  0
  4 25  1  0  0  0  0
  4  5  1  0  0  0  0
  4 21  1  0  0  0  0
  5  6  1  0  0  0  0
  5 32  1  0  0  0  0
  5 33  1  0  0  0  0
  6  7  1  0  0  0  0
  7  8  2  0  0  0  0
  7  9  1  0  0  0  0
  9 10  1  0  0  0  0
  9 34  1  0  0  0  0
 10 15  1  0  0  0  0
 10 11  2  0  0  0  0
 11 12  1  0  0  0  0
 11 35  1  0  0  0  0
 12 13  2  0  0  0  0
 12 36  1  0  0  0  0
 13 14  1  0  0  0  0
 13 37  1  0  0  0  0
 14 15  2  0  0  0  0
 14 55  1  0  0  0  0
 15 16  1  0  0  0  0
 16 20  1  0  0  0  0
 16 17  1  0  0  0  0
 17 18  1  0  0  0  0
 17 38  1  0  0  0  0
 17 39  1  0  0  0  0
 18 19  1  0  0  0  0
 18 40  1  0  0  0  0
 18 41  1  0  0  0  0
 19 20  1  0  0  0  0
 19 42  1  0  0  0  0
 19 43  1  0  0  0  0
 20 44  1  0  0  0  0
 20 45  1  0  0  0  0
 21 22  1  0  0  0  0
 21 46  1  0  0  0  0
 21 47  1  0  0  0  0
 22 23  1  0  0  0  0
 22 48  1  0  0  0  0
 22 49  1  0  0  0  0
 23 24  1  0  0  0  0
 24 25  1  0  0  0  0
 24 50  1  0  0  0  0
 24 51  1  0  0  0  0
 25 52  1  0  0  0  0
 25 53  1  0  0  0  0
M  CHG  1   2   1
M  CHG  1   6  -1
M  CHG  1  14   1
M  END
> <s_m_source_file>
AV-unprocessed.smi

> <i_m_source_file_index>
1010

> <i_lp_mmshare_version>
43012

> <i_f3d_flags>
0

> <s_epik_input>
W0NIMl0xW0NIMl1PW0NIMl1bQ0gyXUMxKE4oW0NIM10pW0NIM10pW0NIMl1bTkhdQyg9TylbTkhdYzJbY0hdW2NIXVtjSF1uYzJOM1tDSDJdW0NIMl1bQ0gyXVtDSDJdMw==

> <s_epik_cmdline>
J2VwaWtfcHl0aG9uJywgJy1waCcsICc3LjAnLCAnLXRuJywgJzgnLCAnLW1hJywgJzIwMCcsICctbWV0YWxfYmluZGluZycsICctaW1hZScsICc8aW5maWxlLm1hZT4nLCAnLW9tYWUnLCAnPG91dGZpbGUubWFlPic=

> <r_lp_tautomer_probability>
0.999994

> <r_epik_Ionization_Penalty>
8.43521

> <r_epik_Ionization_Penalty_Charging>
8.43521

> <r_epik_Ionization_Penalty_Neutral>
3.38325e-06

> <r_epik_State_Penalty>
7.95094

> <r_epik_Charging_Adjusted_Penalty>
16.3861

> <i_epik_Tot_Q>
1

> <i_epik_Tot_abs_Q>
3

> <r_epik_Metal_State_Penalty>
3.94206

> <b_epik_Metal_Only>
1

> <s_lp_Force_Field>
OPLS_2005

> <r_lp_Energy>
62.009

> <b_lp_Chiralities_Consistent>
1

> <s_lp_Variant>
AV-unprocessed.smi:1010-4

> <Gold.Version>
5.8.1

> <Gold.Id.Protein>
6NUR|6NUR_protein|mol2

> <Gold.PLP.Fitness>
41.5115

> <Gold.PLP.PLP>
-36.8506

> <Gold.PLP.part.hbond>
-1.0000

> <Gold.PLP.part.metal>
0.0000

> <Gold.PLP.part.buried>
-6.7282

> <Gold.PLP.part.nonpolar>
-29.9893

> <Gold.PLP.part.repulsive>
0.5960

> <Gold.PLP.ligand.clash>
0.0862

> <Gold.PLP.ligand.torsion>
0.8891

> <Gold.PLP.Chemscore.Hbond>
2.0000

> <Gold.PLP.Chemscore.CHOScore>
0.0000

> <Gold.PLP.Chemscore.Metal>
0.0000

> <Gold.Chemscore.Hbonds>
donor molecule, donor type, donor heavy atom, donor atom, acceptor molecule, acceptor atom, score
      L1  H    14    55       P1  7948  1.97

> <Gold.PLP.Chemscore.Internal.Correction>
0.5254

> <Gold.Rescore>
     Score         DG    S(hbond)    S(metal)    S(lipo)     H(rot)  DE(clash)    DE(int)     intcor
     12.64     -14.58       1.00        0.00      84.42       1.60       0.00       1.94       ----

> <Gold.Chemscore.Fitness>
12.6383

> <Gold.Chemscore.DG>
-14.5842

> <Gold.Chemscore.ZeroCoef>
-5.4800

> <Gold.Chemscore.Hbond>
0.9975

> <Gold.Chemscore.Metal>
0.0000

> <Gold.Chemscore.Lipo>
84.4204

> <Gold.Chemscore.Internal_Hbond>
0.0000

> <Gold.Chemscore.DEClash>
0.0047

> <Gold.Chemscore.DEInternal>
1.9412

> <Gold.Chemscore.Rot>
1.6033

> <Gold.Chemscore.Internal.Correction>
   9.000000E+99

> <Gold.Chemscore.Hbonds>
donor molecule, donor type, donor heavy atom, donor atom, acceptor molecule, acceptor atom, score
      L1  H    14    55       P1  7948  0.87

> <Gold.Chemscore.Hbond.Weighted>
-3.3316

> <Gold.Chemscore.Metal.Weighted>
-0.0000

> <Gold.Chemscore.Lipo.Weighted>
-9.8772

> <Gold.Chemscore.Internal_Hbond.Weighted>
0.0000

> <Gold.Chemscore.DEClash.Weighted>
0.0047

> <Gold.Chemscore.DEInternal.Weighted>
1.9412

> <Gold.Chemscore.Rot.Weighted>
4.1046

> <Gold.Chemscore.Internal.Correction.Weighted>
   9.000000E+99

> <Gold.Protein.RotatedTorsions>
[ 6907 6896 6895 6894 ] final  -58.64 input  -60.11 | X-H torsion
[ 7974 7965 7964 7962 ] final -171.88 input  175.53 | X-H torsion
[ 8008 7997 7996 7995 ] final  119.49 input   59.86 | X-H torsion
[ 10167 10162 10161 10158 ] final   37.12 input  -65.29 | X-H torsion
[ 10718 10713 10712 10709 ] final   73.54 input   66.30 | X-H torsion
[ 10763 10752 10751 10750 ] final  143.66 input  -60.55 | X-H torsion
[ 11005 11000 10999 10996 ] final   93.85 input  -57.11 | X-H torsion

> <Gold.Protein.ActiveResidues>
 VAL166  LYS551  ARG553  GLY616  TRP617  ASP618  TYR619  PRO620  LYS621  CYS622 
 ASP623  PHE694  ASN695  SER759  ASP760  ASP761  ALA762  ILE779  LEU786  VAL792 
 PHE793  MET794  SER795  GLU796  ALA797  LYS798  CYS799  TRP800  GLU811  SER814 

> <Gold.Protein.RotatedAtoms>
  150.7991  134.7073  159.6583 H   0  0  0  0  0  0  0  0  0  0  0  0  # atno 6907 bound_to 6896
  152.4107  134.6126  160.0039 H   0  0  0  0  0  0  0  0  0  0  0  0  # atno 6908 bound_to 6896
  151.6370  133.3291  159.3158 H   0  0  0  0  0  0  0  0  0  0  0  0  # atno 6909 bound_to 6896
  144.7152  140.1855  143.6354 H   0  0  0  0  0  0  0  0  0  0  0  0  # atno 7974 bound_to 7965
  156.2598  140.2852  156.1000 H   0  0  0  0  0  0  0  0  0  0  0  0  # atno 8008 bound_to 7997
  155.1370  140.0395  157.2806 H   0  0  0  0  0  0  0  0  0  0  0  0  # atno 8009 bound_to 7997
  154.6557  140.2555  155.7170 H   0  0  0  0  0  0  0  0  0  0  0  0  # atno 8010 bound_to 7997
  140.4063  144.1654  150.6136 H   0  0  0  0  0  0  0  0  0  0  0  0  # atno 10167 bound_to 10162
  157.6552  130.9634  150.1084 H   0  0  0  0  0  0  0  0  0  0  0  0  # atno 10718 bound_to 10713
  153.9760  135.2946  155.3424 H   0  0  0  0  0  0  0  0  0  0  0  0  # atno 10763 bound_to 10752
  154.7295  135.5074  153.8944 H   0  0  0  0  0  0  0  0  0  0  0  0  # atno 10764 bound_to 10752
  153.0877  135.6698  154.0029 H   0  0  0  0  0  0  0  0  0  0  0  0  # atno 10765 bound_to 10752
  139.8805  134.8813  156.3778 H   0  0  0  0  0  0  0  0  0  0  0  0  # atno 11005 bound_to 11000
  145.8817  139.2326  143.1601 LP  0  0  0  0  0  0  0  0  0  0  0  0  # atno 17320 bound_to 7965
  145.9989  140.8538  143.0029 LP  0  0  0  0  0  0  0  0  0  0  0  0  # atno 17321 bound_to 7965
  140.4686  143.2421  151.9120 LP  0  0  0  0  0  0  0  0  0  0  0  0  # atno 17342 bound_to 10162
  139.4783  144.5393  151.8551 LP  0  0  0  0  0  0  0  0  0  0  0  0  # atno 17343 bound_to 10162
  156.1988  130.3659  149.8815 LP  0  0  0  0  0  0  0  0  0  0  0  0  # atno 17370 bound_to 10713
  156.6724  130.8826  151.3564 LP  0  0  0  0  0  0  0  0  0  0  0  0  # atno 17371 bound_to 10713
  140.9419  133.7508  156.0158 LP  0  0  0  0  0  0  0  0  0  0  0  0  # atno 17394 bound_to 11000
  140.8209  134.3291  157.5382 LP  0  0  0  0  0  0  0  0  0  0  0  0  # atno 17395 bound_to 11000

$$$$
