#       Name:                AV-unprocessed.smi:2564
#       Creating user name   scv26
#       Creation time:       Fri Mar 27 14:10:07 2020


#       File generated by GOLD software.
#

@<TRIPOS>MOLECULE
AV-unprocessed.smi:2564
    33    34     1
SMALL
NO_CHARGES


@<TRIPOS>ATOM
      1 ****        -3.9400   2.8538   1.1569 C.ar           1 S1                 0.0000
      2 ****        -3.1503   3.9370   1.5841 C.ar           1 S1                 0.0000
      3 ****        -1.8005   3.8785   1.6342 N.ar           1 S1                 0.0000
      4 ****        -1.1647   2.7595   1.2694 N.ar           1 S1                 0.0000
      5 ****        -1.8630   1.6758   0.8460 C.ar           1 S1                 0.0000
      6 ****        -1.1665   0.5183   0.4740 N.pl3          1 S1                 0.0000
      7 ****         0.2887   0.5174   0.4200 C.3            1 S1                 0.0000
      8 ****         0.8392  -0.8471  -0.0162 C.3            1 S1                 0.0000
      9 ****         2.3738  -0.9104   0.1171 C.3            1 S1                 0.0000
     10 ****         2.8771  -2.2017  -0.3910 N.4            1 S1                 1.0000
     11 ****         2.4308  -2.4517  -1.7752 C.3            1 S1                 0.0000
     12 ****         0.9003  -2.3322  -1.8641 C.3            1 S1                 0.0000
     13 ****         0.4957  -1.0540  -1.3849 O.3            1 S1                 0.0000
     14 ****        -3.2702   1.6790   0.7734 C.ar           1 S1                 0.0000
     15 ****        -5.0172   2.9228   1.1255 H              1 S1                 0.0000
     16 ****        -3.6070   4.8659   1.8915 H              1 S1                 0.0000
     17 ****        -1.6723  -0.2757   0.1089 H              1 S1                 0.0000
     18 ****         0.6333   1.2986  -0.2591 H              1 S1                 0.0000
     19 ****         0.6699   0.7616   1.4124 H              1 S1                 0.0000
     20 ****         0.3892  -1.6290   0.5990 H              1 S1                 0.0000
     21 ****         2.8397  -0.0992  -0.4442 H              1 S1                 0.0000
     22 ****         2.6748  -0.7950   1.1587 H              1 S1                 0.0000
     23 ****         3.8866  -2.2073  -0.3564 H              1 S1                 0.0000
     24 ****         2.9045  -1.7291  -2.4410 H              1 S1                 0.0000
     25 ****         2.7589  -3.4429  -2.0889 H              1 S1                 0.0000
     26 ****         0.5734  -2.4437  -2.8981 H              1 S1                 0.0000
     27 ****         0.4123  -3.1205  -1.2887 H              1 S1                 0.0000
     28 ****        -3.8195   0.8122   0.4363 H              1 S1                 0.0000
     29 ****         2.5233  -2.9402   0.2006 H              1 S1                 0.0000
     30 ****        -1.2771   4.6722   1.9441 LP             1 S1                 0.0000
     31 ****        -0.1662   2.7213   1.3091 LP             1 S1                 0.0000
     32 ****         0.9413  -0.3493  -1.9370 LP             1 S1                 0.0000
     33 ****        -0.4965  -0.9752  -1.4815 LP             1 S1                 0.0000
@<TRIPOS>BOND
    1    1   14 ar    
    2    1    2 ar    
    3    1   15 1     
    4    2    3 ar    
    5    2   16 1     
    6    3    4 ar    
    7    4    5 ar    
    8    5    6 1     
    9    5   14 ar    
   10    6    7 1     
   11    6   17 1     
   12    7    8 1     
   13    7   18 1     
   14    7   19 1     
   15    8   13 1     
   16    8    9 1     
   17    8   20 1     
   18    9   10 1     
   19    9   21 1     
   20    9   22 1     
   21   10   11 1     
   22   10   23 1     
   23   10   29 1     
   24   11   12 1     
   25   11   24 1     
   26   11   25 1     
   27   12   13 1     
   28   12   26 1     
   29   12   27 1     
   30   14   28 1     
   31    3   30 1     
   32    4   31 1     
   33   13   32 1     
   34   13   33 1     
@<TRIPOS>SUBSTRUCTURE
      1 S1             1
@<TRIPOS>SET
LONE_PAIRS      STATIC     ATOMS    <user>   **** ""
4 30 31 32 33
DONOR_HYDROGENS      STATIC     ATOMS    <user>   **** ""
3 17 23 29
ATOM$BLUE        STATIC     ATOMS    COLORGROUP SYSTEM
4 30 31 32 33
ATOM$RED        STATIC     ATOMS    COLORGROUP SYSTEM
3 17 23 29
