#       Name:                AV-unprocessed.smi:3180
#       Creating user name   scv26
#       Creation time:       Fri Mar 27 17:57:34 2020


#       File generated by GOLD software.
#

@<TRIPOS>MOLECULE
AV-unprocessed.smi:3180
    26    27     1
SMALL
NO_CHARGES


@<TRIPOS>ATOM
      1 ****        -1.7879   2.3722  -1.1202 N.4            1 S1                 1.0000
      2 ****        -1.2544   1.0003  -1.1488 C.3            1 S1                 0.0000
      3 ****         0.2583   0.9842  -0.8860 C.3            1 S1                 0.0000
      4 ****         0.7933  -0.3652  -0.9190 N.pl3          1 S1                 0.0000
      5 ****         1.0641  -1.1267  -1.9905 C.2            1 S1                 0.0000
      6 ****         1.5690  -2.3283  -1.7161 N.2            1 S1                 0.0000
      7 ****         1.6472  -2.3653  -0.3384 N.2            1 S1                 0.0000
      8 ****         1.1666  -1.1893   0.0820 C.2            1 S1                 0.0000
      9 ****         1.0996  -0.7907   1.5219 C.3            1 S1                 0.0000
     10 ****         0.6169  -1.7566   2.5812 C.3            1 S1                 0.0000
     11 ****        -0.2292  -0.5671   2.2098 C.3            1 S1                 0.0000
     12 ****        -2.7824   2.3505  -1.2960 H              1 S1                 0.0000
     13 ****        -1.3338   2.9264  -1.8324 H              1 S1                 0.0000
     14 ****        -1.7794   0.4062  -0.4007 H              1 S1                 0.0000
     15 ****        -1.4764   0.5612  -2.1222 H              1 S1                 0.0000
     16 ****         0.7808   1.5748  -1.6398 H              1 S1                 0.0000
     17 ****         0.4858   1.4368   0.0796 H              1 S1                 0.0000
     18 ****         0.8905  -0.7912  -3.0026 H              1 S1                 0.0000
     19 ****         1.9256  -0.1295   1.7767 H              1 S1                 0.0000
     20 ****         0.2719  -2.7368   2.2578 H              1 S1                 0.0000
     21 ****         1.1197  -1.7348   3.5458 H              1 S1                 0.0000
     22 ****        -0.2923   0.2487   2.9270 H              1 S1                 0.0000
     23 ****        -1.1376  -0.7635   1.6445 H              1 S1                 0.0000
     24 ****        -1.6162   2.7831  -0.2137 H              1 S1                 0.0000
     25 ****         1.8325  -3.0436  -2.3633 LP             1 S1                 0.0000
     26 ****         1.9912  -3.1146   0.2274 LP             1 S1                 0.0000
@<TRIPOS>BOND
    1    1    2 1     
    2    1   12 1     
    3    1   13 1     
    4    1   24 1     
    5    2    3 1     
    6    2   14 1     
    7    2   15 1     
    8    3    4 1     
    9    3   16 1     
   10    3   17 1     
   11    4    8 1     
   12    4    5 1     
   13    5    6 2     
   14    5   18 1     
   15    6    7 1     
   16    7    8 2     
   17    8    9 1     
   18    9   11 1     
   19    9   10 1     
   20    9   19 1     
   21   10   11 1     
   22   10   20 1     
   23   10   21 1     
   24   11   22 1     
   25   11   23 1     
   26    6   25 1     
   27    7   26 1     
@<TRIPOS>SUBSTRUCTURE
      1 S1             1
@<TRIPOS>SET
LONE_PAIRS      STATIC     ATOMS    <user>   **** ""
2 25 26
DONOR_HYDROGENS      STATIC     ATOMS    <user>   **** ""
3 12 13 24
ATOM$BLUE        STATIC     ATOMS    COLORGROUP SYSTEM
2 25 26
ATOM$RED        STATIC     ATOMS    COLORGROUP SYSTEM
3 12 13 24
