AV-unprocessed.smi:1489|AV-procd|sdf|6026|dock4
  -GOLD-   22720 6123D 1   1.00000     0.00000
 Structure written by MMmdl.
 46 48  0  0  0  0  0  0  0  0  1 V2000
  146.4554  139.0635  154.2353 O   0  0  0  0  0  0  0  0  0  0  0  0
  147.2696  138.4471  153.5492 C   0  0  0  0  0  0  0  0  0  0  0  0
  148.6070  138.5639  153.6228 N   0  0  0  0  0  0  0  0  0  0  0  0
  149.4009  139.3954  154.4609 C   0  0  0  0  0  0  0  0  0  0  0  0
  150.7679  139.1837  154.7595 C   0  0  0  0  0  0  0  0  0  0  0  0
  151.4283  140.0881  155.6131 C   0  0  0  0  0  0  0  0  0  0  0  0
  150.7095  141.1800  156.1538 C   0  0  0  0  0  0  0  0  0  0  0  0
  151.3354  142.1094  157.0083 N   0  0  0  0  0  0  0  0  0  0  0  0
  150.9430  143.5101  157.0364 C   0  0  0  0  0  0  0  0  0  0  0  0
  151.7540  144.1156  158.1808 C   0  0  0  0  0  0  0  0  0  0  0  0
  151.8792  142.9553  159.1681 C   0  0  0  0  0  0  0  0  0  0  0  0
  151.9274  141.7085  158.2773 C   0  0  0  0  0  0  0  0  0  0  0  0
  149.4026  141.3829  155.8643 N   0  0  0  0  0  0  0  0  0  0  0  0
  148.7741  140.5135  155.0464 C   0  0  0  0  0  0  0  0  0  0  0  0
  146.9177  137.5517  152.6153 N   0  0  0  0  0  0  0  0  0  0  0  0
  145.5475  137.1800  152.2744 C   0  0  2  0  0  0  0  0  0  0  0  0
  144.7398  136.9503  153.5648 C   0  0  0  0  0  0  0  0  0  0  0  0
  143.2983  136.5069  153.2580 C   0  0  0  0  0  0  0  0  0  0  0  0
  143.2510  135.2662  152.3468 C   0  0  2  0  0  0  0  0  0  0  0  0
  143.7034  134.1286  153.0542 O   0  0  0  0  0  0  0  0  0  0  0  0
  144.0943  135.4667  151.0734 C   0  0  0  0  0  0  0  0  0  0  0  0
  145.5314  135.9177  151.3888 C   0  0  0  0  0  0  0  0  0  0  0  0
  149.1307  137.9677  152.9988 H   0  0  0  0  0  0  0  0  0  0  0  0
  151.3295  138.3542  154.3621 H   0  0  0  0  0  0  0  0  0  0  0  0
  152.4738  139.9344  155.8348 H   0  0  0  0  0  0  0  0  0  0  0  0
  151.1505  144.0068  156.0882 H   0  0  0  0  0  0  0  0  0  0  0  0
  149.8741  143.5850  157.2403 H   0  0  0  0  0  0  0  0  0  0  0  0
  152.7435  144.4020  157.8221 H   0  0  0  0  0  0  0  0  0  0  0  0
  151.2828  144.9979  158.6145 H   0  0  0  0  0  0  0  0  0  0  0  0
  152.7484  143.0432  159.8203 H   0  0  0  0  0  0  0  0  0  0  0  0
  150.9899  142.9183  159.7987 H   0  0  0  0  0  0  0  0  0  0  0  0
  151.3920  140.8791  158.7405 H   0  0  0  0  0  0  0  0  0  0  0  0
  152.9579  141.3977  158.1023 H   0  0  0  0  0  0  0  0  0  0  0  0
  147.7319  140.7211  154.8527 H   0  0  0  0  0  0  0  0  0  0  0  0
  147.6528  137.0906  152.0993 H   0  0  0  0  0  0  0  0  0  0  0  0
  145.0821  138.0017  151.7264 H   0  0  0  0  0  0  0  0  0  0  0  0
  145.2296  136.1934  154.1792 H   0  0  0  0  0  0  0  0  0  0  0  0
  144.7207  137.8637  154.1606 H   0  0  0  0  0  0  0  0  0  0  0  0
  142.7589  136.3150  154.1865 H   0  0  0  0  0  0  0  0  0  0  0  0
  142.7740  137.3278  152.7673 H   0  0  0  0  0  0  0  0  0  0  0  0
  142.2162  135.0725  152.0622 H   0  0  0  0  0  0  0  0  0  0  0  0
  143.4714  134.2291  153.9648 H   0  0  0  0  0  0  0  0  0  0  0  0
  144.1103  134.5509  150.4810 H   0  0  0  0  0  0  0  0  0  0  0  0
  143.6180  136.2230  150.4483 H   0  0  0  0  0  0  0  0  0  0  0  0
  146.0645  136.1056  150.4560 H   0  0  0  0  0  0  0  0  0  0  0  0
  146.0659  135.1086  151.8888 H   0  0  0  0  0  0  0  0  0  0  0  0
  1  2  2  0  0  0  0
  2  3  1  0  0  0  0
  2 15  1  0  0  0  0
  3  4  1  0  0  0  0
  3 23  1  0  0  0  0
  4 14  1  0  0  0  0
  4  5  2  0  0  0  0
  5  6  1  0  0  0  0
  5 24  1  0  0  0  0
  6  7  2  0  0  0  0
  6 25  1  0  0  0  0
  7  8  1  0  0  0  0
  7 13  1  0  0  0  0
  8 12  1  0  0  0  0
  8  9  1  0  0  0  0
  9 10  1  0  0  0  0
  9 26  1  0  0  0  0
  9 27  1  0  0  0  0
 10 11  1  0  0  0  0
 10 28  1  0  0  0  0
 10 29  1  0  0  0  0
 11 12  1  0  0  0  0
 11 30  1  0  0  0  0
 11 31  1  0  0  0  0
 12 32  1  0  0  0  0
 12 33  1  0  0  0  0
 13 14  2  0  0  0  0
 14 34  1  0  0  0  0
 15 16  1  0  0  0  0
 15 35  1  0  0  0  0
 16 22  1  0  0  0  0
 16 17  1  0  0  0  0
 16 36  1  0  0  0  0
 17 18  1  0  0  0  0
 17 37  1  0  0  0  0
 17 38  1  0  0  0  0
 18 19  1  0  0  0  0
 18 39  1  0  0  0  0
 18 40  1  0  0  0  0
 19 20  1  0  0  0  0
 19 21  1  0  0  0  0
 19 41  1  0  0  0  0
 20 42  1  0  0  0  0
 21 22  1  0  0  0  0
 21 43  1  0  0  0  0
 21 44  1  0  0  0  0
 22 45  1  0  0  0  0
 22 46  1  0  0  0  0
M  END
> <s_m_source_file>
AV-unprocessed.smi

> <i_m_source_file_index>
1489

> <i_lp_mmshare_version>
43012

> <i_f3d_flags>
0

> <s_epik_input>
W0NIMl0xW0NIMl1bQ0BIXShbT0hdKVtDSDJdW0NIMl1bQ0BIXTFbTkhdQyg9TylbTkhdYzJbY0hdW2NIXWMobltjSF0yKU4zW0NIMl1bQ0gyXVtDSDJdW0NIMl0z

> <s_epik_cmdline>
J2VwaWtfcHl0aG9uJywgJy1waCcsICc3LjAnLCAnLXRuJywgJzgnLCAnLW1hJywgJzIwMCcsICctbWV0YWxfYmluZGluZycsICctaW1hZScsICc8aW5maWxlLm1hZT4nLCAnLW9tYWUnLCAnPG91dGZpbGUubWFlPic=

> <r_lp_tautomer_probability>
1

> <r_epik_Ionization_Penalty>
0.104121

> <r_epik_Ionization_Penalty_Charging>
0

> <r_epik_Ionization_Penalty_Neutral>
0.104121

> <r_epik_State_Penalty>
0.0934704

> <r_epik_Charging_Adjusted_Penalty>
0.0934704

> <i_epik_Tot_Q>
0

> <i_epik_Tot_abs_Q>
0

> <r_epik_Metal_State_Penalty>
0.0794432

> <b_epik_Metal_Only>
0

> <s_lp_Force_Field>
OPLS_2005

> <r_lp_Energy>
35.391

> <b_lp_Chiralities_Consistent>
1

> <s_lp_Variant>
AV-unprocessed.smi:1489-2

> <Gold.Version>
5.8.1

> <Gold.Id.Protein>
6NUR|6NUR_protein|mol2

> <Gold.PLP.Fitness>
44.5006

> <Gold.PLP.PLP>
-40.7376

> <Gold.PLP.part.hbond>
-3.4298

> <Gold.PLP.part.metal>
0.0000

> <Gold.PLP.part.buried>
-1.8007

> <Gold.PLP.part.nonpolar>
-37.0945

> <Gold.PLP.part.repulsive>
0.3356

> <Gold.PLP.ligand.clash>
0.0000

> <Gold.PLP.ligand.torsion>
1.0189

> <Gold.PLP.Chemscore.Hbond>
1.8723

> <Gold.PLP.Chemscore.CHOScore>
0.0000

> <Gold.PLP.Chemscore.Metal>
0.0000

> <Gold.Chemscore.Hbonds>
donor molecule, donor type, donor heavy atom, donor atom, acceptor molecule, acceptor atom, score
      L1  H     3    23       P1  7948  0.81
      L1  H    15    35       P1  7948  1.00

> <Gold.PLP.Chemscore.Internal.Correction>
0.1840

> <Gold.Rescore>
     Score         DG    S(hbond)    S(metal)    S(lipo)     H(rot)  DE(clash)    DE(int)     intcor
     15.79     -19.32       1.94        0.00      93.69       1.41       0.15       3.38       ----

> <Gold.Chemscore.Fitness>
15.7882

> <Gold.Chemscore.DG>
-19.3191

> <Gold.Chemscore.ZeroCoef>
-5.4800

> <Gold.Chemscore.Hbond>
1.9417

> <Gold.Chemscore.Metal>
0.0000

> <Gold.Chemscore.Lipo>
93.6889

> <Gold.Chemscore.Internal_Hbond>
0.0000

> <Gold.Chemscore.DEClash>
0.1485

> <Gold.Chemscore.DEInternal>
3.3824

> <Gold.Chemscore.Rot>
1.4093

> <Gold.Chemscore.Internal.Correction>
   9.000000E+99

> <Gold.Chemscore.Hbonds>
donor molecule, donor type, donor heavy atom, donor atom, acceptor molecule, acceptor atom, score
      L1  H     3    23       P1  7948  0.76
      L1  H    15    35       P1  7948  0.96

> <Gold.Chemscore.Hbond.Weighted>
-6.4852

> <Gold.Chemscore.Metal.Weighted>
-0.0000

> <Gold.Chemscore.Lipo.Weighted>
-10.9616

> <Gold.Chemscore.Internal_Hbond.Weighted>
0.0000

> <Gold.Chemscore.DEClash.Weighted>
0.1485

> <Gold.Chemscore.DEInternal.Weighted>
3.3824

> <Gold.Chemscore.Rot.Weighted>
3.6077

> <Gold.Chemscore.Internal.Correction.Weighted>
   9.000000E+99

> <Gold.Protein.RotatedTorsions>
[ 6907 6896 6895 6894 ] final -126.69 input  -60.11 | X-H torsion
[ 7974 7965 7964 7962 ] final   76.08 input  175.53 | X-H torsion
[ 8008 7997 7996 7995 ] final -172.42 input   59.86 | X-H torsion
[ 10167 10162 10161 10158 ] final    1.43 input  -65.29 | X-H torsion
[ 10718 10713 10712 10709 ] final -169.31 input   66.30 | X-H torsion
[ 10763 10752 10751 10750 ] final  -33.43 input  -60.55 | X-H torsion
[ 11005 11000 10999 10996 ] final -116.60 input  -57.11 | X-H torsion

> <Gold.Protein.ActiveResidues>
 VAL166  LYS551  ARG553  GLY616  TRP617  ASP618  TYR619  PRO620  LYS621  CYS622 
 ASP623  PHE694  ASN695  SER759  ASP760  ASP761  ALA762  ILE779  LEU786  VAL792 
 PHE793  MET794  SER795  GLU796  ALA797  LYS798  CYS799  TRP800  GLU811  SER814 

> <Gold.Protein.RotatedAtoms>
  150.8995  133.7136  159.2882 H   0  0  0  0  0  0  0  0  0  0  0  0  # atno 6907 bound_to 6896
  151.4660  135.1041  159.9748 H   0  0  0  0  0  0  0  0  0  0  0  0  # atno 6908 bound_to 6896
  152.4868  133.8347  159.7177 H   0  0  0  0  0  0  0  0  0  0  0  0  # atno 6909 bound_to 6896
  145.7074  139.2603  143.1670 H   0  0  0  0  0  0  0  0  0  0  0  0  # atno 7974 bound_to 7965
  155.9444  140.1114  157.1029 H   0  0  0  0  0  0  0  0  0  0  0  0  # atno 8008 bound_to 7997
  154.4096  140.1213  156.5036 H   0  0  0  0  0  0  0  0  0  0  0  0  # atno 8009 bound_to 7997
  155.6921  140.3472  155.4900 H   0  0  0  0  0  0  0  0  0  0  0  0  # atno 8010 bound_to 7997
  140.6683  143.7119  150.7871 H   0  0  0  0  0  0  0  0  0  0  0  0  # atno 10167 bound_to 10162
  156.7097  130.9229  151.3088 H   0  0  0  0  0  0  0  0  0  0  0  0  # atno 10718 bound_to 10713
  153.8301  135.6867  153.4815 H   0  0  0  0  0  0  0  0  0  0  0  0  # atno 10763 bound_to 10752
  153.1516  135.4616  154.9643 H   0  0  0  0  0  0  0  0  0  0  0  0  # atno 10764 bound_to 10752
  154.7890  135.3295  154.7765 H   0  0  0  0  0  0  0  0  0  0  0  0  # atno 10765 bound_to 10752
  141.0411  133.9835  157.2993 H   0  0  0  0  0  0  0  0  0  0  0  0  # atno 11005 bound_to 11000
  146.0743  140.7834  142.9672 LP  0  0  0  0  0  0  0  0  0  0  0  0  # atno 17320 bound_to 7965
  144.6951  140.3391  143.7202 LP  0  0  0  0  0  0  0  0  0  0  0  0  # atno 17321 bound_to 7965
  140.0800  143.4978  152.2535 LP  0  0  0  0  0  0  0  0  0  0  0  0  # atno 17342 bound_to 10162
  139.5941  144.7560  151.3330 LP  0  0  0  0  0  0  0  0  0  0  0  0  # atno 17343 bound_to 10162
  157.6941  130.9263  150.0594 LP  0  0  0  0  0  0  0  0  0  0  0  0  # atno 17370 bound_to 10713
  156.1669  130.3645  149.9219 LP  0  0  0  0  0  0  0  0  0  0  0  0  # atno 17371 bound_to 10713
  139.9276  135.0201  156.8290 LP  0  0  0  0  0  0  0  0  0  0  0  0  # atno 17394 bound_to 11000
  140.6233  133.9974  155.7628 LP  0  0  0  0  0  0  0  0  0  0  0  0  # atno 17395 bound_to 11000

$$$$
