AV-unprocessed.smi:87|AV-procd|sdf|820|dock4
  -GOLD-   2262017223D 1   1.00000     0.00000
 Structure written by MMmdl.
 58 60  0  0  0  0  0  0  0  0  1 V2000
  147.1923  135.3341  162.9420 C   0  0  0  0  0  0  0  0  0  0  0  0
  147.4845  134.7333  161.5592 C   0  0  0  0  0  0  0  0  0  0  0  0
  147.7462  135.7802  160.4501 C   0  0  0  0  0  0  0  0  0  0  0  0
  146.4868  136.6338  160.1722 C   0  0  0  0  0  0  0  0  0  0  0  0
  145.2537  135.8188  159.7546 C   0  0  0  0  0  0  0  0  0  0  0  0
  148.2461  135.1076  159.1450 C   0  0  0  0  0  0  0  0  0  0  0  0
  148.4826  136.0420  158.0406 N   0  0  0  0  0  0  0  0  0  0  0  0
  147.9859  135.7171  156.7040 C   0  0  0  0  0  0  0  0  0  0  0  0
  148.9537  134.8211  155.9163 C   0  0  0  0  0  0  0  0  0  0  0  0
  150.2312  135.4906  155.6332 C   0  0  0  0  0  0  0  0  0  0  0  0
  151.2368  136.0172  155.4102 N   0  0  0  0  0  0  0  0  0  0  0  0
  149.3837  137.0462  158.2242 C   0  0  0  0  0  0  0  0  0  0  0  0
  150.3992  136.8327  159.1026 N   0  0  0  0  0  0  0  0  0  0  0  0
  151.3178  137.7759  159.3255 C   0  0  0  0  0  0  0  0  0  0  0  0
  151.4119  138.9911  158.7856 N   0  0  0  0  0  0  0  0  0  0  0  0
  150.4036  139.2140  157.8958 C   0  0  0  0  0  0  0  0  0  0  0  0
  149.3583  138.3071  157.5545 C   0  0  0  0  0  0  0  0  0  0  0  0
  148.5354  138.8909  156.5962 N   0  0  0  0  0  0  0  0  0  0  0  0
  149.0544  140.0702  156.3931 C   0  0  0  0  0  0  0  0  0  0  0  0
  150.1794  140.3466  157.1331 N   0  0  0  0  0  0  0  0  0  0  0  0
  150.9584  141.5731  157.1022 C   0  0  0  0  0  0  0  0  0  0  0  0
  150.6236  142.5225  158.2758 C   0  0  2  0  0  0  0  0  0  0  0  0
  149.3479  143.0853  158.0295 O   0  0  0  0  0  0  0  0  0  0  0  0
  151.6148  143.6992  158.4451 C   0  0  2  0  0  0  0  0  0  0  0  0
  152.9919  143.3294  159.0234 C   0  0  0  0  0  0  0  0  0  0  0  0
  152.8100  143.5245  160.5105 C   0  0  0  0  0  0  0  0  0  0  0  0
  151.9169  144.7541  160.5312 C   0  0  0  0  0  0  0  0  0  0  0  0
  151.0513  144.5884  159.4148 O   0  0  0  0  0  0  0  0  0  0  0  0
  147.1112  134.5465  163.6915 H   0  0  0  0  0  0  0  0  0  0  0  0
  146.2566  135.8912  162.9594 H   0  0  0  0  0  0  0  0  0  0  0  0
  147.9918  136.0056  163.2560 H   0  0  0  0  0  0  0  0  0  0  0  0
  148.3598  134.0962  161.6757 H   0  0  0  0  0  0  0  0  0  0  0  0
  146.6700  134.0716  161.2628 H   0  0  0  0  0  0  0  0  0  0  0  0
  148.5229  136.4553  160.8111 H   0  0  0  0  0  0  0  0  0  0  0  0
  146.2479  137.2388  161.0477 H   0  0  0  0  0  0  0  0  0  0  0  0
  146.6869  137.3400  159.3681 H   0  0  0  0  0  0  0  0  0  0  0  0
  144.4315  136.4806  159.4822 H   0  0  0  0  0  0  0  0  0  0  0  0
  144.8959  135.1751  160.5572 H   0  0  0  0  0  0  0  0  0  0  0  0
  145.4718  135.1910  158.8903 H   0  0  0  0  0  0  0  0  0  0  0  0
  149.1611  134.5533  159.3557 H   0  0  0  0  0  0  0  0  0  0  0  0
  147.5352  134.3582  158.8005 H   0  0  0  0  0  0  0  0  0  0  0  0
  147.0033  135.2523  156.7719 H   0  0  0  0  0  0  0  0  0  0  0  0
  147.8338  136.6392  156.1425 H   0  0  0  0  0  0  0  0  0  0  0  0
  149.1712  133.9133  156.4791 H   0  0  0  0  0  0  0  0  0  0  0  0
  148.5305  134.5129  154.9612 H   0  0  0  0  0  0  0  0  0  0  0  0
  152.0877  137.5193  160.0381 H   0  0  0  0  0  0  0  0  0  0  0  0
  148.6313  140.7731  155.6903 H   0  0  0  0  0  0  0  0  0  0  0  0
  152.0091  141.2863  157.1204 H   0  0  0  0  0  0  0  0  0  0  0  0
  150.7868  142.0726  156.1480 H   0  0  0  0  0  0  0  0  0  0  0  0
  150.5733  141.9439  159.1992 H   0  0  0  0  0  0  0  0  0  0  0  0
  149.4226  143.6992  157.3148 H   0  0  0  0  0  0  0  0  0  0  0  0
  151.7476  144.2171  157.4939 H   0  0  0  0  0  0  0  0  0  0  0  0
  153.3523  142.3355  158.7666 H   0  0  0  0  0  0  0  0  0  0  0  0
  153.7359  144.0400  158.6606 H   0  0  0  0  0  0  0  0  0  0  0  0
  152.2927  142.6688  160.9461 H   0  0  0  0  0  0  0  0  0  0  0  0
  153.7495  143.6702  161.0441 H   0  0  0  0  0  0  0  0  0  0  0  0
  151.3579  144.8547  161.4617 H   0  0  0  0  0  0  0  0  0  0  0  0
  152.5086  145.6591  160.3878 H   0  0  0  0  0  0  0  0  0  0  0  0
  1  2  1  0  0  0  0
  1 29  1  0  0  0  0
  1 30  1  0  0  0  0
  1 31  1  0  0  0  0
  2  3  1  0  0  0  0
  2 32  1  0  0  0  0
  2 33  1  0  0  0  0
  3  4  1  0  0  0  0
  3  6  1  0  0  0  0
  3 34  1  0  0  0  0
  4  5  1  0  0  0  0
  4 35  1  0  0  0  0
  4 36  1  0  0  0  0
  5 37  1  0  0  0  0
  5 38  1  0  0  0  0
  5 39  1  0  0  0  0
  6  7  1  0  0  0  0
  6 40  1  0  0  0  0
  6 41  1  0  0  0  0
  7  8  1  0  0  0  0
  7 12  1  0  0  0  0
  8  9  1  0  0  0  0
  8 42  1  0  0  0  0
  8 43  1  0  0  0  0
  9 10  1  0  0  0  0
  9 44  1  0  0  0  0
  9 45  1  0  0  0  0
 10 11  3  0  0  0  0
 12 17  1  0  0  0  0
 12 13  2  0  0  0  0
 13 14  1  0  0  0  0
 14 15  2  0  0  0  0
 14 46  1  0  0  0  0
 15 16  1  0  0  0  0
 16 20  1  0  0  0  0
 16 17  2  0  0  0  0
 17 18  1  0  0  0  0
 18 19  2  0  0  0  0
 19 20  1  0  0  0  0
 19 47  1  0  0  0  0
 20 21  1  0  0  0  0
 21 22  1  0  0  0  0
 21 48  1  0  0  0  0
 21 49  1  0  0  0  0
 22 23  1  0  0  0  0
 22 24  1  0  0  0  0
 22 50  1  0  0  0  0
 23 51  1  0  0  0  0
 24 28  1  0  0  0  0
 24 25  1  0  0  0  0
 24 52  1  0  0  0  0
 25 26  1  0  0  0  0
 25 53  1  0  0  0  0
 25 54  1  0  0  0  0
 26 27  1  0  0  0  0
 26 55  1  0  0  0  0
 26 56  1  0  0  0  0
 27 28  1  0  0  0  0
 27 57  1  0  0  0  0
 27 58  1  0  0  0  0
M  END
> <s_m_source_file>
AV-unprocessed.smi

> <i_m_source_file_index>
87

> <i_lp_mmshare_version>
43012

> <i_f3d_flags>
0

> <s_epik_input>
W0NIM11bQ0gyXVtDSF0oW0NIMl1bQ0gzXSlbQ0gyXU4oW0NIMl1bQ0gyXUMjTiljKG5bY0hdbjEpYyhjMTIpbltjSF1uMltDSDJdW0NASF0oW09IXSlbQ0BASF0zW0NIMl1bQ0gyXVtDSDJdTzM=

> <s_epik_cmdline>
J2VwaWtfcHl0aG9uJywgJy1waCcsICc3LjAnLCAnLXRuJywgJzgnLCAnLW1hJywgJzIwMCcsICctbWV0YWxfYmluZGluZycsICctaW1hZScsICc8aW5maWxlLm1hZT4nLCAnLW9tYWUnLCAnPG91dGZpbGUubWFlPic=

> <r_lp_tautomer_probability>
1

> <r_epik_Ionization_Penalty>
0.000348566

> <r_epik_Ionization_Penalty_Charging>
0

> <r_epik_Ionization_Penalty_Neutral>
0.000348566

> <r_epik_State_Penalty>
-0

> <r_epik_Charging_Adjusted_Penalty>
0

> <i_epik_Tot_Q>
0

> <i_epik_Tot_abs_Q>
0

> <r_epik_Metal_State_Penalty>
-0

> <b_epik_Metal_Only>
0

> <s_lp_Force_Field>
OPLS_2005

> <r_lp_Energy>
36.7846

> <b_lp_Chiralities_Consistent>
1

> <s_lp_Variant>
AV-unprocessed.smi:87-1

> <Gold.Version>
5.8.1

> <Gold.Id.Protein>
6NUR|6NUR_protein|mol2

> <Gold.PLP.Fitness>
50.6148

> <Gold.PLP.PLP>
-43.7865

> <Gold.PLP.part.hbond>
-3.3285

> <Gold.PLP.part.metal>
0.0000

> <Gold.PLP.part.buried>
-8.0682

> <Gold.PLP.part.nonpolar>
-34.1343

> <Gold.PLP.part.repulsive>
0.2198

> <Gold.PLP.ligand.clash>
0.0000

> <Gold.PLP.ligand.torsion>
1.4393

> <Gold.PLP.Chemscore.Hbond>
2.9913

> <Gold.PLP.Chemscore.CHOScore>
0.0000

> <Gold.PLP.Chemscore.Metal>
0.0000

> <Gold.Chemscore.Hbonds>
donor molecule, donor type, donor heavy atom, donor atom, acceptor molecule, acceptor atom, score
      L1  H    23    51       P1  8028  1.00
      P1  H  6896  6907       L1    13  0.99
      P1  H 10752 10765       L1    11  1.00

> <Gold.PLP.Chemscore.Internal.Correction>
0.7331

> <Gold.Rescore>
     Score         DG    S(hbond)    S(metal)    S(lipo)     H(rot)  DE(clash)    DE(int)     intcor
     16.86     -18.52       2.83        0.00     104.40       3.37       0.01       1.65       ----

> <Gold.Chemscore.Fitness>
16.8625

> <Gold.Chemscore.DG>
-18.5185

> <Gold.Chemscore.ZeroCoef>
-5.4800

> <Gold.Chemscore.Hbond>
2.8274

> <Gold.Chemscore.Metal>
0.0000

> <Gold.Chemscore.Lipo>
104.4021

> <Gold.Chemscore.Internal_Hbond>
0.0000

> <Gold.Chemscore.DEClash>
0.0106

> <Gold.Chemscore.DEInternal>
1.6454

> <Gold.Chemscore.Rot>
3.3672

> <Gold.Chemscore.Internal.Correction>
   9.000000E+99

> <Gold.Chemscore.Hbonds>
donor molecule, donor type, donor heavy atom, donor atom, acceptor molecule, acceptor atom, score
      L1  H    23    51       P1  8028  0.57
      P1  H  6896  6907       L1    13  0.72
      P1  H 10752 10765       L1    11  0.99

> <Gold.Chemscore.Hbond.Weighted>
-9.4435

> <Gold.Chemscore.Metal.Weighted>
-0.0000

> <Gold.Chemscore.Lipo.Weighted>
-12.2150

> <Gold.Chemscore.Internal_Hbond.Weighted>
0.0000

> <Gold.Chemscore.DEClash.Weighted>
0.0106

> <Gold.Chemscore.DEInternal.Weighted>
1.6454

> <Gold.Chemscore.Rot.Weighted>
8.6201

> <Gold.Chemscore.Internal.Correction.Weighted>
   9.000000E+99

> <Gold.Protein.RotatedTorsions>
[ 6907 6896 6895 6894 ] final  -34.86 input  -60.11 | X-H torsion
[ 7974 7965 7964 7962 ] final   48.73 input  175.53 | X-H torsion
[ 8008 7997 7996 7995 ] final -109.17 input   59.86 | X-H torsion
[ 10167 10162 10161 10158 ] final  147.63 input  -65.29 | X-H torsion
[ 10718 10713 10712 10709 ] final  103.11 input   66.30 | X-H torsion
[ 10763 10752 10751 10750 ] final -160.40 input  -60.55 | X-H torsion
[ 11005 11000 10999 10996 ] final  -38.75 input  -57.11 | X-H torsion

> <Gold.Protein.ActiveResidues>
 VAL166  LYS551  ARG553  GLY616  TRP617  ASP618  TYR619  PRO620  LYS621  CYS622 
 ASP623  PHE694  ASN695  SER759  ASP760  ASP761  ALA762  ILE779  LEU786  VAL792 
 PHE793  MET794  SER795  GLU796  ALA797  LYS798  CYS799  TRP800  GLU811  SER814 

> <Gold.Protein.RotatedAtoms>
  151.0472  134.9648  159.8192 H   0  0  0  0  0  0  0  0  0  0  0  0  # atno 6907 bound_to 6896
  152.5374  134.2584  159.8935 H   0  0  0  0  0  0  0  0  0  0  0  0  # atno 6908 bound_to 6896
  151.2598  133.4265  159.2649 H   0  0  0  0  0  0  0  0  0  0  0  0  # atno 6909 bound_to 6896
  146.0176  139.4614  142.9917 H   0  0  0  0  0  0  0  0  0  0  0  0  # atno 7974 bound_to 7965
  154.9553  140.0400  157.2164 H   0  0  0  0  0  0  0  0  0  0  0  0  # atno 8008 bound_to 7997
  154.7940  140.2840  155.5948 H   0  0  0  0  0  0  0  0  0  0  0  0  # atno 8009 bound_to 7997
  156.2953  140.2568  156.2794 H   0  0  0  0  0  0  0  0  0  0  0  0  # atno 8010 bound_to 7997
  139.4887  144.5741  151.7000 H   0  0  0  0  0  0  0  0  0  0  0  0  # atno 10167 bound_to 10162
  157.6782  131.0770  150.5506 H   0  0  0  0  0  0  0  0  0  0  0  0  # atno 10718 bound_to 10713
  154.7393  135.3065  154.8756 H   0  0  0  0  0  0  0  0  0  0  0  0  # atno 10763 bound_to 10752
  153.9575  135.6757  153.4749 H   0  0  0  0  0  0  0  0  0  0  0  0  # atno 10764 bound_to 10752
  153.0993  135.4920  154.8762 H   0  0  0  0  0  0  0  0  0  0  0  0  # atno 10765 bound_to 10752
  141.0051  133.6936  156.2095 H   0  0  0  0  0  0  0  0  0  0  0  0  # atno 11005 bound_to 11000
  145.7244  141.0064  143.1385 LP  0  0  0  0  0  0  0  0  0  0  0  0  # atno 17320 bound_to 7965
  144.6977  139.8909  143.7453 LP  0  0  0  0  0  0  0  0  0  0  0  0  # atno 17321 bound_to 7965
  140.5333  144.0695  150.6061 LP  0  0  0  0  0  0  0  0  0  0  0  0  # atno 17342 bound_to 10162
  140.3693  143.2864  152.0296 LP  0  0  0  0  0  0  0  0  0  0  0  0  # atno 17343 bound_to 10162
  156.5810  130.4304  149.5977 LP  0  0  0  0  0  0  0  0  0  0  0  0  # atno 17370 bound_to 10713
  156.2661  130.6990  151.1774 LP  0  0  0  0  0  0  0  0  0  0  0  0  # atno 17371 bound_to 10713
  140.6826  134.4751  157.5589 LP  0  0  0  0  0  0  0  0  0  0  0  0  # atno 17394 bound_to 11000
  139.9059  134.8451  156.1709 LP  0  0  0  0  0  0  0  0  0  0  0  0  # atno 17395 bound_to 11000

$$$$
