AV-unprocessed.smi:686|AV-procd|sdf|3349|dock1
  -GOLD-   22720 0323D 1   1.00000     0.00000
 Structure written by MMmdl.
 40 41  0  0  0  0  0  0  0  0  3 V2000
  148.7249  141.4086  155.7914 C   0  0  0  0  0  0  0  0  0  0  0  0
  149.6582  141.1316  156.9953 C   0  0  2  0  0  0  0  0  0  0  0  0
  149.6820  142.3297  157.9527 C   0  0  0  0  0  0  0  0  0  0  0  0
  150.7276  143.2395  157.4260 N   0  3  1  0  0  0  0  0  0  0  0  0
  151.3217  144.1863  158.4127 C   0  0  0  0  0  0  0  0  0  0  0  0
  152.4858  144.9919  157.8036 C   0  0  0  0  0  0  0  0  0  0  0  0
  151.8182  143.4400  159.6654 C   0  0  0  0  0  0  0  0  0  0  0  0
  151.7012  142.4072  156.6719 C   0  0  0  0  0  0  0  0  0  0  0  0
  151.1589  140.9711  156.6738 C   0  0  2  0  0  0  0  0  0  0  0  0
  151.4290  140.2785  155.4181 N   0  5  0  0  0  0  0  0  0  0  0  0
  152.2837  138.8934  155.3719 S   0  0  0  0  0  0  0  0  0  0  0  0
  153.5955  139.0255  154.7157 O   0  0  0  0  0  0  0  0  0  0  0  0
  152.2704  138.2264  156.6825 O   0  0  0  0  0  0  0  0  0  0  0  0
  151.2485  137.8273  154.2682 C   0  0  0  0  0  0  0  0  0  0  0  0
  150.7630  136.6248  155.0274 C   0  0  0  0  0  0  0  0  0  0  0  0
  149.4338  136.1335  155.1522 C   0  0  0  0  0  0  0  0  0  0  0  0
  149.5746  135.0287  155.9411 C   0  0  0  0  0  0  0  0  0  0  0  0
  150.8776  134.8428  156.2703 O   0  0  0  0  0  0  0  0  0  0  0  0
  151.6291  135.8649  155.6796 N   0  0  0  0  0  0  0  0  0  0  0  0
  149.0305  142.2831  155.2140 H   0  0  0  0  0  0  0  0  0  0  0  0
  147.7058  141.5902  156.1338 H   0  0  0  0  0  0  0  0  0  0  0  0
  148.6749  140.5582  155.1093 H   0  0  0  0  0  0  0  0  0  0  0  0
  149.2860  140.2479  157.5148 H   0  0  0  0  0  0  0  0  0  0  0  0
  148.7150  142.8305  158.0139 H   0  0  0  0  0  0  0  0  0  0  0  0
  149.9398  142.0077  158.9659 H   0  0  0  0  0  0  0  0  0  0  0  0
  150.5454  144.8907  158.7153 H   0  0  0  0  0  0  0  0  0  0  0  0
  152.9428  145.6427  158.5502 H   0  0  0  0  0  0  0  0  0  0  0  0
  152.1578  145.6351  156.9871 H   0  0  0  0  0  0  0  0  0  0  0  0
  153.2657  144.3333  157.4198 H   0  0  0  0  0  0  0  0  0  0  0  0
  152.2691  144.1317  160.3776 H   0  0  0  0  0  0  0  0  0  0  0  0
  152.5719  142.6949  159.4085 H   0  0  0  0  0  0  0  0  0  0  0  0
  151.0114  142.9285  160.1900 H   0  0  0  0  0  0  0  0  0  0  0  0
  151.7810  142.8136  155.6625 H   0  0  0  0  0  0  0  0  0  0  0  0
  152.6979  142.4256  157.1146 H   0  0  0  0  0  0  0  0  0  0  0  0
  151.6206  140.4576  157.5185 H   0  0  0  0  0  0  0  0  0  0  0  0
  150.4098  138.4219  153.9071 H   0  0  0  0  0  0  0  0  0  0  0  0
  151.8418  137.5289  153.4044 H   0  0  0  0  0  0  0  0  0  0  0  0
  148.5223  136.5346  154.7350 H   0  0  0  0  0  0  0  0  0  0  0  0
  148.8771  134.3043  156.3349 H   0  0  0  0  0  0  0  0  0  0  0  0
  150.2632  143.8023  156.7278 H   0  0  0  0  0  0  0  0  0  0  0  0
  1  2  1  0  0  0  0
  1 20  1  0  0  0  0
  1 21  1  0  0  0  0
  1 22  1  0  0  0  0
  2  9  1  0  0  0  0
  2  3  1  0  0  0  0
  2 23  1  0  0  0  0
  3  4  1  0  0  0  0
  3 24  1  0  0  0  0
  3 25  1  0  0  0  0
  4  5  1  0  0  0  0
  4  8  1  0  0  0  0
  4 40  1  0  0  0  0
  5  6  1  0  0  0  0
  5  7  1  0  0  0  0
  5 26  1  0  0  0  0
  6 27  1  0  0  0  0
  6 28  1  0  0  0  0
  6 29  1  0  0  0  0
  7 30  1  0  0  0  0
  7 31  1  0  0  0  0
  7 32  1  0  0  0  0
  8  9  1  0  0  0  0
  8 33  1  0  0  0  0
  8 34  1  0  0  0  0
  9 10  1  0  0  0  0
  9 35  1  0  0  0  0
 10 11  1  0  0  0  0
 11 12  2  0  0  0  0
 11 13  2  0  0  0  0
 11 14  1  0  0  0  0
 14 15  1  0  0  0  0
 14 36  1  0  0  0  0
 14 37  1  0  0  0  0
 15 19  2  0  0  0  0
 15 16  1  0  0  0  0
 16 17  2  0  0  0  0
 16 38  1  0  0  0  0
 17 18  1  0  0  0  0
 17 39  1  0  0  0  0
 18 19  1  0  0  0  0
M  CHG  1   4   1
M  CHG  1  10  -1
M  END
> <s_m_source_file>
AV-unprocessed.smi

> <i_m_source_file_index>
686

> <i_lp_mmshare_version>
43012

> <i_f3d_flags>
0

> <s_epik_input>
W0NIM11bQ0BASF0xW0NIMl1OKFtDSF0oW0NIM10pW0NIM10pW0NIMl1bQ0BIXTFbTkhdUyg9TykoPU8pW0NIMl1jMltjSF1bY0hdb24y

> <s_epik_cmdline>
J2VwaWtfcHl0aG9uJywgJy1waCcsICc3LjAnLCAnLXRuJywgJzgnLCAnLW1hJywgJzIwMCcsICctbWV0YWxfYmluZGluZycsICctaW1hZScsICc8aW5maWxlLm1hZT4nLCAnLW9tYWUnLCAnPG91dGZpbGUubWFlPic=

> <r_epik_Ionization_Penalty>
3.62478

> <r_epik_Ionization_Penalty_Charging>
3.62478

> <r_epik_Ionization_Penalty_Neutral>
2.03645e-10

> <r_epik_State_Penalty>
3.6247

> <r_epik_Charging_Adjusted_Penalty>
7.24949

> <i_epik_Tot_Q>
0

> <i_epik_Tot_abs_Q>
2

> <r_epik_Metal_State_Penalty>
0.530836

> <b_epik_Metal_Only>
1

> <s_lp_Force_Field>
OPLS_2005

> <r_lp_Energy>
21.5589

> <b_lp_Chiralities_Consistent>
1

> <s_lp_Variant>
AV-unprocessed.smi:686-13

> <Gold.Version>
5.8.1

> <Gold.Id.Protein>
6NUR|6NUR_protein|mol2

> <Gold.PLP.Fitness>
45.9599

> <Gold.PLP.PLP>
-31.5502

> <Gold.PLP.part.hbond>
-4.0000

> <Gold.PLP.part.metal>
0.0000

> <Gold.PLP.part.buried>
-7.3894

> <Gold.PLP.part.nonpolar>
-21.7894

> <Gold.PLP.part.repulsive>
0.0842

> <Gold.PLP.ligand.clash>
0.0000

> <Gold.PLP.ligand.torsion>
0.7547

> <Gold.PLP.Chemscore.Hbond>
4.9600

> <Gold.PLP.Chemscore.CHOScore>
0.0000

> <Gold.PLP.Chemscore.Metal>
0.0000

> <Gold.Chemscore.Hbonds>
donor molecule, donor type, donor heavy atom, donor atom, acceptor molecule, acceptor atom, score
      L1  H     4    40       P1  8028  2.00
      P1  H  7989  7998       L1    10  0.94
      P1  H  7997  8009       L1    12  1.00
      P1  H 10752 10765       L1    19  1.00

> <Gold.PLP.Chemscore.Internal.Correction>
1.0390

> <Gold.Rescore>
     Score         DG    S(hbond)    S(metal)    S(lipo)     H(rot)  DE(clash)    DE(int)     intcor
     17.12     -20.79       2.86        0.00      84.57       1.61       1.27       2.40       ----

> <Gold.Chemscore.Fitness>
17.1238

> <Gold.Chemscore.DG>
-20.7945

> <Gold.Chemscore.ZeroCoef>
-5.4800

> <Gold.Chemscore.Hbond>
2.8605

> <Gold.Chemscore.Metal>
0.0000

> <Gold.Chemscore.Lipo>
84.5678

> <Gold.Chemscore.Internal_Hbond>
0.0000

> <Gold.Chemscore.DEClash>
1.2722

> <Gold.Chemscore.DEInternal>
2.3984

> <Gold.Chemscore.Rot>
1.6149

> <Gold.Chemscore.Internal.Correction>
   9.000000E+99

> <Gold.Chemscore.Hbonds>
donor molecule, donor type, donor heavy atom, donor atom, acceptor molecule, acceptor atom, score
      L1  H     4    40       P1  8028  0.98
      P1  H  7989  7998       L1    10  0.22
      P1  H  7997  8009       L1    12  0.69
      P1  H 10752 10765       L1    19  0.64

> <Gold.Chemscore.Hbond.Weighted>
-9.5541

> <Gold.Chemscore.Metal.Weighted>
-0.0000

> <Gold.Chemscore.Lipo.Weighted>
-9.8944

> <Gold.Chemscore.Internal_Hbond.Weighted>
0.0000

> <Gold.Chemscore.DEClash.Weighted>
1.2722

> <Gold.Chemscore.DEInternal.Weighted>
2.3984

> <Gold.Chemscore.Rot.Weighted>
4.1341

> <Gold.Chemscore.Internal.Correction.Weighted>
   9.000000E+99

> <Gold.Protein.RotatedTorsions>
[ 6907 6896 6895 6894 ] final   46.32 input  -60.11 | X-H torsion
[ 7974 7965 7964 7962 ] final   21.06 input  175.53 | X-H torsion
[ 8008 7997 7996 7995 ] final -119.57 input   59.86 | X-H torsion
[ 10167 10162 10161 10158 ] final  154.00 input  -65.29 | X-H torsion
[ 10718 10713 10712 10709 ] final  -69.00 input   66.30 | X-H torsion
[ 10763 10752 10751 10750 ] final -178.80 input  -60.55 | X-H torsion
[ 11005 11000 10999 10996 ] final   -9.96 input  -57.11 | X-H torsion

> <Gold.Protein.ActiveResidues>
 VAL166  LYS551  ARG553  GLY616  TRP617  ASP618  TYR619  PRO620  LYS621  CYS622 
 ASP623  PHE694  ASN695  SER759  ASP760  ASP761  ALA762  ILE779  LEU786  VAL792 
 PHE793  MET794  SER795  GLU796  ALA797  LYS798  CYS799  TRP800  GLU811  SER814 

> <Gold.Protein.RotatedAtoms>
  152.2550  134.8093  160.0439 H   0  0  0  0  0  0  0  0  0  0  0  0  # atno 6907 bound_to 6896
  151.8760  133.3480  159.3758 H   0  0  0  0  0  0  0  0  0  0  0  0  # atno 6908 bound_to 6896
  150.7097  134.4993  159.5597 H   0  0  0  0  0  0  0  0  0  0  0  0  # atno 6909 bound_to 6896
  146.2086  139.8081  142.8706 H   0  0  0  0  0  0  0  0  0  0  0  0  # atno 7974 bound_to 7965
  155.1178  140.0398  157.2742 H   0  0  0  0  0  0  0  0  0  0  0  0  # atno 8008 bound_to 7997
  154.6636  140.2596  155.7056 H   0  0  0  0  0  0  0  0  0  0  0  0  # atno 8009 bound_to 7997
  156.2629  140.2812  156.1118 H   0  0  0  0  0  0  0  0  0  0  0  0  # atno 8010 bound_to 7997
  139.4825  144.5225  151.7854 H   0  0  0  0  0  0  0  0  0  0  0  0  # atno 10167 bound_to 10162
  156.0477  130.4304  150.2083 H   0  0  0  0  0  0  0  0  0  0  0  0  # atno 10718 bound_to 10713
  154.5431  135.2807  155.1077 H   0  0  0  0  0  0  0  0  0  0  0  0  # atno 10763 bound_to 10752
  154.2552  135.6332  153.5258 H   0  0  0  0  0  0  0  0  0  0  0  0  # atno 10764 bound_to 10752
  152.9984  135.5592  154.5976 H   0  0  0  0  0  0  0  0  0  0  0  0  # atno 10765 bound_to 10752
  140.7397  133.8680  155.8958 H   0  0  0  0  0  0  0  0  0  0  0  0  # atno 11005 bound_to 11000
  145.3225  141.0247  143.3492 LP  0  0  0  0  0  0  0  0  0  0  0  0  # atno 17320 bound_to 7965
  144.8856  139.4844  143.6702 LP  0  0  0  0  0  0  0  0  0  0  0  0  # atno 17321 bound_to 7965
  140.4740  144.1545  150.5922 LP  0  0  0  0  0  0  0  0  0  0  0  0  # atno 17342 bound_to 10162
  140.4350  143.2551  151.9546 LP  0  0  0  0  0  0  0  0  0  0  0  0  # atno 17343 bound_to 10162
  157.0170  130.9968  151.3350 LP  0  0  0  0  0  0  0  0  0  0  0  0  # atno 17370 bound_to 10713
  157.5370  130.8095  149.7984 LP  0  0  0  0  0  0  0  0  0  0  0  0  # atno 17371 bound_to 10713
  140.9848  134.1358  157.4462 LP  0  0  0  0  0  0  0  0  0  0  0  0  # atno 17394 bound_to 11000
  139.8808  135.0022  156.6111 LP  0  0  0  0  0  0  0  0  0  0  0  0  # atno 17395 bound_to 11000

$$$$
