#       Name:                AV-unprocessed.smi:1645
#       Creating user name   scv26
#       Creation time:       Fri Mar 27 07:32:12 2020


#       File generated by GOLD software.
#

@<TRIPOS>MOLECULE
AV-unprocessed.smi:1645
    59    62     1
SMALL
NO_CHARGES


@<TRIPOS>ATOM
      1 ****        -0.9721   1.8831   0.8981 O.2            1 S1                 0.0000
      2 ****        -1.4834   0.7594   0.8436 C.2            1 S1                 0.0000
      3 ****        -0.7133  -0.3426   0.8742 N.am           1 S1                 0.0000
      4 ****         0.7037  -0.4496   0.8866 C.ar           1 S1                 0.0000
      5 ****         1.2663  -1.6448   1.3829 C.ar           1 S1                 0.0000
      6 ****         2.6664  -1.8090   1.3905 C.ar           1 S1                 0.0000
      7 ****         3.4867  -0.7735   0.8873 C.ar           1 S1                 0.0000
      8 ****         4.8850  -0.8485   0.8468 N.3            1 S1                 0.0000
      9 ****         5.4909  -0.9030   2.1747 C.3            1 S1                 0.0000
     10 ****         7.0230  -0.7964   2.0821 C.3            1 S1                 0.0000
     11 ****         7.5911  -1.8654   1.1346 C.3            1 S1                 0.0000
     12 ****         6.8993  -1.7833  -0.2358 C.3            1 S1                 0.0000
     13 ****         5.3701  -1.8629  -0.0855 C.3            1 S1                 0.0000
     14 ****         2.9111   0.3502   0.4075 N.pl3          1 S1                 1.0000
     15 ****         1.5751   0.5477   0.3846 C.ar           1 S1                 0.0000
     16 ****        -2.8070   0.4550   0.7642 N.pl3          1 S1                -1.0000
     17 ****        -3.8959   1.4422   0.7308 C.3            1 S1                 0.0000
     18 ****        -5.1564   0.8262   1.3675 C.3            1 S1                 0.0000
     19 ****        -5.9502   0.1834   0.2105 C.3            1 S1                 0.0000
     20 ****        -5.2006   0.5095  -1.0193 N.4            1 S1                 1.0000
     21 ****        -5.9831   0.6548  -2.2672 C.3            1 S1                 0.0000
     22 ****        -5.0289   0.9306  -3.4470 C.3            1 S1                 0.0000
     23 ****        -4.1083   2.1365  -3.1700 C.3            1 S1                 0.0000
     24 ****        -3.3601   1.9643  -1.8346 C.3            1 S1                 0.0000
     25 ****        -4.3828   1.6936  -0.7083 C.3            1 S1                 0.0000
     26 ****        -1.2155  -1.2163   0.9328 H              1 S1                 0.0000
     27 ****         0.6299  -2.4323   1.7596 H              1 S1                 0.0000
     28 ****         3.0990  -2.7209   1.7748 H              1 S1                 0.0000
     29 ****         5.0995  -0.0920   2.7906 H              1 S1                 0.0000
     30 ****         5.2158  -1.8384   2.6641 H              1 S1                 0.0000
     31 ****         7.2995   0.1954   1.7217 H              1 S1                 0.0000
     32 ****         7.4654  -0.9000   3.0732 H              1 S1                 0.0000
     33 ****         8.6681  -1.7367   1.0222 H              1 S1                 0.0000
     34 ****         7.4377  -2.8559   1.5647 H              1 S1                 0.0000
     35 ****         7.1700  -0.8472  -0.7262 H              1 S1                 0.0000
     36 ****         7.2537  -2.5858  -0.8833 H              1 S1                 0.0000
     37 ****         5.0853  -2.8534   0.2722 H              1 S1                 0.0000
     38 ****         4.8953  -1.7255  -1.0579 H              1 S1                 0.0000
     39 ****         1.2620   1.4861  -0.0478 H              1 S1                 0.0000
     40 ****        -3.6338   2.3789   1.2246 H              1 S1                 0.0000
     41 ****        -4.9287   0.1127   2.1610 H              1 S1                 0.0000
     42 ****        -5.7575   1.6172   1.8176 H              1 S1                 0.0000
     43 ****        -6.0311  -0.8989   0.3188 H              1 S1                 0.0000
     44 ****        -6.9607   0.5941   0.1709 H              1 S1                 0.0000
     45 ****        -6.5533  -0.2568  -2.4489 H              1 S1                 0.0000
     46 ****        -6.7008   1.4697  -2.1604 H              1 S1                 0.0000
     47 ****        -4.4163   0.0467  -3.6299 H              1 S1                 0.0000
     48 ****        -5.6027   1.1012  -4.3582 H              1 S1                 0.0000
     49 ****        -3.3954   2.2601  -3.9856 H              1 S1                 0.0000
     50 ****        -4.7044   3.0494  -3.1381 H              1 S1                 0.0000
     51 ****        -2.6520   1.1393  -1.9322 H              1 S1                 0.0000
     52 ****        -2.7730   2.8587  -1.6199 H              1 S1                 0.0000
     53 ****        -5.0561   2.5527  -0.6660 H              1 S1                 0.0000
     54 ****        -4.5412  -0.2440  -1.1542 H              1 S1                 0.0000
     55 ****         3.5145   1.0862   0.0400 H              1 S1                 0.0000
     56 ****         0.0211   1.9777   0.9655 LP             1 S1                 0.0000
     57 ****        -1.5516   2.6977   0.8748 LP             1 S1                 0.0000
     58 ****         5.2059   0.0178   0.4639 LP             1 S1                 0.0000
     59 ****        -3.0579  -0.5123   0.7257 LP             1 S1                 0.0000
@<TRIPOS>BOND
    1    1    2 2     
    2    2    3 am    
    3    2   16 1     
    4    3    4 1     
    5    3   26 1     
    6    4   15 ar    
    7    4    5 ar    
    8    5    6 ar    
    9    5   27 1     
   10    6    7 ar    
   11    6   28 1     
   12    7    8 1     
   13    7   14 ar    
   14    8   13 1     
   15    8    9 1     
   16    9   10 1     
   17    9   29 1     
   18    9   30 1     
   19   10   11 1     
   20   10   31 1     
   21   10   32 1     
   22   11   12 1     
   23   11   33 1     
   24   11   34 1     
   25   12   13 1     
   26   12   35 1     
   27   12   36 1     
   28   13   37 1     
   29   13   38 1     
   30   14   15 ar    
   31   14   55 1     
   32   15   39 1     
   33   16   17 1     
   34   17   25 1     
   35   17   18 1     
   36   17   40 1     
   37   18   19 1     
   38   18   41 1     
   39   18   42 1     
   40   19   20 1     
   41   19   43 1     
   42   19   44 1     
   43   20   25 1     
   44   20   21 1     
   45   20   54 1     
   46   21   22 1     
   47   21   45 1     
   48   21   46 1     
   49   22   23 1     
   50   22   47 1     
   51   22   48 1     
   52   23   24 1     
   53   23   49 1     
   54   23   50 1     
   55   24   25 1     
   56   24   51 1     
   57   24   52 1     
   58   25   53 1     
   59    1   56 1     
   60    1   57 1     
   61    8   58 1     
   62   16   59 1     
@<TRIPOS>SUBSTRUCTURE
      1 S1             1
@<TRIPOS>SET
LONE_PAIRS      STATIC     ATOMS    <user>   **** ""
4 56 57 58 59
DONOR_HYDROGENS      STATIC     ATOMS    <user>   **** ""
3 26 55 54
ATOM$BLUE        STATIC     ATOMS    COLORGROUP SYSTEM
4 56 57 58 59
ATOM$RED        STATIC     ATOMS    COLORGROUP SYSTEM
3 26 55 54
