AV-unprocessed.smi:3321|AV-procd|sdf|12771|dock3
  -GOLD-   2272019113D 1   1.00000     0.00000
 Structure written by MMmdl.
 40 41  0  0  0  0  0  0  0  0  1 V2000
  150.5855  138.8904  158.0205 C   0  0  0  0  0  0  0  0  0  0  0  0
  151.1776  140.3060  158.1035 C   0  0  2  0  0  0  0  0  0  0  0  0
  151.6728  140.7107  156.7741 N   0  0  0  0  0  0  0  0  0  0  0  0
  150.6372  141.2645  155.9080 C   0  0  0  0  0  0  0  0  0  0  0  0
  149.9930  140.1329  155.0957 C   0  0  0  0  0  0  0  0  0  0  0  0
  148.7094  140.5338  154.5535 N   0  0  0  0  0  0  0  0  0  0  0  0
  148.1242  141.7823  154.5706 C   0  0  0  0  0  0  0  0  0  0  0  0
  146.9133  141.6714  153.9491 C   0  0  0  0  0  0  0  0  0  0  0  0
  146.8460  140.2978  153.5828 C   0  0  0  0  0  0  0  0  0  0  0  0
  147.9223  139.6192  153.9467 N   0  0  0  0  0  0  0  0  0  0  0  0
  152.2605  140.3614  159.2074 C   0  0  0  0  0  0  0  0  0  0  0  0
  152.6111  139.2995  159.7266 O   0  0  0  0  0  0  0  0  0  0  0  0
  152.8015  141.5502  159.5760 N   0  0  0  0  0  0  0  0  0  0  0  0
  152.2725  142.8356  159.1005 C   0  0  0  0  0  0  0  0  0  0  0  0
  151.5470  143.5247  160.2723 C   0  0  0  0  0  0  0  0  0  0  0  0
  152.4812  143.6844  161.4890 C   0  0  0  0  0  0  0  0  0  0  0  0
  153.2019  142.3670  161.8391 C   0  0  0  0  0  0  0  0  0  0  0  0
  153.8500  141.7562  160.5841 C   0  0  0  0  0  0  0  0  0  0  0  0
  150.1716  138.5726  158.9782 H   0  0  0  0  0  0  0  0  0  0  0  0
  151.3392  138.1585  157.7262 H   0  0  0  0  0  0  0  0  0  0  0  0
  149.7789  138.8467  157.2880 H   0  0  0  0  0  0  0  0  0  0  0  0
  150.3725  140.9988  158.3425 H   0  0  0  0  0  0  0  0  0  0  0  0
  152.4462  141.3564  156.8470 H   0  0  0  0  0  0  0  0  0  0  0  0
  149.8812  141.7669  156.5135 H   0  0  0  0  0  0  0  0  0  0  0  0
  151.0546  142.0061  155.2267 H   0  0  0  0  0  0  0  0  0  0  0  0
  150.6407  139.8408  154.2677 H   0  0  0  0  0  0  0  0  0  0  0  0
  149.8499  139.2457  155.7150 H   0  0  0  0  0  0  0  0  0  0  0  0
  148.6119  142.6352  155.0196 H   0  0  0  0  0  0  0  0  0  0  0  0
  146.1858  142.4519  153.7827 H   0  0  0  0  0  0  0  0  0  0  0  0
  146.0522  139.7770  153.0676 H   0  0  0  0  0  0  0  0  0  0  0  0
  153.0926  143.4606  158.7442 H   0  0  0  0  0  0  0  0  0  0  0  0
  151.5928  142.7317  158.2540 H   0  0  0  0  0  0  0  0  0  0  0  0
  151.1692  144.4988  159.9606 H   0  0  0  0  0  0  0  0  0  0  0  0
  150.6765  142.9319  160.5571 H   0  0  0  0  0  0  0  0  0  0  0  0
  153.2279  144.4468  161.2632 H   0  0  0  0  0  0  0  0  0  0  0  0
  151.9209  144.0488  162.3503 H   0  0  0  0  0  0  0  0  0  0  0  0
  153.9573  142.5468  162.6046 H   0  0  0  0  0  0  0  0  0  0  0  0
  152.4897  141.6585  162.2647 H   0  0  0  0  0  0  0  0  0  0  0  0
  154.4107  140.8574  160.8323 H   0  0  0  0  0  0  0  0  0  0  0  0
  154.5975  142.4441  160.1864 H   0  0  0  0  0  0  0  0  0  0  0  0
  1  2  1  0  0  0  0
  1 19  1  0  0  0  0
  1 20  1  0  0  0  0
  1 21  1  0  0  0  0
  2  3  1  0  0  0  0
  2 11  1  0  0  0  0
  2 22  1  0  0  0  0
  3  4  1  0  0  0  0
  3 23  1  0  0  0  0
  4  5  1  0  0  0  0
  4 24  1  0  0  0  0
  4 25  1  0  0  0  0
  5  6  1  0  0  0  0
  5 26  1  0  0  0  0
  5 27  1  0  0  0  0
  6 10  1  0  0  0  0
  6  7  1  0  0  0  0
  7  8  2  0  0  0  0
  7 28  1  0  0  0  0
  8  9  1  0  0  0  0
  8 29  1  0  0  0  0
  9 10  2  0  0  0  0
  9 30  1  0  0  0  0
 11 12  2  0  0  0  0
 11 13  1  0  0  0  0
 13 18  1  0  0  0  0
 13 14  1  0  0  0  0
 14 15  1  0  0  0  0
 14 31  1  0  0  0  0
 14 32  1  0  0  0  0
 15 16  1  0  0  0  0
 15 33  1  0  0  0  0
 15 34  1  0  0  0  0
 16 17  1  0  0  0  0
 16 35  1  0  0  0  0
 16 36  1  0  0  0  0
 17 18  1  0  0  0  0
 17 37  1  0  0  0  0
 17 38  1  0  0  0  0
 18 39  1  0  0  0  0
 18 40  1  0  0  0  0
M  END
> <s_m_source_file>
AV-unprocessed.smi

> <i_m_source_file_index>
3321

> <i_lp_mmshare_version>
43012

> <i_f3d_flags>
0

> <s_epik_input>
W0NIMl0xW0NIMl1bQ0gyXVtDSDJdW0NIMl1OMUMoPU8pW0NASF0oW0NIM10pW05IXVtDSDJdW0NIMl1uMltjSF1bY0hdW2NIXW4y

> <s_epik_cmdline>
J2VwaWtfcHl0aG9uJywgJy1waCcsICc3LjAnLCAnLXRuJywgJzgnLCAnLW1hJywgJzIwMCcsICctbWV0YWxfYmluZGluZycsICctaW1hZScsICc8aW5maWxlLm1hZT4nLCAnLW9tYWUnLCAnPG91dGZpbGUubWFlPic=

> <r_lp_tautomer_probability>
1

> <r_epik_Ionization_Penalty>
0.736446

> <r_epik_Ionization_Penalty_Charging>
0

> <r_epik_Ionization_Penalty_Neutral>
0.736446

> <r_epik_State_Penalty>
0.761204

> <r_epik_Charging_Adjusted_Penalty>
0.761204

> <i_epik_Tot_Q>
0

> <i_epik_Tot_abs_Q>
0

> <r_epik_Metal_State_Penalty>
0.760551

> <b_epik_Metal_Only>
0

> <s_lp_Force_Field>
OPLS_2005

> <r_lp_Energy>
27.234

> <b_lp_Chiralities_Consistent>
1

> <s_lp_Variant>
AV-unprocessed.smi:3321-3

> <Gold.Version>
5.8.1

> <Gold.Id.Protein>
6NUR|6NUR_protein|mol2

> <Gold.PLP.Fitness>
45.4076

> <Gold.PLP.PLP>
-40.8014

> <Gold.PLP.part.hbond>
0.0000

> <Gold.PLP.part.metal>
0.0000

> <Gold.PLP.part.buried>
-3.0309

> <Gold.PLP.part.nonpolar>
-37.6138

> <Gold.PLP.part.repulsive>
0.3037

> <Gold.PLP.ligand.clash>
0.0000

> <Gold.PLP.ligand.torsion>
0.7296

> <Gold.PLP.Chemscore.Hbond>
0.0000

> <Gold.PLP.Chemscore.CHOScore>
1.9844

> <Gold.PLP.Chemscore.Metal>
0.0000

> <Gold.Chemscore.Hbonds>
donor molecule, donor type, donor heavy atom, donor atom, acceptor molecule, acceptor atom, score
      L1  C     7    28       P1  8028  1.00
      L1  C     9    30       P1 10175  0.98

> <Gold.PLP.Chemscore.Internal.Correction>
0.1124

> <Gold.Rescore>
     Score         DG    S(hbond)    S(metal)    S(lipo)     H(rot)  DE(clash)    DE(int)     intcor
     12.34     -13.00       0.00        0.00     102.10       1.73       0.05       0.61       ----

> <Gold.Chemscore.Fitness>
12.3426

> <Gold.Chemscore.DG>
-13.0026

> <Gold.Chemscore.ZeroCoef>
-5.4800

> <Gold.Chemscore.Hbond>
0.0000

> <Gold.Chemscore.Metal>
0.0000

> <Gold.Chemscore.Lipo>
102.0974

> <Gold.Chemscore.Internal_Hbond>
0.0000

> <Gold.Chemscore.DEClash>
0.0507

> <Gold.Chemscore.DEInternal>
0.6094

> <Gold.Chemscore.Rot>
1.7277

> <Gold.Chemscore.Internal.Correction>
   9.000000E+99

> <Gold.Chemscore.Hbond.Weighted>
-0.0000

> <Gold.Chemscore.Metal.Weighted>
-0.0000

> <Gold.Chemscore.Lipo.Weighted>
-11.9454

> <Gold.Chemscore.Internal_Hbond.Weighted>
0.0000

> <Gold.Chemscore.DEClash.Weighted>
0.0507

> <Gold.Chemscore.DEInternal.Weighted>
0.6094

> <Gold.Chemscore.Rot.Weighted>
4.4228

> <Gold.Chemscore.Internal.Correction.Weighted>
   9.000000E+99

> <Gold.Protein.RotatedTorsions>
[ 6907 6896 6895 6894 ] final  -72.49 input  -60.11 | X-H torsion
[ 7974 7965 7964 7962 ] final -147.13 input  175.53 | X-H torsion
[ 8008 7997 7996 7995 ] final   67.64 input   59.86 | X-H torsion
[ 10167 10162 10161 10158 ] final  -38.07 input  -65.29 | X-H torsion
[ 10718 10713 10712 10709 ] final -137.56 input   66.30 | X-H torsion
[ 10763 10752 10751 10750 ] final  172.63 input  -60.55 | X-H torsion
[ 11005 11000 10999 10996 ] final  115.45 input  -57.11 | X-H torsion

> <Gold.Protein.ActiveResidues>
 VAL166  LYS551  ARG553  GLY616  TRP617  ASP618  TYR619  PRO620  LYS621  CYS622 
 ASP623  PHE694  ASN695  SER759  ASP760  ASP761  ALA762  ILE779  LEU786  VAL792 
 PHE793  MET794  SER795  GLU796  ALA797  LYS798  CYS799  TRP800  GLU811  SER814 

> <Gold.Protein.RotatedAtoms>
  150.7168  134.5156  159.5628 H   0  0  0  0  0  0  0  0  0  0  0  0  # atno 6907 bound_to 6896
  152.2722  134.7917  160.0421 H   0  0  0  0  0  0  0  0  0  0  0  0  # atno 6908 bound_to 6896
  151.8593  133.3419  159.3735 H   0  0  0  0  0  0  0  0  0  0  0  0  # atno 6909 bound_to 6896
  144.8113  140.5367  143.5640 H   0  0  0  0  0  0  0  0  0  0  0  0  # atno 7974 bound_to 7965
  155.6960  140.3495  155.4913 H   0  0  0  0  0  0  0  0  0  0  0  0  # atno 8008 bound_to 7997
  155.9482  140.1114  157.1021 H   0  0  0  0  0  0  0  0  0  0  0  0  # atno 8009 bound_to 7997
  154.4116  140.1199  156.5004 H   0  0  0  0  0  0  0  0  0  0  0  0  # atno 8010 bound_to 7997
  140.7102  143.3301  151.2589 H   0  0  0  0  0  0  0  0  0  0  0  0  # atno 10167 bound_to 10162
  156.2895  130.7367  151.1388 H   0  0  0  0  0  0  0  0  0  0  0  0  # atno 10718 bound_to 10713
  154.4288  135.2759  155.1926 H   0  0  0  0  0  0  0  0  0  0  0  0  # atno 10763 bound_to 10752
  154.3841  135.6081  153.5810 H   0  0  0  0  0  0  0  0  0  0  0  0  # atno 10764 bound_to 10752
  152.9835  135.5887  154.4596 H   0  0  0  0  0  0  0  0  0  0  0  0  # atno 10765 bound_to 10752
  139.9010  134.9584  156.7047 H   0  0  0  0  0  0  0  0  0  0  0  0  # atno 11005 bound_to 11000
  145.5316  139.1475  143.3496 LP  0  0  0  0  0  0  0  0  0  0  0  0  # atno 17320 bound_to 7965
  146.2412  140.5457  142.8933 LP  0  0  0  0  0  0  0  0  0  0  0  0  # atno 17321 bound_to 7965
  139.6780  143.9904  152.2792 LP  0  0  0  0  0  0  0  0  0  0  0  0  # atno 17342 bound_to 10162
  139.9524  144.6611  150.8159 LP  0  0  0  0  0  0  0  0  0  0  0  0  # atno 17343 bound_to 10162
  157.7338  131.0587  150.5557 LP  0  0  0  0  0  0  0  0  0  0  0  0  # atno 17370 bound_to 10713
  156.5671  130.4270  149.6036 LP  0  0  0  0  0  0  0  0  0  0  0  0  # atno 17371 bound_to 10713
  140.7122  133.9213  155.8092 LP  0  0  0  0  0  0  0  0  0  0  0  0  # atno 17394 bound_to 11000
  141.0291  134.0781  157.4034 LP  0  0  0  0  0  0  0  0  0  0  0  0  # atno 17395 bound_to 11000

$$$$
