AV-unprocessed.smi:3149|AV-procd|sdf|12004|dock5
  -GOLD-   2272017413D 1   1.00000     0.00000
 Structure written by MMmdl.
 37 38  0  0  0  0  0  0  0  0  1 V2000
  152.2065  139.6596  156.1005 C   0  0  0  0  0  0  0  0  0  0  0  0
  151.0125  140.0409  157.0030 C   0  0  1  0  0  0  0  0  0  0  0  0
  151.5158  140.5236  158.2865 N   0  0  0  0  0  0  0  0  0  0  0  0
  152.1798  141.8298  158.1957 C   0  0  0  0  0  0  0  0  0  0  0  0
  152.5268  142.3724  159.5843 C   0  0  0  0  0  0  0  0  0  0  0  0
  152.8525  141.5995  160.4854 O   0  0  0  0  0  0  0  0  0  0  0  0
  152.5494  143.7590  159.7576 N   0  0  0  0  0  0  0  0  0  0  0  0
  151.7430  144.6343  158.9208 C   0  0  0  0  0  0  0  0  0  0  0  0
  151.7152  145.5792  160.1268 C   0  0  0  0  0  0  0  0  0  0  0  0
  152.1174  144.3849  160.9985 C   0  0  0  0  0  0  0  0  0  0  0  0
  150.1119  141.1487  156.3900 C   0  0  2  0  0  0  0  0  0  0  0  0
  149.1255  141.7441  157.4145 C   0  0  0  0  0  0  0  0  0  0  0  0
  149.3870  140.6818  155.2140 N   0  0  0  0  0  0  0  0  0  0  0  0
  148.5179  141.3917  154.4111 C   0  0  0  0  0  0  0  0  0  0  0  0
  148.0849  140.5468  153.4296 C   0  0  0  0  0  0  0  0  0  0  0  0
  148.7512  139.3235  153.7184 C   0  0  0  0  0  0  0  0  0  0  0  0
  149.5284  139.4062  154.7857 N   0  0  0  0  0  0  0  0  0  0  0  0
  151.8743  139.2547  155.1446 H   0  0  0  0  0  0  0  0  0  0  0  0
  152.8349  138.8938  156.5537 H   0  0  0  0  0  0  0  0  0  0  0  0
  152.8361  140.5250  155.8911 H   0  0  0  0  0  0  0  0  0  0  0  0
  150.3958  139.1546  157.1622 H   0  0  0  0  0  0  0  0  0  0  0  0
  150.7696  140.5282  158.9673 H   0  0  0  0  0  0  0  0  0  0  0  0
  153.0847  141.7542  157.5911 H   0  0  0  0  0  0  0  0  0  0  0  0
  151.5280  142.5498  157.7019 H   0  0  0  0  0  0  0  0  0  0  0  0
  152.2695  145.0227  158.0486 H   0  0  0  0  0  0  0  0  0  0  0  0
  150.7620  144.2225  158.6746 H   0  0  0  0  0  0  0  0  0  0  0  0
  152.4775  146.3591  160.0830 H   0  0  0  0  0  0  0  0  0  0  0  0
  150.7299  145.9876  160.3535 H   0  0  0  0  0  0  0  0  0  0  0  0
  151.2636  143.8907  161.4656 H   0  0  0  0  0  0  0  0  0  0  0  0
  152.9259  144.5865  161.7016 H   0  0  0  0  0  0  0  0  0  0  0  0
  150.7582  141.9595  156.0488 H   0  0  0  0  0  0  0  0  0  0  0  0
  149.6488  142.2322  158.2366 H   0  0  0  0  0  0  0  0  0  0  0  0
  148.4811  140.9761  157.8436 H   0  0  0  0  0  0  0  0  0  0  0  0
  148.4847  142.4943  156.9499 H   0  0  0  0  0  0  0  0  0  0  0  0
  148.2833  142.4285  154.6019 H   0  0  0  0  0  0  0  0  0  0  0  0
  147.3970  140.7689  152.6274 H   0  0  0  0  0  0  0  0  0  0  0  0
  148.6937  138.3844  153.1878 H   0  0  0  0  0  0  0  0  0  0  0  0
  1  2  1  0  0  0  0
  1 18  1  0  0  0  0
  1 19  1  0  0  0  0
  1 20  1  0  0  0  0
  2  3  1  0  0  0  0
  2 11  1  0  0  0  0
  2 21  1  0  0  0  0
  3  4  1  0  0  0  0
  3 22  1  0  0  0  0
  4  5  1  0  0  0  0
  4 23  1  0  0  0  0
  4 24  1  0  0  0  0
  5  6  2  0  0  0  0
  5  7  1  0  0  0  0
  7 10  1  0  0  0  0
  7  8  1  0  0  0  0
  8  9  1  0  0  0  0
  8 25  1  0  0  0  0
  8 26  1  0  0  0  0
  9 10  1  0  0  0  0
  9 27  1  0  0  0  0
  9 28  1  0  0  0  0
 10 29  1  0  0  0  0
 10 30  1  0  0  0  0
 11 12  1  0  0  0  0
 11 13  1  0  0  0  0
 11 31  1  0  0  0  0
 12 32  1  0  0  0  0
 12 33  1  0  0  0  0
 12 34  1  0  0  0  0
 13 17  1  0  0  0  0
 13 14  1  0  0  0  0
 14 15  2  0  0  0  0
 14 35  1  0  0  0  0
 15 16  1  0  0  0  0
 15 36  1  0  0  0  0
 16 17  2  0  0  0  0
 16 37  1  0  0  0  0
M  END
> <s_m_source_file>
AV-unprocessed.smi

> <i_m_source_file_index>
3149

> <i_lp_mmshare_version>
43012

> <i_f3d_flags>
0

> <s_epik_input>
bjFbY0hdW2NIXVtjSF1uMVtDQEBIXShbQ0gzXSlbQ0BIXShbQ0gzXSlbTkhdW0NIMl1DKD1PKU4yW0NIMl1bQ0gyXVtDSDJdMg==

> <s_epik_cmdline>
J2VwaWtfcHl0aG9uJywgJy1waCcsICc3LjAnLCAnLXRuJywgJzgnLCAnLW1hJywgJzIwMCcsICctbWV0YWxfYmluZGluZycsICctaW1hZScsICc8aW5maWxlLm1hZT4nLCAnLW9tYWUnLCAnPG91dGZpbGUubWFlPic=

> <r_lp_tautomer_probability>
1

> <r_epik_Ionization_Penalty>
0.918674

> <r_epik_Ionization_Penalty_Charging>
0

> <r_epik_Ionization_Penalty_Neutral>
0.918674

> <r_epik_State_Penalty>
0.958258

> <r_epik_Charging_Adjusted_Penalty>
0.958258

> <i_epik_Tot_Q>
0

> <i_epik_Tot_abs_Q>
0

> <r_epik_Metal_State_Penalty>
0.956881

> <b_epik_Metal_Only>
0

> <s_lp_Force_Field>
OPLS_2005

> <r_lp_Energy>
23.4298

> <b_lp_Chiralities_Consistent>
1

> <s_lp_Variant>
AV-unprocessed.smi:3149-6

> <Gold.Version>
5.8.1

> <Gold.Id.Protein>
6NUR|6NUR_protein|mol2

> <Gold.PLP.Fitness>
41.7212

> <Gold.PLP.PLP>
-36.9450

> <Gold.PLP.part.hbond>
0.0000

> <Gold.PLP.part.metal>
0.0000

> <Gold.PLP.part.buried>
-0.1384

> <Gold.PLP.part.nonpolar>
-36.2016

> <Gold.PLP.part.repulsive>
0.1004

> <Gold.PLP.ligand.clash>
0.0000

> <Gold.PLP.ligand.torsion>
0.9813

> <Gold.PLP.Chemscore.Hbond>
0.0000

> <Gold.PLP.Chemscore.CHOScore>
1.9364

> <Gold.PLP.Chemscore.Metal>
0.0000

> <Gold.Chemscore.Hbonds>
donor molecule, donor type, donor heavy atom, donor atom, acceptor molecule, acceptor atom, score
      L1  C    14    35       P1  8028  0.90
      L1  C    16    37       P1  7948  1.00
      L1  C    16    37       P1  7957  0.01

> <Gold.PLP.Chemscore.Internal.Correction>
0.9297

> <Gold.Rescore>
     Score         DG    S(hbond)    S(metal)    S(lipo)     H(rot)  DE(clash)    DE(int)     intcor
     10.19     -11.34       0.00        0.00      89.16       1.79       0.12       1.02       ----

> <Gold.Chemscore.Fitness>
10.1897

> <Gold.Chemscore.DG>
-11.3361

> <Gold.Chemscore.ZeroCoef>
-5.4800

> <Gold.Chemscore.Hbond>
0.0000

> <Gold.Chemscore.Metal>
0.0000

> <Gold.Chemscore.Lipo>
89.1619

> <Gold.Chemscore.Internal_Hbond>
0.0000

> <Gold.Chemscore.DEClash>
0.1233

> <Gold.Chemscore.DEInternal>
1.0231

> <Gold.Chemscore.Rot>
1.7874

> <Gold.Chemscore.Internal.Correction>
   9.000000E+99

> <Gold.Chemscore.Hbond.Weighted>
-0.0000

> <Gold.Chemscore.Metal.Weighted>
-0.0000

> <Gold.Chemscore.Lipo.Weighted>
-10.4319

> <Gold.Chemscore.Internal_Hbond.Weighted>
0.0000

> <Gold.Chemscore.DEClash.Weighted>
0.1233

> <Gold.Chemscore.DEInternal.Weighted>
1.0231

> <Gold.Chemscore.Rot.Weighted>
4.5758

> <Gold.Chemscore.Internal.Correction.Weighted>
   9.000000E+99

> <Gold.Protein.RotatedTorsions>
[ 6907 6896 6895 6894 ] final  100.97 input  -60.11 | X-H torsion
[ 7974 7965 7964 7962 ] final   -0.45 input  175.53 | X-H torsion
[ 8008 7997 7996 7995 ] final -136.19 input   59.86 | X-H torsion
[ 10167 10162 10161 10158 ] final -143.49 input  -65.29 | X-H torsion
[ 10718 10713 10712 10709 ] final  -48.34 input   66.30 | X-H torsion
[ 10763 10752 10751 10750 ] final   55.68 input  -60.55 | X-H torsion
[ 11005 11000 10999 10996 ] final -127.05 input  -57.11 | X-H torsion

> <Gold.Protein.ActiveResidues>
 VAL166  LYS551  ARG553  GLY616  TRP617  ASP618  TYR619  PRO620  LYS621  CYS622 
 ASP623  PHE694  ASN695  SER759  ASP760  ASP761  ALA762  ILE779  LEU786  VAL792 
 PHE793  MET794  SER795  GLU796  ALA797  LYS798  CYS799  TRP800  GLU811  SER814 

> <Gold.Protein.RotatedAtoms>
  152.5360  134.0197  159.7975 H   0  0  0  0  0  0  0  0  0  0  0  0  # atno 6907 bound_to 6896
  151.0385  133.5719  159.2660 H   0  0  0  0  0  0  0  0  0  0  0  0  # atno 6908 bound_to 6896
  151.2697  135.0688  159.9183 H   0  0  0  0  0  0  0  0  0  0  0  0  # atno 6909 bound_to 6896
  146.2427  140.1271  142.8339 H   0  0  0  0  0  0  0  0  0  0  0  0  # atno 7974 bound_to 7965
  155.3911  140.0500  157.3040 H   0  0  0  0  0  0  0  0  0  0  0  0  # atno 8008 bound_to 7997
  154.5036  140.2166  155.9258 H   0  0  0  0  0  0  0  0  0  0  0  0  # atno 8009 bound_to 7997
  156.1498  140.3138  155.8634 H   0  0  0  0  0  0  0  0  0  0  0  0  # atno 8010 bound_to 7997
  139.7989  143.7861  152.2656 H   0  0  0  0  0  0  0  0  0  0  0  0  # atno 10167 bound_to 10162
  156.1998  130.4156  149.9257 H   0  0  0  0  0  0  0  0  0  0  0  0  # atno 10718 bound_to 10713
  152.9820  135.5702  154.5107 H   0  0  0  0  0  0  0  0  0  0  0  0  # atno 10763 bound_to 10752
  154.4611  135.2781  155.1714 H   0  0  0  0  0  0  0  0  0  0  0  0  # atno 10764 bound_to 10752
  154.3301  135.6251  153.5601 H   0  0  0  0  0  0  0  0  0  0  0  0  # atno 10765 bound_to 10752
  140.9632  134.0908  157.3947 H   0  0  0  0  0  0  0  0  0  0  0  0  # atno 11005 bound_to 11000
  145.0357  140.8906  143.5083 LP  0  0  0  0  0  0  0  0  0  0  0  0  # atno 17320 bound_to 7965
  145.1343  139.2612  143.5523 LP  0  0  0  0  0  0  0  0  0  0  0  0  # atno 17321 bound_to 7965
  139.7975  144.7387  150.9870 LP  0  0  0  0  0  0  0  0  0  0  0  0  # atno 17342 bound_to 10162
  140.7820  143.4378  151.0596 LP  0  0  0  0  0  0  0  0  0  0  0  0  # atno 17343 bound_to 10162
  156.6970  130.8918  151.3595 LP  0  0  0  0  0  0  0  0  0  0  0  0  # atno 17370 bound_to 10713
  157.6979  130.9301  150.0697 LP  0  0  0  0  0  0  0  0  0  0  0  0  # atno 17371 bound_to 10713
  139.8885  135.0098  156.6625 LP  0  0  0  0  0  0  0  0  0  0  0  0  # atno 17394 bound_to 11000
  140.7438  133.8955  155.8297 LP  0  0  0  0  0  0  0  0  0  0  0  0  # atno 17395 bound_to 11000

$$$$
