AV-unprocessed.smi:235|AV-procd|sdf|1803|dock2
  -GOLD-   2262020373D 1   1.00000     0.00000
 Structure written by MMmdl.
 54 58  0  0  0  0  0  0  0  0  1 V2000
  144.9578  135.2594  151.9786 O   0  0  0  0  0  0  0  0  0  0  0  0
  144.2012  134.5483  152.6414 C   0  0  0  0  0  0  0  0  0  0  0  0
  144.1988  133.2091  152.5758 N   0  0  0  0  0  0  0  0  0  0  0  0
  145.0580  132.4163  151.7580 C   0  0  0  0  0  0  0  0  0  0  0  0
  145.1395  132.7598  150.2863 C   0  0  0  0  0  0  0  0  0  0  0  0
  144.4115  131.5193  150.7248 C   0  0  0  0  0  0  0  0  0  0  0  0
  143.1744  135.1752  153.5950 C   0  0  2  0  0  0  0  0  0  0  0  0
  141.7327  134.9261  153.1337 C   0  0  0  0  0  0  0  0  0  0  0  0
  140.9633  136.0619  153.7964 C   0  0  0  0  0  0  0  0  0  0  0  0
  141.9496  137.2281  153.7340 C   0  0  0  0  0  0  0  0  0  0  0  0
  143.2815  136.6350  153.6488 N   0  0  0  0  0  0  0  0  0  0  0  0
  144.1961  137.1209  154.5167 C   0  0  0  0  0  0  0  0  0  0  0  0
  143.9583  136.9340  155.8376 N   0  0  0  0  0  0  0  0  0  0  0  0
  144.8249  137.3978  156.7432 C   0  0  0  0  0  0  0  0  0  0  0  0
  145.9664  138.0618  156.5443 N   0  0  0  0  0  0  0  0  0  0  0  0
  146.2068  138.2484  155.2144 C   0  0  0  0  0  0  0  0  0  0  0  0
  145.3798  137.8156  154.1407 C   0  0  0  0  0  0  0  0  0  0  0  0
  145.9418  138.1900  152.9258 N   0  0  0  0  0  0  0  0  0  0  0  0
  147.0399  138.8098  153.2630 C   0  0  0  0  0  0  0  0  0  0  0  0
  147.2812  138.8832  154.6168 N   0  0  0  0  0  0  0  0  0  0  0  0
  148.4236  139.5064  155.2657 C   0  0  0  0  0  0  0  0  0  0  0  0
  149.7577  139.2951  154.5152 C   0  0  1  0  0  0  0  0  0  0  0  0
  150.0147  140.4210  153.6990 O   0  0  0  0  0  0  0  0  0  0  0  0
  150.9701  139.0778  155.4431 C   0  0  2  0  0  0  0  0  0  0  0  0
  152.3036  138.8996  154.7161 C   0  0  0  0  0  0  0  0  0  0  0  0
  153.1433  138.0998  155.7005 C   0  0  0  0  0  0  0  0  0  0  0  0
  152.1237  137.5553  156.7050 C   0  0  0  0  0  0  0  0  0  0  0  0
  150.8536  137.8472  156.1402 O   0  0  0  0  0  0  0  0  0  0  0  0
  143.5367  132.7115  153.1532 H   0  0  0  0  0  0  0  0  0  0  0  0
  145.9730  132.0382  152.2121 H   0  0  0  0  0  0  0  0  0  0  0  0
  144.5389  133.5917  149.9230 H   0  0  0  0  0  0  0  0  0  0  0  0
  146.1012  132.6304  149.7941 H   0  0  0  0  0  0  0  0  0  0  0  0
  144.8871  130.5611  150.5245 H   0  0  0  0  0  0  0  0  0  0  0  0
  143.3255  131.5238  150.6532 H   0  0  0  0  0  0  0  0  0  0  0  0
  143.3043  134.7539  154.5941 H   0  0  0  0  0  0  0  0  0  0  0  0
  141.6465  135.0086  152.0486 H   0  0  0  0  0  0  0  0  0  0  0  0
  141.3611  133.9441  153.4278 H   0  0  0  0  0  0  0  0  0  0  0  0
  140.0138  136.2803  153.3072 H   0  0  0  0  0  0  0  0  0  0  0  0
  140.7580  135.8067  154.8370 H   0  0  0  0  0  0  0  0  0  0  0  0
  141.7865  137.8101  152.8265 H   0  0  0  0  0  0  0  0  0  0  0  0
  141.8205  137.9052  154.5802 H   0  0  0  0  0  0  0  0  0  0  0  0
  144.5668  137.2097  157.7748 H   0  0  0  0  0  0  0  0  0  0  0  0
  147.7141  139.2265  152.5286 H   0  0  0  0  0  0  0  0  0  0  0  0
  148.2182  140.5732  155.3617 H   0  0  0  0  0  0  0  0  0  0  0  0
  148.4975  139.1204  156.2832 H   0  0  0  0  0  0  0  0  0  0  0  0
  149.6472  138.4309  153.8592 H   0  0  0  0  0  0  0  0  0  0  0  0
  149.7304  140.2261  152.8191 H   0  0  0  0  0  0  0  0  0  0  0  0
  151.0566  139.8884  156.1692 H   0  0  0  0  0  0  0  0  0  0  0  0
  152.1628  138.3200  153.8028 H   0  0  0  0  0  0  0  0  0  0  0  0
  152.7622  139.8503  154.4422 H   0  0  0  0  0  0  0  0  0  0  0  0
  153.6802  137.2975  155.1931 H   0  0  0  0  0  0  0  0  0  0  0  0
  153.8771  138.7303  156.2038 H   0  0  0  0  0  0  0  0  0  0  0  0
  152.2380  136.4854  156.8805 H   0  0  0  0  0  0  0  0  0  0  0  0
  152.2164  138.0697  157.6626 H   0  0  0  0  0  0  0  0  0  0  0  0
  1  2  2  0  0  0  0
  2  3  1  0  0  0  0
  2  7  1  0  0  0  0
  3  4  1  0  0  0  0
  3 29  1  0  0  0  0
  4  6  1  0  0  0  0
  4  5  1  0  0  0  0
  4 30  1  0  0  0  0
  5  6  1  0  0  0  0
  5 31  1  0  0  0  0
  5 32  1  0  0  0  0
  6 33  1  0  0  0  0
  6 34  1  0  0  0  0
  7 11  1  0  0  0  0
  7  8  1  0  0  0  0
  7 35  1  0  0  0  0
  8  9  1  0  0  0  0
  8 36  1  0  0  0  0
  8 37  1  0  0  0  0
  9 10  1  0  0  0  0
  9 38  1  0  0  0  0
  9 39  1  0  0  0  0
 10 11  1  0  0  0  0
 10 40  1  0  0  0  0
 10 41  1  0  0  0  0
 11 12  1  0  0  0  0
 12 17  1  0  0  0  0
 12 13  2  0  0  0  0
 13 14  1  0  0  0  0
 14 15  2  0  0  0  0
 14 42  1  0  0  0  0
 15 16  1  0  0  0  0
 16 20  1  0  0  0  0
 16 17  2  0  0  0  0
 17 18  1  0  0  0  0
 18 19  2  0  0  0  0
 19 20  1  0  0  0  0
 19 43  1  0  0  0  0
 20 21  1  0  0  0  0
 21 22  1  0  0  0  0
 21 44  1  0  0  0  0
 21 45  1  0  0  0  0
 22 23  1  0  0  0  0
 22 24  1  0  0  0  0
 22 46  1  0  0  0  0
 23 47  1  0  0  0  0
 24 28  1  0  0  0  0
 24 25  1  0  0  0  0
 24 48  1  0  0  0  0
 25 26  1  0  0  0  0
 25 49  1  0  0  0  0
 25 50  1  0  0  0  0
 26 27  1  0  0  0  0
 26 51  1  0  0  0  0
 26 52  1  0  0  0  0
 27 28  1  0  0  0  0
 27 53  1  0  0  0  0
 27 54  1  0  0  0  0
M  END
> <s_m_source_file>
AV-unprocessed.smi

> <i_m_source_file_index>
235

> <i_lp_mmshare_version>
43012

> <i_f3d_flags>
0

> <s_epik_input>
W0NIMl0xW0NIMl1bQ0hdMVtOSF1DKD1PKVtDQEBIXTJbQ0gyXVtDSDJdW0NIMl1OMmMobltjSF1uMyljKGMzNCluW2NIXW40W0NIMl1bQ0BIXShbT0hdKVtDQEBIXTVbQ0gyXVtDSDJdW0NIMl1PNQ==

> <s_epik_cmdline>
J2VwaWtfcHl0aG9uJywgJy1waCcsICc3LjAnLCAnLXRuJywgJzgnLCAnLW1hJywgJzIwMCcsICctbWV0YWxfYmluZGluZycsICctaW1hZScsICc8aW5maWxlLm1hZT4nLCAnLW9tYWUnLCAnPG91dGZpbGUubWFlPic=

> <r_lp_tautomer_probability>
1

> <r_epik_Ionization_Penalty>
0.000526714

> <r_epik_Ionization_Penalty_Charging>
0

> <r_epik_Ionization_Penalty_Neutral>
0.000526714

> <r_epik_State_Penalty>
0.000272704

> <r_epik_Charging_Adjusted_Penalty>
0.000272704

> <i_epik_Tot_Q>
0

> <i_epik_Tot_abs_Q>
0

> <r_epik_Metal_State_Penalty>
-0

> <b_epik_Metal_Only>
0

> <s_lp_Force_Field>
OPLS_2005

> <r_lp_Energy>
60.0351

> <b_lp_Chiralities_Consistent>
1

> <s_lp_Variant>
AV-unprocessed.smi:235-3

> <Gold.Version>
5.8.1

> <Gold.Id.Protein>
6NUR|6NUR_protein|mol2

> <Gold.PLP.Fitness>
44.8452

> <Gold.PLP.PLP>
-35.6485

> <Gold.PLP.part.hbond>
-2.7409

> <Gold.PLP.part.metal>
0.0000

> <Gold.PLP.part.buried>
-7.2223

> <Gold.PLP.part.nonpolar>
-26.7760

> <Gold.PLP.part.repulsive>
0.4693

> <Gold.PLP.ligand.clash>
0.0000

> <Gold.PLP.ligand.torsion>
0.9903

> <Gold.PLP.Chemscore.Hbond>
2.6400

> <Gold.PLP.Chemscore.CHOScore>
1.0000

> <Gold.PLP.Chemscore.Metal>
0.0000

> <Gold.Chemscore.Hbonds>
donor molecule, donor type, donor heavy atom, donor atom, acceptor molecule, acceptor atom, score
      L1  H     3    29       P1 10957  0.93
      L1  H    23    47       P1  7957  1.00
      P1  H  7989  7998       L1    23  0.62
      L1  C    19    43       P1  7957  1.00

> <Gold.PLP.Chemscore.Internal.Correction>
0.2573

> <Gold.Rescore>
     Score         DG    S(hbond)    S(metal)    S(lipo)     H(rot)  DE(clash)    DE(int)     intcor
     13.78     -14.93       2.25        0.00      82.24       3.00       0.01       1.14       ----

> <Gold.Chemscore.Fitness>
13.7798

> <Gold.Chemscore.DG>
-14.9271

> <Gold.Chemscore.ZeroCoef>
-5.4800

> <Gold.Chemscore.Hbond>
2.2462

> <Gold.Chemscore.Metal>
0.0000

> <Gold.Chemscore.Lipo>
82.2383

> <Gold.Chemscore.Internal_Hbond>
0.0000

> <Gold.Chemscore.DEClash>
0.0111

> <Gold.Chemscore.DEInternal>
1.1362

> <Gold.Chemscore.Rot>
2.9989

> <Gold.Chemscore.Internal.Correction>
   9.000000E+99

> <Gold.Chemscore.Hbonds>
donor molecule, donor type, donor heavy atom, donor atom, acceptor molecule, acceptor atom, score
      L1  H     3    29       P1 10957  0.31
      L1  H    23    47       P1  7957  1.00
      P1  H  7989  7998       L1    23  0.21

> <Gold.Chemscore.Hbond.Weighted>
-7.5024

> <Gold.Chemscore.Metal.Weighted>
-0.0000

> <Gold.Chemscore.Lipo.Weighted>
-9.6219

> <Gold.Chemscore.Internal_Hbond.Weighted>
0.0000

> <Gold.Chemscore.DEClash.Weighted>
0.0111

> <Gold.Chemscore.DEInternal.Weighted>
1.1362

> <Gold.Chemscore.Rot.Weighted>
7.6772

> <Gold.Chemscore.Internal.Correction.Weighted>
   9.000000E+99

> <Gold.Protein.RotatedTorsions>
[ 6907 6896 6895 6894 ] final -149.65 input  -60.11 | X-H torsion
[ 7974 7965 7964 7962 ] final   80.85 input  175.53 | X-H torsion
[ 8008 7997 7996 7995 ] final -179.92 input   59.86 | X-H torsion
[ 10167 10162 10161 10158 ] final   24.98 input  -65.29 | X-H torsion
[ 10718 10713 10712 10709 ] final   27.79 input   66.30 | X-H torsion
[ 10763 10752 10751 10750 ] final  109.22 input  -60.55 | X-H torsion
[ 11005 11000 10999 10996 ] final  143.27 input  -57.11 | X-H torsion

> <Gold.Protein.ActiveResidues>
 VAL166  LYS551  ARG553  GLY616  TRP617  ASP618  TYR619  PRO620  LYS621  CYS622 
 ASP623  PHE694  ASN695  SER759  ASP760  ASP761  ALA762  ILE779  LEU786  VAL792 
 PHE793  MET794  SER795  GLU796  ALA797  LYS798  CYS799  TRP800  GLU811  SER814 

> <Gold.Protein.RotatedAtoms>
  151.1872  133.4689  159.2594 H   0  0  0  0  0  0  0  0  0  0  0  0  # atno 6907 bound_to 6896
  151.1199  135.0073  159.8544 H   0  0  0  0  0  0  0  0  0  0  0  0  # atno 6908 bound_to 6896
  152.5455  134.1785  159.8678 H   0  0  0  0  0  0  0  0  0  0  0  0  # atno 6909 bound_to 6896
  145.6459  139.2436  143.2004 H   0  0  0  0  0  0  0  0  0  0  0  0  # atno 7974 bound_to 7965
  156.0361  140.1293  157.0206 H   0  0  0  0  0  0  0  0  0  0  0  0  # atno 8008 bound_to 7997
  154.4370  140.1040  156.6239 H   0  0  0  0  0  0  0  0  0  0  0  0  # atno 8009 bound_to 7997
  155.5736  140.3467  155.4524 H   0  0  0  0  0  0  0  0  0  0  0  0  # atno 8010 bound_to 7997
  140.5144  144.0107  150.6387 H   0  0  0  0  0  0  0  0  0  0  0  0  # atno 10167 bound_to 10162
  157.2249  130.6996  149.6287 H   0  0  0  0  0  0  0  0  0  0  0  0  # atno 10718 bound_to 10713
  153.4316  135.3787  155.2174 H   0  0  0  0  0  0  0  0  0  0  0  0  # atno 10763 bound_to 10752
  154.8750  135.3841  154.4261 H   0  0  0  0  0  0  0  0  0  0  0  0  # atno 10764 bound_to 10752
  153.4794  135.7088  153.6010 H   0  0  0  0  0  0  0  0  0  0  0  0  # atno 10765 bound_to 10752
  140.0541  134.9240  157.1069 H   0  0  0  0  0  0  0  0  0  0  0  0  # atno 11005 bound_to 11000
  146.1243  140.7268  142.9442 LP  0  0  0  0  0  0  0  0  0  0  0  0  # atno 17320 bound_to 7965
  144.7140  140.4144  143.7058 LP  0  0  0  0  0  0  0  0  0  0  0  0  # atno 17321 bound_to 7965
  140.3439  143.3003  152.0559 LP  0  0  0  0  0  0  0  0  0  0  0  0  # atno 17342 bound_to 10162
  139.4905  144.6423  151.6852 LP  0  0  0  0  0  0  0  0  0  0  0  0  # atno 17343 bound_to 10162
  155.9679  130.4507  150.5709 LP  0  0  0  0  0  0  0  0  0  0  0  0  # atno 17370 bound_to 10713
  157.3538  131.0738  151.1692 LP  0  0  0  0  0  0  0  0  0  0  0  0  # atno 17371 bound_to 10713
  140.3871  134.2224  155.7168 LP  0  0  0  0  0  0  0  0  0  0  0  0  # atno 17394 bound_to 11000
  141.1944  133.8129  157.0759 LP  0  0  0  0  0  0  0  0  0  0  0  0  # atno 17395 bound_to 11000

$$$$
