AV-unprocessed.smi:696|AV-procd|sdf|3388|dock10
  -GOLD-   22720 0373D 1   1.00000     0.00000
 Structure written by MMmdl.
 37 38  0  0  0  0  0  0  0  0  2 V2000
  150.6772  139.6298  157.7620 O   0  0  0  0  0  0  0  0  0  0  0  0
  151.1622  140.5614  157.1186 C   0  0  0  0  0  0  0  0  0  0  0  0
  151.0907  140.6474  155.7811 N   0  0  0  0  0  0  0  0  0  0  0  0
  150.4391  139.6754  154.9106 C   0  0  0  0  0  0  0  0  0  0  0  0
  151.4179  138.5762  154.4589 C   0  0  0  0  0  0  0  0  0  0  0  0
  152.2339  138.0590  155.6119 C   0  0  0  0  0  0  0  0  0  0  0  0
  153.1052  138.7206  156.2778 N   0  0  0  0  0  0  0  0  0  0  0  0
  153.5440  137.8232  157.1759 N   0  0  0  0  0  0  0  0  0  0  0  0
  152.9342  136.6435  157.0377 C   0  0  0  0  0  0  0  0  0  0  0  0
  153.1724  135.6683  157.7467 O   0  0  0  0  0  0  0  0  0  0  0  0
  152.0673  136.7716  156.0174 N   0  5  0  0  0  0  0  0  0  0  0  0
  151.8962  141.7000  157.8429 C   0  0  0  0  0  0  0  0  0  0  0  0
  151.9177  141.4346  159.3665 C   0  0  0  0  0  0  0  0  0  0  0  0
  152.9786  142.2671  160.1066 C   0  0  0  0  0  0  0  0  0  0  0  0
  152.5261  143.6675  160.5577 C   0  0  0  0  0  0  0  0  0  0  0  0
  151.6084  144.4409  159.5939 C   0  0  0  0  0  0  0  0  0  0  0  0
  151.9371  144.2858  158.1003 C   0  0  0  0  0  0  0  0  0  0  0  0
  151.2649  143.0563  157.4636 C   0  0  0  0  0  0  0  0  0  0  0  0
  154.2543  138.0794  157.8456 H   0  0  0  0  0  0  0  0  0  0  0  0
  151.5152  141.4460  155.3324 H   0  0  0  0  0  0  0  0  0  0  0  0
  149.6109  139.2344  155.4670 H   0  0  0  0  0  0  0  0  0  0  0  0
  149.9991  140.1805  154.0487 H   0  0  0  0  0  0  0  0  0  0  0  0
  150.8673  137.7503  154.0068 H   0  0  0  0  0  0  0  0  0  0  0  0
  152.0774  138.9631  153.6807 H   0  0  0  0  0  0  0  0  0  0  0  0
  152.9271  141.6996  157.4843 H   0  0  0  0  0  0  0  0  0  0  0  0
  150.9318  141.5873  159.8080 H   0  0  0  0  0  0  0  0  0  0  0  0
  152.1552  140.3825  159.5338 H   0  0  0  0  0  0  0  0  0  0  0  0
  153.3006  141.7200  160.9934 H   0  0  0  0  0  0  0  0  0  0  0  0
  153.8721  142.3533  159.4872 H   0  0  0  0  0  0  0  0  0  0  0  0
  152.0138  143.5846  161.5170 H   0  0  0  0  0  0  0  0  0  0  0  0
  153.4182  144.2630  160.7561 H   0  0  0  0  0  0  0  0  0  0  0  0
  150.5708  144.1532  159.7680 H   0  0  0  0  0  0  0  0  0  0  0  0
  151.6592  145.4973  159.8600 H   0  0  0  0  0  0  0  0  0  0  0  0
  151.5620  145.1693  157.5826 H   0  0  0  0  0  0  0  0  0  0  0  0
  153.0147  144.2785  157.9328 H   0  0  0  0  0  0  0  0  0  0  0  0
  151.3170  143.1691  156.3793 H   0  0  0  0  0  0  0  0  0  0  0  0
  150.2010  143.0608  157.7061 H   0  0  0  0  0  0  0  0  0  0  0  0
  1  2  2  0  0  0  0
  2  3  1  0  0  0  0
  2 12  1  0  0  0  0
  3  4  1  0  0  0  0
  3 20  1  0  0  0  0
  4  5  1  0  0  0  0
  4 21  1  0  0  0  0
  4 22  1  0  0  0  0
  5  6  1  0  0  0  0
  5 23  1  0  0  0  0
  5 24  1  0  0  0  0
  6 11  1  0  0  0  0
  6  7  2  0  0  0  0
  7  8  1  0  0  0  0
  8 19  1  0  0  0  0
  8  9  1  0  0  0  0
  9 10  2  0  0  0  0
  9 11  1  0  0  0  0
 12 18  1  0  0  0  0
 12 13  1  0  0  0  0
 12 25  1  0  0  0  0
 13 14  1  0  0  0  0
 13 26  1  0  0  0  0
 13 27  1  0  0  0  0
 14 15  1  0  0  0  0
 14 28  1  0  0  0  0
 14 29  1  0  0  0  0
 15 16  1  0  0  0  0
 15 30  1  0  0  0  0
 15 31  1  0  0  0  0
 16 17  1  0  0  0  0
 16 32  1  0  0  0  0
 16 33  1  0  0  0  0
 17 18  1  0  0  0  0
 17 34  1  0  0  0  0
 17 35  1  0  0  0  0
 18 36  1  0  0  0  0
 18 37  1  0  0  0  0
M  CHG  1  11  -1
M  END
> <s_m_source_file>
AV-unprocessed.smi

> <i_m_source_file_index>
696

> <i_lp_mmshare_version>
43012

> <i_f3d_flags>
0

> <s_epik_input>
W0NIMl0xW0NIMl1bQ0gyXVtDSDJdW0NIMl1bQ0gyXVtDSF0xQyg9TylbTkhdW0NIMl1bQ0gyXWMybltuSF1jKD1PKVtuSF0y

> <s_epik_cmdline>
J2VwaWtfcHl0aG9uJywgJy1waCcsICc3LjAnLCAnLXRuJywgJzgnLCAnLW1hJywgJzIwMCcsICctbWV0YWxfYmluZGluZycsICctaW1hZScsICc8aW5maWxlLm1hZT4nLCAnLW9tYWUnLCAnPG91dGZpbGUubWFlPic=

> <r_lp_tautomer_probability>
1

> <r_epik_Ionization_Penalty>
13.715

> <r_epik_Ionization_Penalty_Charging>
13.715

> <r_epik_Ionization_Penalty_Neutral>
5.16152e-06

> <r_epik_State_Penalty>
4.03036

> <r_epik_Charging_Adjusted_Penalty>
17.7454

> <i_epik_Tot_Q>
-1

> <i_epik_Tot_abs_Q>
1

> <r_epik_Metal_State_Penalty>
0.449398

> <b_epik_Metal_Only>
1

> <s_lp_Force_Field>
OPLS_2005

> <r_lp_Energy>
29.0226

> <b_lp_Chiralities_Consistent>
1

> <s_lp_Variant>
AV-unprocessed.smi:696-3

> <Gold.Version>
5.8.1

> <Gold.Id.Protein>
6NUR|6NUR_protein|mol2

> <Gold.PLP.Fitness>
45.3692

> <Gold.PLP.PLP>
-36.9356

> <Gold.PLP.part.hbond>
-3.0000

> <Gold.PLP.part.metal>
0.0000

> <Gold.PLP.part.buried>
-5.0580

> <Gold.PLP.part.nonpolar>
-29.2118

> <Gold.PLP.part.repulsive>
0.3085

> <Gold.PLP.ligand.clash>
0.0000

> <Gold.PLP.ligand.torsion>
0.2958

> <Gold.PLP.Chemscore.Hbond>
2.9957

> <Gold.PLP.Chemscore.CHOScore>
0.0000

> <Gold.PLP.Chemscore.Metal>
0.0000

> <Gold.Chemscore.Hbonds>
donor molecule, donor type, donor heavy atom, donor atom, acceptor molecule, acceptor atom, score
      P1  H  7997  8009       L1     7  0.84
      P1  H 10752 10765       L1    11  1.69

> <Gold.PLP.Chemscore.Internal.Correction>
0.0382

> <Gold.Rescore>
     Score         DG    S(hbond)    S(metal)    S(lipo)     H(rot)  DE(clash)    DE(int)     intcor
     12.07     -15.98       1.59        0.00      93.68       2.25       0.07       3.84       ----

> <Gold.Chemscore.Fitness>
12.0693

> <Gold.Chemscore.DG>
-15.9804

> <Gold.Chemscore.ZeroCoef>
-5.4800

> <Gold.Chemscore.Hbond>
1.5870

> <Gold.Chemscore.Metal>
0.0000

> <Gold.Chemscore.Lipo>
93.6760

> <Gold.Chemscore.Internal_Hbond>
0.0000

> <Gold.Chemscore.DEClash>
0.0697

> <Gold.Chemscore.DEInternal>
3.8414

> <Gold.Chemscore.Rot>
2.2501

> <Gold.Chemscore.Internal.Correction>
   9.000000E+99

> <Gold.Chemscore.Hbonds>
donor molecule, donor type, donor heavy atom, donor atom, acceptor molecule, acceptor atom, score
      P1  H  7997  8009       L1     7  0.14
      P1  H 10752 10765       L1    11  0.09

> <Gold.Chemscore.Hbond.Weighted>
-5.3006

> <Gold.Chemscore.Metal.Weighted>
-0.0000

> <Gold.Chemscore.Lipo.Weighted>
-10.9601

> <Gold.Chemscore.Internal_Hbond.Weighted>
0.0000

> <Gold.Chemscore.DEClash.Weighted>
0.0697

> <Gold.Chemscore.DEInternal.Weighted>
3.8414

> <Gold.Chemscore.Rot.Weighted>
5.7603

> <Gold.Chemscore.Internal.Correction.Weighted>
   9.000000E+99

> <Gold.Protein.RotatedTorsions>
[ 6907 6896 6895 6894 ] final   80.41 input  -60.11 | X-H torsion
[ 7974 7965 7964 7962 ] final -136.71 input  175.53 | X-H torsion
[ 8008 7997 7996 7995 ] final  179.50 input   59.86 | X-H torsion
[ 10167 10162 10161 10158 ] final  -14.66 input  -65.29 | X-H torsion
[ 10718 10713 10712 10709 ] final  -80.14 input   66.30 | X-H torsion
[ 10763 10752 10751 10750 ] final -171.25 input  -60.55 | X-H torsion
[ 11005 11000 10999 10996 ] final   97.37 input  -57.11 | X-H torsion

> <Gold.Protein.ActiveResidues>
 VAL166  LYS551  ARG553  GLY616  TRP617  ASP618  TYR619  PRO620  LYS621  CYS622 
 ASP623  PHE694  ASN695  SER759  ASP760  ASP761  ALA762  ILE779  LEU786  VAL792 
 PHE793  MET794  SER795  GLU796  ALA797  LYS798  CYS799  TRP800  GLU811  SER814 

> <Gold.Protein.RotatedAtoms>
  152.5234  134.3361  159.9200 H   0  0  0  0  0  0  0  0  0  0  0  0  # atno 6907 bound_to 6896
  151.3310  133.3994  159.2670 H   0  0  0  0  0  0  0  0  0  0  0  0  # atno 6908 bound_to 6896
  150.9880  134.9239  159.7941 H   0  0  0  0  0  0  0  0  0  0  0  0  # atno 6909 bound_to 6896
  144.8904  140.6634  143.5149 H   0  0  0  0  0  0  0  0  0  0  0  0  # atno 7974 bound_to 7965
  156.0427  140.1307  157.0138 H   0  0  0  0  0  0  0  0  0  0  0  0  # atno 8008 bound_to 7997
  154.4398  140.1027  156.6331 H   0  0  0  0  0  0  0  0  0  0  0  0  # atno 8009 bound_to 7997
  155.5643  140.3465  155.4501 H   0  0  0  0  0  0  0  0  0  0  0  0  # atno 8010 bound_to 7997
  140.7205  143.5298  150.9534 H   0  0  0  0  0  0  0  0  0  0  0  0  # atno 10167 bound_to 10162
  156.0077  130.4566  150.3755 H   0  0  0  0  0  0  0  0  0  0  0  0  # atno 10718 bound_to 10713
  154.6325  135.2888  155.0199 H   0  0  0  0  0  0  0  0  0  0  0  0  # atno 10763 bound_to 10752
  154.1354  135.6527  153.4935 H   0  0  0  0  0  0  0  0  0  0  0  0  # atno 10764 bound_to 10752
  153.0287  135.5320  154.7159 H   0  0  0  0  0  0  0  0  0  0  0  0  # atno 10765 bound_to 10752
  139.8776  134.8997  156.4297 H   0  0  0  0  0  0  0  0  0  0  0  0  # atno 11005 bound_to 11000
  145.3793  139.1640  143.4289 LP  0  0  0  0  0  0  0  0  0  0  0  0  # atno 17320 bound_to 7965
  146.3050  140.3873  142.8690 LP  0  0  0  0  0  0  0  0  0  0  0  0  # atno 17321 bound_to 7965
  139.9018  143.6827  152.3130 LP  0  0  0  0  0  0  0  0  0  0  0  0  # atno 17342 bound_to 10162
  139.7179  144.7608  151.1004 LP  0  0  0  0  0  0  0  0  0  0  0  0  # atno 17343 bound_to 10162
  157.1837  131.0398  151.2735 LP  0  0  0  0  0  0  0  0  0  0  0  0  # atno 17370 bound_to 10713
  157.4123  130.7392  149.6848 LP  0  0  0  0  0  0  0  0  0  0  0  0  # atno 17371 bound_to 10713
  140.9075  133.7735  155.9752 LP  0  0  0  0  0  0  0  0  0  0  0  0  # atno 17394 bound_to 11000
  140.8583  134.2871  157.5246 LP  0  0  0  0  0  0  0  0  0  0  0  0  # atno 17395 bound_to 11000

$$$$
