AV-unprocessed.smi:290|AV-procd|sdf|2239|dock3
  -GOLD-   2262022113D 1   1.00000     0.00000
 Structure written by MMmdl.
 59 62  0  0  0  0  0  0  0  0  2 V2000
  152.4893  144.7340  158.2803 C   0  0  0  0  0  0  0  0  0  0  0  0
  151.9390  143.6130  159.1696 C   0  0  2  0  0  0  0  0  0  0  0  0
  153.0096  143.0870  159.9438 O   0  0  0  0  0  0  0  0  0  0  0  0
  152.6104  141.8152  160.4156 C   0  0  0  0  0  0  0  0  0  0  0  0
  151.9848  141.2030  159.1720 C   0  0  0  0  0  0  0  0  0  0  0  0
  151.2744  142.3764  158.4901 C   0  0  1  0  0  0  0  0  0  0  0  0
  149.9190  142.3410  158.8998 O   0  0  0  0  0  0  0  0  0  0  0  0
  151.3679  142.2309  156.9414 C   0  0  0  0  0  0  0  0  0  0  0  0
  150.3226  141.4369  156.3053 N   0  0  0  0  0  0  0  0  0  0  0  0
  149.4928  141.8306  155.2809 C   0  0  0  0  0  0  0  0  0  0  0  0
  148.6445  140.9287  154.8723 N   0  0  0  0  0  0  0  0  0  0  0  0
  148.9381  139.8030  155.6341 C   0  0  0  0  0  0  0  0  0  0  0  0
  148.4227  138.4726  155.7036 C   0  0  0  0  0  0  0  0  0  0  0  0
  147.4135  137.9752  154.9392 N   0  0  0  0  0  0  0  0  0  0  0  0
  146.5510  138.8533  154.1680 C   0  0  0  0  0  0  0  0  0  0  0  0
  146.1972  138.0473  152.9257 C   0  0  0  0  0  0  0  0  0  0  0  0
  146.1984  136.5870  153.4070 C   0  0  1  0  0  0  0  0  0  0  0  0
  146.4115  135.6245  152.2796 N   0  3  2  0  0  0  0  0  0  0  0  0
  145.4312  135.8432  151.1836 C   0  0  0  0  0  0  0  0  0  0  0  0
  146.4888  134.1923  152.6898 C   0  0  0  0  0  0  0  0  0  0  0  0
  146.8906  133.2328  151.5535 C   0  0  0  0  0  0  0  0  0  0  0  0
  147.1819  131.9535  152.0758 O   0  0  0  0  0  0  0  0  0  0  0  0
  147.2894  136.5844  154.5122 C   0  0  2  0  0  0  0  0  0  0  0  0
  146.9152  135.6919  155.7165 C   0  0  0  0  0  0  0  0  0  0  0  0
  148.9952  137.6335  156.6063 N   0  0  0  0  0  0  0  0  0  0  0  0
  150.0016  138.0480  157.3797 C   0  0  0  0  0  0  0  0  0  0  0  0
  150.5795  139.2482  157.4210 N   0  0  0  0  0  0  0  0  0  0  0  0
  150.0036  140.1071  156.5319 C   0  0  0  0  0  0  0  0  0  0  0  0
  145.2313  136.3797  153.8693 H   0  0  0  0  0  0  0  0  0  0  0  0
  148.2392  136.2795  154.0747 H   0  0  0  0  0  0  0  0  0  0  0  0
  151.6842  145.2567  157.7671 H   0  0  0  0  0  0  0  0  0  0  0  0
  153.1989  144.3602  157.5428 H   0  0  0  0  0  0  0  0  0  0  0  0
  153.0110  145.4765  158.8845 H   0  0  0  0  0  0  0  0  0  0  0  0
  151.2435  144.0643  159.8807 H   0  0  0  0  0  0  0  0  0  0  0  0
  153.4562  141.2394  160.7911 H   0  0  0  0  0  0  0  0  0  0  0  0
  151.8775  141.9245  161.2167 H   0  0  0  0  0  0  0  0  0  0  0  0
  152.7877  140.8281  158.5355 H   0  0  0  0  0  0  0  0  0  0  0  0
  151.3305  140.3596  159.3979 H   0  0  0  0  0  0  0  0  0  0  0  0
  149.4447  143.0113  158.4316 H   0  0  0  0  0  0  0  0  0  0  0  0
  151.4043  143.2113  156.4656 H   0  0  0  0  0  0  0  0  0  0  0  0
  152.3157  141.7532  156.6884 H   0  0  0  0  0  0  0  0  0  0  0  0
  149.5302  142.8171  154.8427 H   0  0  0  0  0  0  0  0  0  0  0  0
  145.6598  139.0797  154.7542 H   0  0  0  0  0  0  0  0  0  0  0  0
  147.0353  139.7930  153.8994 H   0  0  0  0  0  0  0  0  0  0  0  0
  145.2455  138.3635  152.4982 H   0  0  0  0  0  0  0  0  0  0  0  0
  146.9716  138.1933  152.1710 H   0  0  0  0  0  0  0  0  0  0  0  0
  144.4284  135.5466  151.4938 H   0  0  0  0  0  0  0  0  0  0  0  0
  145.6933  135.2824  150.2882 H   0  0  0  0  0  0  0  0  0  0  0  0
  145.3914  136.8865  150.8742 H   0  0  0  0  0  0  0  0  0  0  0  0
  147.2358  134.0632  153.4701 H   0  0  0  0  0  0  0  0  0  0  0  0
  145.5311  133.8870  153.1138 H   0  0  0  0  0  0  0  0  0  0  0  0
  146.0589  133.1305  150.8558 H   0  0  0  0  0  0  0  0  0  0  0  0
  147.7319  133.6012  150.9683 H   0  0  0  0  0  0  0  0  0  0  0  0
  147.8876  131.5751  151.5726 H   0  0  0  0  0  0  0  0  0  0  0  0
  146.7766  134.6491  155.4382 H   0  0  0  0  0  0  0  0  0  0  0  0
  145.9851  136.0283  156.1757 H   0  0  0  0  0  0  0  0  0  0  0  0
  147.6805  135.7150  156.4914 H   0  0  0  0  0  0  0  0  0  0  0  0
  150.4010  137.3125  158.0626 H   0  0  0  0  0  0  0  0  0  0  0  0
  147.3215  135.8446  151.8998 H   0  0  0  0  0  0  0  0  0  0  0  0
  1  2  1  0  0  0  0
  1 31  1  0  0  0  0
  1 32  1  0  0  0  0
  1 33  1  0  0  0  0
  2  6  1  0  0  0  0
  2  3  1  0  0  0  0
  2 34  1  0  0  0  0
  3  4  1  0  0  0  0
  4  5  1  0  0  0  0
  4 35  1  0  0  0  0
  4 36  1  0  0  0  0
  5  6  1  0  0  0  0
  5 37  1  0  0  0  0
  5 38  1  0  0  0  0
  6  7  1  0  0  0  0
  6  8  1  0  0  0  0
  7 39  1  0  0  0  0
  8  9  1  0  0  0  0
  8 40  1  0  0  0  0
  8 41  1  0  0  0  0
  9 28  1  0  0  0  0
  9 10  1  0  0  0  0
 10 11  2  0  0  0  0
 10 42  1  0  0  0  0
 11 12  1  0  0  0  0
 12 28  2  0  0  0  0
 12 13  1  0  0  0  0
 13 14  1  0  0  0  0
 13 25  2  0  0  0  0
 14 23  1  0  0  0  0
 14 15  1  0  0  0  0
 15 16  1  0  0  0  0
 15 43  1  0  0  0  0
 15 44  1  0  0  0  0
 16 17  1  0  0  0  0
 16 45  1  0  0  0  0
 16 46  1  0  0  0  0
 17 29  1  0  0  0  0
 17 18  1  0  0  0  0
 17 23  1  0  0  0  0
 18 19  1  0  0  0  0
 18 20  1  0  0  0  0
 18 59  1  0  0  0  0
 19 47  1  0  0  0  0
 19 48  1  0  0  0  0
 19 49  1  0  0  0  0
 20 21  1  0  0  0  0
 20 50  1  0  0  0  0
 20 51  1  0  0  0  0
 21 22  1  0  0  0  0
 21 52  1  0  0  0  0
 21 53  1  0  0  0  0
 22 54  1  0  0  0  0
 23 30  1  0  0  0  0
 23 24  1  0  0  0  0
 24 55  1  0  0  0  0
 24 56  1  0  0  0  0
 24 57  1  0  0  0  0
 25 26  1  0  0  0  0
 26 27  2  0  0  0  0
 26 58  1  0  0  0  0
 27 28  1  0  0  0  0
M  CHG  1  18   1
M  END
> <s_m_source_file>
AV-unprocessed.smi

> <i_m_source_file_index>
290

> <i_lp_mmshare_version>
43012

> <i_f3d_flags>
0

> <s_epik_input>
W0NIMl0xW0NIMl1PW0NAQEhdKFtDSDNdKVtDQEBdMShbT0hdKVtDSDJdbihbY0hdbjIpYyhjMjMpbltjSF1uYzNONFtDSDJdW0NIMl1bQ0BIXShbQ0BIXTRbQ0gzXSlOKFtDSDNdKVtDSDJdW0NIMl1bT0hd

> <s_epik_cmdline>
J2VwaWtfcHl0aG9uJywgJy1waCcsICc3LjAnLCAnLXRuJywgJzgnLCAnLW1hJywgJzIwMCcsICctbWV0YWxfYmluZGluZycsICctaW1hZScsICc8aW5maWxlLm1hZT4nLCAnLW9tYWUnLCAnPG91dGZpbGUubWFlPic=

> <r_lp_tautomer_probability>
1

> <r_epik_Ionization_Penalty>
0.0036983

> <r_epik_Ionization_Penalty_Charging>
0.0032725

> <r_epik_Ionization_Penalty_Neutral>
0.000425798

> <r_epik_State_Penalty>
-0

> <r_epik_Charging_Adjusted_Penalty>
0.0032725

> <i_epik_Tot_Q>
1

> <i_epik_Tot_abs_Q>
1

> <r_epik_Metal_State_Penalty>
-0

> <b_epik_Metal_Only>
0

> <s_lp_Force_Field>
OPLS_2005

> <r_lp_Energy>
66.2506

> <b_lp_Chiralities_Consistent>
1

> <s_lp_Variant>
AV-unprocessed.smi:290-25

> <Gold.Version>
5.8.1

> <Gold.Id.Protein>
6NUR|6NUR_protein|mol2

> <Gold.PLP.Fitness>
49.1544

> <Gold.PLP.PLP>
-38.5732

> <Gold.PLP.part.hbond>
-2.9731

> <Gold.PLP.part.metal>
0.0000

> <Gold.PLP.part.buried>
-4.9192

> <Gold.PLP.part.nonpolar>
-31.0479

> <Gold.PLP.part.repulsive>
0.1337

> <Gold.PLP.ligand.clash>
0.0000

> <Gold.PLP.ligand.torsion>
0.8094

> <Gold.PLP.Chemscore.Hbond>
3.0000

> <Gold.PLP.Chemscore.CHOScore>
1.0000

> <Gold.PLP.Chemscore.Metal>
0.0000

> <Gold.Chemscore.Hbonds>
donor molecule, donor type, donor heavy atom, donor atom, acceptor molecule, acceptor atom, score
      L1  H    18    59       P1  7948  2.00
      L1  H    22    54       P1 10747  1.00
      L1  C    10    42       P1  8028  1.00

> <Gold.PLP.Chemscore.Internal.Correction>
0.1999

> <Gold.Rescore>
     Score         DG    S(hbond)    S(metal)    S(lipo)     H(rot)  DE(clash)    DE(int)     intcor
     10.70     -14.64       1.99        0.00      94.74       3.35       1.05       2.89       ----

> <Gold.Chemscore.Fitness>
10.7030

> <Gold.Chemscore.DG>
-14.6402

> <Gold.Chemscore.ZeroCoef>
-5.4800

> <Gold.Chemscore.Hbond>
1.9929

> <Gold.Chemscore.Metal>
0.0000

> <Gold.Chemscore.Lipo>
94.7395

> <Gold.Chemscore.Internal_Hbond>
0.0000

> <Gold.Chemscore.DEClash>
1.0478

> <Gold.Chemscore.DEInternal>
2.8894

> <Gold.Chemscore.Rot>
3.3518

> <Gold.Chemscore.Internal.Correction>
   9.000000E+99

> <Gold.Chemscore.Hbonds>
donor molecule, donor type, donor heavy atom, donor atom, acceptor molecule, acceptor atom, score
      L1  H    18    59       P1  7948  0.99
      L1  H    22    54       P1 10747  1.00

> <Gold.Chemscore.Hbond.Weighted>
-6.6562

> <Gold.Chemscore.Metal.Weighted>
-0.0000

> <Gold.Chemscore.Lipo.Weighted>
-11.0845

> <Gold.Chemscore.Internal_Hbond.Weighted>
0.0000

> <Gold.Chemscore.DEClash.Weighted>
1.0478

> <Gold.Chemscore.DEInternal.Weighted>
2.8894

> <Gold.Chemscore.Rot.Weighted>
8.5806

> <Gold.Chemscore.Internal.Correction.Weighted>
   9.000000E+99

> <Gold.Protein.RotatedTorsions>
[ 6907 6896 6895 6894 ] final -109.23 input  -60.11 | X-H torsion
[ 7974 7965 7964 7962 ] final   78.56 input  175.53 | X-H torsion
[ 8008 7997 7996 7995 ] final    6.79 input   59.86 | X-H torsion
[ 10167 10162 10161 10158 ] final  133.59 input  -65.29 | X-H torsion
[ 10718 10713 10712 10709 ] final  -56.76 input   66.30 | X-H torsion
[ 10763 10752 10751 10750 ] final -102.84 input  -60.55 | X-H torsion
[ 11005 11000 10999 10996 ] final   70.52 input  -57.11 | X-H torsion

> <Gold.Protein.ActiveResidues>
 VAL166  LYS551  ARG553  GLY616  TRP617  ASP618  TYR619  PRO620  LYS621  CYS622 
 ASP623  PHE694  ASN695  SER759  ASP760  ASP761  ALA762  ILE779  LEU786  VAL792 
 PHE793  MET794  SER795  GLU796  ALA797  LYS798  CYS799  TRP800  GLU811  SER814 

> <Gold.Protein.RotatedAtoms>
  150.7549  133.9560  159.3500 H   0  0  0  0  0  0  0  0  0  0  0  0  # atno 6907 bound_to 6896
  151.7482  135.0837  160.0336 H   0  0  0  0  0  0  0  0  0  0  0  0  # atno 6908 bound_to 6896
  152.3484  133.6112  159.5962 H   0  0  0  0  0  0  0  0  0  0  0  0  # atno 6909 bound_to 6896
  145.6756  139.2509  143.1843 H   0  0  0  0  0  0  0  0  0  0  0  0  # atno 7974 bound_to 7965
  154.7455  140.2757  155.6337 H   0  0  0  0  0  0  0  0  0  0  0  0  # atno 8008 bound_to 7997
  156.2884  140.2688  156.2120 H   0  0  0  0  0  0  0  0  0  0  0  0  # atno 8009 bound_to 7997
  155.0203  140.0371  157.2424 H   0  0  0  0  0  0  0  0  0  0  0  0  # atno 8010 bound_to 7997
  139.5291  144.6608  151.5017 H   0  0  0  0  0  0  0  0  0  0  0  0  # atno 10167 bound_to 10162
  156.1263  130.4162  150.0348 H   0  0  0  0  0  0  0  0  0  0  0  0  # atno 10718 bound_to 10713
  154.7764  135.4845  153.9752 H   0  0  0  0  0  0  0  0  0  0  0  0  # atno 10763 bound_to 10752
  153.1434  135.6777  153.8999 H   0  0  0  0  0  0  0  0  0  0  0  0  # atno 10764 bound_to 10752
  153.8666  135.3148  155.3418 H   0  0  0  0  0  0  0  0  0  0  0  0  # atno 10765 bound_to 10752
  139.9593  134.7089  156.0682 H   0  0  0  0  0  0  0  0  0  0  0  0  # atno 11005 bound_to 11000
  146.1008  140.7546  142.9550 LP  0  0  0  0  0  0  0  0  0  0  0  0  # atno 17320 bound_to 7965
  144.7042  140.3785  143.7131 LP  0  0  0  0  0  0  0  0  0  0  0  0  # atno 17321 bound_to 7965
  140.6456  143.8801  150.6734 LP  0  0  0  0  0  0  0  0  0  0  0  0  # atno 17342 bound_to 10162
  140.2150  143.3854  152.1688 LP  0  0  0  0  0  0  0  0  0  0  0  0  # atno 17343 bound_to 10162
  156.8273  130.9380  151.3639 LP  0  0  0  0  0  0  0  0  0  0  0  0  # atno 17370 bound_to 10713
  157.6445  130.8832  149.9511 LP  0  0  0  0  0  0  0  0  0  0  0  0  # atno 17371 bound_to 10713
  141.1268  133.6597  156.3359 LP  0  0  0  0  0  0  0  0  0  0  0  0  # atno 17394 bound_to 11000
  140.5537  134.6003  157.5415 LP  0  0  0  0  0  0  0  0  0  0  0  0  # atno 17395 bound_to 11000

$$$$
