AV-unprocessed.smi:1830|AV-procd|sdf|7440|dock4
  -GOLD-   22720 9123D 1   1.00000     0.00000
 Structure written by MMmdl.
 52 55  0  0  0  0  0  0  0  0  1 V2000
  150.2119  136.3611  158.7901 O   0  0  0  0  0  0  0  0  0  0  0  0
  149.1568  136.9922  158.7504 C   0  0  0  0  0  0  0  0  0  0  0  0
  148.2315  136.9419  159.7187 N   0  0  0  0  0  0  0  0  0  0  0  0
  148.3124  136.1190  160.9210 C   0  0  0  0  0  0  0  0  0  0  0  0
  147.0042  136.1703  161.7279 C   0  0  2  0  0  0  0  0  0  0  0  0
  146.2654  134.8119  161.7178 C   0  0  0  0  0  0  0  0  0  0  0  0
  144.9922  134.9398  162.4010 N   0  0  0  0  0  0  0  0  0  0  0  0
  144.1388  133.7748  162.4221 C   0  0  0  0  0  0  0  0  0  0  0  0
  142.7587  134.3247  162.8241 C   0  0  0  0  0  0  0  0  0  0  0  0
  142.8323  135.8319  162.4919 C   0  0  0  0  0  0  0  0  0  0  0  0
  144.1828  135.9560  161.7847 C   0  0  1  0  0  0  0  0  0  0  0  0
  144.8906  137.3175  161.8322 C   0  0  0  0  0  0  0  0  0  0  0  0
  146.1513  137.1803  161.1730 O   0  0  0  0  0  0  0  0  0  0  0  0
  148.7634  137.8082  157.7573 N   0  0  0  0  0  0  0  0  0  0  0  0
  149.4000  138.1328  156.5214 C   0  0  0  0  0  0  0  0  0  0  0  0
  150.5390  137.4531  156.0206 C   0  0  0  0  0  0  0  0  0  0  0  0
  151.0881  137.8450  154.7866 C   0  0  0  0  0  0  0  0  0  0  0  0
  150.4834  138.9063  154.0925 C   0  0  0  0  0  0  0  0  0  0  0  0
  149.4040  139.5674  154.5548 N   0  0  0  0  0  0  0  0  0  0  0  0
  148.8639  139.1940  155.7409 C   0  0  0  0  0  0  0  0  0  0  0  0
  147.7560  139.9301  156.2112 N   0  0  0  0  0  0  0  0  0  0  0  0
  148.0900  141.3015  156.5859 C   0  0  0  0  0  0  0  0  0  0  0  0
  146.9077  142.1713  156.1534 C   0  0  0  0  0  0  0  0  0  0  0  0
  146.3146  141.3900  154.9877 C   0  0  0  0  0  0  0  0  0  0  0  0
  146.5243  139.9413  155.4235 C   0  0  0  0  0  0  0  0  0  0  0  0
  147.3940  137.4932  159.6029 H   0  0  0  0  0  0  0  0  0  0  0  0
  148.5744  135.0882  160.6759 H   0  0  0  0  0  0  0  0  0  0  0  0
  149.1317  136.5079  161.5263 H   0  0  0  0  0  0  0  0  0  0  0  0
  147.2342  136.4394  162.7605 H   0  0  0  0  0  0  0  0  0  0  0  0
  146.1062  134.4834  160.6895 H   0  0  0  0  0  0  0  0  0  0  0  0
  146.8724  134.0480  162.2049 H   0  0  0  0  0  0  0  0  0  0  0  0
  144.0856  133.3288  161.4275 H   0  0  0  0  0  0  0  0  0  0  0  0
  144.5077  133.0170  163.1139 H   0  0  0  0  0  0  0  0  0  0  0  0
  141.9609  133.8233  162.2754 H   0  0  0  0  0  0  0  0  0  0  0  0
  142.5754  134.1802  163.8894 H   0  0  0  0  0  0  0  0  0  0  0  0
  142.0064  136.1657  161.8634 H   0  0  0  0  0  0  0  0  0  0  0  0
  142.8211  136.4209  163.4102 H   0  0  0  0  0  0  0  0  0  0  0  0
  144.0297  135.6953  160.7352 H   0  0  0  0  0  0  0  0  0  0  0  0
  144.2984  138.0788  161.3246 H   0  0  0  0  0  0  0  0  0  0  0  0
  145.0419  137.6502  162.8602 H   0  0  0  0  0  0  0  0  0  0  0  0
  147.8588  138.2376  157.8853 H   0  0  0  0  0  0  0  0  0  0  0  0
  151.0132  136.6415  156.5468 H   0  0  0  0  0  0  0  0  0  0  0  0
  151.9545  137.3426  154.3831 H   0  0  0  0  0  0  0  0  0  0  0  0
  150.8781  139.2355  153.1427 H   0  0  0  0  0  0  0  0  0  0  0  0
  148.2705  141.3816  157.6580 H   0  0  0  0  0  0  0  0  0  0  0  0
  148.9964  141.6241  156.0706 H   0  0  0  0  0  0  0  0  0  0  0  0
  146.1791  142.2356  156.9625 H   0  0  0  0  0  0  0  0  0  0  0  0
  147.2037  143.1852  155.8832 H   0  0  0  0  0  0  0  0  0  0  0  0
  145.2683  141.6304  154.7983 H   0  0  0  0  0  0  0  0  0  0  0  0
  146.8816  141.5909  154.0777 H   0  0  0  0  0  0  0  0  0  0  0  0
  146.5263  139.2570  154.5748 H   0  0  0  0  0  0  0  0  0  0  0  0
  145.7102  139.6294  156.0785 H   0  0  0  0  0  0  0  0  0  0  0  0
  1  2  2  0  0  0  0
  2  3  1  0  0  0  0
  2 14  1  0  0  0  0
  3  4  1  0  0  0  0
  3 26  1  0  0  0  0
  4  5  1  0  0  0  0
  4 27  1  0  0  0  0
  4 28  1  0  0  0  0
  5 13  1  0  0  0  0
  5  6  1  0  0  0  0
  5 29  1  0  0  0  0
  6  7  1  0  0  0  0
  6 30  1  0  0  0  0
  6 31  1  0  0  0  0
  7 11  1  0  0  0  0
  7  8  1  0  0  0  0
  8  9  1  0  0  0  0
  8 32  1  0  0  0  0
  8 33  1  0  0  0  0
  9 10  1  0  0  0  0
  9 34  1  0  0  0  0
  9 35  1  0  0  0  0
 10 11  1  0  0  0  0
 10 36  1  0  0  0  0
 10 37  1  0  0  0  0
 11 12  1  0  0  0  0
 11 38  1  0  0  0  0
 12 13  1  0  0  0  0
 12 39  1  0  0  0  0
 12 40  1  0  0  0  0
 14 15  1  0  0  0  0
 14 41  1  0  0  0  0
 15 20  1  0  0  0  0
 15 16  2  0  0  0  0
 16 17  1  0  0  0  0
 16 42  1  0  0  0  0
 17 18  2  0  0  0  0
 17 43  1  0  0  0  0
 18 19  1  0  0  0  0
 18 44  1  0  0  0  0
 19 20  2  0  0  0  0
 20 21  1  0  0  0  0
 21 25  1  0  0  0  0
 21 22  1  0  0  0  0
 22 23  1  0  0  0  0
 22 45  1  0  0  0  0
 22 46  1  0  0  0  0
 23 24  1  0  0  0  0
 23 47  1  0  0  0  0
 23 48  1  0  0  0  0
 24 25  1  0  0  0  0
 24 49  1  0  0  0  0
 24 50  1  0  0  0  0
 25 51  1  0  0  0  0
 25 52  1  0  0  0  0
M  END
> <s_m_source_file>
AV-unprocessed.smi

> <i_m_source_file_index>
1830

> <i_lp_mmshare_version>
43012

> <i_f3d_flags>
0

> <s_epik_input>
W0NIMl0xW0NIMl1bQ0gyXVtDQEhdKE4xMilbQ0gyXU9bQ0BASF0oW0NIMl0yKVtDSDJdW05IXUMoPU8pW05IXWMzW2NIXVtjSF1bY0hdbmMzTjRbQ0gyXVtDSDJdW0NIMl1bQ0gyXTQ=

> <s_epik_cmdline>
J2VwaWtfcHl0aG9uJywgJy1waCcsICc3LjAnLCAnLXRuJywgJzgnLCAnLW1hJywgJzIwMCcsICctbWV0YWxfYmluZGluZycsICctaW1hZScsICc8aW5maWxlLm1hZT4nLCAnLW9tYWUnLCAnPG91dGZpbGUubWFlPic=

> <r_lp_tautomer_probability>
1

> <r_epik_Ionization_Penalty>
1.16487

> <r_epik_Ionization_Penalty_Charging>
0

> <r_epik_Ionization_Penalty_Neutral>
1.16487

> <r_epik_State_Penalty>
1.21807

> <r_epik_Charging_Adjusted_Penalty>
1.21807

> <i_epik_Tot_Q>
0

> <i_epik_Tot_abs_Q>
0

> <r_epik_Metal_State_Penalty>
1.19922

> <b_epik_Metal_Only>
0

> <s_lp_Force_Field>
OPLS_2005

> <r_lp_Energy>
77.1598

> <b_lp_Chiralities_Consistent>
1

> <s_lp_Variant>
AV-unprocessed.smi:1830-9

> <Gold.Version>
5.8.1

> <Gold.Id.Protein>
6NUR|6NUR_protein|mol2

> <Gold.PLP.Fitness>
41.7085

> <Gold.PLP.PLP>
-34.2697

> <Gold.PLP.part.hbond>
-2.0000

> <Gold.PLP.part.metal>
0.0000

> <Gold.PLP.part.buried>
-6.4216

> <Gold.PLP.part.nonpolar>
-26.1609

> <Gold.PLP.part.repulsive>
0.4366

> <Gold.PLP.ligand.clash>
0.0000

> <Gold.PLP.ligand.torsion>
0.8397

> <Gold.PLP.Chemscore.Hbond>
2.0000

> <Gold.PLP.Chemscore.CHOScore>
1.0000

> <Gold.PLP.Chemscore.Metal>
0.0000

> <Gold.Chemscore.Hbonds>
donor molecule, donor type, donor heavy atom, donor atom, acceptor molecule, acceptor atom, score
      P1  H  6896  6909       L1     1  1.00
      P1  H  6934  6947       L1    13  0.80
      L1  C    18    44       P1  7957  0.98

> <Gold.PLP.Chemscore.Internal.Correction>
0.1181

> <Gold.Rescore>
     Score         DG    S(hbond)    S(metal)    S(lipo)     H(rot)  DE(clash)    DE(int)     intcor
     15.98     -17.82       1.86        0.00      82.35       1.37       0.02       1.82       ----

> <Gold.Chemscore.Fitness>
15.9779

> <Gold.Chemscore.DG>
-17.8171

> <Gold.Chemscore.ZeroCoef>
-5.4800

> <Gold.Chemscore.Hbond>
1.8627

> <Gold.Chemscore.Metal>
0.0000

> <Gold.Chemscore.Lipo>
82.3451

> <Gold.Chemscore.Internal_Hbond>
0.0000

> <Gold.Chemscore.DEClash>
0.0239

> <Gold.Chemscore.DEInternal>
1.8153

> <Gold.Chemscore.Rot>
1.3746

> <Gold.Chemscore.Internal.Correction>
   9.000000E+99

> <Gold.Chemscore.Hbonds>
donor molecule, donor type, donor heavy atom, donor atom, acceptor molecule, acceptor atom, score
      P1  H  6896  6909       L1     1  0.97
      P1  H  6934  6947       L1    13  0.53

> <Gold.Chemscore.Hbond.Weighted>
-6.2216

> <Gold.Chemscore.Metal.Weighted>
-0.0000

> <Gold.Chemscore.Lipo.Weighted>
-9.6344

> <Gold.Chemscore.Internal_Hbond.Weighted>
0.0000

> <Gold.Chemscore.DEClash.Weighted>
0.0239

> <Gold.Chemscore.DEInternal.Weighted>
1.8153

> <Gold.Chemscore.Rot.Weighted>
3.5189

> <Gold.Chemscore.Internal.Correction.Weighted>
   9.000000E+99

> <Gold.Protein.RotatedTorsions>
[ 6907 6896 6895 6894 ] final   65.77 input  -60.11 | X-H torsion
[ 7974 7965 7964 7962 ] final  114.39 input  175.53 | X-H torsion
[ 8008 7997 7996 7995 ] final  -97.28 input   59.86 | X-H torsion
[ 10167 10162 10161 10158 ] final   33.72 input  -65.29 | X-H torsion
[ 10718 10713 10712 10709 ] final  -24.03 input   66.30 | X-H torsion
[ 10763 10752 10751 10750 ] final -168.56 input  -60.55 | X-H torsion
[ 11005 11000 10999 10996 ] final  128.56 input  -57.11 | X-H torsion

> <Gold.Protein.ActiveResidues>
 VAL166  LYS551  ARG553  GLY616  TRP617  ASP618  TYR619  PRO620  LYS621  CYS622 
 ASP623  PHE694  ASN695  SER759  ASP760  ASP761  ALA762  ILE779  LEU786  VAL792 
 PHE793  MET794  SER795  GLU796  ALA797  LYS798  CYS799  TRP800  GLU811  SER814 

> <Gold.Protein.RotatedAtoms>
  152.4432  134.5548  159.9876 H   0  0  0  0  0  0  0  0  0  0  0  0  # atno 6907 bound_to 6896
  151.5640  133.3393  159.2984 H   0  0  0  0  0  0  0  0  0  0  0  0  # atno 6908 bound_to 6896
  150.8343  134.7642  159.6943 H   0  0  0  0  0  0  0  0  0  0  0  0  # atno 6909 bound_to 6896
  145.2050  139.2933  143.4298 H   0  0  0  0  0  0  0  0  0  0  0  0  # atno 7974 bound_to 7965
  154.7857  140.0464  157.1162 H   0  0  0  0  0  0  0  0  0  0  0  0  # atno 8008 bound_to 7997
  154.9651  140.3082  155.4993 H   0  0  0  0  0  0  0  0  0  0  0  0  # atno 8009 bound_to 7997
  156.2943  140.2263  156.4740 H   0  0  0  0  0  0  0  0  0  0  0  0  # atno 8010 bound_to 7997
  140.4382  144.1227  150.6169 H   0  0  0  0  0  0  0  0  0  0  0  0  # atno 10167 bound_to 10162
  156.4831  130.4549  149.6799 H   0  0  0  0  0  0  0  0  0  0  0  0  # atno 10718 bound_to 10713
  154.6616  135.2926  154.9859 H   0  0  0  0  0  0  0  0  0  0  0  0  # atno 10763 bound_to 10752
  154.0917  135.6590  153.4857 H   0  0  0  0  0  0  0  0  0  0  0  0  # atno 10764 bound_to 10752
  153.0433  135.5221  154.7569 H   0  0  0  0  0  0  0  0  0  0  0  0  # atno 10765 bound_to 10752
  139.9567  134.9611  156.9020 H   0  0  0  0  0  0  0  0  0  0  0  0  # atno 11005 bound_to 11000
  146.3409  140.2308  142.8593 LP  0  0  0  0  0  0  0  0  0  0  0  0  # atno 17320 bound_to 7965
  144.9910  140.8547  143.5339 LP  0  0  0  0  0  0  0  0  0  0  0  0  # atno 17321 bound_to 7965
  140.4349  143.2551  151.9547 LP  0  0  0  0  0  0  0  0  0  0  0  0  # atno 17342 bound_to 10162
  139.4788  144.5709  151.8090 LP  0  0  0  0  0  0  0  0  0  0  0  0  # atno 17343 bound_to 10162
  156.3501  130.7428  151.2386 LP  0  0  0  0  0  0  0  0  0  0  0  0  # atno 17370 bound_to 10713
  157.7481  131.0379  150.4479 LP  0  0  0  0  0  0  0  0  0  0  0  0  # atno 17371 bound_to 10713
  140.5592  134.0551  155.7393 LP  0  0  0  0  0  0  0  0  0  0  0  0  # atno 17394 bound_to 11000
  141.1240  133.9414  157.2673 LP  0  0  0  0  0  0  0  0  0  0  0  0  # atno 17395 bound_to 11000

$$$$
