AV-unprocessed.smi:332|AV-procd|sdf|2357|dock6
  -GOLD-   2262022273D 1   1.00000     0.00000
 Structure written by MMmdl.
 42 44  0  0  0  0  0  0  0  0  1 V2000
  151.3367  139.8044  154.7787 C   0  0  0  0  0  0  0  0  0  0  0  0
  150.1954  140.6690  155.3383 C   0  0  1  0  0  0  0  0  0  0  0  0
  150.7546  141.8941  155.9066 N   0  0  0  0  0  0  0  0  0  0  0  0
  150.3538  142.4909  157.0396 C   0  0  0  0  0  0  0  0  0  0  0  0
  149.4413  142.0587  157.7455 O   0  0  0  0  0  0  0  0  0  0  0  0
  151.1134  143.7714  157.4176 C   0  0  0  0  0  0  0  0  0  0  0  0
  151.4299  143.8731  158.8523 N   0  0  0  0  0  0  0  0  0  0  0  0
  150.9311  144.9990  159.5375 C   0  0  0  0  0  0  0  0  0  0  0  0
  151.1605  145.1936  160.8458 C   0  0  0  0  0  0  0  0  0  0  0  0
  151.9421  144.2088  161.5553 C   0  0  0  0  0  0  0  0  0  0  0  0
  152.4206  143.1261  160.9107 C   0  0  0  0  0  0  0  0  0  0  0  0
  152.1724  142.9093  159.4805 C   0  0  0  0  0  0  0  0  0  0  0  0
  152.6050  141.9225  158.8844 O   0  0  0  0  0  0  0  0  0  0  0  0
  149.1458  141.0387  154.2637 C   0  0  2  0  0  0  0  0  0  0  0  0
  148.1123  142.0990  154.7102 C   0  0  0  0  0  0  0  0  0  0  0  0
  146.7674  141.4602  154.3167 C   0  0  2  0  0  0  0  0  0  0  0  0
  146.4445  140.3207  155.3004 C   0  0  0  0  0  0  0  0  0  0  0  0
  147.4430  139.2250  154.8859 C   0  0  0  0  0  0  0  0  0  0  0  0
  148.2360  139.8965  153.7456 C   0  0  1  0  0  0  0  0  0  0  0  0
  147.1335  140.6914  153.0524 C   0  0  0  0  0  0  0  0  0  0  0  0
  150.9647  138.8523  154.4004 H   0  0  0  0  0  0  0  0  0  0  0  0
  152.0733  139.5790  155.5505 H   0  0  0  0  0  0  0  0  0  0  0  0
  151.8541  140.3090  153.9620 H   0  0  0  0  0  0  0  0  0  0  0  0
  149.6993  140.1088  156.1314 H   0  0  0  0  0  0  0  0  0  0  0  0
  151.5110  142.3231  155.3937 H   0  0  0  0  0  0  0  0  0  0  0  0
  152.0264  143.8250  156.8221 H   0  0  0  0  0  0  0  0  0  0  0  0
  150.5195  144.6312  157.1033 H   0  0  0  0  0  0  0  0  0  0  0  0
  150.3505  145.6841  158.9367 H   0  0  0  0  0  0  0  0  0  0  0  0
  150.7679  146.0615  161.3549 H   0  0  0  0  0  0  0  0  0  0  0  0
  152.1426  144.3397  162.6084 H   0  0  0  0  0  0  0  0  0  0  0  0
  153.0017  142.3988  161.4586 H   0  0  0  0  0  0  0  0  0  0  0  0
  149.6840  141.4377  153.4015 H   0  0  0  0  0  0  0  0  0  0  0  0
  148.1565  142.3167  155.7783 H   0  0  0  0  0  0  0  0  0  0  0  0
  148.2721  143.0369  154.1768 H   0  0  0  0  0  0  0  0  0  0  0  0
  145.9574  142.1812  154.2024 H   0  0  0  0  0  0  0  0  0  0  0  0
  146.5673  140.6239  156.3409 H   0  0  0  0  0  0  0  0  0  0  0  0
  145.4188  139.9723  155.1722 H   0  0  0  0  0  0  0  0  0  0  0  0
  148.0674  138.8852  155.7110 H   0  0  0  0  0  0  0  0  0  0  0  0
  146.9071  138.3525  154.5095 H   0  0  0  0  0  0  0  0  0  0  0  0
  148.7521  139.1872  153.0980 H   0  0  0  0  0  0  0  0  0  0  0  0
  146.3210  140.0687  152.6736 H   0  0  0  0  0  0  0  0  0  0  0  0
  147.4979  141.3315  152.2469 H   0  0  0  0  0  0  0  0  0  0  0  0
  1  2  1  0  0  0  0
  1 21  1  0  0  0  0
  1 22  1  0  0  0  0
  1 23  1  0  0  0  0
  2  3  1  0  0  0  0
  2 14  1  0  0  0  0
  2 24  1  0  0  0  0
  3  4  1  0  0  0  0
  3 25  1  0  0  0  0
  4  5  2  0  0  0  0
  4  6  1  0  0  0  0
  6  7  1  0  0  0  0
  6 26  1  0  0  0  0
  6 27  1  0  0  0  0
  7 12  1  0  0  0  0
  7  8  1  0  0  0  0
  8  9  2  0  0  0  0
  8 28  1  0  0  0  0
  9 10  1  0  0  0  0
  9 29  1  0  0  0  0
 10 11  2  0  0  0  0
 10 30  1  0  0  0  0
 11 12  1  0  0  0  0
 11 31  1  0  0  0  0
 12 13  2  0  0  0  0
 14 19  1  0  0  0  0
 14 15  1  0  0  0  0
 14 32  1  0  0  0  0
 15 16  1  0  0  0  0
 15 33  1  0  0  0  0
 15 34  1  0  0  0  0
 16 20  1  0  0  0  0
 16 17  1  0  0  0  0
 16 35  1  0  0  0  0
 17 18  1  0  0  0  0
 17 36  1  0  0  0  0
 17 37  1  0  0  0  0
 18 19  1  0  0  0  0
 18 38  1  0  0  0  0
 18 39  1  0  0  0  0
 19 20  1  0  0  0  0
 19 40  1  0  0  0  0
 20 41  1  0  0  0  0
 20 42  1  0  0  0  0
M  END
> <s_m_source_file>
AV-unprocessed.smi

> <i_m_source_file_index>
332

> <i_lp_mmshare_version>
43012

> <i_f3d_flags>
0

> <s_epik_input>
W0NIMl0xW0NIMl1bQ0BIXShbQ0gyXTIpW0NAQEhdKFtDSDJdW0NAQEhdMTIpW0NASF0oW0NIM10pW05IXUMoPU8pW0NIMl1uM1tjSF1bY0hdW2NIXVtjSF1jMz1P

> <s_epik_cmdline>
J2VwaWtfcHl0aG9uJywgJy1waCcsICc3LjAnLCAnLXRuJywgJzgnLCAnLW1hJywgJzIwMCcsICctbWV0YWxfYmluZGluZycsICctaW1hZScsICc8aW5maWxlLm1hZT4nLCAnLW9tYWUnLCAnPG91dGZpbGUubWFlPic=

> <r_lp_tautomer_probability>
1

> <r_epik_Ionization_Penalty>
4.05802e-07

> <r_epik_Ionization_Penalty_Charging>
3.84175e-07

> <r_epik_Ionization_Penalty_Neutral>
2.16269e-08

> <r_epik_State_Penalty>
-0

> <r_epik_Charging_Adjusted_Penalty>
3.84175e-07

> <i_epik_Tot_Q>
0

> <i_epik_Tot_abs_Q>
0

> <r_epik_Metal_State_Penalty>
-0

> <b_epik_Metal_Only>
0

> <s_lp_Force_Field>
OPLS_2005

> <r_lp_Energy>
60.6372

> <b_lp_Chiralities_Consistent>
1

> <s_lp_Variant>
AV-unprocessed.smi:332-6

> <Gold.Version>
5.8.1

> <Gold.Id.Protein>
6NUR|6NUR_protein|mol2

> <Gold.PLP.Fitness>
43.5319

> <Gold.PLP.PLP>
-44.8819

> <Gold.PLP.part.hbond>
0.0000

> <Gold.PLP.part.metal>
0.0000

> <Gold.PLP.part.buried>
-2.2370

> <Gold.PLP.part.nonpolar>
-42.6175

> <Gold.PLP.part.repulsive>
0.2454

> <Gold.PLP.ligand.clash>
0.0000

> <Gold.PLP.ligand.torsion>
0.6834

> <Gold.PLP.Chemscore.Hbond>
0.0000

> <Gold.PLP.Chemscore.CHOScore>
0.0000

> <Gold.PLP.Chemscore.Metal>
0.0000

> <Gold.PLP.Chemscore.Internal.Correction>
0.0169

> <Gold.Rescore>
     Score         DG    S(hbond)    S(metal)    S(lipo)     H(rot)  DE(clash)    DE(int)     intcor
     12.03     -14.43       0.00        0.00     110.20       1.54       1.30       1.10       ----

> <Gold.Chemscore.Fitness>
12.0335

> <Gold.Chemscore.DG>
-14.4316

> <Gold.Chemscore.ZeroCoef>
-5.4800

> <Gold.Chemscore.Hbond>
0.0000

> <Gold.Chemscore.Metal>
0.0000

> <Gold.Chemscore.Lipo>
110.2005

> <Gold.Chemscore.Internal_Hbond>
0.0000

> <Gold.Chemscore.DEClash>
1.2976

> <Gold.Chemscore.DEInternal>
1.1005

> <Gold.Chemscore.Rot>
1.5398

> <Gold.Chemscore.Internal.Correction>
   9.000000E+99

> <Gold.Chemscore.Hbond.Weighted>
-0.0000

> <Gold.Chemscore.Metal.Weighted>
-0.0000

> <Gold.Chemscore.Lipo.Weighted>
-12.8935

> <Gold.Chemscore.Internal_Hbond.Weighted>
0.0000

> <Gold.Chemscore.DEClash.Weighted>
1.2976

> <Gold.Chemscore.DEInternal.Weighted>
1.1005

> <Gold.Chemscore.Rot.Weighted>
3.9419

> <Gold.Chemscore.Internal.Correction.Weighted>
   9.000000E+99

> <Gold.Protein.RotatedTorsions>
[ 6907 6896 6895 6894 ] final   76.72 input  -60.11 | X-H torsion
[ 7974 7965 7964 7962 ] final -108.38 input  175.53 | X-H torsion
[ 8008 7997 7996 7995 ] final  -71.98 input   59.86 | X-H torsion
[ 10167 10162 10161 10158 ] final  -54.14 input  -65.29 | X-H torsion
[ 10718 10713 10712 10709 ] final -127.39 input   66.30 | X-H torsion
[ 10763 10752 10751 10750 ] final -165.39 input  -60.55 | X-H torsion
[ 11005 11000 10999 10996 ] final  -19.04 input  -57.11 | X-H torsion

> <Gold.Protein.ActiveResidues>
 VAL166  LYS551  ARG553  GLY616  TRP617  ASP618  TYR619  PRO620  LYS621  CYS622 
 ASP623  PHE694  ASN695  SER759  ASP760  ASP761  ALA762  ILE779  LEU786  VAL792 
 PHE793  MET794  SER795  GLU796  ALA797  LYS798  CYS799  TRP800  GLU811  SER814 

> <Gold.Protein.RotatedAtoms>
  152.5086  134.3926  159.9388 H   0  0  0  0  0  0  0  0  0  0  0  0  # atno 6907 bound_to 6896
  151.3886  133.3790  159.2726 H   0  0  0  0  0  0  0  0  0  0  0  0  # atno 6908 bound_to 6896
  150.9450  134.8876  159.7695 H   0  0  0  0  0  0  0  0  0  0  0  0  # atno 6909 bound_to 6896
  145.1936  140.9025  143.3410 H   0  0  0  0  0  0  0  0  0  0  0  0  # atno 7974 bound_to 7965
  154.5130  140.0805  156.8027 H   0  0  0  0  0  0  0  0  0  0  0  0  # atno 8008 bound_to 7997
  155.3742  140.3424  155.4226 H   0  0  0  0  0  0  0  0  0  0  0  0  # atno 8009 bound_to 7997
  156.1596  140.1584  156.8622 H   0  0  0  0  0  0  0  0  0  0  0  0  # atno 8010 bound_to 7997
  140.6447  143.2528  151.4894 H   0  0  0  0  0  0  0  0  0  0  0  0  # atno 10167 bound_to 10162
  156.1852  130.6759  151.0355 H   0  0  0  0  0  0  0  0  0  0  0  0  # atno 10718 bound_to 10713
  154.6936  135.2975  154.9444 H   0  0  0  0  0  0  0  0  0  0  0  0  # atno 10763 bound_to 10752
  154.0399  135.6659  153.4793 H   0  0  0  0  0  0  0  0  0  0  0  0  # atno 10764 bound_to 10752
  153.0630  135.5104  154.8042 H   0  0  0  0  0  0  0  0  0  0  0  0  # atno 10765 bound_to 10752
  140.8327  133.7984  155.9776 H   0  0  0  0  0  0  0  0  0  0  0  0  # atno 11005 bound_to 11000
  145.0017  139.3592  143.6164 LP  0  0  0  0  0  0  0  0  0  0  0  0  # atno 17320 bound_to 7965
  146.3431  139.9243  142.8762 LP  0  0  0  0  0  0  0  0  0  0  0  0  # atno 17321 bound_to 7965
  139.5657  144.2049  152.1760 LP  0  0  0  0  0  0  0  0  0  0  0  0  # atno 17342 bound_to 10162
  140.1330  144.5271  150.6791 LP  0  0  0  0  0  0  0  0  0  0  0  0  # atno 17343 bound_to 10162
  157.6894  131.0815  150.7150 LP  0  0  0  0  0  0  0  0  0  0  0  0  # atno 17370 bound_to 10713
  156.7207  130.4679  149.5523 LP  0  0  0  0  0  0  0  0  0  0  0  0  # atno 17371 bound_to 10713
  140.8980  134.2413  157.5058 LP  0  0  0  0  0  0  0  0  0  0  0  0  # atno 17394 bound_to 11000
  139.8704  134.9693  156.4662 LP  0  0  0  0  0  0  0  0  0  0  0  0  # atno 17395 bound_to 11000

$$$$
