AV-unprocessed.smi:516|AV-procd|sdf|2785|dock9
  -GOLD-   2262023263D 1   1.00000     0.00000
 Structure written by MMmdl.
 45 47  0  0  0  0  0  0  0  0  2 V2000
  146.6292  142.6630  154.1415 C   0  0  0  0  0  0  0  0  0  0  0  0
  147.9489  142.2163  153.8880 O   0  0  0  0  0  0  0  0  0  0  0  0
  148.3542  141.1809  154.7679 C   0  0  0  0  0  0  0  0  0  0  0  0
  149.5242  140.4009  154.1507 C   0  0  0  0  0  0  0  0  0  0  0  0
  149.5917  139.0297  154.6458 N   0  0  0  0  0  0  0  0  0  0  0  0
  148.5900  138.1107  154.6855 C   0  0  0  0  0  0  0  0  0  0  0  0
  147.1929  138.3794  154.2018 C   0  0  0  0  0  0  0  0  0  0  0  0
  146.8707  137.2314  153.3168 N   0  3  0  0  0  0  0  0  0  0  0  0
  146.4983  136.0192  154.0833 C   0  0  0  0  0  0  0  0  0  0  0  0
  146.2352  134.8394  153.1322 C   0  0  0  0  0  0  0  0  0  0  0  0
  145.2196  135.1941  152.2024 O   0  0  0  0  0  0  0  0  0  0  0  0
  145.6005  136.3021  151.3966 C   0  0  0  0  0  0  0  0  0  0  0  0
  145.8417  137.5315  152.2885 C   0  0  0  0  0  0  0  0  0  0  0  0
  148.9486  136.9314  155.2052 N   0  0  0  0  0  0  0  0  0  0  0  0
  150.2846  137.1183  155.5245 C   0  0  0  0  0  0  0  0  0  0  0  0
  150.6910  138.3694  155.1960 C   0  0  0  0  0  0  0  0  0  0  0  0
  152.0632  138.8379  155.4343 C   0  0  0  0  0  0  0  0  0  0  0  0
  152.4540  139.9682  155.1523 O   0  0  0  0  0  0  0  0  0  0  0  0
  152.8553  137.8935  155.9975 N   0  0  0  0  0  0  0  0  0  0  0  0
  152.5092  136.6175  156.3505 C   0  0  0  0  0  0  0  0  0  0  0  0
  153.3507  135.8754  156.8552 O   0  0  0  0  0  0  0  0  0  0  0  0
  151.2146  136.2222  156.1193 N   0  0  0  0  0  0  0  0  0  0  0  0
  150.7381  134.8832  156.4719 C   0  0  0  0  0  0  0  0  0  0  0  0
  153.8112  138.1625  156.1797 H   0  0  0  0  0  0  0  0  0  0  0  0
  146.3675  143.4512  153.4356 H   0  0  0  0  0  0  0  0  0  0  0  0
  146.5374  143.0696  155.1494 H   0  0  0  0  0  0  0  0  0  0  0  0
  145.9089  141.8523  154.0232 H   0  0  0  0  0  0  0  0  0  0  0  0
  148.6532  141.6071  155.7267 H   0  0  0  0  0  0  0  0  0  0  0  0
  147.5200  140.5042  154.9585 H   0  0  0  0  0  0  0  0  0  0  0  0
  149.4386  140.3887  153.0647 H   0  0  0  0  0  0  0  0  0  0  0  0
  150.4659  140.9076  154.3538 H   0  0  0  0  0  0  0  0  0  0  0  0
  146.5294  138.4005  155.0672 H   0  0  0  0  0  0  0  0  0  0  0  0
  147.0938  139.3342  153.6866 H   0  0  0  0  0  0  0  0  0  0  0  0
  147.2994  135.7591  154.7762 H   0  0  0  0  0  0  0  0  0  0  0  0
  145.6088  136.2233  154.6816 H   0  0  0  0  0  0  0  0  0  0  0  0
  147.1460  134.5531  152.6039 H   0  0  0  0  0  0  0  0  0  0  0  0
  145.9077  133.9668  153.6974 H   0  0  0  0  0  0  0  0  0  0  0  0
  146.4936  136.0590  150.8188 H   0  0  0  0  0  0  0  0  0  0  0  0
  144.8044  136.5078  150.6809 H   0  0  0  0  0  0  0  0  0  0  0  0
  144.9115  137.8261  152.7764 H   0  0  0  0  0  0  0  0  0  0  0  0
  146.1550  138.3688  151.6650 H   0  0  0  0  0  0  0  0  0  0  0  0
  151.4901  134.2544  156.9494 H   0  0  0  0  0  0  0  0  0  0  0  0
  150.3964  134.3624  155.5769 H   0  0  0  0  0  0  0  0  0  0  0  0
  149.8947  134.9580  157.1591 H   0  0  0  0  0  0  0  0  0  0  0  0
  147.7238  137.0051  152.8247 H   0  0  0  0  0  0  0  0  0  0  0  0
  1  2  1  0  0  0  0
  1 25  1  0  0  0  0
  1 26  1  0  0  0  0
  1 27  1  0  0  0  0
  2  3  1  0  0  0  0
  3  4  1  0  0  0  0
  3 28  1  0  0  0  0
  3 29  1  0  0  0  0
  4  5  1  0  0  0  0
  4 30  1  0  0  0  0
  4 31  1  0  0  0  0
  5 16  1  0  0  0  0
  5  6  1  0  0  0  0
  6  7  1  0  0  0  0
  6 14  2  0  0  0  0
  7  8  1  0  0  0  0
  7 32  1  0  0  0  0
  7 33  1  0  0  0  0
  8 13  1  0  0  0  0
  8  9  1  0  0  0  0
  8 45  1  0  0  0  0
  9 10  1  0  0  0  0
  9 34  1  0  0  0  0
  9 35  1  0  0  0  0
 10 11  1  0  0  0  0
 10 36  1  0  0  0  0
 10 37  1  0  0  0  0
 11 12  1  0  0  0  0
 12 13  1  0  0  0  0
 12 38  1  0  0  0  0
 12 39  1  0  0  0  0
 13 40  1  0  0  0  0
 13 41  1  0  0  0  0
 14 15  1  0  0  0  0
 15 22  1  0  0  0  0
 15 16  2  0  0  0  0
 16 17  1  0  0  0  0
 17 18  2  0  0  0  0
 17 19  1  0  0  0  0
 19 24  1  0  0  0  0
 19 20  1  0  0  0  0
 20 21  2  0  0  0  0
 20 22  1  0  0  0  0
 22 23  1  0  0  0  0
 23 42  1  0  0  0  0
 23 43  1  0  0  0  0
 23 44  1  0  0  0  0
M  CHG  1   8   1
M  END
> <s_m_source_file>
AV-unprocessed.smi

> <i_m_source_file_index>
516

> <i_lp_mmshare_version>
43012

> <i_f3d_flags>
0

> <s_epik_input>
W0NIM11uMWMoPU8pW25IXWMoPU8pYyhjMTIpbihbQ0gyXVtDSDJdT1tDSDNdKWMobjIpW0NIMl1OM1tDSDJdW0NIMl1PW0NIMl1bQ0gyXTM=

> <s_epik_cmdline>
J2VwaWtfcHl0aG9uJywgJy1waCcsICc3LjAnLCAnLXRuJywgJzgnLCAnLW1hJywgJzIwMCcsICctbWV0YWxfYmluZGluZycsICctaW1hZScsICc8aW5maWxlLm1hZT4nLCAnLW9tYWUnLCAnPG91dGZpbGUubWFlPic=

> <r_epik_Ionization_Penalty>
1.12077

> <r_epik_Ionization_Penalty_Charging>
1.12077

> <r_epik_Ionization_Penalty_Neutral>
4.43299e-09

> <r_epik_State_Penalty>
1.17893

> <r_epik_Charging_Adjusted_Penalty>
2.29969

> <i_epik_Tot_Q>
1

> <i_epik_Tot_abs_Q>
1

> <r_epik_Metal_State_Penalty>
1.32838

> <b_epik_Metal_Only>
0

> <s_lp_Force_Field>
OPLS_2005

> <r_lp_Energy>
36.1073

> <b_lp_Chiralities_Consistent>
1

> <s_lp_Variant>
AV-unprocessed.smi:516-2

> <Gold.Version>
5.8.1

> <Gold.Id.Protein>
6NUR|6NUR_protein|mol2

> <Gold.PLP.Fitness>
38.8593

> <Gold.PLP.PLP>
-27.4767

> <Gold.PLP.part.hbond>
-4.7170

> <Gold.PLP.part.metal>
0.0000

> <Gold.PLP.part.buried>
2.6459

> <Gold.PLP.part.nonpolar>
-25.8813

> <Gold.PLP.part.repulsive>
0.5887

> <Gold.PLP.ligand.clash>
0.0000

> <Gold.PLP.ligand.torsion>
0.6408

> <Gold.PLP.Chemscore.Hbond>
4.2028

> <Gold.PLP.Chemscore.CHOScore>
0.0000

> <Gold.PLP.Chemscore.Metal>
0.0000

> <Gold.Chemscore.Hbonds>
donor molecule, donor type, donor heavy atom, donor atom, acceptor molecule, acceptor atom, score
      L1  H     8    45       P1  7948  2.00
      P1  H  7989  7998       L1    18  0.62
      P1  H  7997  8009       L1    18  0.75
      P1  H  8011  8017       L1     2  0.02
      P1  H 10752 10764       L1    21  0.77

> <Gold.PLP.Chemscore.Internal.Correction>
0.0559

> <Gold.Rescore>
     Score         DG    S(hbond)    S(metal)    S(lipo)     H(rot)  DE(clash)    DE(int)     intcor
      9.78     -13.32       2.21        0.00      50.07       2.11       1.42       2.12       ----

> <Gold.Chemscore.Fitness>
9.7789

> <Gold.Chemscore.DG>
-13.3203

> <Gold.Chemscore.ZeroCoef>
-5.4800

> <Gold.Chemscore.Hbond>
2.2083

> <Gold.Chemscore.Metal>
0.0000

> <Gold.Chemscore.Lipo>
50.0699

> <Gold.Chemscore.Internal_Hbond>
0.0000

> <Gold.Chemscore.DEClash>
1.4203

> <Gold.Chemscore.DEInternal>
2.1212

> <Gold.Chemscore.Rot>
2.1069

> <Gold.Chemscore.Internal.Correction>
   9.000000E+99

> <Gold.Chemscore.Hbonds>
donor molecule, donor type, donor heavy atom, donor atom, acceptor molecule, acceptor atom, score
      L1  H     8    45       P1  7948  1.00
      P1  H  7989  7998       L1    18  0.55
      P1  H  7997  8009       L1    18  0.45
      P1  H  8011  8017       L1     2  0.02
      P1  H 10752 10764       L1    21  0.11

> <Gold.Chemscore.Hbond.Weighted>
-7.3757

> <Gold.Chemscore.Metal.Weighted>
-0.0000

> <Gold.Chemscore.Lipo.Weighted>
-5.8582

> <Gold.Chemscore.Internal_Hbond.Weighted>
0.0000

> <Gold.Chemscore.DEClash.Weighted>
1.4203

> <Gold.Chemscore.DEInternal.Weighted>
2.1212

> <Gold.Chemscore.Rot.Weighted>
5.3936

> <Gold.Chemscore.Internal.Correction.Weighted>
   9.000000E+99

> <Gold.Protein.RotatedTorsions>
[ 6907 6896 6895 6894 ] final   42.69 input  -60.11 | X-H torsion
[ 7974 7965 7964 7962 ] final   84.00 input  175.53 | X-H torsion
[ 8008 7997 7996 7995 ] final -141.39 input   59.86 | X-H torsion
[ 10167 10162 10161 10158 ] final   22.36 input  -65.29 | X-H torsion
[ 10718 10713 10712 10709 ] final  138.93 input   66.30 | X-H torsion
[ 10763 10752 10751 10750 ] final   26.85 input  -60.55 | X-H torsion
[ 11005 11000 10999 10996 ] final    7.77 input  -57.11 | X-H torsion

> <Gold.Protein.ActiveResidues>
 VAL166  LYS551  ARG553  GLY616  TRP617  ASP618  TYR619  PRO620  LYS621  CYS622 
 ASP623  PHE694  ASN695  SER759  ASP760  ASP761  ALA762  ILE779  LEU786  VAL792 
 PHE793  MET794  SER795  GLU796  ALA797  LYS798  CYS799  TRP800  GLU811  SER814 

> <Gold.Protein.RotatedAtoms>
  152.2110  134.8501  160.0497 H   0  0  0  0  0  0  0  0  0  0  0  0  # atno 6907 bound_to 6896
  151.9319  133.3608  159.3942 H   0  0  0  0  0  0  0  0  0  0  0  0  # atno 6908 bound_to 6896
  150.6976  134.4453  159.5355 H   0  0  0  0  0  0  0  0  0  0  0  0  # atno 6909 bound_to 6896
  145.6045  139.2358  143.2227 H   0  0  0  0  0  0  0  0  0  0  0  0  # atno 7974 bound_to 7965
  155.4770  140.0557  157.2972 H   0  0  0  0  0  0  0  0  0  0  0  0  # atno 8008 bound_to 7997
  154.4675  140.2025  156.0032 H   0  0  0  0  0  0  0  0  0  0  0  0  # atno 8009 bound_to 7997
  156.1000  140.3220  155.7933 H   0  0  0  0  0  0  0  0  0  0  0  0  # atno 8010 bound_to 7997
  140.5354  143.9769  150.6489 H   0  0  0  0  0  0  0  0  0  0  0  0  # atno 10167 bound_to 10162
  157.4199  131.1037  151.0365 H   0  0  0  0  0  0  0  0  0  0  0  0  # atno 10718 bound_to 10713
  153.0595  135.6551  154.0497 H   0  0  0  0  0  0  0  0  0  0  0  0  # atno 10763 bound_to 10752
  154.0168  135.2923  155.3387 H   0  0  0  0  0  0  0  0  0  0  0  0  # atno 10764 bound_to 10752
  154.6926  135.5276  153.8482 H   0  0  0  0  0  0  0  0  0  0  0  0  # atno 10765 bound_to 10752
  140.5445  134.0342  155.7915 H   0  0  0  0  0  0  0  0  0  0  0  0  # atno 11005 bound_to 11000
  146.1551  140.6869  142.9304 LP  0  0  0  0  0  0  0  0  0  0  0  0  # atno 17320 bound_to 7965
  144.7296  140.4630  143.6948 LP  0  0  0  0  0  0  0  0  0  0  0  0  # atno 17321 bound_to 7965
  140.3155  143.3170  152.0836 LP  0  0  0  0  0  0  0  0  0  0  0  0  # atno 17342 bound_to 10162
  139.4969  144.6608  151.6468 LP  0  0  0  0  0  0  0  0  0  0  0  0  # atno 17343 bound_to 10162
  157.1299  130.6097  149.5526 LP  0  0  0  0  0  0  0  0  0  0  0  0  # atno 17370 bound_to 10713
  155.9877  130.4917  150.7138 LP  0  0  0  0  0  0  0  0  0  0  0  0  # atno 17371 bound_to 10713
  141.1207  133.9465  157.2734 LP  0  0  0  0  0  0  0  0  0  0  0  0  # atno 17394 bound_to 11000
  139.9486  135.0179  156.8928 LP  0  0  0  0  0  0  0  0  0  0  0  0  # atno 17395 bound_to 11000

$$$$
