AV-unprocessed.smi:1927|AV-procd|sdf|7797|dock7
  -GOLD-   22720 9543D 1   1.00000     0.00000
 Structure written by MMmdl.
 34 35  0  0  0  0  0  0  0  0  1 V2000
  147.7863  132.9840  152.5854 C   0  0  0  0  0  0  0  0  0  0  0  0
  146.4674  133.0625  151.8335 C   0  0  0  0  0  0  0  0  0  0  0  0
  145.8696  131.8748  151.3610 C   0  0  0  0  0  0  0  0  0  0  0  0
  144.6507  131.9498  150.6657 C   0  0  0  0  0  0  0  0  0  0  0  0
  144.0775  133.2180  150.4708 C   0  0  0  0  0  0  0  0  0  0  0  0
  144.6415  134.3582  150.9190 N   0  0  0  0  0  0  0  0  0  0  0  0
  145.8179  134.3033  151.5928 C   0  0  0  0  0  0  0  0  0  0  0  0
  146.4685  135.4637  152.0996 N   0  0  0  0  0  0  0  0  0  0  0  0
  145.9200  136.5543  152.6637 C   0  0  0  0  0  0  0  0  0  0  0  0
  144.7138  136.7496  152.8156 O   0  0  0  0  0  0  0  0  0  0  0  0
  146.8655  137.4257  153.0445 N   0  0  0  0  0  0  0  0  0  0  0  0
  146.6245  138.7128  153.6892 C   0  0  0  0  0  0  0  0  0  0  0  0
  147.8431  139.6468  153.5741 C   0  0  1  0  0  0  0  0  0  0  0  0
  147.7585  140.9222  154.3906 C   0  0  0  0  0  0  0  0  0  0  0  0
  149.2218  141.3489  154.4706 C   0  0  0  0  0  0  0  0  0  0  0  0
  149.9875  140.1488  154.3994 O   0  0  0  0  0  0  0  0  0  0  0  0
  149.1354  139.0426  154.1212 C   0  0  0  0  0  0  0  0  0  0  0  0
  148.1333  131.9540  152.6733 H   0  0  0  0  0  0  0  0  0  0  0  0
  147.6769  133.3883  153.5922 H   0  0  0  0  0  0  0  0  0  0  0  0
  148.5567  133.5532  152.0644 H   0  0  0  0  0  0  0  0  0  0  0  0
  146.3372  130.9155  151.5278 H   0  0  0  0  0  0  0  0  0  0  0  0
  144.1678  131.0591  150.2919 H   0  0  0  0  0  0  0  0  0  0  0  0
  143.1413  133.3208  149.9425 H   0  0  0  0  0  0  0  0  0  0  0  0
  147.4752  135.4561  152.0327 H   0  0  0  0  0  0  0  0  0  0  0  0
  147.8302  137.1794  152.8775 H   0  0  0  0  0  0  0  0  0  0  0  0
  145.7308  139.1926  153.2861 H   0  0  0  0  0  0  0  0  0  0  0  0
  146.4151  138.5191  154.7414 H   0  0  0  0  0  0  0  0  0  0  0  0
  148.0020  139.9111  152.5269 H   0  0  0  0  0  0  0  0  0  0  0  0
  147.1208  141.6827  153.9389 H   0  0  0  0  0  0  0  0  0  0  0  0
  147.3769  140.7085  155.3903 H   0  0  0  0  0  0  0  0  0  0  0  0
  149.4830  141.9757  153.6173 H   0  0  0  0  0  0  0  0  0  0  0  0
  149.4413  141.9075  155.3809 H   0  0  0  0  0  0  0  0  0  0  0  0
  148.9482  138.5084  155.0539 H   0  0  0  0  0  0  0  0  0  0  0  0
  149.6012  138.3477  153.4219 H   0  0  0  0  0  0  0  0  0  0  0  0
  1  2  1  0  0  0  0
  1 18  1  0  0  0  0
  1 19  1  0  0  0  0
  1 20  1  0  0  0  0
  2  7  1  0  0  0  0
  2  3  2  0  0  0  0
  3  4  1  0  0  0  0
  3 21  1  0  0  0  0
  4  5  2  0  0  0  0
  4 22  1  0  0  0  0
  5  6  1  0  0  0  0
  5 23  1  0  0  0  0
  6  7  2  0  0  0  0
  7  8  1  0  0  0  0
  8  9  1  0  0  0  0
  8 24  1  0  0  0  0
  9 10  2  0  0  0  0
  9 11  1  0  0  0  0
 11 12  1  0  0  0  0
 11 25  1  0  0  0  0
 12 13  1  0  0  0  0
 12 26  1  0  0  0  0
 12 27  1  0  0  0  0
 13 17  1  0  0  0  0
 13 14  1  0  0  0  0
 13 28  1  0  0  0  0
 14 15  1  0  0  0  0
 14 29  1  0  0  0  0
 14 30  1  0  0  0  0
 15 16  1  0  0  0  0
 15 31  1  0  0  0  0
 15 32  1  0  0  0  0
 16 17  1  0  0  0  0
 17 33  1  0  0  0  0
 17 34  1  0  0  0  0
M  END
> <s_m_source_file>
AV-unprocessed.smi

> <i_m_source_file_index>
1927

> <i_lp_mmshare_version>
43012

> <i_f3d_flags>
0

> <s_epik_input>
W0NIM11jMVtjSF1bY0hdW2NIXW5jMVtOSF1DKD1PKVtOSF1bQ0gyXVtDQEBIXTJbQ0gyXVtDSDJdT1tDSDJdMg==

> <s_epik_cmdline>
J2VwaWtfcHl0aG9uJywgJy1waCcsICc3LjAnLCAnLXRuJywgJzgnLCAnLW1hJywgJzIwMCcsICctbWV0YWxfYmluZGluZycsICctaW1hZScsICc8aW5maWxlLm1hZT4nLCAnLW9tYWUnLCAnPG91dGZpbGUubWFlPic=

> <r_lp_tautomer_probability>
1

> <r_epik_Ionization_Penalty>
5.84082e-05

> <r_epik_Ionization_Penalty_Charging>
0

> <r_epik_Ionization_Penalty_Neutral>
5.84082e-05

> <r_epik_State_Penalty>
-0

> <r_epik_Charging_Adjusted_Penalty>
0

> <i_epik_Tot_Q>
0

> <i_epik_Tot_abs_Q>
0

> <r_epik_Metal_State_Penalty>
-0

> <b_epik_Metal_Only>
0

> <s_lp_Force_Field>
OPLS_2005

> <r_lp_Energy>
21.9437

> <b_lp_Chiralities_Consistent>
1

> <s_lp_Variant>
AV-unprocessed.smi:1927-2

> <Gold.Version>
5.8.1

> <Gold.Id.Protein>
6NUR|6NUR_protein|mol2

> <Gold.PLP.Fitness>
40.8802

> <Gold.PLP.PLP>
-30.0989

> <Gold.PLP.part.hbond>
-3.0000

> <Gold.PLP.part.metal>
0.0000

> <Gold.PLP.part.buried>
-2.0026

> <Gold.PLP.part.nonpolar>
-24.6270

> <Gold.PLP.part.repulsive>
0.5169

> <Gold.PLP.ligand.clash>
0.0000

> <Gold.PLP.ligand.torsion>
0.4441

> <Gold.PLP.Chemscore.Hbond>
2.8880

> <Gold.PLP.Chemscore.CHOScore>
1.0000

> <Gold.PLP.Chemscore.Metal>
0.0000

> <Gold.Chemscore.Hbonds>
donor molecule, donor type, donor heavy atom, donor atom, acceptor molecule, acceptor atom, score
      L1  H     8    24       P1  7948  1.00
      L1  H    11    25       P1  7948  0.91
      P1  H  7989  7998       L1    16  0.94
      L1  C     5    23       P1 10186  1.00

> <Gold.PLP.Chemscore.Internal.Correction>
0.0054

> <Gold.Rescore>
     Score         DG    S(hbond)    S(metal)    S(lipo)     H(rot)  DE(clash)    DE(int)     intcor
     17.48     -18.06       2.36        0.00      67.07       1.23       0.03       0.54       ----

> <Gold.Chemscore.Fitness>
17.4840

> <Gold.Chemscore.DG>
-18.0562

> <Gold.Chemscore.ZeroCoef>
-5.4800

> <Gold.Chemscore.Hbond>
2.3614

> <Gold.Chemscore.Metal>
0.0000

> <Gold.Chemscore.Lipo>
67.0709

> <Gold.Chemscore.Internal_Hbond>
0.0000

> <Gold.Chemscore.DEClash>
0.0299

> <Gold.Chemscore.DEInternal>
0.5423

> <Gold.Chemscore.Rot>
1.2337

> <Gold.Chemscore.Internal.Correction>
   9.000000E+99

> <Gold.Chemscore.Hbonds>
donor molecule, donor type, donor heavy atom, donor atom, acceptor molecule, acceptor atom, score
      L1  H     8    24       P1  7948  0.96
      L1  H    11    25       P1  7948  0.88
      P1  H  7989  7998       L1    16  0.19

> <Gold.Chemscore.Hbond.Weighted>
-7.8871

> <Gold.Chemscore.Metal.Weighted>
-0.0000

> <Gold.Chemscore.Lipo.Weighted>
-7.8473

> <Gold.Chemscore.Internal_Hbond.Weighted>
0.0000

> <Gold.Chemscore.DEClash.Weighted>
0.0299

> <Gold.Chemscore.DEInternal.Weighted>
0.5423

> <Gold.Chemscore.Rot.Weighted>
3.1582

> <Gold.Chemscore.Internal.Correction.Weighted>
   9.000000E+99

> <Gold.Protein.RotatedTorsions>
[ 6907 6896 6895 6894 ] final -116.27 input  -60.11 | X-H torsion
[ 7974 7965 7964 7962 ] final   83.29 input  175.53 | X-H torsion
[ 8008 7997 7996 7995 ] final  116.61 input   59.86 | X-H torsion
[ 10167 10162 10161 10158 ] final  -31.32 input  -65.29 | X-H torsion
[ 10718 10713 10712 10709 ] final -151.18 input   66.30 | X-H torsion
[ 10763 10752 10751 10750 ] final   33.11 input  -60.55 | X-H torsion
[ 11005 11000 10999 10996 ] final -126.89 input  -57.11 | X-H torsion

> <Gold.Protein.ActiveResidues>
 VAL166  LYS551  ARG553  GLY616  TRP617  ASP618  TYR619  PRO620  LYS621  CYS622 
 ASP623  PHE694  ASN695  SER759  ASP760  ASP761  ALA762  ILE779  LEU786  VAL792 
 PHE793  MET794  SER795  GLU796  ALA797  LYS798  CYS799  TRP800  GLU811  SER814 

> <Gold.Protein.RotatedAtoms>
  150.8043  133.8540  159.3213 H   0  0  0  0  0  0  0  0  0  0  0  0  # atno 6907 bound_to 6896
  151.6343  135.1018  160.0138 H   0  0  0  0  0  0  0  0  0  0  0  0  # atno 6908 bound_to 6896
  152.4132  133.6957  159.6451 H   0  0  0  0  0  0  0  0  0  0  0  0  # atno 6909 bound_to 6896
  145.6138  139.2373  143.2177 H   0  0  0  0  0  0  0  0  0  0  0  0  # atno 7974 bound_to 7965
  156.2448  140.2914  156.0549 H   0  0  0  0  0  0  0  0  0  0  0  0  # atno 8008 bound_to 7997
  155.1840  140.0405  157.2905 H   0  0  0  0  0  0  0  0  0  0  0  0  # atno 8009 bound_to 7997
  154.6240  140.2483  155.7521 H   0  0  0  0  0  0  0  0  0  0  0  0  # atno 8010 bound_to 7997
  140.7238  143.3780  151.1654 H   0  0  0  0  0  0  0  0  0  0  0  0  # atno 10167 bound_to 10162
  156.4558  130.8190  151.2420 H   0  0  0  0  0  0  0  0  0  0  0  0  # atno 10718 bound_to 10713
  153.0228  135.6395  154.1460 H   0  0  0  0  0  0  0  0  0  0  0  0  # atno 10763 bound_to 10752
  154.1192  135.2848  155.3214 H   0  0  0  0  0  0  0  0  0  0  0  0  # atno 10764 bound_to 10752
  154.6275  135.5504  153.7706 H   0  0  0  0  0  0  0  0  0  0  0  0  # atno 10765 bound_to 10752
  140.9644  134.0891  157.3935 H   0  0  0  0  0  0  0  0  0  0  0  0  # atno 11005 bound_to 11000
  146.1484  140.6960  142.9334 LP  0  0  0  0  0  0  0  0  0  0  0  0  # atno 17320 bound_to 7965
  144.7259  140.4522  143.6974 LP  0  0  0  0  0  0  0  0  0  0  0  0  # atno 17321 bound_to 7965
  139.7363  143.8993  152.3036 LP  0  0  0  0  0  0  0  0  0  0  0  0  # atno 17342 bound_to 10162
  139.8799  144.7023  150.8889 LP  0  0  0  0  0  0  0  0  0  0  0  0  # atno 17343 bound_to 10162
  157.7500  131.0123  150.3379 LP  0  0  0  0  0  0  0  0  0  0  0  0  # atno 17370 bound_to 10713
  156.3768  130.3873  149.7132 LP  0  0  0  0  0  0  0  0  0  0  0  0  # atno 17371 bound_to 10713
  139.8889  135.0101  156.6650 LP  0  0  0  0  0  0  0  0  0  0  0  0  # atno 17394 bound_to 11000
  140.7420  133.8970  155.8285 LP  0  0  0  0  0  0  0  0  0  0  0  0  # atno 17395 bound_to 11000

$$$$
