AV-unprocessed.smi:227|AV-procd|sdf|1741|dock5
  -GOLD-   2262020243D 1   1.00000     0.00000
 Structure written by MMmdl.
 54 58  0  0  0  0  0  0  0  0  1 V2000
  149.1844  141.2003  153.2874 O   0  0  0  0  0  0  0  0  0  0  0  0
  148.5556  140.4737  154.3224 C   0  0  0  0  0  0  0  0  0  0  0  0
  149.0656  139.0134  154.3663 C   0  0  2  0  0  0  0  0  0  0  0  0
  148.2598  138.1372  155.3646 C   0  0  0  0  0  0  0  0  0  0  0  0
  147.6682  136.9451  154.7739 N   0  0  0  0  0  0  0  0  0  0  0  0
  148.1112  135.6490  154.9048 C   0  0  0  0  0  0  0  0  0  0  0  0
  147.4023  134.7535  154.2760 N   0  0  0  0  0  0  0  0  0  0  0  0
  146.3964  135.4807  153.6499 C   0  0  0  0  0  0  0  0  0  0  0  0
  145.2880  135.1483  152.8142 C   0  0  0  0  0  0  0  0  0  0  0  0
  144.9556  133.8851  152.4260 N   0  0  0  0  0  0  0  0  0  0  0  0
  144.2151  133.6364  151.1972 C   0  0  1  0  0  0  0  0  0  0  0  0
  145.2479  133.8943  150.0824 C   0  0  0  0  0  0  0  0  0  0  0  0
  146.5377  133.3958  150.7520 C   0  0  0  0  0  0  0  0  0  0  0  0
  146.0055  132.9200  152.1238 C   0  0  2  0  0  0  0  0  0  0  0  0
  145.1898  131.6131  151.9997 C   0  0  2  0  0  0  0  0  0  0  0  0
  145.8756  130.4070  151.3299 C   0  0  0  0  0  0  0  0  0  0  0  0
  147.0597  130.0687  152.0199 O   0  0  0  0  0  0  0  0  0  0  0  0
  143.9340  132.1246  151.2726 C   0  0  0  0  0  0  0  0  0  0  0  0
  144.5266  136.1782  152.3580 N   0  0  0  0  0  0  0  0  0  0  0  0
  144.8043  137.4372  152.7044 C   0  0  0  0  0  0  0  0  0  0  0  0
  145.7862  137.8881  153.4848 N   0  0  0  0  0  0  0  0  0  0  0  0
  146.5650  136.8662  153.9404 C   0  0  0  0  0  0  0  0  0  0  0  0
  150.5933  138.9636  154.6332 C   0  0  1  0  0  0  0  0  0  0  0  0
  150.9797  138.9246  156.1025 C   0  0  0  0  0  0  0  0  0  0  0  0
  152.4191  138.4273  156.0445 C   0  0  0  0  0  0  0  0  0  0  0  0
  152.4740  137.5514  154.9250 O   0  0  0  0  0  0  0  0  0  0  0  0
  151.2952  137.6931  154.1382 C   0  0  0  0  0  0  0  0  0  0  0  0
  149.2488  140.6428  152.5262 H   0  0  0  0  0  0  0  0  0  0  0  0
  148.7808  140.9929  155.2533 H   0  0  0  0  0  0  0  0  0  0  0  0
  147.4737  140.5160  154.1940 H   0  0  0  0  0  0  0  0  0  0  0  0
  148.9029  138.5888  153.3744 H   0  0  0  0  0  0  0  0  0  0  0  0
  148.9028  137.8245  156.1878 H   0  0  0  0  0  0  0  0  0  0  0  0
  147.4636  138.7181  155.8301 H   0  0  0  0  0  0  0  0  0  0  0  0
  148.9792  135.3817  155.4886 H   0  0  0  0  0  0  0  0  0  0  0  0
  143.2941  134.2029  151.0746 H   0  0  0  0  0  0  0  0  0  0  0  0
  145.0143  133.3616  149.1600 H   0  0  0  0  0  0  0  0  0  0  0  0
  145.3201  134.9577  149.8505 H   0  0  0  0  0  0  0  0  0  0  0  0
  147.0496  132.6223  150.1820 H   0  0  0  0  0  0  0  0  0  0  0  0
  147.2397  134.2211  150.8772 H   0  0  0  0  0  0  0  0  0  0  0  0
  146.7855  132.8435  152.8821 H   0  0  0  0  0  0  0  0  0  0  0  0
  144.8947  131.3108  153.0064 H   0  0  0  0  0  0  0  0  0  0  0  0
  145.2084  129.5450  151.3513 H   0  0  0  0  0  0  0  0  0  0  0  0
  146.1028  130.5943  150.2812 H   0  0  0  0  0  0  0  0  0  0  0  0
  147.7974  130.2460  151.4563 H   0  0  0  0  0  0  0  0  0  0  0  0
  143.0406  131.9199  151.8637 H   0  0  0  0  0  0  0  0  0  0  0  0
  143.7924  131.6802  150.2866 H   0  0  0  0  0  0  0  0  0  0  0  0
  144.1449  138.1900  152.2984 H   0  0  0  0  0  0  0  0  0  0  0  0
  151.0797  139.8199  154.1642 H   0  0  0  0  0  0  0  0  0  0  0  0
  150.8951  139.8876  156.6049 H   0  0  0  0  0  0  0  0  0  0  0  0
  150.3591  138.2064  156.6403 H   0  0  0  0  0  0  0  0  0  0  0  0
  153.1020  139.2595  155.8687 H   0  0  0  0  0  0  0  0  0  0  0  0
  152.7252  137.9246  156.9621 H   0  0  0  0  0  0  0  0  0  0  0  0
  150.6687  136.8150  154.3016 H   0  0  0  0  0  0  0  0  0  0  0  0
  151.5424  137.7385  153.0774 H   0  0  0  0  0  0  0  0  0  0  0  0
  1  2  1  0  0  0  0
  1 28  1  0  0  0  0
  2  3  1  0  0  0  0
  2 29  1  0  0  0  0
  2 30  1  0  0  0  0
  3  4  1  0  0  0  0
  3 23  1  0  0  0  0
  3 31  1  0  0  0  0
  4  5  1  0  0  0  0
  4 32  1  0  0  0  0
  4 33  1  0  0  0  0
  5 22  1  0  0  0  0
  5  6  1  0  0  0  0
  6  7  2  0  0  0  0
  6 34  1  0  0  0  0
  7  8  1  0  0  0  0
  8 22  2  0  0  0  0
  8  9  1  0  0  0  0
  9 10  1  0  0  0  0
  9 19  2  0  0  0  0
 10 14  1  0  0  0  0
 10 11  1  0  0  0  0
 11 18  1  0  0  0  0
 11 12  1  0  0  0  0
 11 35  1  0  0  0  0
 12 13  1  0  0  0  0
 12 36  1  0  0  0  0
 12 37  1  0  0  0  0
 13 14  1  0  0  0  0
 13 38  1  0  0  0  0
 13 39  1  0  0  0  0
 14 15  1  0  0  0  0
 14 40  1  0  0  0  0
 15 16  1  0  0  0  0
 15 18  1  0  0  0  0
 15 41  1  0  0  0  0
 16 17  1  0  0  0  0
 16 42  1  0  0  0  0
 16 43  1  0  0  0  0
 17 44  1  0  0  0  0
 18 45  1  0  0  0  0
 18 46  1  0  0  0  0
 19 20  1  0  0  0  0
 20 21  2  0  0  0  0
 20 47  1  0  0  0  0
 21 22  1  0  0  0  0
 23 27  1  0  0  0  0
 23 24  1  0  0  0  0
 23 48  1  0  0  0  0
 24 25  1  0  0  0  0
 24 49  1  0  0  0  0
 24 50  1  0  0  0  0
 25 26  1  0  0  0  0
 25 51  1  0  0  0  0
 25 52  1  0  0  0  0
 26 27  1  0  0  0  0
 27 53  1  0  0  0  0
 27 54  1  0  0  0  0
M  END
> <s_m_source_file>
AV-unprocessed.smi

> <i_m_source_file_index>
227

> <i_lp_mmshare_version>
43012

> <i_f3d_flags>
0

> <s_epik_input>
W0NIMl0xT1tDSDJdW0NIMl1bQ0BIXTFbQ0BIXShbQ0gyXVtPSF0pW0NIMl1uKFtjSF1uMiljKGMyMyluW2NIXW5jM04oW0NASF00NSlbQ0BASF0oW0NIMl1bQ0gyXTQpW0NASF0oW0NIMl01KVtDSDJdW09IXQ==

> <s_epik_cmdline>
J2VwaWtfcHl0aG9uJywgJy1waCcsICc3LjAnLCAnLXRuJywgJzgnLCAnLW1hJywgJzIwMCcsICctbWV0YWxfYmluZGluZycsICctaW1hZScsICc8aW5maWxlLm1hZT4nLCAnLW9tYWUnLCAnPG91dGZpbGUubWFlPic=

> <r_lp_tautomer_probability>
1

> <r_epik_Ionization_Penalty>
0.0055791

> <r_epik_Ionization_Penalty_Charging>
0

> <r_epik_Ionization_Penalty_Neutral>
0.0055791

> <r_epik_State_Penalty>
0.00401299

> <r_epik_Charging_Adjusted_Penalty>
0.00401299

> <i_epik_Tot_Q>
0

> <i_epik_Tot_abs_Q>
0

> <r_epik_Metal_State_Penalty>
-0

> <b_epik_Metal_Only>
0

> <s_lp_Force_Field>
OPLS_2005

> <r_lp_Energy>
87.7083

> <b_lp_Chiralities_Consistent>
1

> <s_lp_Variant>
AV-unprocessed.smi:227-15

> <Gold.Version>
5.8.1

> <Gold.Id.Protein>
6NUR|6NUR_protein|mol2

> <Gold.PLP.Fitness>
45.9271

> <Gold.PLP.PLP>
-35.6224

> <Gold.PLP.part.hbond>
-4.7234

> <Gold.PLP.part.metal>
0.0000

> <Gold.PLP.part.buried>
-0.1923

> <Gold.PLP.part.nonpolar>
-31.1016

> <Gold.PLP.part.repulsive>
0.5603

> <Gold.PLP.ligand.clash>
0.0000

> <Gold.PLP.ligand.torsion>
2.0887

> <Gold.PLP.Chemscore.Hbond>
2.9037

> <Gold.PLP.Chemscore.CHOScore>
1.8714

> <Gold.PLP.Chemscore.Metal>
0.0000

> <Gold.Chemscore.Hbonds>
donor molecule, donor type, donor heavy atom, donor atom, acceptor molecule, acceptor atom, score
      L1  H     1    28       P1  7957  0.99
      L1  H    17    44       P1 10747  1.00
      P1  H  8011  8017       L1     1  0.30
      P1  H 10752 10765       L1    26  0.53
      L1  C    20    47       P1 10171  0.88
      L1  C    20    47       P1 10175  1.00

> <Gold.PLP.Chemscore.Internal.Correction>
0.1571

> <Gold.Rescore>
     Score         DG    S(hbond)    S(metal)    S(lipo)     H(rot)  DE(clash)    DE(int)     intcor
     12.97     -16.05       2.69        0.00      92.56       3.61       0.62       2.47       ----

> <Gold.Chemscore.Fitness>
12.9692

> <Gold.Chemscore.DG>
-16.0539

> <Gold.Chemscore.ZeroCoef>
-5.4800

> <Gold.Chemscore.Hbond>
2.6882

> <Gold.Chemscore.Metal>
0.0000

> <Gold.Chemscore.Lipo>
92.5610

> <Gold.Chemscore.Internal_Hbond>
0.0000

> <Gold.Chemscore.DEClash>
0.6153

> <Gold.Chemscore.DEInternal>
2.4694

> <Gold.Chemscore.Rot>
3.6071

> <Gold.Chemscore.Internal.Correction>
   9.000000E+99

> <Gold.Chemscore.Hbonds>
donor molecule, donor type, donor heavy atom, donor atom, acceptor molecule, acceptor atom, score
      L1  H     1    28       P1  7957  0.93
      L1  H    17    44       P1 10747  1.00
      P1  H 10752 10765       L1    26  0.10

> <Gold.Chemscore.Hbond.Weighted>
-8.9785

> <Gold.Chemscore.Metal.Weighted>
-0.0000

> <Gold.Chemscore.Lipo.Weighted>
-10.8296

> <Gold.Chemscore.Internal_Hbond.Weighted>
0.0000

> <Gold.Chemscore.DEClash.Weighted>
0.6153

> <Gold.Chemscore.DEInternal.Weighted>
2.4694

> <Gold.Chemscore.Rot.Weighted>
9.2342

> <Gold.Chemscore.Internal.Correction.Weighted>
   9.000000E+99

> <Gold.Protein.RotatedTorsions>
[ 6907 6896 6895 6894 ] final -100.94 input  -60.11 | X-H torsion
[ 7974 7965 7964 7962 ] final  -37.58 input  175.53 | X-H torsion
[ 8008 7997 7996 7995 ] final  -24.15 input   59.86 | X-H torsion
[ 10167 10162 10161 10158 ] final   -2.57 input  -65.29 | X-H torsion
[ 10718 10713 10712 10709 ] final   16.82 input   66.30 | X-H torsion
[ 10763 10752 10751 10750 ] final  166.00 input  -60.55 | X-H torsion
[ 11005 11000 10999 10996 ] final  149.71 input  -57.11 | X-H torsion

> <Gold.Protein.ActiveResidues>
 VAL166  LYS551  ARG553  GLY616  TRP617  ASP618  TYR619  PRO620  LYS621  CYS622 
 ASP623  PHE694  ASN695  SER759  ASP760  ASP761  ALA762  ILE779  LEU786  VAL792 
 PHE793  MET794  SER795  GLU796  ALA797  LYS798  CYS799  TRP800  GLU811  SER814 

> <Gold.Protein.RotatedAtoms>
  150.7135  134.0810  159.3897 H   0  0  0  0  0  0  0  0  0  0  0  0  # atno 6907 bound_to 6896
  151.8794  135.0457  160.0496 H   0  0  0  0  0  0  0  0  0  0  0  0  # atno 6908 bound_to 6896
  152.2579  133.5236  159.5401 H   0  0  0  0  0  0  0  0  0  0  0  0  # atno 6909 bound_to 6896
  146.0562  140.6412  142.9018 H   0  0  0  0  0  0  0  0  0  0  0  0  # atno 7974 bound_to 7965
  154.4545  140.1961  156.0421 H   0  0  0  0  0  0  0  0  0  0  0  0  # atno 8008 bound_to 7997
  156.0717  140.3283  155.7556 H   0  0  0  0  0  0  0  0  0  0  0  0  # atno 8009 bound_to 7997
  155.5253  140.0573  157.2890 H   0  0  0  0  0  0  0  0  0  0  0  0  # atno 8010 bound_to 7997
  140.6856  143.6642  150.8241 H   0  0  0  0  0  0  0  0  0  0  0  0  # atno 10167 bound_to 10162
  157.0733  130.6357  149.5810 H   0  0  0  0  0  0  0  0  0  0  0  0  # atno 10718 bound_to 10713
  154.3325  135.2754  155.2464 H   0  0  0  0  0  0  0  0  0  0  0  0  # atno 10763 bound_to 10752
  154.4770  135.5868  153.6366 H   0  0  0  0  0  0  0  0  0  0  0  0  # atno 10764 bound_to 10752
  152.9865  135.6102  154.3518 H   0  0  0  0  0  0  0  0  0  0  0  0  # atno 10765 bound_to 10752
  140.1068  134.8949  157.1878 H   0  0  0  0  0  0  0  0  0  0  0  0  # atno 11005 bound_to 11000
  144.7149  140.4175  143.7052 LP  0  0  0  0  0  0  0  0  0  0  0  0  # atno 17320 bound_to 7965
  145.6639  139.1586  143.2793 LP  0  0  0  0  0  0  0  0  0  0  0  0  # atno 17321 bound_to 7965
  140.0348  143.5406  152.2744 LP  0  0  0  0  0  0  0  0  0  0  0  0  # atno 17342 bound_to 10162
  139.6212  144.7629  151.2736 LP  0  0  0  0  0  0  0  0  0  0  0  0  # atno 17343 bound_to 10162
  155.9944  130.5008  150.7418 LP  0  0  0  0  0  0  0  0  0  0  0  0  # atno 17370 bound_to 10713
  157.4860  131.0906  151.0482 LP  0  0  0  0  0  0  0  0  0  0  0  0  # atno 17371 bound_to 10713
  140.3145  134.2986  155.7259 LP  0  0  0  0  0  0  0  0  0  0  0  0  # atno 17394 bound_to 11000
  141.2120  133.7671  156.9823 LP  0  0  0  0  0  0  0  0  0  0  0  0  # atno 17395 bound_to 11000

$$$$
