AV-unprocessed.smi:2703|AV-procd|sdf|10439|dock3
  -GOLD-   2272014483D 1   1.00000     0.00000
 Structure written by MMmdl.
 42 44  0  0  0  0  0  0  0  0  3 V2000
  154.7047  140.9372  161.9969 C   0  0  0  0  0  0  0  0  0  0  0  0
  153.6517  141.8399  161.3786 C   0  0  0  0  0  0  0  0  0  0  0  0
  153.1821  141.5559  160.0765 C   0  0  0  0  0  0  0  0  0  0  0  0
  152.2054  142.3718  159.4646 C   0  0  0  0  0  0  0  0  0  0  0  0
  151.6152  142.2814  158.2158 N   0  0  0  0  0  0  0  0  0  0  0  0
  150.7936  143.3266  158.2324 C   0  0  0  0  0  0  0  0  0  0  0  0
  150.7790  144.0834  159.3465 N   0  0  0  0  0  0  0  0  0  0  0  0
  149.9703  145.2662  159.5841 C   0  0  0  0  0  0  0  0  0  0  0  0
  149.0655  145.1238  160.8223 C   0  0  1  0  0  0  0  0  0  0  0  0
  148.7911  146.4037  161.3591 O   0  0  0  0  0  0  0  0  0  0  0  0
  147.7406  144.4197  160.4878 C   0  0  0  0  0  0  0  0  0  0  0  0
  146.8137  143.9619  161.9823 S   0  0  0  0  0  0  0  0  0  0  0  0
  145.2280  143.3378  161.4786 C   0  0  0  0  0  0  0  0  0  0  0  0
  144.0284  143.7431  162.1048 C   0  0  0  0  0  0  0  0  0  0  0  0
  142.8024  143.2200  161.6656 C   0  0  0  0  0  0  0  0  0  0  0  0
  142.7992  142.2992  160.6077 C   0  0  0  0  0  0  0  0  0  0  0  0
  144.0190  141.9222  160.0140 C   0  0  0  0  0  0  0  0  0  0  0  0
  145.2141  142.4328  160.4426 N   0  3  0  0  0  0  0  0  0  0  0  0
  146.3023  142.0571  159.8658 O   0  5  0  0  0  0  0  0  0  0  0  0
  151.7053  143.4883  160.1972 C   0  0  0  0  0  0  0  0  0  0  0  0
  152.1634  143.7794  161.4945 C   0  0  0  0  0  0  0  0  0  0  0  0
  153.1411  142.9551  162.0904 C   0  0  0  0  0  0  0  0  0  0  0  0
  153.6326  143.2809  163.4899 C   0  0  0  0  0  0  0  0  0  0  0  0
  154.9998  140.1417  161.3121 H   0  0  0  0  0  0  0  0  0  0  0  0
  154.3218  140.4713  162.9050 H   0  0  0  0  0  0  0  0  0  0  0  0
  155.5978  141.5090  162.2496 H   0  0  0  0  0  0  0  0  0  0  0  0
  153.5705  140.7067  159.5338 H   0  0  0  0  0  0  0  0  0  0  0  0
  150.1633  143.5565  157.3857 H   0  0  0  0  0  0  0  0  0  0  0  0
  150.6281  146.1298  159.6887 H   0  0  0  0  0  0  0  0  0  0  0  0
  149.3641  145.4434  158.6948 H   0  0  0  0  0  0  0  0  0  0  0  0
  149.5926  144.5447  161.5818 H   0  0  0  0  0  0  0  0  0  0  0  0
  149.6120  146.8523  161.4958 H   0  0  0  0  0  0  0  0  0  0  0  0
  147.1197  145.0575  159.8576 H   0  0  0  0  0  0  0  0  0  0  0  0
  147.9429  143.5075  159.9255 H   0  0  0  0  0  0  0  0  0  0  0  0
  144.0331  144.4494  162.9201 H   0  0  0  0  0  0  0  0  0  0  0  0
  141.8769  143.5208  162.1344 H   0  0  0  0  0  0  0  0  0  0  0  0
  141.8689  141.8817  160.2516 H   0  0  0  0  0  0  0  0  0  0  0  0
  144.0948  141.2191  159.1970 H   0  0  0  0  0  0  0  0  0  0  0  0
  151.7652  144.6301  162.0271 H   0  0  0  0  0  0  0  0  0  0  0  0
  153.1139  144.1467  163.9027 H   0  0  0  0  0  0  0  0  0  0  0  0
  154.6995  143.5048  163.4758 H   0  0  0  0  0  0  0  0  0  0  0  0
  153.4637  142.4394  164.1618 H   0  0  0  0  0  0  0  0  0  0  0  0
  1  2  1  0  0  0  0
  1 24  1  0  0  0  0
  1 25  1  0  0  0  0
  1 26  1  0  0  0  0
  2 22  1  0  0  0  0
  2  3  2  0  0  0  0
  3  4  1  0  0  0  0
  3 27  1  0  0  0  0
  4 20  2  0  0  0  0
  4  5  1  0  0  0  0
  5  6  2  0  0  0  0
  6  7  1  0  0  0  0
  6 28  1  0  0  0  0
  7  8  1  0  0  0  0
  7 20  1  0  0  0  0
  8  9  1  0  0  0  0
  8 29  1  0  0  0  0
  8 30  1  0  0  0  0
  9 10  1  0  0  0  0
  9 11  1  0  0  0  0
  9 31  1  0  0  0  0
 10 32  1  0  0  0  0
 11 12  1  0  0  0  0
 11 33  1  0  0  0  0
 11 34  1  0  0  0  0
 12 13  1  0  0  0  0
 13 18  1  0  0  0  0
 13 14  2  0  0  0  0
 14 15  1  0  0  0  0
 14 35  1  0  0  0  0
 15 16  2  0  0  0  0
 15 36  1  0  0  0  0
 16 17  1  0  0  0  0
 16 37  1  0  0  0  0
 17 18  2  0  0  0  0
 17 38  1  0  0  0  0
 18 19  1  0  0  0  0
 20 21  1  0  0  0  0
 21 22  2  0  0  0  0
 21 39  1  0  0  0  0
 22 23  1  0  0  0  0
 23 40  1  0  0  0  0
 23 41  1  0  0  0  0
 23 42  1  0  0  0  0
M  CHG  1  18   1
M  CHG  1  19  -1
M  END
> <s_m_source_file>
AV-unprocessed.smi

> <i_m_source_file_index>
2703

> <i_lp_mmshare_version>
43012

> <i_f3d_flags>
0

> <s_epik_input>
W0NIM11jKFtjSF0xKWMoW0NIM10pW2NIXWMoYzEyKW4oW2NIXW4yKVtDSDJdW0NASF0oW09IXSlbQ0gyXVNjM1tjSF1bY0hdW2NIXVtjSF1bbitdM1tPLV0=

> <s_epik_cmdline>
J2VwaWtfcHl0aG9uJywgJy1waCcsICc3LjAnLCAnLXRuJywgJzgnLCAnLW1hJywgJzIwMCcsICctbWV0YWxfYmluZGluZycsICctaW1hZScsICc8aW5maWxlLm1hZT4nLCAnLW9tYWUnLCAnPG91dGZpbGUubWFlPic=

> <r_epik_Ionization_Penalty>
0.106001

> <r_epik_Ionization_Penalty_Charging>
1.39204e-07

> <r_epik_Ionization_Penalty_Neutral>
0.106001

> <r_epik_State_Penalty>
0.0958598

> <r_epik_Charging_Adjusted_Penalty>
0.0958599

> <i_epik_Tot_Q>
0

> <i_epik_Tot_abs_Q>
2

> <r_epik_Metal_State_Penalty>
0.000104041

> <b_epik_Metal_Only>
0

> <s_lp_Force_Field>
OPLS_2005

> <r_lp_Energy>
17.7295

> <b_lp_Chiralities_Consistent>
1

> <s_lp_Variant>
AV-unprocessed.smi:2703-2

> <Gold.Version>
5.8.1

> <Gold.Id.Protein>
6NUR|6NUR_protein|mol2

> <Gold.PLP.Fitness>
60.3225

> <Gold.PLP.PLP>
-55.3537

> <Gold.PLP.part.hbond>
-4.7795

> <Gold.PLP.part.metal>
0.0000

> <Gold.PLP.part.buried>
-5.4691

> <Gold.PLP.part.nonpolar>
-44.6867

> <Gold.PLP.part.repulsive>
0.0339

> <Gold.PLP.ligand.clash>
0.0000

> <Gold.PLP.ligand.torsion>
0.5320

> <Gold.PLP.Chemscore.Hbond>
1.0000

> <Gold.PLP.Chemscore.CHOScore>
1.0000

> <Gold.PLP.Chemscore.Metal>
0.0000

> <Gold.Chemscore.Hbonds>
donor molecule, donor type, donor heavy atom, donor atom, acceptor molecule, acceptor atom, score
      P1  H  6934  6946       L1    19  1.00
      L1  C     6    28       P1  8028  1.00

> <Gold.PLP.Chemscore.Internal.Correction>
0.0328

> <Gold.Rescore>
     Score         DG    S(hbond)    S(metal)    S(lipo)     H(rot)  DE(clash)    DE(int)     intcor
     14.76     -17.55       0.98        0.00     124.69       2.26       2.35       0.44       ----

> <Gold.Chemscore.Fitness>
14.7645

> <Gold.Chemscore.DG>
-17.5548

> <Gold.Chemscore.ZeroCoef>
-5.4800

> <Gold.Chemscore.Hbond>
0.9763

> <Gold.Chemscore.Metal>
0.0000

> <Gold.Chemscore.Lipo>
124.6899

> <Gold.Chemscore.Internal_Hbond>
0.0000

> <Gold.Chemscore.DEClash>
2.3477

> <Gold.Chemscore.DEInternal>
0.4427

> <Gold.Chemscore.Rot>
2.2558

> <Gold.Chemscore.Internal.Correction>
   9.000000E+99

> <Gold.Chemscore.Hbonds>
donor molecule, donor type, donor heavy atom, donor atom, acceptor molecule, acceptor atom, score
      P1  H  6934  6946       L1    19  0.64

> <Gold.Chemscore.Hbond.Weighted>
-3.2609

> <Gold.Chemscore.Metal.Weighted>
-0.0000

> <Gold.Chemscore.Lipo.Weighted>
-14.5887

> <Gold.Chemscore.Internal_Hbond.Weighted>
0.0000

> <Gold.Chemscore.DEClash.Weighted>
2.3477

> <Gold.Chemscore.DEInternal.Weighted>
0.4427

> <Gold.Chemscore.Rot.Weighted>
5.7748

> <Gold.Chemscore.Internal.Correction.Weighted>
   9.000000E+99

> <Gold.Protein.RotatedTorsions>
[ 6907 6896 6895 6894 ] final   99.41 input  -60.11 | X-H torsion
[ 7974 7965 7964 7962 ] final -115.77 input  175.53 | X-H torsion
[ 8008 7997 7996 7995 ] final -118.49 input   59.86 | X-H torsion
[ 10167 10162 10161 10158 ] final  112.55 input  -65.29 | X-H torsion
[ 10718 10713 10712 10709 ] final -154.22 input   66.30 | X-H torsion
[ 10763 10752 10751 10750 ] final  -34.89 input  -60.55 | X-H torsion
[ 11005 11000 10999 10996 ] final  -60.11 input  -57.11 | X-H torsion

> <Gold.Protein.ActiveResidues>
 VAL166  LYS551  ARG553  GLY616  TRP617  ASP618  TYR619  PRO620  LYS621  CYS622 
 ASP623  PHE694  ASN695  SER759  ASP760  ASP761  ALA762  ILE779  LEU786  VAL792 
 PHE793  MET794  SER795  GLU796  ALA797  LYS798  CYS799  TRP800  GLU811  SER814 

> <Gold.Protein.RotatedAtoms>
  152.5392  134.0432  159.8076 H   0  0  0  0  0  0  0  0  0  0  0  0  # atno 6907 bound_to 6896
  151.0585  133.5556  159.2643 H   0  0  0  0  0  0  0  0  0  0  0  0  # atno 6908 bound_to 6896
  151.2464  135.0615  159.9099 H   0  0  0  0  0  0  0  0  0  0  0  0  # atno 6909 bound_to 6896
  145.1045  140.8573  143.3906 H   0  0  0  0  0  0  0  0  0  0  0  0  # atno 7974 bound_to 7965
  155.1006  140.0396  157.2695 H   0  0  0  0  0  0  0  0  0  0  0  0  # atno 8008 bound_to 7997
  154.6761  140.2623  155.6931 H   0  0  0  0  0  0  0  0  0  0  0  0  # atno 8009 bound_to 7997
  156.2677  140.2788  156.1288 H   0  0  0  0  0  0  0  0  0  0  0  0  # atno 8010 bound_to 7997
  139.6527  144.7128  151.2017 H   0  0  0  0  0  0  0  0  0  0  0  0  # atno 10167 bound_to 10162
  156.4964  130.8371  151.2591 H   0  0  0  0  0  0  0  0  0  0  0  0  # atno 10718 bound_to 10713
  153.8542  135.6846  153.4789 H   0  0  0  0  0  0  0  0  0  0  0  0  # atno 10763 bound_to 10752
  153.1379  135.4670  154.9449 H   0  0  0  0  0  0  0  0  0  0  0  0  # atno 10764 bound_to 10752
  154.7788  135.3262  154.7983 H   0  0  0  0  0  0  0  0  0  0  0  0  # atno 10765 bound_to 10752
  141.1275  133.6620  156.5174 H   0  0  0  0  0  0  0  0  0  0  0  0  # atno 11005 bound_to 11000
  145.0918  139.2885  143.5731 LP  0  0  0  0  0  0  0  0  0  0  0  0  # atno 17320 bound_to 7965
  146.3528  140.0457  142.8639 LP  0  0  0  0  0  0  0  0  0  0  0  0  # atno 17321 bound_to 7965
  140.7545  143.6123  150.8593 LP  0  0  0  0  0  0  0  0  0  0  0  0  # atno 17342 bound_to 10162
  139.9773  143.5990  152.2954 LP  0  0  0  0  0  0  0  0  0  0  0  0  # atno 17343 bound_to 10162
  157.7468  130.9996  150.2896 LP  0  0  0  0  0  0  0  0  0  0  0  0  # atno 17370 bound_to 10713
  156.3376  130.3810  149.7437 LP  0  0  0  0  0  0  0  0  0  0  0  0  # atno 17371 bound_to 10713
  140.4320  134.7093  157.4947 LP  0  0  0  0  0  0  0  0  0  0  0  0  # atno 17394 bound_to 11000
  140.0287  134.6438  155.9136 LP  0  0  0  0  0  0  0  0  0  0  0  0  # atno 17395 bound_to 11000

$$$$
