AV-unprocessed.smi:3004|AV-procd|sdf|11439|dock5
  -GOLD-   2272016363D 1   1.00000     0.00000
 Structure written by MMmdl.
 47 48  0  0  0  0  0  0  0  0  2 V2000
  146.8857  137.3630  163.4863 C   0  0  0  0  0  0  0  0  0  0  0  0
  147.3249  136.4583  162.3733 C   0  0  0  0  0  0  0  0  0  0  0  0
  147.1994  135.0436  162.2864 C   0  0  0  0  0  0  0  0  0  0  0  0
  147.7487  134.7291  161.0756 C   0  0  0  0  0  0  0  0  0  0  0  0
  147.9102  133.4028  160.4084 C   0  0  0  0  0  0  0  0  0  0  0  0
  148.1688  135.9178  160.5048 N   0  0  0  0  0  0  0  0  0  0  0  0
  148.8068  136.1445  159.2179 C   0  0  0  0  0  0  0  0  0  0  0  0
  147.8887  135.7236  158.0691 C   0  0  0  0  0  0  0  0  0  0  0  0
  146.7617  136.2085  157.9696 O   0  0  0  0  0  0  0  0  0  0  0  0
  148.3849  134.8257  157.2038 N   0  0  0  0  0  0  0  0  0  0  0  0
  147.6929  134.3251  156.0217 C   0  0  0  0  0  0  0  0  0  0  0  0
  148.4766  134.6299  154.7262 C   0  0  0  0  0  0  0  0  0  0  0  0
  147.7140  134.3379  153.4766 N   0  3  2  0  0  0  0  0  0  0  0  0
  146.3900  135.0268  153.4501 C   0  0  0  0  0  0  0  0  0  0  0  0
  145.6626  134.8293  152.1125 C   0  0  0  0  0  0  0  0  0  0  0  0
  145.4773  133.3425  151.8133 C   0  0  0  0  0  0  0  0  0  0  0  0
  146.8406  132.6487  151.8421 C   0  0  0  0  0  0  0  0  0  0  0  0
  147.5740  132.8725  153.1830 C   0  0  1  0  0  0  0  0  0  0  0  0
  148.9225  132.1241  153.1380 C   0  0  0  0  0  0  0  0  0  0  0  0
  147.9087  136.9756  161.3046 N   0  0  0  0  0  0  0  0  0  0  0  0
  146.3463  136.8085  164.2545 H   0  0  0  0  0  0  0  0  0  0  0  0
  146.2235  138.1466  163.1177 H   0  0  0  0  0  0  0  0  0  0  0  0
  147.7408  137.8433  163.9622 H   0  0  0  0  0  0  0  0  0  0  0  0
  146.7676  134.3620  163.0044 H   0  0  0  0  0  0  0  0  0  0  0  0
  147.4811  132.6063  161.0165 H   0  0  0  0  0  0  0  0  0  0  0  0
  148.9640  133.1730  160.2513 H   0  0  0  0  0  0  0  0  0  0  0  0
  147.4104  133.3903  159.4398 H   0  0  0  0  0  0  0  0  0  0  0  0
  149.0764  137.1987  159.1316 H   0  0  0  0  0  0  0  0  0  0  0  0
  149.7368  135.5778  159.1698 H   0  0  0  0  0  0  0  0  0  0  0  0
  149.3243  134.4892  157.3609 H   0  0  0  0  0  0  0  0  0  0  0  0
  147.5292  133.2565  156.1593 H   0  0  0  0  0  0  0  0  0  0  0  0
  146.7091  134.7936  155.9827 H   0  0  0  0  0  0  0  0  0  0  0  0
  148.7335  135.6858  154.7716 H   0  0  0  0  0  0  0  0  0  0  0  0
  149.4193  134.0814  154.7050 H   0  0  0  0  0  0  0  0  0  0  0  0
  145.7717  134.6597  154.2709 H   0  0  0  0  0  0  0  0  0  0  0  0
  146.5047  136.0985  153.5976 H   0  0  0  0  0  0  0  0  0  0  0  0
  144.6927  135.3268  152.1383 H   0  0  0  0  0  0  0  0  0  0  0  0
  146.2316  135.3009  151.3097 H   0  0  0  0  0  0  0  0  0  0  0  0
  144.8127  132.8924  152.5520 H   0  0  0  0  0  0  0  0  0  0  0  0
  145.0044  133.2080  150.8400 H   0  0  0  0  0  0  0  0  0  0  0  0
  146.7015  131.5818  151.6637 H   0  0  0  0  0  0  0  0  0  0  0  0
  147.4540  133.0193  151.0193 H   0  0  0  0  0  0  0  0  0  0  0  0
  146.9712  132.4286  153.9773 H   0  0  0  0  0  0  0  0  0  0  0  0
  148.7920  131.1092  152.7609 H   0  0  0  0  0  0  0  0  0  0  0  0
  149.3729  132.0200  154.1245 H   0  0  0  0  0  0  0  0  0  0  0  0
  149.6363  132.6267  152.4844 H   0  0  0  0  0  0  0  0  0  0  0  0
  148.2556  134.7256  152.7173 H   0  0  0  0  0  0  0  0  0  0  0  0
  1  2  1  0  0  0  0
  1 21  1  0  0  0  0
  1 22  1  0  0  0  0
  1 23  1  0  0  0  0
  2 20  2  0  0  0  0
  2  3  1  0  0  0  0
  3  4  2  0  0  0  0
  3 24  1  0  0  0  0
  4  5  1  0  0  0  0
  4  6  1  0  0  0  0
  5 25  1  0  0  0  0
  5 26  1  0  0  0  0
  5 27  1  0  0  0  0
  6  7  1  0  0  0  0
  6 20  1  0  0  0  0
  7  8  1  0  0  0  0
  7 28  1  0  0  0  0
  7 29  1  0  0  0  0
  8  9  2  0  0  0  0
  8 10  1  0  0  0  0
 10 11  1  0  0  0  0
 10 30  1  0  0  0  0
 11 12  1  0  0  0  0
 11 31  1  0  0  0  0
 11 32  1  0  0  0  0
 12 13  1  0  0  0  0
 12 33  1  0  0  0  0
 12 34  1  0  0  0  0
 13 18  1  0  0  0  0
 13 14  1  0  0  0  0
 13 47  1  0  0  0  0
 14 15  1  0  0  0  0
 14 35  1  0  0  0  0
 14 36  1  0  0  0  0
 15 16  1  0  0  0  0
 15 37  1  0  0  0  0
 15 38  1  0  0  0  0
 16 17  1  0  0  0  0
 16 39  1  0  0  0  0
 16 40  1  0  0  0  0
 17 18  1  0  0  0  0
 17 41  1  0  0  0  0
 17 42  1  0  0  0  0
 18 19  1  0  0  0  0
 18 43  1  0  0  0  0
 19 44  1  0  0  0  0
 19 45  1  0  0  0  0
 19 46  1  0  0  0  0
M  CHG  1  13   1
M  END
> <s_m_source_file>
AV-unprocessed.smi

> <i_m_source_file_index>
3004

> <i_lp_mmshare_version>
43012

> <i_f3d_flags>
0

> <s_epik_input>
W0NIM11jMVtjSF1jKFtDSDNdKW4objEpW0NIMl1DKD1PKVtOSF1bQ0gyXVtDSDJdTjJbQ0gyXVtDSDJdW0NIMl1bQ0gyXVtDQEhdMltDSDNd

> <s_epik_cmdline>
J2VwaWtfcHl0aG9uJywgJy1waCcsICc3LjAnLCAnLXRuJywgJzgnLCAnLW1hJywgJzIwMCcsICctbWV0YWxfYmluZGluZycsICctaW1hZScsICc8aW5maWxlLm1hZT4nLCAnLW9tYWUnLCAnPG91dGZpbGUubWFlPic=

> <r_lp_tautomer_probability>
1

> <r_epik_Ionization_Penalty>
0.00303644

> <r_epik_Ionization_Penalty_Charging>
0.00284254

> <r_epik_Ionization_Penalty_Neutral>
0.000193908

> <r_epik_State_Penalty>
-0

> <r_epik_Charging_Adjusted_Penalty>
0.00284254

> <i_epik_Tot_Q>
1

> <i_epik_Tot_abs_Q>
1

> <r_epik_Metal_State_Penalty>
-0

> <b_epik_Metal_Only>
0

> <s_lp_Force_Field>
OPLS_2005

> <r_lp_Energy>
17.9788

> <b_lp_Chiralities_Consistent>
1

> <s_lp_Variant>
AV-unprocessed.smi:3004-1

> <Gold.Version>
5.8.1

> <Gold.Id.Protein>
6NUR|6NUR_protein|mol2

> <Gold.PLP.Fitness>
42.0554

> <Gold.PLP.PLP>
-31.0152

> <Gold.PLP.part.hbond>
-3.0000

> <Gold.PLP.part.metal>
0.0000

> <Gold.PLP.part.buried>
-0.7293

> <Gold.PLP.part.nonpolar>
-25.8441

> <Gold.PLP.part.repulsive>
0.0393

> <Gold.PLP.ligand.clash>
0.0000

> <Gold.PLP.ligand.torsion>
0.0990

> <Gold.PLP.Chemscore.Hbond>
3.7360

> <Gold.PLP.Chemscore.CHOScore>
0.0000

> <Gold.PLP.Chemscore.Metal>
0.0000

> <Gold.Chemscore.Hbonds>
donor molecule, donor type, donor heavy atom, donor atom, acceptor molecule, acceptor atom, score
      L1  H    13    47       P1  7948  2.00
      P1  H  6931  6943       L1    20  1.00
      P1  H  6934  6947       L1    20  0.45

> <Gold.PLP.Chemscore.Internal.Correction>
0.0302

> <Gold.Rescore>
     Score         DG    S(hbond)    S(metal)    S(lipo)     H(rot)  DE(clash)    DE(int)     intcor
     16.94     -18.46       2.54        0.00      74.93       1.67       1.42       0.10       ----

> <Gold.Chemscore.Fitness>
16.9363

> <Gold.Chemscore.DG>
-18.4580

> <Gold.Chemscore.ZeroCoef>
-5.4800

> <Gold.Chemscore.Hbond>
2.5376

> <Gold.Chemscore.Metal>
0.0000

> <Gold.Chemscore.Lipo>
74.9274

> <Gold.Chemscore.Internal_Hbond>
0.0000

> <Gold.Chemscore.DEClash>
1.4202

> <Gold.Chemscore.DEInternal>
0.1014

> <Gold.Chemscore.Rot>
1.6657

> <Gold.Chemscore.Internal.Correction>
   9.000000E+99

> <Gold.Chemscore.Hbonds>
donor molecule, donor type, donor heavy atom, donor atom, acceptor molecule, acceptor atom, score
      L1  H    13    47       P1  7948  0.48
      P1  H  6931  6943       L1    20  0.55
      P1  H  6934  6947       L1    20  0.35

> <Gold.Chemscore.Hbond.Weighted>
-8.4756

> <Gold.Chemscore.Metal.Weighted>
-0.0000

> <Gold.Chemscore.Lipo.Weighted>
-8.7665

> <Gold.Chemscore.Internal_Hbond.Weighted>
0.0000

> <Gold.Chemscore.DEClash.Weighted>
1.4202

> <Gold.Chemscore.DEInternal.Weighted>
0.1014

> <Gold.Chemscore.Rot.Weighted>
4.2641

> <Gold.Chemscore.Internal.Correction.Weighted>
   9.000000E+99

> <Gold.Protein.RotatedTorsions>
[ 6907 6896 6895 6894 ] final  116.88 input  -60.11 | X-H torsion
[ 7974 7965 7964 7962 ] final  -15.97 input  175.53 | X-H torsion
[ 8008 7997 7996 7995 ] final  107.52 input   59.86 | X-H torsion
[ 10167 10162 10161 10158 ] final   27.77 input  -65.29 | X-H torsion
[ 10718 10713 10712 10709 ] final  167.72 input   66.30 | X-H torsion
[ 10763 10752 10751 10750 ] final   27.99 input  -60.55 | X-H torsion
[ 11005 11000 10999 10996 ] final -139.04 input  -57.11 | X-H torsion

> <Gold.Protein.ActiveResidues>
 VAL166  LYS551  ARG553  GLY616  TRP617  ASP618  TYR619  PRO620  LYS621  CYS622 
 ASP623  PHE694  ASN695  SER759  ASP760  ASP761  ALA762  ILE779  LEU786  VAL792 
 PHE793  MET794  SER795  GLU796  ALA797  LYS798  CYS799  TRP800  GLU811  SER814 

> <Gold.Protein.RotatedAtoms>
  152.4649  133.7901  159.6896 H   0  0  0  0  0  0  0  0  0  0  0  0  # atno 6907 bound_to 6896
  150.8609  133.7636  159.2999 H   0  0  0  0  0  0  0  0  0  0  0  0  # atno 6908 bound_to 6896
  151.5201  135.1070  159.9928 H   0  0  0  0  0  0  0  0  0  0  0  0  # atno 6909 bound_to 6896
  146.2008  140.3569  142.8424 H   0  0  0  0  0  0  0  0  0  0  0  0  # atno 7974 bound_to 7965
  156.1831  140.3093  155.9186 H   0  0  0  0  0  0  0  0  0  0  0  0  # atno 8008 bound_to 7997
  155.3340  140.0462  157.3060 H   0  0  0  0  0  0  0  0  0  0  0  0  # atno 8009 bound_to 7997
  154.5365  140.2247  155.8724 H   0  0  0  0  0  0  0  0  0  0  0  0  # atno 8010 bound_to 7997
  140.4910  144.0467  150.6297 H   0  0  0  0  0  0  0  0  0  0  0  0  # atno 10167 bound_to 10162
  157.0474  131.0304  151.2692 H   0  0  0  0  0  0  0  0  0  0  0  0  # atno 10718 bound_to 10713
  153.0520  135.6524  154.0670 H   0  0  0  0  0  0  0  0  0  0  0  0  # atno 10763 bound_to 10752
  154.0356  135.2908  155.3364 H   0  0  0  0  0  0  0  0  0  0  0  0  # atno 10764 bound_to 10752
  154.6814  135.5318  153.8335 H   0  0  0  0  0  0  0  0  0  0  0  0  # atno 10765 bound_to 10752
  140.8558  134.2230  157.4735 H   0  0  0  0  0  0  0  0  0  0  0  0  # atno 11005 bound_to 11000
  144.8680  140.7233  143.6065 LP  0  0  0  0  0  0  0  0  0  0  0  0  # atno 17320 bound_to 7965
  145.3489  139.1711  143.4445 LP  0  0  0  0  0  0  0  0  0  0  0  0  # atno 17321 bound_to 7965
  140.3736  143.2841  152.0250 LP  0  0  0  0  0  0  0  0  0  0  0  0  # atno 17342 bound_to 10162
  139.4851  144.6210  151.7254 LP  0  0  0  0  0  0  0  0  0  0  0  0  # atno 17343 bound_to 10162
  157.5057  130.7907  149.7651 LP  0  0  0  0  0  0  0  0  0  0  0  0  # atno 17370 bound_to 10713
  156.0018  130.3876  150.2576 LP  0  0  0  0  0  0  0  0  0  0  0  0  # atno 17371 bound_to 10713
  139.8705  134.9705  156.4705 LP  0  0  0  0  0  0  0  0  0  0  0  0  # atno 17394 bound_to 11000
  140.8739  133.7968  155.9393 LP  0  0  0  0  0  0  0  0  0  0  0  0  # atno 17395 bound_to 11000

$$$$
