AV-unprocessed.smi:1334|AV-procd|sdf|5493|dock2
  -GOLD-   22720 5 73D 1   1.00000     0.00000
 Structure written by MMmdl.
 38 39  0  0  0  0  0  0  0  0  1 V2000
  148.5570  141.7051  154.5973 C   0  0  0  0  0  0  0  0  0  0  0  0
  149.8574  141.1823  155.2416 C   0  0  1  0  0  0  0  0  0  0  0  0
  149.9285  141.4701  156.7484 C   0  0  0  0  0  0  0  0  0  0  0  0
  150.0657  140.5503  157.5555 O   0  0  0  0  0  0  0  0  0  0  0  0
  149.8457  142.7615  157.1075 N   0  0  0  0  0  0  0  0  0  0  0  0
  149.9692  143.2796  158.4671 C   0  0  0  0  0  0  0  0  0  0  0  0
  151.3159  143.9956  158.6780 C   0  0  0  0  0  0  0  0  0  0  0  0
  152.2034  143.3434  159.7283 C   0  0  0  0  0  0  0  0  0  0  0  0
  153.1117  142.4008  159.4087 C   0  0  0  0  0  0  0  0  0  0  0  0
  154.0084  141.7069  160.4177 C   0  0  0  0  0  0  0  0  0  0  0  0
  153.5124  141.8969  161.8598 C   0  0  0  0  0  0  0  0  0  0  0  0
  153.1223  143.3578  162.1151 C   0  0  0  0  0  0  0  0  0  0  0  0
  152.0015  143.8157  161.1643 C   0  0  0  0  0  0  0  0  0  0  0  0
  150.0649  139.7605  154.9948 N   0  0  0  0  0  0  0  0  0  0  0  0
  149.4360  138.7017  155.5093 C   0  0  0  0  0  0  0  0  0  0  0  0
  149.8556  137.5394  155.0298 N   0  0  0  0  0  0  0  0  0  0  0  0
  150.8012  137.9843  154.1500 C   0  0  0  0  0  0  0  0  0  0  0  0
  150.9568  139.3059  154.0791 N   0  0  0  0  0  0  0  0  0  0  0  0
  148.4500  142.7799  154.7477 H   0  0  0  0  0  0  0  0  0  0  0  0
  147.6696  141.2244  155.0115 H   0  0  0  0  0  0  0  0  0  0  0  0
  148.5575  141.5247  153.5220 H   0  0  0  0  0  0  0  0  0  0  0  0
  150.6855  141.7123  154.7677 H   0  0  0  0  0  0  0  0  0  0  0  0
  149.7257  143.4453  156.3746 H   0  0  0  0  0  0  0  0  0  0  0  0
  149.1547  143.9850  158.6326 H   0  0  0  0  0  0  0  0  0  0  0  0
  149.8390  142.4926  159.2115 H   0  0  0  0  0  0  0  0  0  0  0  0
  151.8517  144.0368  157.7286 H   0  0  0  0  0  0  0  0  0  0  0  0
  151.1395  145.0317  158.9686 H   0  0  0  0  0  0  0  0  0  0  0  0
  153.2391  142.1023  158.3784 H   0  0  0  0  0  0  0  0  0  0  0  0
  154.0673  140.6453  160.1810 H   0  0  0  0  0  0  0  0  0  0  0  0
  155.0153  142.1104  160.3079 H   0  0  0  0  0  0  0  0  0  0  0  0
  152.6458  141.2580  162.0356 H   0  0  0  0  0  0  0  0  0  0  0  0
  154.2812  141.5784  162.5645 H   0  0  0  0  0  0  0  0  0  0  0  0
  152.8087  143.4921  163.1507 H   0  0  0  0  0  0  0  0  0  0  0  0
  153.9992  143.9908  161.9740 H   0  0  0  0  0  0  0  0  0  0  0  0
  151.9297  144.9033  161.1840 H   0  0  0  0  0  0  0  0  0  0  0  0
  151.0455  143.4320  161.5188 H   0  0  0  0  0  0  0  0  0  0  0  0
  148.6538  138.7829  156.2497 H   0  0  0  0  0  0  0  0  0  0  0  0
  151.3836  137.3147  153.5348 H   0  0  0  0  0  0  0  0  0  0  0  0
  1  2  1  0  0  0  0
  1 19  1  0  0  0  0
  1 20  1  0  0  0  0
  1 21  1  0  0  0  0
  2  3  1  0  0  0  0
  2 14  1  0  0  0  0
  2 22  1  0  0  0  0
  3  4  2  0  0  0  0
  3  5  1  0  0  0  0
  5  6  1  0  0  0  0
  5 23  1  0  0  0  0
  6  7  1  0  0  0  0
  6 24  1  0  0  0  0
  6 25  1  0  0  0  0
  7  8  1  0  0  0  0
  7 26  1  0  0  0  0
  7 27  1  0  0  0  0
  8 13  1  0  0  0  0
  8  9  2  0  0  0  0
  9 10  1  0  0  0  0
  9 28  1  0  0  0  0
 10 11  1  0  0  0  0
 10 29  1  0  0  0  0
 10 30  1  0  0  0  0
 11 12  1  0  0  0  0
 11 31  1  0  0  0  0
 11 32  1  0  0  0  0
 12 13  1  0  0  0  0
 12 33  1  0  0  0  0
 12 34  1  0  0  0  0
 13 35  1  0  0  0  0
 13 36  1  0  0  0  0
 14 18  1  0  0  0  0
 14 15  1  0  0  0  0
 15 16  2  0  0  0  0
 15 37  1  0  0  0  0
 16 17  1  0  0  0  0
 17 18  2  0  0  0  0
 17 38  1  0  0  0  0
M  END
> <s_m_source_file>
AV-unprocessed.smi

> <i_m_source_file_index>
1334

> <i_lp_mmshare_version>
43012

> <i_f3d_flags>
0

> <s_epik_input>
bjFbY0hdbltjSF1uMVtDQEhdKFtDSDNdKUMoPU8pW05IXVtDSDJdW0NIMl1DMj1bQ0hdW0NIMl1bQ0gyXVtDSDJdW0NIMl0y

> <s_epik_cmdline>
J2VwaWtfcHl0aG9uJywgJy1waCcsICc3LjAnLCAnLXRuJywgJzgnLCAnLW1hJywgJzIwMCcsICctbWV0YWxfYmluZGluZycsICctaW1hZScsICc8aW5maWxlLm1hZT4nLCAnLW9tYWUnLCAnPG91dGZpbGUubWFlPic=

> <r_lp_tautomer_probability>
1

> <r_epik_Ionization_Penalty>
1.26383e-05

> <r_epik_Ionization_Penalty_Charging>
0

> <r_epik_Ionization_Penalty_Neutral>
1.26383e-05

> <r_epik_State_Penalty>
-0

> <r_epik_Charging_Adjusted_Penalty>
0

> <i_epik_Tot_Q>
0

> <i_epik_Tot_abs_Q>
0

> <r_epik_Metal_State_Penalty>
-0

> <b_epik_Metal_Only>
0

> <s_lp_Force_Field>
OPLS_2005

> <r_lp_Energy>
11.5149

> <b_lp_Chiralities_Consistent>
1

> <s_lp_Variant>
AV-unprocessed.smi:1334-2

> <Gold.Version>
5.8.1

> <Gold.Id.Protein>
6NUR|6NUR_protein|mol2

> <Gold.PLP.Fitness>
48.3208

> <Gold.PLP.PLP>
-41.3495

> <Gold.PLP.part.hbond>
-2.0000

> <Gold.PLP.part.metal>
0.0000

> <Gold.PLP.part.buried>
-2.3730

> <Gold.PLP.part.nonpolar>
-36.5344

> <Gold.PLP.part.repulsive>
0.3374

> <Gold.PLP.ligand.clash>
0.0000

> <Gold.PLP.ligand.torsion>
1.0970

> <Gold.PLP.Chemscore.Hbond>
2.0000

> <Gold.PLP.Chemscore.CHOScore>
0.9976

> <Gold.PLP.Chemscore.Metal>
0.0000

> <Gold.Chemscore.Hbonds>
donor molecule, donor type, donor heavy atom, donor atom, acceptor molecule, acceptor atom, score
      L1  H     5    23       P1  8028  1.00
      P1  H  7989  7998       L1    18  1.00
      L1  C    17    38       P1  7949  1.00

> <Gold.PLP.Chemscore.Internal.Correction>
0.1726

> <Gold.Rescore>
     Score         DG    S(hbond)    S(metal)    S(lipo)     H(rot)  DE(clash)    DE(int)     intcor
     14.33     -17.28       1.88        0.00      99.70       2.40       0.45       2.50       ----

> <Gold.Chemscore.Fitness>
14.3300

> <Gold.Chemscore.DG>
-17.2785

> <Gold.Chemscore.ZeroCoef>
-5.4800

> <Gold.Chemscore.Hbond>
1.8804

> <Gold.Chemscore.Metal>
0.0000

> <Gold.Chemscore.Lipo>
99.7003

> <Gold.Chemscore.Internal_Hbond>
0.0000

> <Gold.Chemscore.DEClash>
0.4488

> <Gold.Chemscore.DEInternal>
2.4996

> <Gold.Chemscore.Rot>
2.4011

> <Gold.Chemscore.Internal.Correction>
   9.000000E+99

> <Gold.Chemscore.Hbonds>
donor molecule, donor type, donor heavy atom, donor atom, acceptor molecule, acceptor atom, score
      L1  H     5    23       P1  8028  0.96
      P1  H  7989  7998       L1    18  0.30

> <Gold.Chemscore.Hbond.Weighted>
-6.2804

> <Gold.Chemscore.Metal.Weighted>
-0.0000

> <Gold.Chemscore.Lipo.Weighted>
-11.6649

> <Gold.Chemscore.Internal_Hbond.Weighted>
0.0000

> <Gold.Chemscore.DEClash.Weighted>
0.4488

> <Gold.Chemscore.DEInternal.Weighted>
2.4996

> <Gold.Chemscore.Rot.Weighted>
6.1469

> <Gold.Chemscore.Internal.Correction.Weighted>
   9.000000E+99

> <Gold.Protein.RotatedTorsions>
[ 6907 6896 6895 6894 ] final  -58.07 input  -60.11 | X-H torsion
[ 7974 7965 7964 7962 ] final  176.01 input  175.53 | X-H torsion
[ 8008 7997 7996 7995 ] final  -86.35 input   59.86 | X-H torsion
[ 10167 10162 10161 10158 ] final   -3.20 input  -65.29 | X-H torsion
[ 10718 10713 10712 10709 ] final -177.49 input   66.30 | X-H torsion
[ 10763 10752 10751 10750 ] final -176.61 input  -60.55 | X-H torsion
[ 11005 11000 10999 10996 ] final   21.63 input  -57.11 | X-H torsion

> <Gold.Protein.ActiveResidues>
 VAL166  LYS551  ARG553  GLY616  TRP617  ASP618  TYR619  PRO620  LYS621  CYS622 
 ASP623  PHE694  ASN695  SER759  ASP760  ASP761  ALA762  ILE779  LEU786  VAL792 
 PHE793  MET794  SER795  GLU796  ALA797  LYS798  CYS799  TRP800  GLU811  SER814 

> <Gold.Protein.RotatedAtoms>
  150.8036  134.7145  159.6622 H   0  0  0  0  0  0  0  0  0  0  0  0  # atno 6907 bound_to 6896
  152.4154  134.6048  160.0019 H   0  0  0  0  0  0  0  0  0  0  0  0  # atno 6908 bound_to 6896
  151.6279  133.3297  159.3138 H   0  0  0  0  0  0  0  0  0  0  0  0  # atno 6909 bound_to 6896
  144.7191  140.0033  143.6440 H   0  0  0  0  0  0  0  0  0  0  0  0  # atno 7974 bound_to 7965
  154.6510  140.0579  156.9955 H   0  0  0  0  0  0  0  0  0  0  0  0  # atno 8008 bound_to 7997
  155.1372  140.3262  155.4442 H   0  0  0  0  0  0  0  0  0  0  0  0  # atno 8009 bound_to 7997
  156.2576  140.1970  156.6489 H   0  0  0  0  0  0  0  0  0  0  0  0  # atno 8010 bound_to 7997
  140.6881  143.6568  150.8301 H   0  0  0  0  0  0  0  0  0  0  0  0  # atno 10167 bound_to 10162
  156.8303  130.9651  151.3107 H   0  0  0  0  0  0  0  0  0  0  0  0  # atno 10718 bound_to 10713
  154.5703  135.2827  155.0834 H   0  0  0  0  0  0  0  0  0  0  0  0  # atno 10763 bound_to 10752
  154.2209  135.6391  153.5148 H   0  0  0  0  0  0  0  0  0  0  0  0  # atno 10764 bound_to 10752
  153.0055  135.5514  154.6324 H   0  0  0  0  0  0  0  0  0  0  0  0  # atno 10765 bound_to 10752
  140.3895  134.1834  155.7662 H   0  0  0  0  0  0  0  0  0  0  0  0  # atno 11005 bound_to 11000
  146.0318  139.3342  143.0750 LP  0  0  0  0  0  0  0  0  0  0  0  0  # atno 17320 bound_to 7965
  145.8443  140.9563  143.0783 LP  0  0  0  0  0  0  0  0  0  0  0  0  # atno 17321 bound_to 7965
  140.0277  143.5475  152.2773 LP  0  0  0  0  0  0  0  0  0  0  0  0  # atno 17342 bound_to 10162
  139.6257  144.7637  151.2644 LP  0  0  0  0  0  0  0  0  0  0  0  0  # atno 17343 bound_to 10162
  157.6410  130.8806  149.9449 LP  0  0  0  0  0  0  0  0  0  0  0  0  # atno 17370 bound_to 10713
  156.0938  130.3661  150.0344 LP  0  0  0  0  0  0  0  0  0  0  0  0  # atno 17371 bound_to 10713
  141.1896  133.8236  157.0952 LP  0  0  0  0  0  0  0  0  0  0  0  0  # atno 17394 bound_to 11000
  140.0417  134.9851  157.0975 LP  0  0  0  0  0  0  0  0  0  0  0  0  # atno 17395 bound_to 11000

$$$$
