AV-unprocessed.smi:53|AV-procd|sdf|520|dock6
  -GOLD-   2262016393D 1   1.00000     0.00000
 Structure written by MMmdl.
 30 31  0  0  0  0  0  0  0  0  1 V2000
  146.2687  141.5473  153.4756 N   0  0  0  0  0  0  0  0  0  0  0  0
  147.3285  140.8091  153.8349 C   0  0  0  0  0  0  0  0  0  0  0  0
  147.3360  139.3820  153.6051 C   0  0  0  0  0  0  0  0  0  0  0  0
  148.4383  138.7067  153.9984 C   0  0  0  0  0  0  0  0  0  0  0  0
  149.5147  139.3377  154.6067 N   0  0  0  0  0  0  0  0  0  0  0  0
  150.7417  138.5597  155.0269 C   0  0  1  0  0  0  0  0  0  0  0  0
  150.9050  138.6908  156.4091 O   0  0  0  0  0  0  0  0  0  0  0  0
  151.1206  137.4141  157.0024 C   0  0  1  0  0  0  0  0  0  0  0  0
  150.6356  137.4283  158.4603 C   0  0  0  0  0  0  0  0  0  0  0  0
  150.2086  136.1380  158.8419 O   0  0  0  0  0  0  0  0  0  0  0  0
  150.3123  136.4844  156.0962 C   0  0  2  0  0  0  0  0  0  0  0  0
  150.6954  135.1266  156.2092 O   0  0  0  0  0  0  0  0  0  0  0  0
  150.5603  137.0663  154.7091 C   0  0  2  0  0  0  0  0  0  0  0  0
  151.7183  136.5309  154.0935 O   0  0  0  0  0  0  0  0  0  0  0  0
  149.4876  140.7400  154.7975 C   0  0  0  0  0  0  0  0  0  0  0  0
  150.4352  141.3474  155.2943 O   0  0  0  0  0  0  0  0  0  0  0  0
  148.3616  141.4074  154.3955 N   0  0  0  0  0  0  0  0  0  0  0  0
  151.5971  139.0236  154.5318 H   0  0  0  0  0  0  0  0  0  0  0  0
  152.1806  137.1599  156.9372 H   0  0  0  0  0  0  0  0  0  0  0  0
  149.2514  136.5733  156.3345 H   0  0  0  0  0  0  0  0  0  0  0  0
  149.7113  136.9041  154.0433 H   0  0  0  0  0  0  0  0  0  0  0  0
  146.2676  142.5445  153.6343 H   0  0  0  0  0  0  0  0  0  0  0  0
  145.4728  141.1030  153.0412 H   0  0  0  0  0  0  0  0  0  0  0  0
  146.5168  138.8498  153.1430 H   0  0  0  0  0  0  0  0  0  0  0  0
  148.4631  137.6413  153.8233 H   0  0  0  0  0  0  0  0  0  0  0  0
  151.4135  137.7875  159.1349 H   0  0  0  0  0  0  0  0  0  0  0  0
  149.7816  138.0980  158.5650 H   0  0  0  0  0  0  0  0  0  0  0  0
  149.2847  136.1724  159.0379 H   0  0  0  0  0  0  0  0  0  0  0  0
  151.4163  134.9684  155.6186 H   0  0  0  0  0  0  0  0  0  0  0  0
  151.4676  136.1477  153.2668 H   0  0  0  0  0  0  0  0  0  0  0  0
  1  2  1  0  0  0  0
  1 22  1  0  0  0  0
  1 23  1  0  0  0  0
  2 17  2  0  0  0  0
  2  3  1  0  0  0  0
  3  4  2  0  0  0  0
  3 24  1  0  0  0  0
  4  5  1  0  0  0  0
  4 25  1  0  0  0  0
  5  6  1  0  0  0  0
  5 15  1  0  0  0  0
  6 18  1  0  0  0  0
  6 13  1  0  0  0  0
  6  7  1  0  0  0  0
  7  8  1  0  0  0  0
  8 19  1  0  0  0  0
  8  9  1  0  0  0  0
  8 11  1  0  0  0  0
  9 10  1  0  0  0  0
  9 26  1  0  0  0  0
  9 27  1  0  0  0  0
 10 28  1  0  0  0  0
 11 20  1  0  0  0  0
 11 12  1  0  0  0  0
 11 13  1  0  0  0  0
 12 29  1  0  0  0  0
 13 21  1  0  0  0  0
 13 14  1  0  0  0  0
 14 30  1  0  0  0  0
 15 16  2  0  0  0  0
 15 17  1  0  0  0  0
M  END
> <s_m_source_file>
AV-unprocessed.smi

> <i_m_source_file_index>
53

> <i_lp_mmshare_version>
43012

> <i_f3d_flags>
0

> <s_epik_input>
W05IMl1jMVtjSF1bY0hdbihjKD1PKW4xKVtDQEBIXTJPW0NASF0oW0NIMl1bT0hdKVtDQEBIXShbT0hdKVtDQEBIXTJbT0hd

> <s_epik_cmdline>
J2VwaWtfcHl0aG9uJywgJy1waCcsICc3LjAnLCAnLXRuJywgJzgnLCAnLW1hJywgJzIwMCcsICctbWV0YWxfYmluZGluZycsICctaW1hZScsICc8aW5maWxlLm1hZT4nLCAnLW9tYWUnLCAnPG91dGZpbGUubWFlPic=

> <r_lp_tautomer_probability>
0.99996

> <r_epik_Ionization_Penalty>
0.00069087

> <r_epik_Ionization_Penalty_Charging>
2.61959e-08

> <r_epik_Ionization_Penalty_Neutral>
0.000690844

> <r_epik_State_Penalty>
1.15523e-05

> <r_epik_Charging_Adjusted_Penalty>
1.15785e-05

> <i_epik_Tot_Q>
0

> <i_epik_Tot_abs_Q>
0

> <r_epik_Metal_State_Penalty>
-0

> <b_epik_Metal_Only>
0

> <s_epik_Chemistry_Notes>
This compound contains an acetal/aminal-like group ( X-CH(R)-Y where X, Y are N, S, or O) that may be acid/base labile, releasing an aldehyde.

> <s_lp_Force_Field>
OPLS_2005

> <r_lp_Energy>
33.3856

> <b_lp_Chiralities_Consistent>
1

> <s_lp_Variant>
AV-unprocessed.smi:53-8

> <Gold.Version>
5.8.1

> <Gold.Id.Protein>
6NUR|6NUR_protein|mol2

> <Gold.PLP.Fitness>
37.8504

> <Gold.PLP.PLP>
-22.9669

> <Gold.PLP.part.hbond>
-4.9904

> <Gold.PLP.part.metal>
0.0000

> <Gold.PLP.part.buried>
-4.1760

> <Gold.PLP.part.nonpolar>
-16.2273

> <Gold.PLP.part.repulsive>
0.3067

> <Gold.PLP.ligand.clash>
0.0000

> <Gold.PLP.ligand.torsion>
0.3144

> <Gold.PLP.Chemscore.Hbond>
4.1652

> <Gold.PLP.Chemscore.CHOScore>
1.0000

> <Gold.PLP.Chemscore.Metal>
0.0000

> <Gold.Chemscore.Hbonds>
donor molecule, donor type, donor heavy atom, donor atom, acceptor molecule, acceptor atom, score
      L1  H     1    23       P1 10175  0.95
      L1  H    14    30       P1  7949  1.00
      P1  H  6896  6907       L1    10  1.00
      P1  H  7989  7998       L1    16  0.16
      P1  H 10752 10765       L1    14  1.00
      L1  C     4    25       P1  7948  1.00

> <Gold.PLP.Chemscore.Internal.Correction>
0.0166

> <Gold.Rescore>
     Score         DG    S(hbond)    S(metal)    S(lipo)     H(rot)  DE(clash)    DE(int)     intcor
      6.86      -8.35       2.73        0.00      27.68       3.71       0.01       1.48       ----

> <Gold.Chemscore.Fitness>
6.8599

> <Gold.Chemscore.DG>
-8.3533

> <Gold.Chemscore.ZeroCoef>
-5.4800

> <Gold.Chemscore.Hbond>
2.7340

> <Gold.Chemscore.Metal>
0.0000

> <Gold.Chemscore.Lipo>
27.6755

> <Gold.Chemscore.Internal_Hbond>
0.0000

> <Gold.Chemscore.DEClash>
0.0135

> <Gold.Chemscore.DEInternal>
1.4799

> <Gold.Chemscore.Rot>
3.7095

> <Gold.Chemscore.Internal.Correction>
   9.000000E+99

> <Gold.Chemscore.Hbonds>
donor molecule, donor type, donor heavy atom, donor atom, acceptor molecule, acceptor atom, score
      L1  H     1    23       P1 10175  0.21
      L1  H    14    30       P1  7949  0.82
      P1  H  6896  6907       L1    10  0.54
      P1  H  7989  7998       L1    16  0.01
      P1  H 10752 10765       L1    14  0.28

> <Gold.Chemscore.Hbond.Weighted>
-9.1317

> <Gold.Chemscore.Metal.Weighted>
-0.0000

> <Gold.Chemscore.Lipo.Weighted>
-3.2380

> <Gold.Chemscore.Internal_Hbond.Weighted>
0.0000

> <Gold.Chemscore.DEClash.Weighted>
0.0135

> <Gold.Chemscore.DEInternal.Weighted>
1.4799

> <Gold.Chemscore.Rot.Weighted>
9.4964

> <Gold.Chemscore.Internal.Correction.Weighted>
   9.000000E+99

> <Gold.Protein.RotatedTorsions>
[ 6907 6896 6895 6894 ] final  -54.80 input  -60.11 | X-H torsion
[ 7974 7965 7964 7962 ] final -145.13 input  175.53 | X-H torsion
[ 8008 7997 7996 7995 ] final  174.03 input   59.86 | X-H torsion
[ 10167 10162 10161 10158 ] final -120.66 input  -65.29 | X-H torsion
[ 10718 10713 10712 10709 ] final   59.91 input   66.30 | X-H torsion
[ 10763 10752 10751 10750 ] final  176.05 input  -60.55 | X-H torsion
[ 11005 11000 10999 10996 ] final  164.25 input  -57.11 | X-H torsion

> <Gold.Protein.ActiveResidues>
 VAL166  LYS551  ARG553  GLY616  TRP617  ASP618  TYR619  PRO620  LYS621  CYS622 
 ASP623  PHE694  ASN695  SER759  ASP760  ASP761  ALA762  ILE779  LEU786  VAL792 
 PHE793  MET794  SER795  GLU796  ALA797  LYS798  CYS799  TRP800  GLU811  SER814 

> <Gold.Protein.RotatedAtoms>
  150.8306  134.7558  159.6850 H   0  0  0  0  0  0  0  0  0  0  0  0  # atno 6907 bound_to 6896
  152.4411  134.5585  159.9897 H   0  0  0  0  0  0  0  0  0  0  0  0  # atno 6908 bound_to 6896
  151.5746  133.3348  159.3032 H   0  0  0  0  0  0  0  0  0  0  0  0  # atno 6909 bound_to 6896
  144.8249  140.5623  143.5554 H   0  0  0  0  0  0  0  0  0  0  0  0  # atno 7974 bound_to 7965
  156.1016  140.1445  156.9460 H   0  0  0  0  0  0  0  0  0  0  0  0  # atno 8008 bound_to 7997
  154.4706  140.0911  156.7179 H   0  0  0  0  0  0  0  0  0  0  0  0  # atno 8009 bound_to 7997
  155.4751  140.3443  155.4333 H   0  0  0  0  0  0  0  0  0  0  0  0  # atno 8010 bound_to 7997
  140.0334  143.5225  152.2165 H   0  0  0  0  0  0  0  0  0  0  0  0  # atno 10167 bound_to 10162
  157.5712  130.8909  149.9270 H   0  0  0  0  0  0  0  0  0  0  0  0  # atno 10718 bound_to 10713
  154.4759  135.2773  155.1607 H   0  0  0  0  0  0  0  0  0  0  0  0  # atno 10763 bound_to 10752
  154.3337  135.6184  153.5567 H   0  0  0  0  0  0  0  0  0  0  0  0  # atno 10764 bound_to 10752
  152.9869  135.5771  154.5150 H   0  0  0  0  0  0  0  0  0  0  0  0  # atno 10765 bound_to 10752
  140.2440  134.8029  157.3438 H   0  0  0  0  0  0  0  0  0  0  0  0  # atno 11005 bound_to 11000
  145.5023  139.1483  143.3650 LP  0  0  0  0  0  0  0  0  0  0  0  0  # atno 17320 bound_to 7965
  146.2554  140.5163  142.8876 LP  0  0  0  0  0  0  0  0  0  0  0  0  # atno 17321 bound_to 7965
  139.6061  144.7596  151.3059 LP  0  0  0  0  0  0  0  0  0  0  0  0  # atno 17342 bound_to 10162
  140.7292  143.6915  150.7918 LP  0  0  0  0  0  0  0  0  0  0  0  0  # atno 17343 bound_to 10162
  156.0757  130.3679  150.0682 LP  0  0  0  0  0  0  0  0  0  0  0  0  # atno 17370 bound_to 10713
  156.8835  130.9564  151.3597 LP  0  0  0  0  0  0  0  0  0  0  0  0  # atno 17371 bound_to 10713
  140.1624  134.4711  155.7885 LP  0  0  0  0  0  0  0  0  0  0  0  0  # atno 17394 bound_to 11000
  141.2208  133.6907  156.7568 LP  0  0  0  0  0  0  0  0  0  0  0  0  # atno 17395 bound_to 11000

$$$$
