AV-unprocessed.smi:1701|AV-procd|sdf|6830|dock2
  -GOLD-   22720 8 03D 1   1.00000     0.00000
 Structure written by MMmdl.
 54 56  0  0  0  0  0  0  0  0  2 V2000
  151.5655  143.7803  157.4268 C   0  0  0  0  0  0  0  0  0  0  0  0
  151.2338  142.6539  156.4371 C   0  0  0  0  0  0  0  0  0  0  0  0
  151.0128  141.3610  157.0869 N   0  0  0  0  0  0  0  0  0  0  0  0
  151.4340  141.1862  158.4799 C   0  0  0  0  0  0  0  0  0  0  0  0
  152.3987  140.0068  158.6762 C   0  0  0  0  0  0  0  0  0  0  0  0
  150.2649  140.3447  156.4394 C   0  0  0  0  0  0  0  0  0  0  0  0
  149.4863  139.4087  157.1666 C   0  0  0  0  0  0  0  0  0  0  0  0
  148.7583  138.4225  156.4738 C   0  0  0  0  0  0  0  0  0  0  0  0
  148.8251  138.3839  155.0628 C   0  0  0  0  0  0  0  0  0  0  0  0
  148.1194  137.4573  154.2490 N   0  0  0  0  0  0  0  0  0  0  0  0
  146.9743  136.8001  154.5183 C   0  0  0  0  0  0  0  0  0  0  0  0
  146.3854  136.8311  155.5961 O   0  0  0  0  0  0  0  0  0  0  0  0
  146.5128  136.0557  153.4971 N   0  0  0  0  0  0  0  0  0  0  0  0
  145.3066  135.2253  153.4552 C   0  0  1  0  0  0  0  0  0  0  0  0
  144.3444  135.6286  152.3449 C   0  0  0  0  0  0  0  0  0  0  0  0
  143.4539  134.3915  152.1921 C   0  0  0  0  0  0  0  0  0  0  0  0
  144.2630  133.2251  152.6231 N   0  3  1  0  0  0  0  0  0  0  0  0
  144.3776  132.1568  151.5944 C   0  0  0  0  0  0  0  0  0  0  0  0
  145.5155  131.1840  151.9375 C   0  0  0  0  0  0  0  0  0  0  0  0
  146.8793  131.8997  151.9677 C   0  0  0  0  0  0  0  0  0  0  0  0
  146.7469  133.4115  152.2333 C   0  0  0  0  0  0  0  0  0  0  0  0
  145.5554  133.7299  153.1698 C   0  0  1  0  0  0  0  0  0  0  0  0
  149.6136  139.3594  154.4237 C   0  0  0  0  0  0  0  0  0  0  0  0
  150.3122  140.3048  155.0847 N   0  0  0  0  0  0  0  0  0  0  0  0
  151.6807  144.7284  156.9011 H   0  0  0  0  0  0  0  0  0  0  0  0
  152.4984  143.5873  157.9546 H   0  0  0  0  0  0  0  0  0  0  0  0
  150.7794  143.9090  158.1708 H   0  0  0  0  0  0  0  0  0  0  0  0
  150.3735  142.9217  155.8239 H   0  0  0  0  0  0  0  0  0  0  0  0
  152.0589  142.5532  155.7316 H   0  0  0  0  0  0  0  0  0  0  0  0
  151.8834  142.1061  158.8554 H   0  0  0  0  0  0  0  0  0  0  0  0
  150.5514  141.0250  159.0993 H   0  0  0  0  0  0  0  0  0  0  0  0
  152.6899  139.9224  159.7231 H   0  0  0  0  0  0  0  0  0  0  0  0
  153.3100  140.1328  158.0915 H   0  0  0  0  0  0  0  0  0  0  0  0
  151.9443  139.0605  158.3869 H   0  0  0  0  0  0  0  0  0  0  0  0
  149.4296  139.4198  158.2437 H   0  0  0  0  0  0  0  0  0  0  0  0
  148.1558  137.7294  157.0394 H   0  0  0  0  0  0  0  0  0  0  0  0
  148.5504  137.2509  153.3604 H   0  0  0  0  0  0  0  0  0  0  0  0
  147.0808  136.0455  152.6620 H   0  0  0  0  0  0  0  0  0  0  0  0
  144.7695  135.3227  154.4011 H   0  0  0  0  0  0  0  0  0  0  0  0
  143.7768  136.5296  152.5796 H   0  0  0  0  0  0  0  0  0  0  0  0
  144.8900  135.8075  151.4168 H   0  0  0  0  0  0  0  0  0  0  0  0
  142.5942  134.4662  152.8590 H   0  0  0  0  0  0  0  0  0  0  0  0
  143.0681  134.2970  151.1760 H   0  0  0  0  0  0  0  0  0  0  0  0
  143.4271  131.6271  151.5248 H   0  0  0  0  0  0  0  0  0  0  0  0
  144.5664  132.5967  150.6135 H   0  0  0  0  0  0  0  0  0  0  0  0
  145.3165  130.7366  152.9125 H   0  0  0  0  0  0  0  0  0  0  0  0
  145.5431  130.3594  151.2245 H   0  0  0  0  0  0  0  0  0  0  0  0
  147.5045  131.4385  152.7332 H   0  0  0  0  0  0  0  0  0  0  0  0
  147.4014  131.7518  151.0217 H   0  0  0  0  0  0  0  0  0  0  0  0
  147.6854  133.7795  152.6483 H   0  0  0  0  0  0  0  0  0  0  0  0
  146.6099  133.9342  151.2855 H   0  0  0  0  0  0  0  0  0  0  0  0
  145.7391  133.2180  154.1155 H   0  0  0  0  0  0  0  0  0  0  0  0
  149.6895  139.3841  153.3464 H   0  0  0  0  0  0  0  0  0  0  0  0
  143.7737  132.8169  153.4069 H   0  0  0  0  0  0  0  0  0  0  0  0
  1  2  1  0  0  0  0
  1 25  1  0  0  0  0
  1 26  1  0  0  0  0
  1 27  1  0  0  0  0
  2  3  1  0  0  0  0
  2 28  1  0  0  0  0
  2 29  1  0  0  0  0
  3  4  1  0  0  0  0
  3  6  1  0  0  0  0
  4  5  1  0  0  0  0
  4 30  1  0  0  0  0
  4 31  1  0  0  0  0
  5 32  1  0  0  0  0
  5 33  1  0  0  0  0
  5 34  1  0  0  0  0
  6 24  1  0  0  0  0
  6  7  2  0  0  0  0
  7  8  1  0  0  0  0
  7 35  1  0  0  0  0
  8  9  2  0  0  0  0
  8 36  1  0  0  0  0
  9 10  1  0  0  0  0
  9 23  1  0  0  0  0
 10 11  1  0  0  0  0
 10 37  1  0  0  0  0
 11 12  2  0  0  0  0
 11 13  1  0  0  0  0
 13 14  1  0  0  0  0
 13 38  1  0  0  0  0
 14 22  1  0  0  0  0
 14 15  1  0  0  0  0
 14 39  1  0  0  0  0
 15 16  1  0  0  0  0
 15 40  1  0  0  0  0
 15 41  1  0  0  0  0
 16 17  1  0  0  0  0
 16 42  1  0  0  0  0
 16 43  1  0  0  0  0
 17 22  1  0  0  0  0
 17 18  1  0  0  0  0
 17 54  1  0  0  0  0
 18 19  1  0  0  0  0
 18 44  1  0  0  0  0
 18 45  1  0  0  0  0
 19 20  1  0  0  0  0
 19 46  1  0  0  0  0
 19 47  1  0  0  0  0
 20 21  1  0  0  0  0
 20 48  1  0  0  0  0
 20 49  1  0  0  0  0
 21 22  1  0  0  0  0
 21 50  1  0  0  0  0
 21 51  1  0  0  0  0
 22 52  1  0  0  0  0
 23 24  2  0  0  0  0
 23 53  1  0  0  0  0
M  CHG  1  17   1
M  END
> <s_m_source_file>
AV-unprocessed.smi

> <i_m_source_file_index>
1701

> <i_lp_mmshare_version>
43012

> <i_f3d_flags>
0

> <s_epik_input>
W0NIM11bQ0gyXU4oW0NIMl1bQ0gzXSljMVtjSF1bY0hdYyhbY0hdbjEpW05IXUMoPU8pW05IXVtDQEhdKFtDSDJdW0NIMl0yKVtDQEBIXShOMjMpW0NIMl1bQ0gyXVtDSDJdW0NIMl0z

> <s_epik_cmdline>
J2VwaWtfcHl0aG9uJywgJy1waCcsICc3LjAnLCAnLXRuJywgJzgnLCAnLW1hJywgJzIwMCcsICctbWV0YWxfYmluZGluZycsICctaW1hZScsICc8aW5maWxlLm1hZT4nLCAnLW9tYWUnLCAnPG91dGZpbGUubWFlPic=

> <r_lp_tautomer_probability>
1

> <r_epik_Ionization_Penalty>
0.56662

> <r_epik_Ionization_Penalty_Charging>
0.000974069

> <r_epik_Ionization_Penalty_Neutral>
0.565646

> <r_epik_State_Penalty>
2.0247

> <r_epik_Charging_Adjusted_Penalty>
2.02568

> <i_epik_Tot_Q>
1

> <i_epik_Tot_abs_Q>
1

> <r_epik_Metal_State_Penalty>
1.51504

> <b_epik_Metal_Only>
0

> <s_lp_Force_Field>
OPLS_2005

> <r_lp_Energy>
59.6677

> <b_lp_Chiralities_Consistent>
1

> <s_lp_Variant>
AV-unprocessed.smi:1701-10

> <Gold.Version>
5.8.1

> <Gold.Id.Protein>
6NUR|6NUR_protein|mol2

> <Gold.PLP.Fitness>
46.4415

> <Gold.PLP.PLP>
-30.7324

> <Gold.PLP.part.hbond>
-3.8890

> <Gold.PLP.part.metal>
0.0000

> <Gold.PLP.part.buried>
-4.0920

> <Gold.PLP.part.nonpolar>
-23.5008

> <Gold.PLP.part.repulsive>
0.0862

> <Gold.PLP.ligand.clash>
0.0000

> <Gold.PLP.ligand.torsion>
0.7315

> <Gold.PLP.Chemscore.Hbond>
4.6835

> <Gold.PLP.Chemscore.CHOScore>
1.0000

> <Gold.PLP.Chemscore.Metal>
0.0000

> <Gold.Chemscore.Hbonds>
donor molecule, donor type, donor heavy atom, donor atom, acceptor molecule, acceptor atom, score
      L1  H    10    37       P1  7948  1.00
      L1  H    13    38       P1  7948  0.95
      L1  H    17    54       P1 10957  1.92
      P1  H  7989  7998       L1    24  0.66
      L1  C    23    53       P1  7957  1.00

> <Gold.PLP.Chemscore.Internal.Correction>
0.1216

> <Gold.Rescore>
     Score         DG    S(hbond)    S(metal)    S(lipo)     H(rot)  DE(clash)    DE(int)     intcor
     19.25     -22.05       2.92        0.00      86.43       1.28       0.96       1.84       ----

> <Gold.Chemscore.Fitness>
19.2504

> <Gold.Chemscore.DG>
-22.0493

> <Gold.Chemscore.ZeroCoef>
-5.4800

> <Gold.Chemscore.Hbond>
2.9173

> <Gold.Chemscore.Metal>
0.0000

> <Gold.Chemscore.Lipo>
86.4275

> <Gold.Chemscore.Internal_Hbond>
0.0000

> <Gold.Chemscore.DEClash>
0.9556

> <Gold.Chemscore.DEInternal>
1.8433

> <Gold.Chemscore.Rot>
1.2838

> <Gold.Chemscore.Internal.Correction>
   9.000000E+99

> <Gold.Chemscore.Hbonds>
donor molecule, donor type, donor heavy atom, donor atom, acceptor molecule, acceptor atom, score
      L1  H    10    37       P1  7948  0.99
      L1  H    13    38       P1  7948  0.85
      L1  H    17    54       P1 10957  0.55
      P1  H  7989  7998       L1    24  0.13

> <Gold.Chemscore.Hbond.Weighted>
-9.7438

> <Gold.Chemscore.Metal.Weighted>
-0.0000

> <Gold.Chemscore.Lipo.Weighted>
-10.1120

> <Gold.Chemscore.Internal_Hbond.Weighted>
0.0000

> <Gold.Chemscore.DEClash.Weighted>
0.9556

> <Gold.Chemscore.DEInternal.Weighted>
1.8433

> <Gold.Chemscore.Rot.Weighted>
3.2865

> <Gold.Chemscore.Internal.Correction.Weighted>
   9.000000E+99

> <Gold.Protein.RotatedTorsions>
[ 6907 6896 6895 6894 ] final  159.75 input  -60.11 | X-H torsion
[ 7974 7965 7964 7962 ] final  -83.80 input  175.53 | X-H torsion
[ 8008 7997 7996 7995 ] final -134.81 input   59.86 | X-H torsion
[ 10167 10162 10161 10158 ] final -102.53 input  -65.29 | X-H torsion
[ 10718 10713 10712 10709 ] final   -4.16 input   66.30 | X-H torsion
[ 10763 10752 10751 10750 ] final   19.80 input  -60.55 | X-H torsion
[ 11005 11000 10999 10996 ] final    7.39 input  -57.11 | X-H torsion

> <Gold.Protein.ActiveResidues>
 VAL166  LYS551  ARG553  GLY616  TRP617  ASP618  TYR619  PRO620  LYS621  CYS622 
 ASP623  PHE694  ASN695  SER759  ASP760  ASP761  ALA762  ILE779  LEU786  VAL792 
 PHE793  MET794  SER795  GLU796  ALA797  LYS798  CYS799  TRP800  GLU811  SER814 

> <Gold.Protein.RotatedAtoms>
  151.9810  133.3757  159.4107 H   0  0  0  0  0  0  0  0  0  0  0  0  # atno 6907 bound_to 6896
  150.6935  134.4039  159.5140 H   0  0  0  0  0  0  0  0  0  0  0  0  # atno 6908 bound_to 6896
  152.1758  134.8796  160.0581 H   0  0  0  0  0  0  0  0  0  0  0  0  # atno 6909 bound_to 6896
  145.5151  140.9536  143.1686 H   0  0  0  0  0  0  0  0  0  0  0  0  # atno 7974 bound_to 7965
  155.3682  140.0487  157.3046 H   0  0  0  0  0  0  0  0  0  0  0  0  # atno 8008 bound_to 7997
  154.5143  140.2203  155.9059 H   0  0  0  0  0  0  0  0  0  0  0  0  # atno 8009 bound_to 7997
  156.1619  140.3114  155.8827 H   0  0  0  0  0  0  0  0  0  0  0  0  # atno 8010 bound_to 7997
  140.2296  143.3616  152.0898 H   0  0  0  0  0  0  0  0  0  0  0  0  # atno 10167 bound_to 10162
  156.7654  130.5283  149.5777 H   0  0  0  0  0  0  0  0  0  0  0  0  # atno 10718 bound_to 10713
  153.1131  135.6701  153.9466 H   0  0  0  0  0  0  0  0  0  0  0  0  # atno 10763 bound_to 10752
  153.9003  135.3036  155.3450 H   0  0  0  0  0  0  0  0  0  0  0  0  # atno 10764 bound_to 10752
  154.7549  135.5016  153.9434 H   0  0  0  0  0  0  0  0  0  0  0  0  # atno 10765 bound_to 10752
  140.5488  134.0303  155.7929 H   0  0  0  0  0  0  0  0  0  0  0  0  # atno 11005 bound_to 11000
  144.7706  139.6743  143.7196 LP  0  0  0  0  0  0  0  0  0  0  0  0  # atno 17320 bound_to 7965
  146.2142  139.5519  142.9661 LP  0  0  0  0  0  0  0  0  0  0  0  0  # atno 17321 bound_to 7965
  139.5114  144.6901  151.5783 LP  0  0  0  0  0  0  0  0  0  0  0  0  # atno 17342 bound_to 10162
  140.6195  143.9286  150.6514 LP  0  0  0  0  0  0  0  0  0  0  0  0  # atno 17343 bound_to 10162
  156.1312  130.6179  151.0336 LP  0  0  0  0  0  0  0  0  0  0  0  0  # atno 17370 bound_to 10713
  157.6715  131.0860  150.7599 LP  0  0  0  0  0  0  0  0  0  0  0  0  # atno 17371 bound_to 10713
  141.1184  133.9502  157.2778 LP  0  0  0  0  0  0  0  0  0  0  0  0  # atno 17394 bound_to 11000
  139.9466  135.0183  156.8869 LP  0  0  0  0  0  0  0  0  0  0  0  0  # atno 17395 bound_to 11000

$$$$
