AV-unprocessed.smi:2417|AV-procd|sdf|9549|dock8
  -GOLD-   2272013183D 1   1.00000     0.00000
 Structure written by MMmdl.
 38 39  0  0  0  0  0  0  0  0  1 V2000
  144.3141  144.3432  156.4063 C   0  0  0  0  0  0  0  0  0  0  0  0
  145.2941  143.3297  155.8421 C   0  0  0  0  0  0  0  0  0  0  0  0
  145.6681  143.5281  154.5098 N   0  0  0  0  0  0  0  0  0  0  0  0
  146.4968  142.7124  153.9444 C   0  0  0  0  0  0  0  0  0  0  0  0
  147.0463  141.6215  154.6372 N   0  0  0  0  0  0  0  0  0  0  0  0
  147.9756  140.7684  153.8787 C   0  0  0  0  0  0  0  0  0  0  0  0
  149.2471  140.4300  154.6894 C   0  0  1  0  0  0  0  0  0  0  0  0
  150.2079  139.8059  153.8619 O   0  0  0  0  0  0  0  0  0  0  0  0
  149.9071  141.6670  155.3207 C   0  0  0  0  0  0  0  0  0  0  0  0
  150.9223  141.2625  156.2320 O   0  0  0  0  0  0  0  0  0  0  0  0
  151.2593  142.1196  157.2573 C   0  0  0  0  0  0  0  0  0  0  0  0
  151.0537  143.4967  157.0329 C   0  0  0  0  0  0  0  0  0  0  0  0
  151.3671  144.4438  158.0268 C   0  0  0  0  0  0  0  0  0  0  0  0
  151.8935  144.0200  159.2609 C   0  0  0  0  0  0  0  0  0  0  0  0
  152.1955  144.9284  160.2182 F   0  0  0  0  0  0  0  0  0  0  0  0
  152.1055  142.6493  159.4979 C   0  0  0  0  0  0  0  0  0  0  0  0
  151.7912  141.7020  158.5038 C   0  0  0  0  0  0  0  0  0  0  0  0
  146.7278  141.3497  155.9357 C   0  0  0  0  0  0  0  0  0  0  0  0
  147.2027  140.3785  156.5280 O   0  0  0  0  0  0  0  0  0  0  0  0
  145.7847  142.2871  156.5665 C   0  0  0  0  0  0  0  0  0  0  0  0
  145.4098  142.0179  158.0186 C   0  0  0  0  0  0  0  0  0  0  0  0
  144.7485  144.8611  157.2618 H   0  0  0  0  0  0  0  0  0  0  0  0
  143.3966  143.8487  156.7263 H   0  0  0  0  0  0  0  0  0  0  0  0
  144.0459  145.0940  155.6621 H   0  0  0  0  0  0  0  0  0  0  0  0
  146.8146  142.8180  152.9056 H   0  0  0  0  0  0  0  0  0  0  0  0
  147.4960  139.8554  153.5190 H   0  0  0  0  0  0  0  0  0  0  0  0
  148.2589  141.2967  152.9663 H   0  0  0  0  0  0  0  0  0  0  0  0
  149.0100  139.7334  155.4945 H   0  0  0  0  0  0  0  0  0  0  0  0
  149.8382  139.7066  152.9978 H   0  0  0  0  0  0  0  0  0  0  0  0
  150.3593  142.2621  154.5256 H   0  0  0  0  0  0  0  0  0  0  0  0
  149.1585  142.2889  155.8149 H   0  0  0  0  0  0  0  0  0  0  0  0
  150.6503  143.8310  156.0884 H   0  0  0  0  0  0  0  0  0  0  0  0
  151.2029  145.4950  157.8414 H   0  0  0  0  0  0  0  0  0  0  0  0
  152.5099  142.3226  160.4445 H   0  0  0  0  0  0  0  0  0  0  0  0
  151.9681  140.6602  158.7232 H   0  0  0  0  0  0  0  0  0  0  0  0
  144.9359  141.0399  158.1082 H   0  0  0  0  0  0  0  0  0  0  0  0
  144.7206  142.7546  158.4283 H   0  0  0  0  0  0  0  0  0  0  0  0
  146.3025  142.0202  158.6448 H   0  0  0  0  0  0  0  0  0  0  0  0
  1  2  1  0  0  0  0
  1 22  1  0  0  0  0
  1 23  1  0  0  0  0
  1 24  1  0  0  0  0
  2 20  2  0  0  0  0
  2  3  1  0  0  0  0
  3  4  2  0  0  0  0
  4  5  1  0  0  0  0
  4 25  1  0  0  0  0
  5  6  1  0  0  0  0
  5 18  1  0  0  0  0
  6  7  1  0  0  0  0
  6 26  1  0  0  0  0
  6 27  1  0  0  0  0
  7  8  1  0  0  0  0
  7  9  1  0  0  0  0
  7 28  1  0  0  0  0
  8 29  1  0  0  0  0
  9 10  1  0  0  0  0
  9 30  1  0  0  0  0
  9 31  1  0  0  0  0
 10 11  1  0  0  0  0
 11 17  1  0  0  0  0
 11 12  2  0  0  0  0
 12 13  1  0  0  0  0
 12 32  1  0  0  0  0
 13 14  2  0  0  0  0
 13 33  1  0  0  0  0
 14 15  1  0  0  0  0
 14 16  1  0  0  0  0
 16 17  2  0  0  0  0
 16 34  1  0  0  0  0
 17 35  1  0  0  0  0
 18 19  2  0  0  0  0
 18 20  1  0  0  0  0
 20 21  1  0  0  0  0
 21 36  1  0  0  0  0
 21 37  1  0  0  0  0
 21 38  1  0  0  0  0
M  END
> <s_m_source_file>
AV-unprocessed.smi

> <i_m_source_file_index>
2417

> <i_lp_mmshare_version>
43012

> <i_f3d_flags>
0

> <s_epik_input>
W0NIM11jMW5bY0hdbihjKD1PKWMxW0NIM10pW0NIMl1bQ0BIXShbT0hdKVtDSDJdT2MyW2NIXVtjSF1jKEYpW2NIXVtjSF0y

> <s_epik_cmdline>
J2VwaWtfcHl0aG9uJywgJy1waCcsICc3LjAnLCAnLXRuJywgJzgnLCAnLW1hJywgJzIwMCcsICctbWV0YWxfYmluZGluZycsICctaW1hZScsICc8aW5maWxlLm1hZT4nLCAnLW9tYWUnLCAnPG91dGZpbGUubWFlPic=

> <r_lp_tautomer_probability>
1

> <r_epik_Ionization_Penalty>
3.65384e-05

> <r_epik_Ionization_Penalty_Charging>
8.23007e-08

> <r_epik_Ionization_Penalty_Neutral>
3.64561e-05

> <r_epik_State_Penalty>
-0

> <r_epik_Charging_Adjusted_Penalty>
8.23007e-08

> <i_epik_Tot_Q>
0

> <i_epik_Tot_abs_Q>
0

> <r_epik_Metal_State_Penalty>
-0

> <b_epik_Metal_Only>
0

> <s_lp_Force_Field>
OPLS_2005

> <r_lp_Energy>
22.9041

> <b_lp_Chiralities_Consistent>
1

> <s_lp_Variant>
AV-unprocessed.smi:2417-2

> <Gold.Version>
5.8.1

> <Gold.Id.Protein>
6NUR|6NUR_protein|mol2

> <Gold.PLP.Fitness>
45.4670

> <Gold.PLP.PLP>
-41.0855

> <Gold.PLP.part.hbond>
-2.0000

> <Gold.PLP.part.metal>
0.0000

> <Gold.PLP.part.buried>
-2.7550

> <Gold.PLP.part.nonpolar>
-35.8766

> <Gold.PLP.part.repulsive>
0.2772

> <Gold.PLP.ligand.clash>
0.0002

> <Gold.PLP.ligand.torsion>
0.7757

> <Gold.PLP.Chemscore.Hbond>
1.9600

> <Gold.PLP.Chemscore.CHOScore>
0.0000

> <Gold.PLP.Chemscore.Metal>
0.0000

> <Gold.Chemscore.Hbonds>
donor molecule, donor type, donor heavy atom, donor atom, acceptor molecule, acceptor atom, score
      L1  H     8    29       P1  7957  1.00
      P1  H  7989  7998       L1     8  0.91

> <Gold.PLP.Chemscore.Internal.Correction>
0.0533

> <Gold.Rescore>
     Score         DG    S(hbond)    S(metal)    S(lipo)     H(rot)  DE(clash)    DE(int)     intcor
     13.33     -14.22       1.49        0.00      87.64       2.54       0.29       0.60       ----

> <Gold.Chemscore.Fitness>
13.3285

> <Gold.Chemscore.DG>
-14.2220

> <Gold.Chemscore.ZeroCoef>
-5.4800

> <Gold.Chemscore.Hbond>
1.4906

> <Gold.Chemscore.Metal>
0.0000

> <Gold.Chemscore.Lipo>
87.6415

> <Gold.Chemscore.Internal_Hbond>
0.0000

> <Gold.Chemscore.DEClash>
0.2886

> <Gold.Chemscore.DEInternal>
0.6048

> <Gold.Chemscore.Rot>
2.5355

> <Gold.Chemscore.Internal.Correction>
   9.000000E+99

> <Gold.Chemscore.Hbonds>
donor molecule, donor type, donor heavy atom, donor atom, acceptor molecule, acceptor atom, score
      L1  H     8    29       P1  7957  0.99
      P1  H  7989  7998       L1     8  0.18

> <Gold.Chemscore.Hbond.Weighted>
-4.9787

> <Gold.Chemscore.Metal.Weighted>
-0.0000

> <Gold.Chemscore.Lipo.Weighted>
-10.2541

> <Gold.Chemscore.Internal_Hbond.Weighted>
0.0000

> <Gold.Chemscore.DEClash.Weighted>
0.2886

> <Gold.Chemscore.DEInternal.Weighted>
0.6048

> <Gold.Chemscore.Rot.Weighted>
6.4908

> <Gold.Chemscore.Internal.Correction.Weighted>
   9.000000E+99

> <Gold.Protein.RotatedTorsions>
[ 6907 6896 6895 6894 ] final   88.81 input  -60.11 | X-H torsion
[ 7974 7965 7964 7962 ] final   23.03 input  175.53 | X-H torsion
[ 8008 7997 7996 7995 ] final  115.87 input   59.86 | X-H torsion
[ 10167 10162 10161 10158 ] final -131.56 input  -65.29 | X-H torsion
[ 10718 10713 10712 10709 ] final  154.37 input   66.30 | X-H torsion
[ 10763 10752 10751 10750 ] final  -73.84 input  -60.55 | X-H torsion
[ 11005 11000 10999 10996 ] final  -48.02 input  -57.11 | X-H torsion

> <Gold.Protein.ActiveResidues>
 VAL166  LYS551  ARG553  GLY616  TRP617  ASP618  TYR619  PRO620  LYS621  CYS622 
 ASP623  PHE694  ASN695  SER759  ASP760  ASP761  ALA762  ILE779  LEU786  VAL792 
 PHE793  MET794  SER795  GLU796  ALA797  LYS798  CYS799  TRP800  GLU811  SER814 

> <Gold.Protein.RotatedAtoms>
  152.5429  134.2063  159.8731 H   0  0  0  0  0  0  0  0  0  0  0  0  # atno 6907 bound_to 6896
  151.2048  133.4583  159.2604 H   0  0  0  0  0  0  0  0  0  0  0  0  # atno 6908 bound_to 6896
  151.0954  134.9953  159.8478 H   0  0  0  0  0  0  0  0  0  0  0  0  # atno 6909 bound_to 6896
  146.2003  139.7802  142.8767 H   0  0  0  0  0  0  0  0  0  0  0  0  # atno 7974 bound_to 7965
  156.2407  140.2929  156.0436 H   0  0  0  0  0  0  0  0  0  0  0  0  # atno 8008 bound_to 7997
  155.1960  140.0408  157.2926 H   0  0  0  0  0  0  0  0  0  0  0  0  # atno 8009 bound_to 7997
  154.6163  140.2464  155.7613 H   0  0  0  0  0  0  0  0  0  0  0  0  # atno 8010 bound_to 7997
  139.9176  143.6420  152.2561 H   0  0  0  0  0  0  0  0  0  0  0  0  # atno 10167 bound_to 10162
  157.2325  131.0742  151.1844 H   0  0  0  0  0  0  0  0  0  0  0  0  # atno 10718 bound_to 10713
  154.4650  135.5884  153.6282 H   0  0  0  0  0  0  0  0  0  0  0  0  # atno 10763 bound_to 10752
  152.9827  135.6053  154.3438 H   0  0  0  0  0  0  0  0  0  0  0  0  # atno 10764 bound_to 10752
  154.3314  135.2842  155.2449 H   0  0  0  0  0  0  0  0  0  0  0  0  # atno 10765 bound_to 10752
  141.0676  133.6689  156.3381 H   0  0  0  0  0  0  0  0  0  0  0  0  # atno 11005 bound_to 11000
  145.3507  141.0307  143.3340 LP  0  0  0  0  0  0  0  0  0  0  0  0  # atno 17320 bound_to 7965
  144.8668  139.5096  143.6786 LP  0  0  0  0  0  0  0  0  0  0  0  0  # atno 17321 bound_to 7965
  139.6889  144.7649  151.1474 LP  0  0  0  0  0  0  0  0  0  0  0  0  # atno 17342 bound_to 10162
  140.7670  143.5617  150.9091 LP  0  0  0  0  0  0  0  0  0  0  0  0  # atno 17343 bound_to 10162
  157.3464  130.7059  149.6413 LP  0  0  0  0  0  0  0  0  0  0  0  0  # atno 17370 bound_to 10713
  155.9674  130.4265  150.4702 LP  0  0  0  0  0  0  0  0  0  0  0  0  # atno 17371 bound_to 10713
  140.5742  134.5810  157.5464 LP  0  0  0  0  0  0  0  0  0  0  0  0  # atno 17394 bound_to 11000
  139.9491  134.7649  156.0491 LP  0  0  0  0  0  0  0  0  0  0  0  0  # atno 17395 bound_to 11000

$$$$
