AV-unprocessed.smi:1159|AV-procd|sdf|4915|dock5
  -GOLD-   22720 3493D 1   1.00000     0.00000
 Structure written by MMmdl.
 41 42  0  0  0  0  0  0  0  0  1 V2000
  146.1226  138.1274  154.6424 O   0  0  0  0  0  0  0  0  0  0  0  0
  146.9719  137.6596  153.8840 C   0  0  0  0  0  0  0  0  0  0  0  0
  148.2471  138.0748  153.7971 N   0  0  0  0  0  0  0  0  0  0  0  0
  148.8943  139.0896  154.5524 C   0  0  0  0  0  0  0  0  0  0  0  0
  148.2365  139.9240  155.4868 C   0  0  0  0  0  0  0  0  0  0  0  0
  148.9895  140.8833  156.1902 C   0  0  0  0  0  0  0  0  0  0  0  0
  150.3741  140.9762  155.9466 C   0  0  0  0  0  0  0  0  0  0  0  0
  151.1031  141.9213  156.6384 O   0  0  0  0  0  0  0  0  0  0  0  0
  150.5082  142.5417  157.7752 C   0  0  0  0  0  0  0  0  0  0  0  0
  151.4916  143.5574  158.3678 C   0  0  0  0  0  0  0  0  0  0  0  0
  152.5505  142.9289  158.8774 F   0  0  0  0  0  0  0  0  0  0  0  0
  151.9053  144.3824  157.4066 F   0  0  0  0  0  0  0  0  0  0  0  0
  150.8959  144.2752  159.3197 F   0  0  0  0  0  0  0  0  0  0  0  0
  151.0139  140.1701  155.0635 N   0  0  0  0  0  0  0  0  0  0  0  0
  150.2862  139.2512  154.3937 C   0  0  0  0  0  0  0  0  0  0  0  0
  146.7228  136.6734  153.0104 N   0  0  0  0  0  0  0  0  0  0  0  0
  145.4353  136.0021  152.8225 C   0  0  1  0  0  0  0  0  0  0  0  0
  145.5478  134.9521  151.6942 C   0  0  0  0  0  0  0  0  0  0  0  0
  144.2045  134.5812  151.0456 C   0  0  0  0  0  0  0  0  0  0  0  0
  143.1939  133.9167  151.9918 C   0  0  0  0  0  0  0  0  0  0  0  0
  142.7067  134.8410  153.1207 C   0  0  0  0  0  0  0  0  0  0  0  0
  143.6654  134.9438  154.2138 N   0  0  0  0  0  0  0  0  0  0  0  0
  144.9098  135.4429  154.1584 C   0  0  0  0  0  0  0  0  0  0  0  0
  145.6250  135.4485  155.1601 O   0  0  0  0  0  0  0  0  0  0  0  0
  148.8015  137.6604  153.0620 H   0  0  0  0  0  0  0  0  0  0  0  0
  147.1797  139.8384  155.6873 H   0  0  0  0  0  0  0  0  0  0  0  0
  148.5130  141.5345  156.9081 H   0  0  0  0  0  0  0  0  0  0  0  0
  149.5856  143.0496  157.4893 H   0  0  0  0  0  0  0  0  0  0  0  0
  150.2581  141.7917  158.5275 H   0  0  0  0  0  0  0  0  0  0  0  0
  150.8349  138.6283  153.7024 H   0  0  0  0  0  0  0  0  0  0  0  0
  147.4831  136.3496  152.4303 H   0  0  0  0  0  0  0  0  0  0  0  0
  144.7201  136.7665  152.5122 H   0  0  0  0  0  0  0  0  0  0  0  0
  146.1920  135.3361  150.9019 H   0  0  0  0  0  0  0  0  0  0  0  0
  146.0440  134.0545  152.0660 H   0  0  0  0  0  0  0  0  0  0  0  0
  143.7573  135.4713  150.6009 H   0  0  0  0  0  0  0  0  0  0  0  0
  144.3991  133.9020  150.2151 H   0  0  0  0  0  0  0  0  0  0  0  0
  142.3293  133.6148  151.3997 H   0  0  0  0  0  0  0  0  0  0  0  0
  143.6079  132.9961  152.4057 H   0  0  0  0  0  0  0  0  0  0  0  0
  142.4554  135.8316  152.7393 H   0  0  0  0  0  0  0  0  0  0  0  0
  141.7871  134.4341  153.5421 H   0  0  0  0  0  0  0  0  0  0  0  0
  143.3561  134.5890  155.1073 H   0  0  0  0  0  0  0  0  0  0  0  0
  1  2  2  0  0  0  0
  2  3  1  0  0  0  0
  2 16  1  0  0  0  0
  3  4  1  0  0  0  0
  3 25  1  0  0  0  0
  4 15  1  0  0  0  0
  4  5  2  0  0  0  0
  5  6  1  0  0  0  0
  5 26  1  0  0  0  0
  6  7  2  0  0  0  0
  6 27  1  0  0  0  0
  7  8  1  0  0  0  0
  7 14  1  0  0  0  0
  8  9  1  0  0  0  0
  9 10  1  0  0  0  0
  9 28  1  0  0  0  0
  9 29  1  0  0  0  0
 10 11  1  0  0  0  0
 10 12  1  0  0  0  0
 10 13  1  0  0  0  0
 14 15  2  0  0  0  0
 15 30  1  0  0  0  0
 16 17  1  0  0  0  0
 16 31  1  0  0  0  0
 17 23  1  0  0  0  0
 17 18  1  0  0  0  0
 17 32  1  0  0  0  0
 18 19  1  0  0  0  0
 18 33  1  0  0  0  0
 18 34  1  0  0  0  0
 19 20  1  0  0  0  0
 19 35  1  0  0  0  0
 19 36  1  0  0  0  0
 20 21  1  0  0  0  0
 20 37  1  0  0  0  0
 20 38  1  0  0  0  0
 21 22  1  0  0  0  0
 21 39  1  0  0  0  0
 21 40  1  0  0  0  0
 22 23  1  0  0  0  0
 22 41  1  0  0  0  0
 23 24  2  0  0  0  0
M  END
> <s_m_source_file>
AV-unprocessed.smi

> <i_m_source_file_index>
1159

> <i_lp_mmshare_version>
43012

> <i_f3d_flags>
0

> <s_epik_input>
Tz1DMVtOSF1bQ0gyXVtDSDJdW0NIMl1bQ0gyXVtDQEhdMVtOSF1DKD1PKVtOSF1jMltjSF1bY0hdYyhuW2NIXTIpT1tDSDJdQyhGKShGKUY=

> <s_epik_cmdline>
J2VwaWtfcHl0aG9uJywgJy1waCcsICc3LjAnLCAnLXRuJywgJzgnLCAnLW1hJywgJzIwMCcsICctbWV0YWxfYmluZGluZycsICctaW1hZScsICc8aW5maWxlLm1hZT4nLCAnLW9tYWUnLCAnPG91dGZpbGUubWFlPic=

> <r_lp_tautomer_probability>
1

> <r_epik_Ionization_Penalty>
3.53205e-05

> <r_epik_Ionization_Penalty_Charging>
0

> <r_epik_Ionization_Penalty_Neutral>
3.53205e-05

> <r_epik_State_Penalty>
-0

> <r_epik_Charging_Adjusted_Penalty>
0

> <i_epik_Tot_Q>
0

> <i_epik_Tot_abs_Q>
0

> <r_epik_Metal_State_Penalty>
-0

> <b_epik_Metal_Only>
0

> <s_lp_Force_Field>
OPLS_2005

> <r_lp_Energy>
11.134

> <b_lp_Chiralities_Consistent>
1

> <s_lp_Variant>
AV-unprocessed.smi:1159-2

> <Gold.Version>
5.8.1

> <Gold.Id.Protein>
6NUR|6NUR_protein|mol2

> <Gold.PLP.Fitness>
45.0611

> <Gold.PLP.PLP>
-37.8877

> <Gold.PLP.part.hbond>
-3.0000

> <Gold.PLP.part.metal>
0.0000

> <Gold.PLP.part.buried>
-6.2841

> <Gold.PLP.part.nonpolar>
-29.3158

> <Gold.PLP.part.repulsive>
0.2437

> <Gold.PLP.ligand.clash>
0.0000

> <Gold.PLP.ligand.torsion>
0.2484

> <Gold.PLP.Chemscore.Hbond>
2.5440

> <Gold.PLP.Chemscore.CHOScore>
0.0000

> <Gold.PLP.Chemscore.Metal>
0.0000

> <Gold.Chemscore.Hbonds>
donor molecule, donor type, donor heavy atom, donor atom, acceptor molecule, acceptor atom, score
      L1  H     3    25       P1  7948  0.94
      L1  H    16    31       P1  7948  1.00
      P1  H  7989  7998       L1    14  0.55

> <Gold.PLP.Chemscore.Internal.Correction>
0.0382

> <Gold.Rescore>
     Score         DG    S(hbond)    S(metal)    S(lipo)     H(rot)  DE(clash)    DE(int)     intcor
     10.60     -15.68       2.27        0.00      61.73       1.81       0.07       5.01       ----

> <Gold.Chemscore.Fitness>
10.6024

> <Gold.Chemscore.DG>
-15.6758

> <Gold.Chemscore.ZeroCoef>
-5.4800

> <Gold.Chemscore.Hbond>
2.2745

> <Gold.Chemscore.Metal>
0.0000

> <Gold.Chemscore.Lipo>
61.7335

> <Gold.Chemscore.Internal_Hbond>
0.0000

> <Gold.Chemscore.DEClash>
0.0658

> <Gold.Chemscore.DEInternal>
5.0077

> <Gold.Chemscore.Rot>
1.8062

> <Gold.Chemscore.Internal.Correction>
   9.000000E+99

> <Gold.Chemscore.Hbonds>
donor molecule, donor type, donor heavy atom, donor atom, acceptor molecule, acceptor atom, score
      L1  H     3    25       P1  7948  0.91
      L1  H    16    31       P1  7948  0.96
      P1  H  7989  7998       L1    14  0.03

> <Gold.Chemscore.Hbond.Weighted>
-7.5968

> <Gold.Chemscore.Metal.Weighted>
-0.0000

> <Gold.Chemscore.Lipo.Weighted>
-7.2228

> <Gold.Chemscore.Internal_Hbond.Weighted>
0.0000

> <Gold.Chemscore.DEClash.Weighted>
0.0658

> <Gold.Chemscore.DEInternal.Weighted>
5.0077

> <Gold.Chemscore.Rot.Weighted>
4.6238

> <Gold.Chemscore.Internal.Correction.Weighted>
   9.000000E+99

> <Gold.Protein.RotatedTorsions>
[ 6907 6896 6895 6894 ] final  150.52 input  -60.11 | X-H torsion
[ 7974 7965 7964 7962 ] final  -26.36 input  175.53 | X-H torsion
[ 8008 7997 7996 7995 ] final  -61.96 input   59.86 | X-H torsion
[ 10167 10162 10161 10158 ] final -136.33 input  -65.29 | X-H torsion
[ 10718 10713 10712 10709 ] final  -20.35 input   66.30 | X-H torsion
[ 10763 10752 10751 10750 ] final -175.92 input  -60.55 | X-H torsion
[ 11005 11000 10999 10996 ] final  173.07 input  -57.11 | X-H torsion

> <Gold.Protein.ActiveResidues>
 VAL166  LYS551  ARG553  GLY616  TRP617  ASP618  TYR619  PRO620  LYS621  CYS622 
 ASP623  PHE694  ASN695  SER759  ASP760  ASP761  ALA762  ILE779  LEU786  VAL792 
 PHE793  MET794  SER795  GLU796  ALA797  LYS798  CYS799  TRP800  GLU811  SER814 

> <Gold.Protein.RotatedAtoms>
  152.1133  133.4313  159.4640 H   0  0  0  0  0  0  0  0  0  0  0  0  # atno 6907 bound_to 6896
  150.6868  134.2622  159.4563 H   0  0  0  0  0  0  0  0  0  0  0  0  # atno 6908 bound_to 6896
  152.0492  134.9663  160.0625 H   0  0  0  0  0  0  0  0  0  0  0  0  # atno 6909 bound_to 6896
  146.1430  140.5010  142.8644 H   0  0  0  0  0  0  0  0  0  0  0  0  # atno 7974 bound_to 7965
  154.4474  140.1006  156.6512 H   0  0  0  0  0  0  0  0  0  0  0  0  # atno 8008 bound_to 7997
  155.5396  140.3483  155.4425 H   0  0  0  0  0  0  0  0  0  0  0  0  # atno 8009 bound_to 7997
  156.0607  140.1325  156.9934 H   0  0  0  0  0  0  0  0  0  0  0  0  # atno 8010 bound_to 7997
  139.8688  143.6983  152.2642 H   0  0  0  0  0  0  0  0  0  0  0  0  # atno 10167 bound_to 10162
  156.5331  130.4660  149.6537 H   0  0  0  0  0  0  0  0  0  0  0  0  # atno 10718 bound_to 10713
  154.5786  135.2834  155.0756 H   0  0  0  0  0  0  0  0  0  0  0  0  # atno 10763 bound_to 10752
  154.2101  135.6409  153.5116 H   0  0  0  0  0  0  0  0  0  0  0  0  # atno 10764 bound_to 10752
  153.0080  135.5489  154.6432 H   0  0  0  0  0  0  0  0  0  0  0  0  # atno 10765 bound_to 10752
  140.3365  134.7312  157.4172 H   0  0  0  0  0  0  0  0  0  0  0  0  # atno 11005 bound_to 11000
  144.7814  140.5848  143.6603 LP  0  0  0  0  0  0  0  0  0  0  0  0  # atno 17320 bound_to 7965
  145.5003  139.1484  143.3661 LP  0  0  0  0  0  0  0  0  0  0  0  0  # atno 17321 bound_to 7965
  139.7303  144.7584  151.0812 LP  0  0  0  0  0  0  0  0  0  0  0  0  # atno 17342 bound_to 10162
  140.7764  143.5096  150.9669 LP  0  0  0  0  0  0  0  0  0  0  0  0  # atno 17343 bound_to 10162
  156.3041  130.7193  151.2071 LP  0  0  0  0  0  0  0  0  0  0  0  0  # atno 17370 bound_to 10713
  157.7418  131.0498  150.5069 LP  0  0  0  0  0  0  0  0  0  0  0  0  # atno 17371 bound_to 10713
  140.0816  134.5723  155.8534 LP  0  0  0  0  0  0  0  0  0  0  0  0  # atno 17394 bound_to 11000
  141.2050  133.6643  156.6152 LP  0  0  0  0  0  0  0  0  0  0  0  0  # atno 17395 bound_to 11000

$$$$
