#       Name:                AV-unprocessed.smi:637
#       Creating user name   scv26
#       Creation time:       Fri Mar 27 00:06:47 2020


#       File generated by GOLD software.
#

@<TRIPOS>MOLECULE
AV-unprocessed.smi:637
    43    45     1
SMALL
NO_CHARGES


@<TRIPOS>ATOM
      1 ****        -5.8762   4.0842  -0.7072 C.3            1 S1                 0.0000
      2 ****        -4.6650   3.2165  -0.6519 C.2            1 S1                 0.0000
      3 ****        -3.3534   3.6118  -0.5483 C.2            1 S1                 0.0000
      4 ****        -2.4328   2.5220  -0.5246 C.2            1 S1                 0.0000
      5 ****        -3.0736   1.3091  -0.6127 C.2            1 S1                 0.0000
      6 ****        -2.3321   0.0583  -0.6137 C.2            1 S1                 0.0000
      7 ****        -3.0119  -1.2240  -0.6828 C.2            1 S1                 0.0000
      8 ****        -2.2800  -2.3589  -0.6904 C.2            1 S1                 0.0000
      9 ****        -0.8201  -2.3340  -0.6295 C.2            1 S1                 0.0000
     10 ****        -0.1266  -3.3509  -0.6361 O.2            1 S1                 0.0000
     11 ****        -0.2942  -1.0757  -0.5624 N.am           1 S1                 0.0000
     12 ****         1.1555  -0.8556  -0.4977 C.3            1 S1                 0.0000
     13 ****         1.7285  -1.1059   0.9142 C.3            1 S1                 0.0000
     14 ****         1.3631  -0.0266   1.7526 O.3            1 S1                 0.0000
     15 ****         3.2387  -1.2808   0.8611 C.ar           1 S1                 0.0000
     16 ****         3.8023  -2.5701   0.9722 C.ar           1 S1                 0.0000
     17 ****         5.1991  -2.7422   0.9123 C.ar           1 S1                 0.0000
     18 ****         6.0400  -1.6264   0.7378 C.ar           1 S1                 0.0000
     19 ****         5.4837  -0.3381   0.6226 C.ar           1 S1                 0.0000
     20 ****         6.2910   0.7354   0.4523 F              1 S1                 0.0000
     21 ****         4.0874  -0.1656   0.6825 C.ar           1 S1                 0.0000
     22 ****        -1.0389   0.0899  -0.5572 N.2            1 S1                 0.0000
     23 ****        -4.8049   1.4766  -0.7184 S.3            1 S1                 0.0000
     24 ****        -5.6038   5.1397  -0.7229 H              1 S1                 0.0000
     25 ****        -6.5138   3.9134   0.1603 H              1 S1                 0.0000
     26 ****        -6.4607   3.8751  -1.6034 H              1 S1                 0.0000
     27 ****        -3.0245   4.6390  -0.4907 H              1 S1                 0.0000
     28 ****        -1.3667   2.6813  -0.4472 H              1 S1                 0.0000
     29 ****        -4.0895  -1.2717  -0.7278 H              1 S1                 0.0000
     30 ****        -2.7858  -3.3119  -0.7425 H              1 S1                 0.0000
     31 ****         1.6334  -1.5318  -1.2094 H              1 S1                 0.0000
     32 ****         1.4177   0.1467  -0.8431 H              1 S1                 0.0000
     33 ****         1.2961  -2.0117   1.3413 H              1 S1                 0.0000
     34 ****         1.6477  -0.2217   2.6323 H              1 S1                 0.0000
     35 ****         3.1651  -3.4329   1.1010 H              1 S1                 0.0000
     36 ****         5.6255  -3.7308   0.9989 H              1 S1                 0.0000
     37 ****         7.1108  -1.7588   0.6902 H              1 S1                 0.0000
     38 ****         3.6695   0.8260   0.5876 H              1 S1                 0.0000
     39 ****        -0.5595  -4.2510  -0.6850 LP             1 S1                 0.0000
     40 ****         0.8697  -3.2769  -0.5926 LP             1 S1                 0.0000
     41 ****         0.3702   0.0915   1.7374 LP             1 S1                 0.0000
     42 ****         1.8035   0.8127   1.4337 LP             1 S1                 0.0000
     43 ****        -0.5705   0.9721  -0.5090 LP             1 S1                 0.0000
@<TRIPOS>BOND
    1    1    2 1     
    2    1   24 1     
    3    1   25 1     
    4    1   26 1     
    5    2   23 1     
    6    2    3 2     
    7    3    4 1     
    8    3   27 1     
    9    4    5 2     
   10    4   28 1     
   11    5    6 1     
   12    5   23 1     
   13    6   22 2     
   14    6    7 1     
   15    7    8 2     
   16    7   29 1     
   17    8    9 1     
   18    8   30 1     
   19    9   10 2     
   20    9   11 am    
   21   11   12 1     
   22   11   22 1     
   23   12   13 1     
   24   12   31 1     
   25   12   32 1     
   26   13   14 1     
   27   13   15 1     
   28   13   33 1     
   29   14   34 1     
   30   15   21 ar    
   31   15   16 ar    
   32   16   17 ar    
   33   16   35 1     
   34   17   18 ar    
   35   17   36 1     
   36   18   19 ar    
   37   18   37 1     
   38   19   20 1     
   39   19   21 ar    
   40   21   38 1     
   41   10   39 1     
   42   10   40 1     
   43   14   41 1     
   44   14   42 1     
   45   22   43 1     
@<TRIPOS>SUBSTRUCTURE
      1 S1             1
@<TRIPOS>SET
LONE_PAIRS      STATIC     ATOMS    <user>   **** ""
5 39 40 41 42 43
DONOR_HYDROGENS      STATIC     ATOMS    <user>   **** ""
1 34
ATOM$BLUE        STATIC     ATOMS    COLORGROUP SYSTEM
5 39 40 41 42 43
ATOM$RED        STATIC     ATOMS    COLORGROUP SYSTEM
1 34
