#       Name:                AV-unprocessed.smi:1875
#       Creating user name   scv26
#       Creation time:       Fri Mar 27 09:33:26 2020


#       File generated by GOLD software.
#

@<TRIPOS>MOLECULE
AV-unprocessed.smi:1875
    53    55     1
SMALL
NO_CHARGES


@<TRIPOS>ATOM
      1 ****        -5.1149   4.7720  -1.0588 C.3            1 S1                 0.0000
      2 ****        -4.9989   4.0011   0.2398 C.ar           1 S1                 0.0000
      3 ****        -5.4148   4.6210   1.3484 N.ar           1 S1                 0.0000
      4 ****        -5.3194   3.9338   2.5073 C.ar           1 S1                 0.0000
      5 ****        -4.8053   2.6217   2.5510 C.ar           1 S1                 0.0000
      6 ****        -4.4031   2.0698   1.3166 C.ar           1 S1                 0.0000
      7 ****        -3.8163   0.6770   1.2277 C.3            1 S1                 0.0000
      8 ****        -2.3455   0.7489   1.1543 N.4            1 S1                 1.0000
      9 ****        -1.6780  -0.5652   1.0724 C.3            1 S1                 0.0000
     10 ****        -0.1509  -0.4071   0.9937 C.3            1 S1                 0.0000
     11 ****         0.1844   0.1738  -0.2524 O.3            1 S1                 0.0000
     12 ****         0.5800  -1.7548   1.1474 C.3            1 S1                 0.0000
     13 ****         2.0241  -1.6106   1.0987 N.pl3          1 S1                 0.0000
     14 ****         2.8339  -1.2368   2.1080 C.2            1 S1                 0.0000
     15 ****         4.1359  -1.1647   1.8496 N.2            1 S1                 0.0000
     16 ****         4.1768  -1.5358   0.5166 C.ar           1 S1                 0.0000
     17 ****         5.2712  -1.6613  -0.3665 C.ar           1 S1                 0.0000
     18 ****         5.0777  -2.0588  -1.7086 C.ar           1 S1                 0.0000
     19 ****         6.2834  -2.1782  -2.6241 C.3            1 S1                 0.0000
     20 ****         3.7719  -2.3394  -2.1854 C.ar           1 S1                 0.0000
     21 ****         3.5406  -2.7694  -3.6232 C.3            1 S1                 0.0000
     22 ****         2.6671  -2.2191  -1.3165 C.ar           1 S1                 0.0000
     23 ****         2.8725  -1.8221   0.0168 C.ar           1 S1                 0.0000
     24 ****        -4.4970   2.7644   0.1611 N.ar           1 S1                 0.0000
     25 ****        -5.1391   5.8475  -0.8784 H              1 S1                 0.0000
     26 ****        -6.0303   4.4915  -1.5802 H              1 S1                 0.0000
     27 ****        -4.2684   4.5603  -1.7130 H              1 S1                 0.0000
     28 ****        -5.6521   4.4338   3.4049 H              1 S1                 0.0000
     29 ****        -4.7284   2.0755   3.4796 H              1 S1                 0.0000
     30 ****        -4.1159   0.0935   2.0993 H              1 S1                 0.0000
     31 ****        -4.2082   0.1685   0.3454 H              1 S1                 0.0000
     32 ****        -2.0957   1.2869   0.3362 H              1 S1                 0.0000
     33 ****        -1.9433  -1.1385   1.9617 H              1 S1                 0.0000
     34 ****        -2.0522  -1.1206   0.2109 H              1 S1                 0.0000
     35 ****         0.1822   0.2670   1.7845 H              1 S1                 0.0000
     36 ****        -0.0045  -0.4477  -0.9392 H              1 S1                 0.0000
     37 ****         0.3186  -2.2175   2.1001 H              1 S1                 0.0000
     38 ****         0.2702  -2.4527   0.3685 H              1 S1                 0.0000
     39 ****         2.4448  -1.0021   3.0881 H              1 S1                 0.0000
     40 ****         6.2657  -1.4481  -0.0028 H              1 S1                 0.0000
     41 ****         6.1760  -1.5191  -3.4858 H              1 S1                 0.0000
     42 ****         6.3917  -3.2026  -2.9817 H              1 S1                 0.0000
     43 ****         7.2040  -1.9048  -2.1075 H              1 S1                 0.0000
     44 ****         2.4842  -2.9572  -3.8180 H              1 S1                 0.0000
     45 ****         4.0886  -3.6866  -3.8404 H              1 S1                 0.0000
     46 ****         3.8753  -1.9938  -4.3122 H              1 S1                 0.0000
     47 ****         1.6680  -2.4283  -1.6684 H              1 S1                 0.0000
     48 ****        -2.0071   1.2351   1.9722 H              1 S1                 0.0000
     49 ****        -5.7801   5.5515   1.3212 LP             1 S1                 0.0000
     50 ****         1.1577   0.4032  -0.2651 LP             1 S1                 0.0000
     51 ****        -0.3556   1.0038  -0.3924 LP             1 S1                 0.0000
     52 ****         4.8876  -0.9096   2.4578 LP             1 S1                 0.0000
     53 ****        -4.2050   2.3721  -0.7111 LP             1 S1                 0.0000
@<TRIPOS>BOND
    1    1    2 1     
    2    1   25 1     
    3    1   26 1     
    4    1   27 1     
    5    2   24 ar    
    6    2    3 ar    
    7    3    4 ar    
    8    4    5 ar    
    9    4   28 1     
   10    5    6 ar    
   11    5   29 1     
   12    6    7 1     
   13    6   24 ar    
   14    7    8 1     
   15    7   30 1     
   16    7   31 1     
   17    8    9 1     
   18    8   32 1     
   19    8   48 1     
   20    9   10 1     
   21    9   33 1     
   22    9   34 1     
   23   10   11 1     
   24   10   12 1     
   25   10   35 1     
   26   11   36 1     
   27   12   13 1     
   28   12   37 1     
   29   12   38 1     
   30   13   23 1     
   31   13   14 1     
   32   14   15 2     
   33   14   39 1     
   34   15   16 1     
   35   16   23 ar    
   36   16   17 ar    
   37   17   18 ar    
   38   17   40 1     
   39   18   19 1     
   40   18   20 ar    
   41   19   41 1     
   42   19   42 1     
   43   19   43 1     
   44   20   21 1     
   45   20   22 ar    
   46   21   44 1     
   47   21   45 1     
   48   21   46 1     
   49   22   23 ar    
   50   22   47 1     
   51    3   49 1     
   52   11   50 1     
   53   11   51 1     
   54   15   52 1     
   55   24   53 1     
@<TRIPOS>SUBSTRUCTURE
      1 S1             1
@<TRIPOS>SET
LONE_PAIRS      STATIC     ATOMS    <user>   **** ""
5 49 50 51 52 53
DONOR_HYDROGENS      STATIC     ATOMS    <user>   **** ""
3 32 48 36
ATOM$BLUE        STATIC     ATOMS    COLORGROUP SYSTEM
5 49 50 51 52 53
ATOM$RED        STATIC     ATOMS    COLORGROUP SYSTEM
3 32 48 36
