AV-unprocessed.smi:2819|AV-procd|sdf|10853|dock7
  -GOLD-   2272015293D 1   1.00000     0.00000
 Structure written by MMmdl.
 50 51  0  0  0  0  0  0  0  0  2 V2000
  153.4986  139.9823  159.3695 C   0  0  0  0  0  0  0  0  0  0  0  0
  153.3947  141.2030  160.1621 N   0  0  0  0  0  0  0  0  0  0  0  0
  154.0793  141.3062  161.4442 C   0  0  0  0  0  0  0  0  0  0  0  0
  152.6245  142.2852  159.6824 C   0  0  0  0  0  0  0  0  0  0  0  0
  152.6285  143.5517  160.3157 C   0  0  0  0  0  0  0  0  0  0  0  0
  151.8167  144.5513  159.7447 C   0  0  0  0  0  0  0  0  0  0  0  0
  151.0671  144.3212  158.6463 N   0  0  0  0  0  0  0  0  0  0  0  0
  151.1257  143.0986  158.1138 C   0  0  0  0  0  0  0  0  0  0  0  0
  150.3337  142.9252  156.9996 N   0  0  0  0  0  0  0  0  0  0  0  0
  150.1242  141.8389  156.2320 C   0  0  0  0  0  0  0  0  0  0  0  0
  150.6621  140.7411  156.3830 O   0  0  0  0  0  0  0  0  0  0  0  0
  149.2346  142.0942  155.2606 N   0  0  0  0  0  0  0  0  0  0  0  0
  148.7821  141.1356  154.2527 C   0  0  0  0  0  0  0  0  0  0  0  0
  147.2323  141.0875  154.0877 C   0  0  0  0  0  0  0  0  0  0  0  0
  146.5520  140.6816  155.4194 C   0  0  0  0  0  0  0  0  0  0  0  0
  146.7006  142.5032  153.7512 C   0  0  0  0  0  0  0  0  0  0  0  0
  146.8265  140.1209  153.0041 N   0  3  0  0  0  0  0  0  0  0  0  0
  147.2897  140.4543  151.6271 C   0  0  0  0  0  0  0  0  0  0  0  0
  146.6552  139.5041  150.5976 C   0  0  0  0  0  0  0  0  0  0  0  0
  146.9758  138.1597  150.9244 O   0  0  0  0  0  0  0  0  0  0  0  0
  146.4645  137.7932  152.1978 C   0  0  0  0  0  0  0  0  0  0  0  0
  147.0951  138.6811  153.2834 C   0  0  0  0  0  0  0  0  0  0  0  0
  151.8634  142.0821  158.5803 N   0  0  0  0  0  0  0  0  0  0  0  0
  152.5122  139.5479  159.2039 H   0  0  0  0  0  0  0  0  0  0  0  0
  154.1131  139.2336  159.8694 H   0  0  0  0  0  0  0  0  0  0  0  0
  153.9508  140.1928  158.3996 H   0  0  0  0  0  0  0  0  0  0  0  0
  153.3623  141.4725  162.2487 H   0  0  0  0  0  0  0  0  0  0  0  0
  154.7908  142.1323  161.4329 H   0  0  0  0  0  0  0  0  0  0  0  0
  154.6313  140.3948  161.6734 H   0  0  0  0  0  0  0  0  0  0  0  0
  153.2160  143.7666  161.1953 H   0  0  0  0  0  0  0  0  0  0  0  0
  151.7677  145.5412  160.1731 H   0  0  0  0  0  0  0  0  0  0  0  0
  149.8244  143.7514  156.7234 H   0  0  0  0  0  0  0  0  0  0  0  0
  148.8439  143.0239  155.2092 H   0  0  0  0  0  0  0  0  0  0  0  0
  149.2535  141.4355  153.3173 H   0  0  0  0  0  0  0  0  0  0  0  0
  149.1836  140.1484  154.4827 H   0  0  0  0  0  0  0  0  0  0  0  0
  146.6360  141.4647  156.1734 H   0  0  0  0  0  0  0  0  0  0  0  0
  146.9995  139.7902  155.8585 H   0  0  0  0  0  0  0  0  0  0  0  0
  145.4875  140.4896  155.2804 H   0  0  0  0  0  0  0  0  0  0  0  0
  146.8040  143.1842  154.5970 H   0  0  0  0  0  0  0  0  0  0  0  0
  145.6421  142.4789  153.4897 H   0  0  0  0  0  0  0  0  0  0  0  0
  147.2408  142.9655  152.9253 H   0  0  0  0  0  0  0  0  0  0  0  0
  147.0216  141.4717  151.3488 H   0  0  0  0  0  0  0  0  0  0  0  0
  148.3753  140.3773  151.5649 H   0  0  0  0  0  0  0  0  0  0  0  0
  145.5726  139.6357  150.5599 H   0  0  0  0  0  0  0  0  0  0  0  0
  147.0368  139.7229  149.5999 H   0  0  0  0  0  0  0  0  0  0  0  0
  145.3765  137.8779  152.2071 H   0  0  0  0  0  0  0  0  0  0  0  0
  146.7027  136.7460  152.3847 H   0  0  0  0  0  0  0  0  0  0  0  0
  148.1688  138.4956  153.3195 H   0  0  0  0  0  0  0  0  0  0  0  0
  146.6836  138.3721  154.2421 H   0  0  0  0  0  0  0  0  0  0  0  0
  145.8198  140.1952  152.9668 H   0  0  0  0  0  0  0  0  0  0  0  0
  1  2  1  0  0  0  0
  1 24  1  0  0  0  0
  1 25  1  0  0  0  0
  1 26  1  0  0  0  0
  2  3  1  0  0  0  0
  2  4  1  0  0  0  0
  3 27  1  0  0  0  0
  3 28  1  0  0  0  0
  3 29  1  0  0  0  0
  4 23  1  0  0  0  0
  4  5  2  0  0  0  0
  5  6  1  0  0  0  0
  5 30  1  0  0  0  0
  6  7  2  0  0  0  0
  6 31  1  0  0  0  0
  7  8  1  0  0  0  0
  8  9  1  0  0  0  0
  8 23  2  0  0  0  0
  9 10  1  0  0  0  0
  9 32  1  0  0  0  0
 10 11  2  0  0  0  0
 10 12  1  0  0  0  0
 12 13  1  0  0  0  0
 12 33  1  0  0  0  0
 13 14  1  0  0  0  0
 13 34  1  0  0  0  0
 13 35  1  0  0  0  0
 14 15  1  0  0  0  0
 14 16  1  0  0  0  0
 14 17  1  0  0  0  0
 15 36  1  0  0  0  0
 15 37  1  0  0  0  0
 15 38  1  0  0  0  0
 16 39  1  0  0  0  0
 16 40  1  0  0  0  0
 16 41  1  0  0  0  0
 17 22  1  0  0  0  0
 17 18  1  0  0  0  0
 17 50  1  0  0  0  0
 18 19  1  0  0  0  0
 18 42  1  0  0  0  0
 18 43  1  0  0  0  0
 19 20  1  0  0  0  0
 19 44  1  0  0  0  0
 19 45  1  0  0  0  0
 20 21  1  0  0  0  0
 21 22  1  0  0  0  0
 21 46  1  0  0  0  0
 21 47  1  0  0  0  0
 22 48  1  0  0  0  0
 22 49  1  0  0  0  0
M  CHG  1  17   1
M  END
> <s_m_source_file>
AV-unprocessed.smi

> <i_m_source_file_index>
2819

> <i_lp_mmshare_version>
43012

> <i_f3d_flags>
0

> <s_epik_input>
W0NIM11OKFtDSDNdKWMxW2NIXVtjSF1uYyhuMSlbTkhdQyg9TylbTkhdW0NIMl1DKFtDSDNdKShbQ0gzXSlOMltDSDJdW0NIMl1PW0NIMl1bQ0gyXTI=

> <s_epik_cmdline>
J2VwaWtfcHl0aG9uJywgJy1waCcsICc3LjAnLCAnLXRuJywgJzgnLCAnLW1hJywgJzIwMCcsICctbWV0YWxfYmluZGluZycsICctaW1hZScsICc8aW5maWxlLm1hZT4nLCAnLW9tYWUnLCAnPG91dGZpbGUubWFlPic=

> <r_epik_Ionization_Penalty>
1.64867

> <r_epik_Ionization_Penalty_Charging>
0.602531

> <r_epik_Ionization_Penalty_Neutral>
1.04614

> <r_epik_State_Penalty>
1.74763

> <r_epik_Charging_Adjusted_Penalty>
2.35016

> <i_epik_Tot_Q>
1

> <i_epik_Tot_abs_Q>
1

> <r_epik_Metal_State_Penalty>
1.04264

> <b_epik_Metal_Only>
0

> <s_lp_Force_Field>
OPLS_2005

> <r_lp_Energy>
22.1801

> <b_lp_Chiralities_Consistent>
1

> <s_lp_Variant>
AV-unprocessed.smi:2819-4

> <Gold.Version>
5.8.1

> <Gold.Id.Protein>
6NUR|6NUR_protein|mol2

> <Gold.PLP.Fitness>
53.8061

> <Gold.PLP.PLP>
-39.6364

> <Gold.PLP.part.hbond>
-4.0000

> <Gold.PLP.part.metal>
0.0000

> <Gold.PLP.part.buried>
-0.7841

> <Gold.PLP.part.nonpolar>
-37.4643

> <Gold.PLP.part.repulsive>
1.5823

> <Gold.PLP.ligand.clash>
0.0000

> <Gold.PLP.ligand.torsion>
0.1501

> <Gold.PLP.Chemscore.Hbond>
4.7825

> <Gold.PLP.Chemscore.CHOScore>
0.0000

> <Gold.PLP.Chemscore.Metal>
0.0000

> <Gold.Chemscore.Hbonds>
donor molecule, donor type, donor heavy atom, donor atom, acceptor molecule, acceptor atom, score
      L1  H     9    32       P1  8028  1.00
      L1  H    12    33       P1  8028  1.00
      L1  H    17    50       P1 10175  1.11
      P1  H  7954  7966       L1    20  1.00

> <Gold.PLP.Chemscore.Internal.Correction>
0.1224

> <Gold.Rescore>
     Score         DG    S(hbond)    S(metal)    S(lipo)     H(rot)  DE(clash)    DE(int)     intcor
     17.73     -25.47       3.63        0.00     101.02       1.55       6.13       1.60       ----

> <Gold.Chemscore.Fitness>
17.7333

> <Gold.Chemscore.DG>
-25.4670

> <Gold.Chemscore.ZeroCoef>
-5.4800

> <Gold.Chemscore.Hbond>
3.6340

> <Gold.Chemscore.Metal>
0.0000

> <Gold.Chemscore.Lipo>
101.0173

> <Gold.Chemscore.Internal_Hbond>
0.0000

> <Gold.Chemscore.DEClash>
6.1320

> <Gold.Chemscore.DEInternal>
1.6017

> <Gold.Chemscore.Rot>
1.5506

> <Gold.Chemscore.Internal.Correction>
   9.000000E+99

> <Gold.Chemscore.Hbonds>
donor molecule, donor type, donor heavy atom, donor atom, acceptor molecule, acceptor atom, score
      L1  H     9    32       P1  8028  0.98
      L1  H    12    33       P1  8028  0.95
      L1  H    17    50       P1 10175  0.54
      P1  H  7954  7966       L1    20  0.29

> <Gold.Chemscore.Hbond.Weighted>
-12.1375

> <Gold.Chemscore.Metal.Weighted>
-0.0000

> <Gold.Chemscore.Lipo.Weighted>
-11.8190

> <Gold.Chemscore.Internal_Hbond.Weighted>
0.0000

> <Gold.Chemscore.DEClash.Weighted>
6.1320

> <Gold.Chemscore.DEInternal.Weighted>
1.6017

> <Gold.Chemscore.Rot.Weighted>
3.9695

> <Gold.Chemscore.Internal.Correction.Weighted>
   9.000000E+99

> <Gold.Protein.RotatedTorsions>
[ 6907 6896 6895 6894 ] final  140.00 input  -60.11 | X-H torsion
[ 7974 7965 7964 7962 ] final  133.28 input  175.53 | X-H torsion
[ 8008 7997 7996 7995 ] final   24.30 input   59.86 | X-H torsion
[ 10167 10162 10161 10158 ] final  114.61 input  -65.29 | X-H torsion
[ 10718 10713 10712 10709 ] final -155.35 input   66.30 | X-H torsion
[ 10763 10752 10751 10750 ] final  142.36 input  -60.55 | X-H torsion
[ 11005 11000 10999 10996 ] final   94.47 input  -57.11 | X-H torsion

> <Gold.Protein.ActiveResidues>
 VAL166  LYS551  ARG553  GLY616  TRP617  ASP618  TYR619  PRO620  LYS621  CYS622 
 ASP623  PHE694  ASN695  SER759  ASP760  ASP761  ALA762  ILE779  LEU786  VAL792 
 PHE793  MET794  SER795  GLU796  ALA797  LYS798  CYS799  TRP800  GLU811  SER814 

> <Gold.Protein.RotatedAtoms>
  152.2482  133.5192  159.5309 H   0  0  0  0  0  0  0  0  0  0  0  0  # atno 6907 bound_to 6896
  150.7085  134.0996  159.3970 H   0  0  0  0  0  0  0  0  0  0  0  0  # atno 6908 bound_to 6896
  151.8916  135.0414  160.0549 H   0  0  0  0  0  0  0  0  0  0  0  0  # atno 6909 bound_to 6896
  144.9882  139.4434  143.5352 H   0  0  0  0  0  0  0  0  0  0  0  0  # atno 7974 bound_to 7965
  154.9941  140.3117  155.4894 H   0  0  0  0  0  0  0  0  0  0  0  0  # atno 8008 bound_to 7997
  156.2935  140.2244  156.4988 H   0  0  0  0  0  0  0  0  0  0  0  0  # atno 8009 bound_to 7997
  154.7677  140.0454  157.1014 H   0  0  0  0  0  0  0  0  0  0  0  0  # atno 8010 bound_to 7997
  139.6376  144.7121  151.2303 H   0  0  0  0  0  0  0  0  0  0  0  0  # atno 10167 bound_to 10162
  156.5116  130.8437  151.2648 H   0  0  0  0  0  0  0  0  0  0  0  0  # atno 10718 bound_to 10713
  153.9546  135.2966  155.3437 H   0  0  0  0  0  0  0  0  0  0  0  0  # atno 10763 bound_to 10752
  154.7408  135.5025  153.9122 H   0  0  0  0  0  0  0  0  0  0  0  0  # atno 10764 bound_to 10752
  153.0977  135.6725  153.9841 H   0  0  0  0  0  0  0  0  0  0  0  0  # atno 10765 bound_to 10752
  139.8798  134.8847  156.3869 H   0  0  0  0  0  0  0  0  0  0  0  0  # atno 11005 bound_to 11000
  146.3425  139.9197  142.8768 LP  0  0  0  0  0  0  0  0  0  0  0  0  # atno 17320 bound_to 7965
  145.2324  140.9978  143.3983 LP  0  0  0  0  0  0  0  0  0  0  0  0  # atno 17321 bound_to 7965
  140.7473  143.6369  150.8371 LP  0  0  0  0  0  0  0  0  0  0  0  0  # atno 17342 bound_to 10162
  140.0002  143.5752  152.2878 LP  0  0  0  0  0  0  0  0  0  0  0  0  # atno 17343 bound_to 10162
  157.7449  130.9947  150.2719 LP  0  0  0  0  0  0  0  0  0  0  0  0  # atno 17370 bound_to 10713
  156.3235  130.3789  149.7554 LP  0  0  0  0  0  0  0  0  0  0  0  0  # atno 17371 bound_to 10713
  140.9360  133.7547  156.0085 LP  0  0  0  0  0  0  0  0  0  0  0  0  # atno 17394 bound_to 11000
  140.8275  134.3217  157.5360 LP  0  0  0  0  0  0  0  0  0  0  0  0  # atno 17395 bound_to 11000

$$$$
