AV-unprocessed.smi:1759|AV-procd|sdf|7088|dock5
  -GOLD-   22720 8303D 1   1.00000     0.00000
 Structure written by MMmdl.
 31 32  0  0  0  0  0  0  0  0  1 V2000
  150.5874  141.7540  156.2458 C   0  0  0  0  0  0  0  0  0  0  0  0
  150.2117  140.6123  155.3652 C   0  0  0  0  0  0  0  0  0  0  0  0
  149.0092  140.1201  154.9420 C   0  0  0  0  0  0  0  0  0  0  0  0
  149.3837  139.0189  154.1272 C   0  0  0  0  0  0  0  0  0  0  0  0
  148.4019  138.2193  153.4889 N   0  0  0  0  0  0  0  0  0  0  0  0
  147.0672  138.3652  153.5403 C   0  0  0  0  0  0  0  0  0  0  0  0
  146.4718  139.2255  154.1898 O   0  0  0  0  0  0  0  0  0  0  0  0
  146.4473  137.4422  152.7914 N   0  0  0  0  0  0  0  0  0  0  0  0
  145.0013  137.3107  152.6564 C   0  0  0  0  0  0  0  0  0  0  0  0
  144.6195  135.9815  151.9850 C   0  0  1  0  0  0  0  0  0  0  0  0
  145.3955  135.6997  150.6994 C   0  0  0  0  0  0  0  0  0  0  0  0
  145.3589  134.1901  150.6422 C   0  0  0  0  0  0  0  0  0  0  0  0
  145.5243  133.8250  152.1132 C   0  0  0  0  0  0  0  0  0  0  0  0
  144.9141  134.8833  152.8471 O   0  0  0  0  0  0  0  0  0  0  0  0
  150.6960  138.8544  154.0581 N   0  0  0  0  0  0  0  0  0  0  0  0
  151.2334  139.8750  154.8513 O   0  0  0  0  0  0  0  0  0  0  0  0
  149.7012  142.2794  156.6021 H   0  0  0  0  0  0  0  0  0  0  0  0
  151.2107  142.4679  155.7075 H   0  0  0  0  0  0  0  0  0  0  0  0
  151.1452  141.4037  157.1143 H   0  0  0  0  0  0  0  0  0  0  0  0
  148.0226  140.4895  155.1796 H   0  0  0  0  0  0  0  0  0  0  0  0
  148.7539  137.4585  152.9271 H   0  0  0  0  0  0  0  0  0  0  0  0
  147.0129  136.7695  152.2947 H   0  0  0  0  0  0  0  0  0  0  0  0
  144.5259  137.3902  153.6357 H   0  0  0  0  0  0  0  0  0  0  0  0
  144.6320  138.1492  152.0654 H   0  0  0  0  0  0  0  0  0  0  0  0
  143.5511  135.9560  151.7633 H   0  0  0  0  0  0  0  0  0  0  0  0
  144.9508  136.1728  149.8235 H   0  0  0  0  0  0  0  0  0  0  0  0
  146.4275  136.0433  150.7871 H   0  0  0  0  0  0  0  0  0  0  0  0
  144.3889  133.8513  150.2757 H   0  0  0  0  0  0  0  0  0  0  0  0
  146.1353  133.7641  150.0061 H   0  0  0  0  0  0  0  0  0  0  0  0
  145.0790  132.8600  152.3566 H   0  0  0  0  0  0  0  0  0  0  0  0
  146.5816  133.7868  152.3782 H   0  0  0  0  0  0  0  0  0  0  0  0
  1  2  1  0  0  0  0
  1 17  1  0  0  0  0
  1 18  1  0  0  0  0
  1 19  1  0  0  0  0
  2 16  1  0  0  0  0
  2  3  2  0  0  0  0
  3  4  1  0  0  0  0
  3 20  1  0  0  0  0
  4  5  1  0  0  0  0
  4 15  2  0  0  0  0
  5  6  1  0  0  0  0
  5 21  1  0  0  0  0
  6  7  2  0  0  0  0
  6  8  1  0  0  0  0
  8  9  1  0  0  0  0
  8 22  1  0  0  0  0
  9 10  1  0  0  0  0
  9 23  1  0  0  0  0
  9 24  1  0  0  0  0
 10 14  1  0  0  0  0
 10 11  1  0  0  0  0
 10 25  1  0  0  0  0
 11 12  1  0  0  0  0
 11 26  1  0  0  0  0
 11 27  1  0  0  0  0
 12 13  1  0  0  0  0
 12 28  1  0  0  0  0
 12 29  1  0  0  0  0
 13 14  1  0  0  0  0
 13 30  1  0  0  0  0
 13 31  1  0  0  0  0
 15 16  1  0  0  0  0
M  END
> <s_m_source_file>
AV-unprocessed.smi

> <i_m_source_file_index>
1759

> <i_lp_mmshare_version>
43012

> <i_f3d_flags>
0

> <s_epik_input>
W0NIM11jMVtjSF1jKG5vMSlbTkhdQyg9TylbTkhdW0NIMl1bQ0BASF0yW0NIMl1bQ0gyXVtDSDJdTzI=

> <s_epik_cmdline>
J2VwaWtfcHl0aG9uJywgJy1waCcsICc3LjAnLCAnLXRuJywgJzgnLCAnLW1hJywgJzIwMCcsICctbWV0YWxfYmluZGluZycsICctaW1hZScsICc8aW5maWxlLm1hZT4nLCAnLW9tYWUnLCAnPG91dGZpbGUubWFlPic=

> <r_lp_tautomer_probability>
1

> <r_epik_Ionization_Penalty>
2.1743e-05

> <r_epik_Ionization_Penalty_Charging>
0

> <r_epik_Ionization_Penalty_Neutral>
2.1743e-05

> <r_epik_State_Penalty>
-0

> <r_epik_Charging_Adjusted_Penalty>
0

> <i_epik_Tot_Q>
0

> <i_epik_Tot_abs_Q>
0

> <r_epik_Metal_State_Penalty>
-0

> <b_epik_Metal_Only>
0

> <s_lp_Force_Field>
OPLS_2005

> <r_lp_Energy>
14.348

> <b_lp_Chiralities_Consistent>
1

> <s_lp_Variant>
AV-unprocessed.smi:1759-2

> <Gold.Version>
5.8.1

> <Gold.Id.Protein>
6NUR|6NUR_protein|mol2

> <Gold.PLP.Fitness>
32.3679

> <Gold.PLP.PLP>
-24.7420

> <Gold.PLP.part.hbond>
-3.8540

> <Gold.PLP.part.metal>
0.0000

> <Gold.PLP.part.buried>
-3.0126

> <Gold.PLP.part.nonpolar>
-18.9918

> <Gold.PLP.part.repulsive>
0.5332

> <Gold.PLP.ligand.clash>
0.0000

> <Gold.PLP.ligand.torsion>
0.1148

> <Gold.PLP.Chemscore.Hbond>
2.6180

> <Gold.PLP.Chemscore.CHOScore>
0.0000

> <Gold.PLP.Chemscore.Metal>
0.0000

> <Gold.Chemscore.Hbonds>
donor molecule, donor type, donor heavy atom, donor atom, acceptor molecule, acceptor atom, score
      L1  H     5    21       P1  7948  1.00
      L1  H     8    22       P1  7948  0.84
      P1  H  7989  7998       L1    16  0.70

> <Gold.PLP.Chemscore.Internal.Correction>
0.0015

> <Gold.Rescore>
     Score         DG    S(hbond)    S(metal)    S(lipo)     H(rot)  DE(clash)    DE(int)     intcor
     12.57     -14.17       1.90        0.00      48.55       1.30       0.12       1.48       ----

> <Gold.Chemscore.Fitness>
12.5730

> <Gold.Chemscore.DG>
-14.1714

> <Gold.Chemscore.ZeroCoef>
-5.4800

> <Gold.Chemscore.Hbond>
1.8953

> <Gold.Chemscore.Metal>
0.0000

> <Gold.Chemscore.Lipo>
48.5507

> <Gold.Chemscore.Internal_Hbond>
0.0000

> <Gold.Chemscore.DEClash>
0.1196

> <Gold.Chemscore.DEInternal>
1.4789

> <Gold.Chemscore.Rot>
1.2965

> <Gold.Chemscore.Internal.Correction>
   9.000000E+99

> <Gold.Chemscore.Hbonds>
donor molecule, donor type, donor heavy atom, donor atom, acceptor molecule, acceptor atom, score
      L1  H     5    21       P1  7948  0.99
      L1  H     8    22       P1  7948  0.79
      P1  H  7989  7998       L1    16  0.02

> <Gold.Chemscore.Hbond.Weighted>
-6.3301

> <Gold.Chemscore.Metal.Weighted>
-0.0000

> <Gold.Chemscore.Lipo.Weighted>
-5.6804

> <Gold.Chemscore.Internal_Hbond.Weighted>
0.0000

> <Gold.Chemscore.DEClash.Weighted>
0.1196

> <Gold.Chemscore.DEInternal.Weighted>
1.4789

> <Gold.Chemscore.Rot.Weighted>
3.3192

> <Gold.Chemscore.Internal.Correction.Weighted>
   9.000000E+99

> <Gold.Protein.RotatedTorsions>
[ 6907 6896 6895 6894 ] final  174.91 input  -60.11 | X-H torsion
[ 7974 7965 7964 7962 ] final  129.63 input  175.53 | X-H torsion
[ 8008 7997 7996 7995 ] final   40.46 input   59.86 | X-H torsion
[ 10167 10162 10161 10158 ] final   -8.37 input  -65.29 | X-H torsion
[ 10718 10713 10712 10709 ] final  -13.36 input   66.30 | X-H torsion
[ 10763 10752 10751 10750 ] final   86.86 input  -60.55 | X-H torsion
[ 11005 11000 10999 10996 ] final  176.32 input  -57.11 | X-H torsion

> <Gold.Protein.ActiveResidues>
 VAL166  LYS551  ARG553  GLY616  TRP617  ASP618  TYR619  PRO620  LYS621  CYS622 
 ASP623  PHE694  ASN695  SER759  ASP760  ASP761  ALA762  ILE779  LEU786  VAL792 
 PHE793  MET794  SER795  GLU796  ALA797  LYS798  CYS799  TRP800  GLU811  SER814 

> <Gold.Protein.RotatedAtoms>
  151.7446  133.3324  159.3374 H   0  0  0  0  0  0  0  0  0  0  0  0  # atno 6907 bound_to 6896
  150.7559  134.6247  159.6164 H   0  0  0  0  0  0  0  0  0  0  0  0  # atno 6908 bound_to 6896
  152.3508  134.7010  160.0288 H   0  0  0  0  0  0  0  0  0  0  0  0  # atno 6909 bound_to 6896
  145.0266  139.4083  143.5171 H   0  0  0  0  0  0  0  0  0  0  0  0  # atno 7974 bound_to 7965
  155.2535  140.3354  155.4280 H   0  0  0  0  0  0  0  0  0  0  0  0  # atno 8008 bound_to 7997
  156.2205  140.1807  156.7531 H   0  0  0  0  0  0  0  0  0  0  0  0  # atno 8009 bound_to 7997
  154.5818  140.0652  156.9100 H   0  0  0  0  0  0  0  0  0  0  0  0  # atno 8010 bound_to 7997
  140.7057  143.5976  150.8830 H   0  0  0  0  0  0  0  0  0  0  0  0  # atno 10167 bound_to 10162
  156.6314  130.4902  149.6127 H   0  0  0  0  0  0  0  0  0  0  0  0  # atno 10718 bound_to 10713
  153.1612  135.4565  154.9774 H   0  0  0  0  0  0  0  0  0  0  0  0  # atno 10763 bound_to 10752
  154.7898  135.3217  154.7805 H   0  0  0  0  0  0  0  0  0  0  0  0  # atno 10764 bound_to 10752
  153.8294  135.6940  153.4871 H   0  0  0  0  0  0  0  0  0  0  0  0  # atno 10765 bound_to 10752
  140.3719  134.7023  157.4397 H   0  0  0  0  0  0  0  0  0  0  0  0  # atno 11005 bound_to 11000
  146.3493  139.9793  142.8697 LP  0  0  0  0  0  0  0  0  0  0  0  0  # atno 17320 bound_to 7965
  145.1825  140.9774  143.4258 LP  0  0  0  0  0  0  0  0  0  0  0  0  # atno 17321 bound_to 7965
  139.9701  143.6066  152.2976 LP  0  0  0  0  0  0  0  0  0  0  0  0  # atno 17342 bound_to 10162
  139.6650  144.7662  151.1890 LP  0  0  0  0  0  0  0  0  0  0  0  0  # atno 17343 bound_to 10162
  156.2231  130.6749  151.1389 LP  0  0  0  0  0  0  0  0  0  0  0  0  # atno 17370 bound_to 10713
  157.7199  131.0688  150.6180 LP  0  0  0  0  0  0  0  0  0  0  0  0  # atno 17371 bound_to 10713
  140.0545  134.6083  155.8821 LP  0  0  0  0  0  0  0  0  0  0  0  0  # atno 17394 bound_to 11000
  141.1952  133.6586  156.5630 LP  0  0  0  0  0  0  0  0  0  0  0  0  # atno 17395 bound_to 11000

$$$$
