AV-unprocessed.smi:2027|AV-procd|sdf|8220|dock10
  -GOLD-   2272010493D 1   1.00000     0.00000
 Structure written by MMmdl.
 51 53  0  0  0  0  0  0  0  0  3 V2000
  152.1772  144.5291  160.1444 C   0  0  0  0  0  0  0  0  0  0  0  0
  151.8877  143.4093  159.1596 C   0  0  0  0  0  0  0  0  0  0  0  0
  150.9417  143.6393  158.1351 C   0  0  0  0  0  0  0  0  0  0  0  0
  150.6915  142.5927  157.2554 C   0  0  0  0  0  0  0  0  0  0  0  0
  149.8253  142.5035  156.1634 N   0  3  0  0  0  0  0  0  0  0  0  0
  149.9178  141.2628  155.6096 C   0  0  0  0  0  0  0  0  0  0  0  0
  150.8286  140.5564  156.3331 N   0  0  0  0  0  0  0  0  0  0  0  0
  151.2917  139.1720  156.1593 C   0  0  0  0  0  0  0  0  0  0  0  0
  150.7275  138.4901  154.8935 C   0  0  1  0  0  0  0  0  0  0  0  0
  151.3023  139.1465  153.7813 O   0  0  0  0  0  0  0  0  0  0  0  0
  151.0422  136.9783  154.8172 C   0  0  0  0  0  0  0  0  0  0  0  0
  149.8398  136.0999  154.7888 N   0  3  2  0  0  0  0  0  0  0  0  0
  148.7002  136.6488  155.5620 C   0  0  0  0  0  0  0  0  0  0  0  0
  150.1378  134.6986  155.1871 C   0  0  0  0  0  0  0  0  0  0  0  0
  149.4057  133.6966  154.3327 C   0  0  0  0  0  0  0  0  0  0  0  0
  149.6862  132.3077  154.1798 C   0  0  0  0  0  0  0  0  0  0  0  0
  148.8641  131.7066  153.3367 N   0  0  0  0  0  0  0  0  0  0  0  0
  148.0243  132.6819  152.9333 N   0  0  0  0  0  0  0  0  0  0  0  0
  146.9718  132.3720  151.9895 C   0  0  0  0  0  0  0  0  0  0  0  0
  148.3236  133.8919  153.5212 C   0  0  0  0  0  0  0  0  0  0  0  0
  151.3480  141.3511  157.3638 C   0  0  0  0  0  0  0  0  0  0  0  0
  152.2929  141.1135  158.3604 C   0  0  0  0  0  0  0  0  0  0  0  0
  152.5556  142.1623  159.2697 C   0  0  0  0  0  0  0  0  0  0  0  0
  153.5709  141.9241  160.3748 C   0  0  0  0  0  0  0  0  0  0  0  0
  151.5564  145.4038  159.9482 H   0  0  0  0  0  0  0  0  0  0  0  0
  153.2207  144.8377  160.0764 H   0  0  0  0  0  0  0  0  0  0  0  0
  151.9777  144.2032  161.1654 H   0  0  0  0  0  0  0  0  0  0  0  0
  150.4316  144.5873  158.0439 H   0  0  0  0  0  0  0  0  0  0  0  0
  149.3664  140.9038  154.7522 H   0  0  0  0  0  0  0  0  0  0  0  0
  152.3811  139.2019  156.1106 H   0  0  0  0  0  0  0  0  0  0  0  0
  151.0473  138.6022  157.0564 H   0  0  0  0  0  0  0  0  0  0  0  0
  149.6507  138.6555  154.8717 H   0  0  0  0  0  0  0  0  0  0  0  0
  151.7281  138.5066  153.2317 H   0  0  0  0  0  0  0  0  0  0  0  0
  151.6343  136.8173  153.9180 H   0  0  0  0  0  0  0  0  0  0  0  0
  151.6688  136.6747  155.6567 H   0  0  0  0  0  0  0  0  0  0  0  0
  148.9670  136.7816  156.6112 H   0  0  0  0  0  0  0  0  0  0  0  0
  147.8404  135.9795  155.5134 H   0  0  0  0  0  0  0  0  0  0  0  0
  148.3720  137.6088  155.1660 H   0  0  0  0  0  0  0  0  0  0  0  0
  151.2163  134.5386  155.1444 H   0  0  0  0  0  0  0  0  0  0  0  0
  149.8573  134.5579  156.2316 H   0  0  0  0  0  0  0  0  0  0  0  0
  150.4677  131.7247  154.6449 H   0  0  0  0  0  0  0  0  0  0  0  0
  146.4073  133.2736  151.7495 H   0  0  0  0  0  0  0  0  0  0  0  0
  146.2944  131.6341  152.4205 H   0  0  0  0  0  0  0  0  0  0  0  0
  147.4038  131.9706  151.0723 H   0  0  0  0  0  0  0  0  0  0  0  0
  147.7519  134.7839  153.3100 H   0  0  0  0  0  0  0  0  0  0  0  0
  152.8056  140.1672  158.4486 H   0  0  0  0  0  0  0  0  0  0  0  0
  154.0098  140.9281  160.3066 H   0  0  0  0  0  0  0  0  0  0  0  0
  153.0991  142.0121  161.3536 H   0  0  0  0  0  0  0  0  0  0  0  0
  154.3818  142.6500  160.3137 H   0  0  0  0  0  0  0  0  0  0  0  0
  149.5381  136.0548  153.8259 H   0  0  0  0  0  0  0  0  0  0  0  0
  149.2162  143.2347  155.8181 H   0  0  0  0  0  0  0  0  0  0  0  0
  1  2  1  0  0  0  0
  1 25  1  0  0  0  0
  1 26  1  0  0  0  0
  1 27  1  0  0  0  0
  2 23  1  0  0  0  0
  2  3  2  0  0  0  0
  3  4  1  0  0  0  0
  3 28  1  0  0  0  0
  4 21  2  0  0  0  0
  4  5  1  0  0  0  0
  5  6  2  0  0  0  0
  5 51  1  0  0  0  0
  6  7  1  0  0  0  0
  6 29  1  0  0  0  0
  7  8  1  0  0  0  0
  7 21  1  0  0  0  0
  8  9  1  0  0  0  0
  8 30  1  0  0  0  0
  8 31  1  0  0  0  0
  9 10  1  0  0  0  0
  9 11  1  0  0  0  0
  9 32  1  0  0  0  0
 10 33  1  0  0  0  0
 11 12  1  0  0  0  0
 11 34  1  0  0  0  0
 11 35  1  0  0  0  0
 12 13  1  0  0  0  0
 12 14  1  0  0  0  0
 12 50  1  0  0  0  0
 13 36  1  0  0  0  0
 13 37  1  0  0  0  0
 13 38  1  0  0  0  0
 14 15  1  0  0  0  0
 14 39  1  0  0  0  0
 14 40  1  0  0  0  0
 15 20  2  0  0  0  0
 15 16  1  0  0  0  0
 16 17  2  0  0  0  0
 16 41  1  0  0  0  0
 17 18  1  0  0  0  0
 18 19  1  0  0  0  0
 18 20  1  0  0  0  0
 19 42  1  0  0  0  0
 19 43  1  0  0  0  0
 19 44  1  0  0  0  0
 20 45  1  0  0  0  0
 21 22  1  0  0  0  0
 22 23  2  0  0  0  0
 22 46  1  0  0  0  0
 23 24  1  0  0  0  0
 24 47  1  0  0  0  0
 24 48  1  0  0  0  0
 24 49  1  0  0  0  0
M  CHG  1   5   1
M  CHG  1  12   1
M  END
> <s_m_source_file>
AV-unprocessed.smi

> <i_m_source_file_index>
2027

> <i_lp_mmshare_version>
43012

> <i_f3d_flags>
0

> <s_epik_input>
W0NIM11jKFtjSF0xKWMoW0NIM10pW2NIXWMoYzEyKW4oW2NIXW4yKVtDSDJdW0NASF0oW09IXSlbQ0gyXU4oW0NIM10pW0NIMl1jM1tjSF1ubihbQ0gzXSlbY0hdMw==

> <s_epik_cmdline>
J2VwaWtfcHl0aG9uJywgJy1waCcsICc3LjAnLCAnLXRuJywgJzgnLCAnLW1hJywgJzIwMCcsICctbWV0YWxfYmluZGluZycsICctaW1hZScsICc8aW5maWxlLm1hZT4nLCAnLW9tYWUnLCAnPG91dGZpbGUubWFlPic=

> <r_lp_tautomer_probability>
1

> <r_epik_Ionization_Penalty>
1.77469

> <r_epik_Ionization_Penalty_Charging>
1.77463

> <r_epik_Ionization_Penalty_Neutral>
6.41153e-05

> <r_epik_State_Penalty>
1.85225

> <r_epik_Charging_Adjusted_Penalty>
3.62688

> <i_epik_Tot_Q>
2

> <i_epik_Tot_abs_Q>
2

> <r_epik_Metal_State_Penalty>
1.92669

> <b_epik_Metal_Only>
0

> <s_lp_Force_Field>
OPLS_2005

> <r_lp_Energy>
22.5678

> <b_lp_Chiralities_Consistent>
1

> <s_lp_Variant>
AV-unprocessed.smi:2027-12

> <Gold.Version>
5.8.1

> <Gold.Id.Protein>
6NUR|6NUR_protein|mol2

> <Gold.PLP.Fitness>
59.5342

> <Gold.PLP.PLP>
-46.4818

> <Gold.PLP.part.hbond>
-2.8233

> <Gold.PLP.part.metal>
0.0000

> <Gold.PLP.part.buried>
1.8501

> <Gold.PLP.part.nonpolar>
-45.2582

> <Gold.PLP.part.repulsive>
0.2795

> <Gold.PLP.ligand.clash>
0.0000

> <Gold.PLP.ligand.torsion>
1.8000

> <Gold.PLP.Chemscore.Hbond>
4.8800

> <Gold.PLP.Chemscore.CHOScore>
0.6212

> <Gold.PLP.Chemscore.Metal>
0.0000

> <Gold.Chemscore.Hbonds>
donor molecule, donor type, donor heavy atom, donor atom, acceptor molecule, acceptor atom, score
      L1  H     5    51       P1  8028  1.98
      L1  H    12    50       P1  7948  2.00
      P1  H  7989  7998       L1    10  0.93
      L1  C    20    45       P1  7948  0.60

> <Gold.PLP.Chemscore.Internal.Correction>
0.1488

> <Gold.Rescore>
     Score         DG    S(hbond)    S(metal)    S(lipo)     H(rot)  DE(clash)    DE(int)     intcor
     18.72     -22.05       2.66        0.00     122.31       2.58       1.70       1.62       ----

> <Gold.Chemscore.Fitness>
18.7239

> <Gold.Chemscore.DG>
-22.0469

> <Gold.Chemscore.ZeroCoef>
-5.4800

> <Gold.Chemscore.Hbond>
2.6559

> <Gold.Chemscore.Metal>
0.0000

> <Gold.Chemscore.Lipo>
122.3089

> <Gold.Chemscore.Internal_Hbond>
0.0000

> <Gold.Chemscore.DEClash>
1.7028

> <Gold.Chemscore.DEInternal>
1.6202

> <Gold.Chemscore.Rot>
2.5836

> <Gold.Chemscore.Internal.Correction>
   9.000000E+99

> <Gold.Chemscore.Hbonds>
donor molecule, donor type, donor heavy atom, donor atom, acceptor molecule, acceptor atom, score
      L1  H     5    51       P1  8028  0.87
      L1  H    12    50       P1  7948  0.52
      P1  H  7989  7998       L1    10  0.85

> <Gold.Chemscore.Hbond.Weighted>
-8.8707

> <Gold.Chemscore.Metal.Weighted>
-0.0000

> <Gold.Chemscore.Lipo.Weighted>
-14.3101

> <Gold.Chemscore.Internal_Hbond.Weighted>
0.0000

> <Gold.Chemscore.DEClash.Weighted>
1.7028

> <Gold.Chemscore.DEInternal.Weighted>
1.6202

> <Gold.Chemscore.Rot.Weighted>
6.6139

> <Gold.Chemscore.Internal.Correction.Weighted>
   9.000000E+99

> <Gold.Protein.RotatedTorsions>
[ 6907 6896 6895 6894 ] final   10.93 input  -60.11 | X-H torsion
[ 7974 7965 7964 7962 ] final   19.67 input  175.53 | X-H torsion
[ 8008 7997 7996 7995 ] final  -54.62 input   59.86 | X-H torsion
[ 10167 10162 10161 10158 ] final   10.54 input  -65.29 | X-H torsion
[ 10718 10713 10712 10709 ] final   46.72 input   66.30 | X-H torsion
[ 10763 10752 10751 10750 ] final -177.15 input  -60.55 | X-H torsion
[ 11005 11000 10999 10996 ] final   84.91 input  -57.11 | X-H torsion

> <Gold.Protein.ActiveResidues>
 VAL166  LYS551  ARG553  GLY616  TRP617  ASP618  TYR619  PRO620  LYS621  CYS622 
 ASP623  PHE694  ASN695  SER759  ASP760  ASP761  ALA762  ILE779  LEU786  VAL792 
 PHE793  MET794  SER795  GLU796  ALA797  LYS798  CYS799  TRP800  GLU811  SER814 

> <Gold.Protein.RotatedAtoms>
  151.7462  135.0843  160.0323 H   0  0  0  0  0  0  0  0  0  0  0  0  # atno 6907 bound_to 6896
  152.3447  133.6103  159.5910 H   0  0  0  0  0  0  0  0  0  0  0  0  # atno 6908 bound_to 6896
  150.7501  133.9584  159.3549 H   0  0  0  0  0  0  0  0  0  0  0  0  # atno 6909 bound_to 6896
  146.2141  139.8280  142.8666 H   0  0  0  0  0  0  0  0  0  0  0  0  # atno 7974 bound_to 7965
  154.4168  140.1172  156.5344 H   0  0  0  0  0  0  0  0  0  0  0  0  # atno 8008 bound_to 7997
  155.6572  140.3496  155.4750 H   0  0  0  0  0  0  0  0  0  0  0  0  # atno 8009 bound_to 7997
  155.9743  140.1147  157.0774 H   0  0  0  0  0  0  0  0  0  0  0  0  # atno 8010 bound_to 7997
  140.6188  143.8250  150.7150 H   0  0  0  0  0  0  0  0  0  0  0  0  # atno 10167 bound_to 10162
  157.4510  130.8138  149.7789 H   0  0  0  0  0  0  0  0  0  0  0  0  # atno 10718 bound_to 10713
  154.5636  135.2822  155.0895 H   0  0  0  0  0  0  0  0  0  0  0  0  # atno 10763 bound_to 10752
  154.2294  135.6377  153.5174 H   0  0  0  0  0  0  0  0  0  0  0  0  # atno 10764 bound_to 10752
  153.0036  135.5533  154.6238 H   0  0  0  0  0  0  0  0  0  0  0  0  # atno 10765 bound_to 10752
  139.8986  134.8250  156.2510 H   0  0  0  0  0  0  0  0  0  0  0  0  # atno 11005 bound_to 11000
  145.3027  141.0198  143.3599 LP  0  0  0  0  0  0  0  0  0  0  0  0  # atno 17320 bound_to 7965
  144.8994  139.4669  143.6640 LP  0  0  0  0  0  0  0  0  0  0  0  0  # atno 17321 bound_to 7965
  140.1835  143.4095  152.1915 LP  0  0  0  0  0  0  0  0  0  0  0  0  # atno 17342 bound_to 10162
  139.5421  144.7266  151.4701 LP  0  0  0  0  0  0  0  0  0  0  0  0  # atno 17343 bound_to 10162
  155.9987  130.3893  150.2691 LP  0  0  0  0  0  0  0  0  0  0  0  0  # atno 17370 bound_to 10713
  157.0863  131.0157  151.3138 LP  0  0  0  0  0  0  0  0  0  0  0  0  # atno 17371 bound_to 10713
  141.0224  133.7034  156.1290 LP  0  0  0  0  0  0  0  0  0  0  0  0  # atno 17394 bound_to 11000
  140.7215  134.4353  157.5574 LP  0  0  0  0  0  0  0  0  0  0  0  0  # atno 17395 bound_to 11000

$$$$
