AV-unprocessed.smi:1067|AV-procd|sdf|4672|dock3
  -GOLD-   22720 3183D 1   1.00000     0.00000
 Structure written by MMmdl.
 50 52  0  0  0  0  0  0  0  0  1 V2000
  147.4089  135.9133  153.7706 N   0  0  0  0  0  0  0  0  0  0  0  0
  146.0892  136.0484  153.6061 C   0  0  0  0  0  0  0  0  0  0  0  0
  145.3113  135.7873  154.5226 O   0  0  0  0  0  0  0  0  0  0  0  0
  145.5585  136.5602  152.2359 C   0  0  0  0  0  0  0  0  0  0  0  0
  146.1375  137.9792  151.9676 C   0  0  0  0  0  0  0  0  0  0  0  0
  147.4490  138.2165  152.5737 N   0  0  0  0  0  0  0  0  0  0  0  0
  147.7342  139.1755  153.4657 C   0  0  0  0  0  0  0  0  0  0  0  0
  146.9093  139.9945  153.8707 O   0  0  0  0  0  0  0  0  0  0  0  0
  149.0245  139.1228  153.8377 N   0  0  0  0  0  0  0  0  0  0  0  0
  149.7116  139.9605  154.7569 C   0  0  0  0  0  0  0  0  0  0  0  0
  151.0201  139.7143  155.2331 C   0  0  0  0  0  0  0  0  0  0  0  0
  151.6006  140.6264  156.1350 C   0  0  0  0  0  0  0  0  0  0  0  0
  150.8648  141.7681  156.5315 C   0  0  0  0  0  0  0  0  0  0  0  0
  151.4047  142.6976  157.4419 N   0  0  0  0  0  0  0  0  0  0  0  0
  151.6060  144.0945  157.0911 C   0  0  0  0  0  0  0  0  0  0  0  0
  152.2872  144.7031  158.3159 C   0  0  0  0  0  0  0  0  0  0  0  0
  153.1194  143.5428  158.8625 C   0  0  0  0  0  0  0  0  0  0  0  0
  152.2949  142.2957  158.5218 C   0  0  0  0  0  0  0  0  0  0  0  0
  149.6165  142.0080  156.0642 N   0  0  0  0  0  0  0  0  0  0  0  0
  149.0653  141.1318  155.1986 C   0  0  0  0  0  0  0  0  0  0  0  0
  145.9610  135.6280  151.0592 C   0  0  0  0  0  0  0  0  0  0  0  0
  145.2449  134.2638  151.1075 C   0  0  0  0  0  0  0  0  0  0  0  0
  143.8364  134.4588  151.1016 O   0  0  0  0  0  0  0  0  0  0  0  0
  143.3747  135.1946  152.2279 C   0  0  0  0  0  0  0  0  0  0  0  0
  144.0051  136.6007  152.2308 C   0  0  0  0  0  0  0  0  0  0  0  0
  147.7721  135.5774  154.6510 H   0  0  0  0  0  0  0  0  0  0  0  0
  148.0380  136.1415  153.0147 H   0  0  0  0  0  0  0  0  0  0  0  0
  146.2467  138.1330  150.8932 H   0  0  0  0  0  0  0  0  0  0  0  0
  145.4291  138.7423  152.2945 H   0  0  0  0  0  0  0  0  0  0  0  0
  148.1913  137.5879  152.3028 H   0  0  0  0  0  0  0  0  0  0  0  0
  149.5976  138.4421  153.3608 H   0  0  0  0  0  0  0  0  0  0  0  0
  151.5925  138.8551  154.9200 H   0  0  0  0  0  0  0  0  0  0  0  0
  152.5943  140.4350  156.5110 H   0  0  0  0  0  0  0  0  0  0  0  0
  152.2545  144.1594  156.2164 H   0  0  0  0  0  0  0  0  0  0  0  0
  150.6642  144.5945  156.8627 H   0  0  0  0  0  0  0  0  0  0  0  0
  152.8838  145.5837  158.0765 H   0  0  0  0  0  0  0  0  0  0  0  0
  151.5348  144.9935  159.0505 H   0  0  0  0  0  0  0  0  0  0  0  0
  154.0748  143.5030  158.3375 H   0  0  0  0  0  0  0  0  0  0  0  0
  153.3272  143.6337  159.9288 H   0  0  0  0  0  0  0  0  0  0  0  0
  151.6938  141.9834  159.3763 H   0  0  0  0  0  0  0  0  0  0  0  0
  152.9422  141.4663  158.2346 H   0  0  0  0  0  0  0  0  0  0  0  0
  148.0698  141.3719  154.8547 H   0  0  0  0  0  0  0  0  0  0  0  0
  145.7010  136.1097  150.1153 H   0  0  0  0  0  0  0  0  0  0  0  0
  147.0411  135.4830  151.0154 H   0  0  0  0  0  0  0  0  0  0  0  0
  145.5161  133.6712  150.2336 H   0  0  0  0  0  0  0  0  0  0  0  0
  145.5394  133.6833  151.9825 H   0  0  0  0  0  0  0  0  0  0  0  0
  142.2893  135.2755  152.1681 H   0  0  0  0  0  0  0  0  0  0  0  0
  143.5981  134.6533  153.1482 H   0  0  0  0  0  0  0  0  0  0  0  0
  143.6183  137.1656  153.0798 H   0  0  0  0  0  0  0  0  0  0  0  0
  143.6611  137.1353  151.3443 H   0  0  0  0  0  0  0  0  0  0  0  0
  1  2  1  0  0  0  0
  1 26  1  0  0  0  0
  1 27  1  0  0  0  0
  2  3  2  0  0  0  0
  2  4  1  0  0  0  0
  4 25  1  0  0  0  0
  4  5  1  0  0  0  0
  4 21  1  0  0  0  0
  5  6  1  0  0  0  0
  5 28  1  0  0  0  0
  5 29  1  0  0  0  0
  6  7  1  0  0  0  0
  6 30  1  0  0  0  0
  7  8  2  0  0  0  0
  7  9  1  0  0  0  0
  9 10  1  0  0  0  0
  9 31  1  0  0  0  0
 10 20  1  0  0  0  0
 10 11  2  0  0  0  0
 11 12  1  0  0  0  0
 11 32  1  0  0  0  0
 12 13  2  0  0  0  0
 12 33  1  0  0  0  0
 13 14  1  0  0  0  0
 13 19  1  0  0  0  0
 14 18  1  0  0  0  0
 14 15  1  0  0  0  0
 15 16  1  0  0  0  0
 15 34  1  0  0  0  0
 15 35  1  0  0  0  0
 16 17  1  0  0  0  0
 16 36  1  0  0  0  0
 16 37  1  0  0  0  0
 17 18  1  0  0  0  0
 17 38  1  0  0  0  0
 17 39  1  0  0  0  0
 18 40  1  0  0  0  0
 18 41  1  0  0  0  0
 19 20  2  0  0  0  0
 20 42  1  0  0  0  0
 21 22  1  0  0  0  0
 21 43  1  0  0  0  0
 21 44  1  0  0  0  0
 22 23  1  0  0  0  0
 22 45  1  0  0  0  0
 22 46  1  0  0  0  0
 23 24  1  0  0  0  0
 24 25  1  0  0  0  0
 24 47  1  0  0  0  0
 24 48  1  0  0  0  0
 25 49  1  0  0  0  0
 25 50  1  0  0  0  0
M  END
> <s_m_source_file>
AV-unprocessed.smi

> <i_m_source_file_index>
1067

> <i_lp_mmshare_version>
43012

> <i_f3d_flags>
0

> <s_epik_input>
W0NIMl0xW0NIMl1PW0NIMl1bQ0gyXUMxKEMoPU8pW05IMl0pW0NIMl1bTkhdQyg9TylbTkhdYzJbY0hdW2NIXWMobltjSF0yKU4zW0NIMl1bQ0gyXVtDSDJdW0NIMl0z

> <s_epik_cmdline>
J2VwaWtfcHl0aG9uJywgJy1waCcsICc3LjAnLCAnLXRuJywgJzgnLCAnLW1hJywgJzIwMCcsICctbWV0YWxfYmluZGluZycsICctaW1hZScsICc8aW5maWxlLm1hZT4nLCAnLW9tYWUnLCAnPG91dGZpbGUubWFlPic=

> <r_lp_tautomer_probability>
1

> <r_epik_Ionization_Penalty>
0.0944962

> <r_epik_Ionization_Penalty_Charging>
0

> <r_epik_Ionization_Penalty_Neutral>
0.0944962

> <r_epik_State_Penalty>
0.0841646

> <r_epik_Charging_Adjusted_Penalty>
0.0841646

> <i_epik_Tot_Q>
0

> <i_epik_Tot_abs_Q>
0

> <r_epik_Metal_State_Penalty>
0.0725577

> <b_epik_Metal_Only>
0

> <s_lp_Force_Field>
OPLS_2005

> <r_lp_Energy>
34.2759

> <b_lp_Chiralities_Consistent>
1

> <s_lp_Variant>
AV-unprocessed.smi:1067-1

> <Gold.Version>
5.8.1

> <Gold.Id.Protein>
6NUR|6NUR_protein|mol2

> <Gold.PLP.Fitness>
49.6614

> <Gold.PLP.PLP>
-46.3017

> <Gold.PLP.part.hbond>
-3.4814

> <Gold.PLP.part.metal>
0.0000

> <Gold.PLP.part.buried>
-3.2375

> <Gold.PLP.part.nonpolar>
-41.3015

> <Gold.PLP.part.repulsive>
2.3219

> <Gold.PLP.ligand.clash>
0.0000

> <Gold.PLP.ligand.torsion>
1.4124

> <Gold.PLP.Chemscore.Hbond>
2.0000

> <Gold.PLP.Chemscore.CHOScore>
0.0000

> <Gold.PLP.Chemscore.Metal>
0.0000

> <Gold.Chemscore.Hbonds>
donor molecule, donor type, donor heavy atom, donor atom, acceptor molecule, acceptor atom, score
      L1  H     1    27       P1  7948  0.86
      L1  H     6    30       P1  7948  1.00

> <Gold.PLP.Chemscore.Internal.Correction>
0.1845

> <Gold.Rescore>
     Score         DG    S(hbond)    S(metal)    S(lipo)     H(rot)  DE(clash)    DE(int)     intcor
     14.96     -20.01       1.99        0.00     106.99       1.81       0.23       4.82       ----

> <Gold.Chemscore.Fitness>
14.9582

> <Gold.Chemscore.DG>
-20.0072

> <Gold.Chemscore.ZeroCoef>
-5.4800

> <Gold.Chemscore.Hbond>
1.9869

> <Gold.Chemscore.Metal>
0.0000

> <Gold.Chemscore.Lipo>
106.9917

> <Gold.Chemscore.Internal_Hbond>
0.0000

> <Gold.Chemscore.DEClash>
0.2336

> <Gold.Chemscore.DEInternal>
4.8154

> <Gold.Chemscore.Rot>
1.8075

> <Gold.Chemscore.Internal.Correction>
   9.000000E+99

> <Gold.Chemscore.Hbonds>
donor molecule, donor type, donor heavy atom, donor atom, acceptor molecule, acceptor atom, score
      L1  H     1    27       P1  7948  0.84
      L1  H     6    30       P1  7948  0.98

> <Gold.Chemscore.Hbond.Weighted>
-6.6364

> <Gold.Chemscore.Metal.Weighted>
-0.0000

> <Gold.Chemscore.Lipo.Weighted>
-12.5180

> <Gold.Chemscore.Internal_Hbond.Weighted>
0.0000

> <Gold.Chemscore.DEClash.Weighted>
0.2336

> <Gold.Chemscore.DEInternal.Weighted>
4.8154

> <Gold.Chemscore.Rot.Weighted>
4.6272

> <Gold.Chemscore.Internal.Correction.Weighted>
   9.000000E+99

> <Gold.Protein.RotatedTorsions>
[ 6907 6896 6895 6894 ] final  116.68 input  -60.11 | X-H torsion
[ 7974 7965 7964 7962 ] final -103.98 input  175.53 | X-H torsion
[ 8008 7997 7996 7995 ] final   -7.03 input   59.86 | X-H torsion
[ 10167 10162 10161 10158 ] final   54.93 input  -65.29 | X-H torsion
[ 10718 10713 10712 10709 ] final  -93.87 input   66.30 | X-H torsion
[ 10763 10752 10751 10750 ] final -161.01 input  -60.55 | X-H torsion
[ 11005 11000 10999 10996 ] final  110.69 input  -57.11 | X-H torsion

> <Gold.Protein.ActiveResidues>
 VAL166  LYS551  ARG553  GLY616  TRP617  ASP618  TYR619  PRO620  LYS621  CYS622 
 ASP623  PHE694  ASN695  SER759  ASP760  ASP761  ALA762  ILE779  LEU786  VAL792 
 PHE793  MET794  SER795  GLU796  ALA797  LYS798  CYS799  TRP800  GLU811  SER814 

> <Gold.Protein.RotatedAtoms>
  152.4662  133.7927  159.6910 H   0  0  0  0  0  0  0  0  0  0  0  0  # atno 6907 bound_to 6896
  150.8627  133.7610  159.2993 H   0  0  0  0  0  0  0  0  0  0  0  0  # atno 6908 bound_to 6896
  151.5170  135.1069  159.9920 H   0  0  0  0  0  0  0  0  0  0  0  0  # atno 6909 bound_to 6896
  145.2490  140.9231  143.3106 H   0  0  0  0  0  0  0  0  0  0  0  0  # atno 7974 bound_to 7965
  154.5878  140.2417  155.7962 H   0  0  0  0  0  0  0  0  0  0  0  0  # atno 8008 bound_to 7997
  156.2226  140.2993  155.9943 H   0  0  0  0  0  0  0  0  0  0  0  0  # atno 8009 bound_to 7997
  155.2426  140.0407  157.2967 H   0  0  0  0  0  0  0  0  0  0  0  0  # atno 8010 bound_to 7997
  140.2249  144.3749  150.6436 H   0  0  0  0  0  0  0  0  0  0  0  0  # atno 10167 bound_to 10162
  156.0019  130.5044  150.5841 H   0  0  0  0  0  0  0  0  0  0  0  0  # atno 10718 bound_to 10713
  154.7340  135.3053  154.8842 H   0  0  0  0  0  0  0  0  0  0  0  0  # atno 10763 bound_to 10752
  153.9676  135.6745  153.4750 H   0  0  0  0  0  0  0  0  0  0  0  0  # atno 10764 bound_to 10752
  153.0945  135.4942  154.8675 H   0  0  0  0  0  0  0  0  0  0  0  0  # atno 10765 bound_to 10752
  139.8887  134.9490  156.6318 H   0  0  0  0  0  0  0  0  0  0  0  0  # atno 11005 bound_to 11000
  144.9520  139.4072  143.6397 LP  0  0  0  0  0  0  0  0  0  0  0  0  # atno 17320 bound_to 7965
  146.3308  139.8532  142.8869 LP  0  0  0  0  0  0  0  0  0  0  0  0  # atno 17321 bound_to 7965
  140.6228  143.2178  151.6659 LP  0  0  0  0  0  0  0  0  0  0  0  0  # atno 17342 bound_to 10162
  139.5131  144.3455  152.0701 LP  0  0  0  0  0  0  0  0  0  0  0  0  # atno 17343 bound_to 10162
  157.3716  131.0766  151.1553 LP  0  0  0  0  0  0  0  0  0  0  0  0  # atno 17370 bound_to 10713
  157.2304  130.6522  149.5847 LP  0  0  0  0  0  0  0  0  0  0  0  0  # atno 17371 bound_to 10713
  140.7660  133.8777  155.8455 LP  0  0  0  0  0  0  0  0  0  0  0  0  # atno 17394 bound_to 11000
  140.9882  134.1315  157.4433 LP  0  0  0  0  0  0  0  0  0  0  0  0  # atno 17395 bound_to 11000

$$$$
