AV-unprocessed.smi:1389|AV-procd|sdf|5646|dock8
  -GOLD-   22720 5263D 1   1.00000     0.00000
 Structure written by MMmdl.
 51 53  0  0  0  0  0  0  0  0  1 V2000
  144.2754  134.5222  153.0751 C   0  0  0  0  0  0  0  0  0  0  0  0
  145.3154  134.4556  151.9274 C   0  0  2  0  0  0  0  0  0  0  0  0
  145.3710  135.8326  151.2063 C   0  0  0  0  0  0  0  0  0  0  0  0
  146.4717  136.6752  151.6688 N   0  0  0  0  0  0  0  0  0  0  0  0
  146.3424  137.8404  152.3193 C   0  0  0  0  0  0  0  0  0  0  0  0
  145.2580  138.3542  152.5932 O   0  0  0  0  0  0  0  0  0  0  0  0
  147.5432  138.3443  152.6490 N   0  0  0  0  0  0  0  0  0  0  0  0
  147.8295  139.5251  153.3917 C   0  0  0  0  0  0  0  0  0  0  0  0
  147.0800  140.7173  153.2410 C   0  0  0  0  0  0  0  0  0  0  0  0
  147.4277  141.8479  154.0015 C   0  0  0  0  0  0  0  0  0  0  0  0
  148.5198  141.7501  154.8811 C   0  0  0  0  0  0  0  0  0  0  0  0
  149.2544  140.6284  155.0227 N   0  0  0  0  0  0  0  0  0  0  0  0
  148.9248  139.5319  154.2970 C   0  0  0  0  0  0  0  0  0  0  0  0
  149.7314  138.3842  154.4421 N   0  0  0  0  0  0  0  0  0  0  0  0
  151.1299  138.6041  154.0847 C   0  0  0  0  0  0  0  0  0  0  0  0
  151.9586  137.7405  155.0370 C   0  0  0  0  0  0  0  0  0  0  0  0
  151.0809  137.6665  156.2799 C   0  0  0  0  0  0  0  0  0  0  0  0
  149.6727  137.6220  155.6887 C   0  0  0  0  0  0  0  0  0  0  0  0
  145.0718  133.3246  151.0014 N   0  0  0  0  0  0  0  0  0  0  0  0
  144.0291  133.6125  150.0097 C   0  0  0  0  0  0  0  0  0  0  0  0
  143.7934  132.4459  149.0348 C   0  0  0  0  0  0  0  0  0  0  0  0
  145.0102  132.1142  148.3806 O   0  0  0  0  0  0  0  0  0  0  0  0
  146.0285  131.7518  149.3026 C   0  0  0  0  0  0  0  0  0  0  0  0
  146.2814  132.9137  150.2788 C   0  0  0  0  0  0  0  0  0  0  0  0
  144.4416  135.3687  153.7398 H   0  0  0  0  0  0  0  0  0  0  0  0
  144.3151  133.6487  153.7238 H   0  0  0  0  0  0  0  0  0  0  0  0
  143.2611  134.6075  152.6835 H   0  0  0  0  0  0  0  0  0  0  0  0
  146.2899  134.3029  152.3935 H   0  0  0  0  0  0  0  0  0  0  0  0
  145.5502  135.7104  150.1398 H   0  0  0  0  0  0  0  0  0  0  0  0
  144.4096  136.3407  151.2997 H   0  0  0  0  0  0  0  0  0  0  0  0
  147.4050  136.3328  151.4939 H   0  0  0  0  0  0  0  0  0  0  0  0
  148.3414  137.7623  152.4408 H   0  0  0  0  0  0  0  0  0  0  0  0
  146.2557  140.7883  152.5482 H   0  0  0  0  0  0  0  0  0  0  0  0
  146.8724  142.7694  153.9090 H   0  0  0  0  0  0  0  0  0  0  0  0
  148.8175  142.5974  155.4809 H   0  0  0  0  0  0  0  0  0  0  0  0
  151.3172  138.3387  153.0440 H   0  0  0  0  0  0  0  0  0  0  0  0
  151.3902  139.6563  154.2134 H   0  0  0  0  0  0  0  0  0  0  0  0
  152.0864  136.7421  154.6167 H   0  0  0  0  0  0  0  0  0  0  0  0
  152.9476  138.1547  155.2344 H   0  0  0  0  0  0  0  0  0  0  0  0
  151.3038  136.8070  156.9125 H   0  0  0  0  0  0  0  0  0  0  0  0
  151.2046  138.5711  156.8770 H   0  0  0  0  0  0  0  0  0  0  0  0
  148.9247  137.9736  156.3994 H   0  0  0  0  0  0  0  0  0  0  0  0
  149.4092  136.5946  155.4355 H   0  0  0  0  0  0  0  0  0  0  0  0
  143.0768  133.8113  150.4972 H   0  0  0  0  0  0  0  0  0  0  0  0
  144.2920  134.5085  149.4456 H   0  0  0  0  0  0  0  0  0  0  0  0
  143.4052  131.5734  149.5629 H   0  0  0  0  0  0  0  0  0  0  0  0
  143.0512  132.7222  148.2858 H   0  0  0  0  0  0  0  0  0  0  0  0
  145.7383  130.8494  149.8431 H   0  0  0  0  0  0  0  0  0  0  0  0
  146.9387  131.5150  148.7518 H   0  0  0  0  0  0  0  0  0  0  0  0
  146.6924  133.7634  149.7316 H   0  0  0  0  0  0  0  0  0  0  0  0
  147.0509  132.5815  150.9730 H   0  0  0  0  0  0  0  0  0  0  0  0
  1  2  1  0  0  0  0
  1 25  1  0  0  0  0
  1 26  1  0  0  0  0
  1 27  1  0  0  0  0
  2  3  1  0  0  0  0
  2 19  1  0  0  0  0
  2 28  1  0  0  0  0
  3  4  1  0  0  0  0
  3 29  1  0  0  0  0
  3 30  1  0  0  0  0
  4  5  1  0  0  0  0
  4 31  1  0  0  0  0
  5  6  2  0  0  0  0
  5  7  1  0  0  0  0
  7  8  1  0  0  0  0
  7 32  1  0  0  0  0
  8 13  1  0  0  0  0
  8  9  2  0  0  0  0
  9 10  1  0  0  0  0
  9 33  1  0  0  0  0
 10 11  2  0  0  0  0
 10 34  1  0  0  0  0
 11 12  1  0  0  0  0
 11 35  1  0  0  0  0
 12 13  2  0  0  0  0
 13 14  1  0  0  0  0
 14 18  1  0  0  0  0
 14 15  1  0  0  0  0
 15 16  1  0  0  0  0
 15 36  1  0  0  0  0
 15 37  1  0  0  0  0
 16 17  1  0  0  0  0
 16 38  1  0  0  0  0
 16 39  1  0  0  0  0
 17 18  1  0  0  0  0
 17 40  1  0  0  0  0
 17 41  1  0  0  0  0
 18 42  1  0  0  0  0
 18 43  1  0  0  0  0
 19 24  1  0  0  0  0
 19 20  1  0  0  0  0
 20 21  1  0  0  0  0
 20 44  1  0  0  0  0
 20 45  1  0  0  0  0
 21 22  1  0  0  0  0
 21 46  1  0  0  0  0
 21 47  1  0  0  0  0
 22 23  1  0  0  0  0
 23 24  1  0  0  0  0
 23 48  1  0  0  0  0
 23 49  1  0  0  0  0
 24 50  1  0  0  0  0
 24 51  1  0  0  0  0
M  END
> <s_m_source_file>
AV-unprocessed.smi

> <i_m_source_file_index>
1389

> <i_lp_mmshare_version>
43012

> <i_f3d_flags>
0

> <s_epik_input>
W0NIMl0xW0NIMl1PW0NIMl1bQ0gyXU4xW0NASF0oW0NIM10pW0NIMl1bTkhdQyg9TylbTkhdYzJbY0hdW2NIXVtjSF1uYzJOM1tDSDJdW0NIMl1bQ0gyXVtDSDJdMw==

> <s_epik_cmdline>
J2VwaWtfcHl0aG9uJywgJy1waCcsICc3LjAnLCAnLXRuJywgJzgnLCAnLW1hJywgJzIwMCcsICctbWV0YWxfYmluZGluZycsICctaW1hZScsICc8aW5maWxlLm1hZT4nLCAnLW9tYWUnLCAnPG91dGZpbGUubWFlPic=

> <r_lp_tautomer_probability>
1

> <r_epik_Ionization_Penalty>
0.365229

> <r_epik_Ionization_Penalty_Charging>
0

> <r_epik_Ionization_Penalty_Neutral>
0.365229

> <r_epik_State_Penalty>
0.350519

> <r_epik_Charging_Adjusted_Penalty>
0.350519

> <i_epik_Tot_Q>
0

> <i_epik_Tot_abs_Q>
0

> <r_epik_Metal_State_Penalty>
0.33386

> <b_epik_Metal_Only>
0

> <s_lp_Force_Field>
OPLS_2005

> <r_lp_Energy>
57.3938

> <b_lp_Chiralities_Consistent>
1

> <s_lp_Variant>
AV-unprocessed.smi:1389-1

> <Gold.Version>
5.8.1

> <Gold.Id.Protein>
6NUR|6NUR_protein|mol2

> <Gold.PLP.Fitness>
44.7116

> <Gold.PLP.PLP>
-38.2729

> <Gold.PLP.part.hbond>
-4.4990

> <Gold.PLP.part.metal>
0.0000

> <Gold.PLP.part.buried>
-1.2181

> <Gold.PLP.part.nonpolar>
-36.9029

> <Gold.PLP.part.repulsive>
5.1372

> <Gold.PLP.ligand.clash>
0.0000

> <Gold.PLP.ligand.torsion>
1.3519

> <Gold.PLP.Chemscore.Hbond>
1.9920

> <Gold.PLP.Chemscore.CHOScore>
1.0000

> <Gold.PLP.Chemscore.Metal>
0.0000

> <Gold.Chemscore.Hbonds>
donor molecule, donor type, donor heavy atom, donor atom, acceptor molecule, acceptor atom, score
      L1  H     4    31       P1  7948  1.00
      L1  H     7    32       P1  7948  0.98
      L1  C    11    35       P1  8028  1.00

> <Gold.PLP.Chemscore.Internal.Correction>
0.1664

> <Gold.Rescore>
     Score         DG    S(hbond)    S(metal)    S(lipo)     H(rot)  DE(clash)    DE(int)     intcor
     16.80     -20.49       1.95        0.00     107.07       1.57       1.50       2.20       ----

> <Gold.Chemscore.Fitness>
16.7969

> <Gold.Chemscore.DG>
-20.4933

> <Gold.Chemscore.ZeroCoef>
-5.4800

> <Gold.Chemscore.Hbond>
1.9492

> <Gold.Chemscore.Metal>
0.0000

> <Gold.Chemscore.Lipo>
107.0668

> <Gold.Chemscore.Internal_Hbond>
0.0000

> <Gold.Chemscore.DEClash>
1.4988

> <Gold.Chemscore.DEInternal>
2.1975

> <Gold.Chemscore.Rot>
1.5718

> <Gold.Chemscore.Internal.Correction>
   9.000000E+99

> <Gold.Chemscore.Hbonds>
donor molecule, donor type, donor heavy atom, donor atom, acceptor molecule, acceptor atom, score
      L1  H     4    31       P1  7948  0.94
      L1  H     7    32       P1  7948  0.93

> <Gold.Chemscore.Hbond.Weighted>
-6.5104

> <Gold.Chemscore.Metal.Weighted>
-0.0000

> <Gold.Chemscore.Lipo.Weighted>
-12.5268

> <Gold.Chemscore.Internal_Hbond.Weighted>
0.0000

> <Gold.Chemscore.DEClash.Weighted>
1.4988

> <Gold.Chemscore.DEInternal.Weighted>
2.1975

> <Gold.Chemscore.Rot.Weighted>
4.0239

> <Gold.Chemscore.Internal.Correction.Weighted>
   9.000000E+99

> <Gold.Protein.RotatedTorsions>
[ 6907 6896 6895 6894 ] final  -56.77 input  -60.11 | X-H torsion
[ 7974 7965 7964 7962 ] final   14.36 input  175.53 | X-H torsion
[ 8008 7997 7996 7995 ] final  171.12 input   59.86 | X-H torsion
[ 10167 10162 10161 10158 ] final   -2.19 input  -65.29 | X-H torsion
[ 10718 10713 10712 10709 ] final  175.80 input   66.30 | X-H torsion
[ 10763 10752 10751 10750 ] final   34.44 input  -60.55 | X-H torsion
[ 11005 11000 10999 10996 ] final  -52.07 input  -57.11 | X-H torsion

> <Gold.Protein.ActiveResidues>
 VAL166  LYS551  ARG553  GLY616  TRP617  ASP618  TYR619  PRO620  LYS621  CYS622 
 ASP623  PHE694  ASN695  SER759  ASP760  ASP761  ALA762  ILE779  LEU786  VAL792 
 PHE793  MET794  SER795  GLU796  ALA797  LYS798  CYS799  TRP800  GLU811  SER814 

> <Gold.Protein.RotatedAtoms>
  150.8141  134.7312  159.6713 H   0  0  0  0  0  0  0  0  0  0  0  0  # atno 6907 bound_to 6896
  152.4260  134.5864  159.9972 H   0  0  0  0  0  0  0  0  0  0  0  0  # atno 6908 bound_to 6896
  151.6066  133.3314  159.3094 H   0  0  0  0  0  0  0  0  0  0  0  0  # atno 6909 bound_to 6896
  146.2307  139.9052  142.8533 H   0  0  0  0  0  0  0  0  0  0  0  0  # atno 7974 bound_to 7965
  156.1302  140.1520  156.9077 H   0  0  0  0  0  0  0  0  0  0  0  0  # atno 8008 bound_to 7997
  154.4903  140.0853  156.7619 H   0  0  0  0  0  0  0  0  0  0  0  0  # atno 8009 bound_to 7997
  155.4270  140.3425  155.4279 H   0  0  0  0  0  0  0  0  0  0  0  0  # atno 8010 bound_to 7997
  140.6841  143.6686  150.8204 H   0  0  0  0  0  0  0  0  0  0  0  0  # atno 10167 bound_to 10162
  156.9296  130.9966  151.2989 H   0  0  0  0  0  0  0  0  0  0  0  0  # atno 10718 bound_to 10713
  153.0164  135.6360  154.1670 H   0  0  0  0  0  0  0  0  0  0  0  0  # atno 10763 bound_to 10752
  154.1408  135.2835  155.3163 H   0  0  0  0  0  0  0  0  0  0  0  0  # atno 10764 bound_to 10752
  154.6126  135.5551  153.7550 H   0  0  0  0  0  0  0  0  0  0  0  0  # atno 10765 bound_to 10752
  141.0905  133.6634  156.3970 H   0  0  0  0  0  0  0  0  0  0  0  0  # atno 11005 bound_to 11000
  145.2284  140.9963  143.4005 LP  0  0  0  0  0  0  0  0  0  0  0  0  # atno 17320 bound_to 7965
  144.9551  139.4040  143.6383 LP  0  0  0  0  0  0  0  0  0  0  0  0  # atno 17321 bound_to 7965
  140.0391  143.5364  152.2726 LP  0  0  0  0  0  0  0  0  0  0  0  0  # atno 17342 bound_to 10162
  139.6185  144.7624  151.2792 LP  0  0  0  0  0  0  0  0  0  0  0  0  # atno 17343 bound_to 10162
  157.5856  130.8407  149.8584 LP  0  0  0  0  0  0  0  0  0  0  0  0  # atno 17370 bound_to 10713
  156.0453  130.3729  150.1332 LP  0  0  0  0  0  0  0  0  0  0  0  0  # atno 17371 bound_to 10713
  140.5263  134.6255  157.5335 LP  0  0  0  0  0  0  0  0  0  0  0  0  # atno 17394 bound_to 11000
  139.9730  134.7262  156.0004 LP  0  0  0  0  0  0  0  0  0  0  0  0  # atno 17395 bound_to 11000

$$$$
