AV-unprocessed.smi:1898|AV-procd|sdf|7702|dock7
  -GOLD-   22720 9443D 1   1.00000     0.00000
 Structure written by MMmdl.
 47 48  0  0  0  0  0  0  0  0  2 V2000
  148.8880  132.8520  153.4712 C   0  0  0  0  0  0  0  0  0  0  0  0
  148.5740  134.2178  153.8627 N   0  0  0  0  0  0  0  0  0  0  0  0
  148.4152  134.6201  155.1315 C   0  0  0  0  0  0  0  0  0  0  0  0
  148.5147  133.8622  156.0970 O   0  0  0  0  0  0  0  0  0  0  0  0
  148.0746  136.1000  155.3355 C   0  0  0  0  0  0  0  0  0  0  0  0
  149.0593  137.0158  154.7038 N   0  3  2  0  0  0  0  0  0  0  0  0
  150.3615  137.0273  155.4174 C   0  0  0  0  0  0  0  0  0  0  0  0
  151.4063  137.8650  154.6575 C   0  0  0  0  0  0  0  0  0  0  0  0
  150.9171  139.2990  154.3913 C   0  0  2  0  0  0  0  0  0  0  0  0
  150.8998  140.0722  155.6329 N   0  0  0  0  0  0  0  0  0  0  0  0
  151.8911  140.1110  156.5349 C   0  0  0  0  0  0  0  0  0  0  0  0
  152.9545  139.5068  156.3994 O   0  0  0  0  0  0  0  0  0  0  0  0
  151.5722  140.9033  157.5721 N   0  0  0  0  0  0  0  0  0  0  0  0
  152.3381  141.1931  158.7351 C   0  0  0  0  0  0  0  0  0  0  0  0
  153.1173  140.2301  159.4215 C   0  0  0  0  0  0  0  0  0  0  0  0
  153.8193  140.6179  160.5776 C   0  0  0  0  0  0  0  0  0  0  0  0
  153.7117  141.9519  161.0113 C   0  0  0  0  0  0  0  0  0  0  0  0
  152.9629  142.8766  160.3761 N   0  0  0  0  0  0  0  0  0  0  0  0
  152.2844  142.5051  159.2614 C   0  0  0  0  0  0  0  0  0  0  0  0
  151.5127  143.4524  158.6154 O   0  0  0  0  0  0  0  0  0  0  0  0
  151.5891  144.8046  159.0538 C   0  0  0  0  0  0  0  0  0  0  0  0
  149.5306  139.2597  153.7185 C   0  0  0  0  0  0  0  0  0  0  0  0
  148.5326  138.3927  154.5054 C   0  0  0  0  0  0  0  0  0  0  0  0
  148.9717  132.7856  152.3862 H   0  0  0  0  0  0  0  0  0  0  0  0
  148.1046  132.1653  153.7946 H   0  0  0  0  0  0  0  0  0  0  0  0
  149.8349  132.5299  153.9064 H   0  0  0  0  0  0  0  0  0  0  0  0
  148.4689  134.8967  153.1222 H   0  0  0  0  0  0  0  0  0  0  0  0
  147.0705  136.3177  154.9676 H   0  0  0  0  0  0  0  0  0  0  0  0
  148.0560  136.2674  156.4133 H   0  0  0  0  0  0  0  0  0  0  0  0
  150.2217  137.4157  156.4274 H   0  0  0  0  0  0  0  0  0  0  0  0
  150.7333  136.0072  155.5207 H   0  0  0  0  0  0  0  0  0  0  0  0
  152.3475  137.8817  155.2088 H   0  0  0  0  0  0  0  0  0  0  0  0
  151.6234  137.3802  153.7045 H   0  0  0  0  0  0  0  0  0  0  0  0
  151.6250  139.7754  153.7102 H   0  0  0  0  0  0  0  0  0  0  0  0
  150.0624  140.6000  155.8309 H   0  0  0  0  0  0  0  0  0  0  0  0
  150.6997  141.4057  157.4984 H   0  0  0  0  0  0  0  0  0  0  0  0
  153.1780  139.2032  159.0965 H   0  0  0  0  0  0  0  0  0  0  0  0
  154.4216  139.9063  161.1230 H   0  0  0  0  0  0  0  0  0  0  0  0
  154.2348  142.2836  161.8957 H   0  0  0  0  0  0  0  0  0  0  0  0
  150.9260  145.4185  158.4447 H   0  0  0  0  0  0  0  0  0  0  0  0
  152.5990  145.2028  158.9461 H   0  0  0  0  0  0  0  0  0  0  0  0
  151.2723  144.9063  160.0928 H   0  0  0  0  0  0  0  0  0  0  0  0
  149.1335  140.2677  153.5939 H   0  0  0  0  0  0  0  0  0  0  0  0
  149.6352  138.8536  152.7115 H   0  0  0  0  0  0  0  0  0  0  0  0
  147.5875  138.3589  153.9629 H   0  0  0  0  0  0  0  0  0  0  0  0
  148.3201  138.8472  155.4744 H   0  0  0  0  0  0  0  0  0  0  0  0
  149.2423  136.6360  153.7855 H   0  0  0  0  0  0  0  0  0  0  0  0
  1  2  1  0  0  0  0
  1 24  1  0  0  0  0
  1 25  1  0  0  0  0
  1 26  1  0  0  0  0
  2  3  1  0  0  0  0
  2 27  1  0  0  0  0
  3  4  2  0  0  0  0
  3  5  1  0  0  0  0
  5  6  1  0  0  0  0
  5 28  1  0  0  0  0
  5 29  1  0  0  0  0
  6 23  1  0  0  0  0
  6  7  1  0  0  0  0
  6 47  1  0  0  0  0
  7  8  1  0  0  0  0
  7 30  1  0  0  0  0
  7 31  1  0  0  0  0
  8  9  1  0  0  0  0
  8 32  1  0  0  0  0
  8 33  1  0  0  0  0
  9 10  1  0  0  0  0
  9 22  1  0  0  0  0
  9 34  1  0  0  0  0
 10 11  1  0  0  0  0
 10 35  1  0  0  0  0
 11 12  2  0  0  0  0
 11 13  1  0  0  0  0
 13 14  1  0  0  0  0
 13 36  1  0  0  0  0
 14 19  1  0  0  0  0
 14 15  2  0  0  0  0
 15 16  1  0  0  0  0
 15 37  1  0  0  0  0
 16 17  2  0  0  0  0
 16 38  1  0  0  0  0
 17 18  1  0  0  0  0
 17 39  1  0  0  0  0
 18 19  2  0  0  0  0
 19 20  1  0  0  0  0
 20 21  1  0  0  0  0
 21 40  1  0  0  0  0
 21 41  1  0  0  0  0
 21 42  1  0  0  0  0
 22 23  1  0  0  0  0
 22 43  1  0  0  0  0
 22 44  1  0  0  0  0
 23 45  1  0  0  0  0
 23 46  1  0  0  0  0
M  CHG  1   6   1
M  END
> <s_m_source_file>
AV-unprocessed.smi

> <i_m_source_file_index>
1898

> <i_lp_mmshare_version>
43012

> <i_f3d_flags>
0

> <s_epik_input>
W0NIM11bTkhdQyg9TylbQ0gyXU4xW0NIMl1bQ0gyXVtDSF0oW0NIMl1bQ0gyXTEpW05IXUMoPU8pW05IXWMyW2NIXVtjSF1bY0hdbmMyT1tDSDNd

> <s_epik_cmdline>
J2VwaWtfcHl0aG9uJywgJy1waCcsICc3LjAnLCAnLXRuJywgJzgnLCAnLW1hJywgJzIwMCcsICctbWV0YWxfYmluZGluZycsICctaW1hZScsICc8aW5maWxlLm1hZT4nLCAnLW9tYWUnLCAnPG91dGZpbGUubWFlPic=

> <r_lp_tautomer_probability>
1

> <r_epik_Ionization_Penalty>
0.838943

> <r_epik_Ionization_Penalty_Charging>
0.838844

> <r_epik_Ionization_Penalty_Neutral>
9.87395e-05

> <r_epik_State_Penalty>
0.8734

> <r_epik_Charging_Adjusted_Penalty>
1.71224

> <i_epik_Tot_Q>
1

> <i_epik_Tot_abs_Q>
1

> <r_epik_Metal_State_Penalty>
0.877926

> <b_epik_Metal_Only>
0

> <s_lp_Force_Field>
OPLS_2005

> <r_lp_Energy>
16.0451

> <b_lp_Chiralities_Consistent>
1

> <s_lp_Variant>
AV-unprocessed.smi:1898-3

> <Gold.Version>
5.8.1

> <Gold.Id.Protein>
6NUR|6NUR_protein|mol2

> <Gold.PLP.Fitness>
48.7436

> <Gold.PLP.PLP>
-37.9455

> <Gold.PLP.part.hbond>
-3.0000

> <Gold.PLP.part.metal>
0.0000

> <Gold.PLP.part.buried>
-2.2786

> <Gold.PLP.part.nonpolar>
-32.9739

> <Gold.PLP.part.repulsive>
0.2525

> <Gold.PLP.ligand.clash>
0.0000

> <Gold.PLP.ligand.torsion>
0.6172

> <Gold.PLP.Chemscore.Hbond>
4.0000

> <Gold.PLP.Chemscore.CHOScore>
0.0000

> <Gold.PLP.Chemscore.Metal>
0.0000

> <Gold.Chemscore.Hbonds>
donor molecule, donor type, donor heavy atom, donor atom, acceptor molecule, acceptor atom, score
      L1  H     2    27       P1  7948  1.00
      L1  H     6    47       P1  7948  2.00
      P1  H  7997  8009       L1    12  0.94

> <Gold.PLP.Chemscore.Internal.Correction>
0.0324

> <Gold.Rescore>
     Score         DG    S(hbond)    S(metal)    S(lipo)     H(rot)  DE(clash)    DE(int)     intcor
     16.83     -20.47       2.90        0.00      89.05       2.00       1.92       1.71       ----

> <Gold.Chemscore.Fitness>
16.8348

> <Gold.Chemscore.DG>
-20.4694

> <Gold.Chemscore.ZeroCoef>
-5.4800

> <Gold.Chemscore.Hbond>
2.8985

> <Gold.Chemscore.Metal>
0.0000

> <Gold.Chemscore.Lipo>
89.0516

> <Gold.Chemscore.Internal_Hbond>
0.0000

> <Gold.Chemscore.DEClash>
1.9216

> <Gold.Chemscore.DEInternal>
1.7130

> <Gold.Chemscore.Rot>
1.9963

> <Gold.Chemscore.Internal.Correction>
   9.000000E+99

> <Gold.Chemscore.Hbonds>
donor molecule, donor type, donor heavy atom, donor atom, acceptor molecule, acceptor atom, score
      L1  H     2    27       P1  7948  0.65
      L1  H     6    47       P1  7948  0.95
      P1  H  7997  8009       L1    12  0.90

> <Gold.Chemscore.Hbond.Weighted>
-9.6809

> <Gold.Chemscore.Metal.Weighted>
-0.0000

> <Gold.Chemscore.Lipo.Weighted>
-10.4190

> <Gold.Chemscore.Internal_Hbond.Weighted>
0.0000

> <Gold.Chemscore.DEClash.Weighted>
1.9216

> <Gold.Chemscore.DEInternal.Weighted>
1.7130

> <Gold.Chemscore.Rot.Weighted>
5.1105

> <Gold.Chemscore.Internal.Correction.Weighted>
   9.000000E+99

> <Gold.Protein.RotatedTorsions>
[ 6907 6896 6895 6894 ] final   84.84 input  -60.11 | X-H torsion
[ 7974 7965 7964 7962 ] final   46.96 input  175.53 | X-H torsion
[ 8008 7997 7996 7995 ] final -166.73 input   59.86 | X-H torsion
[ 10167 10162 10161 10158 ] final -150.49 input  -65.29 | X-H torsion
[ 10718 10713 10712 10709 ] final   69.77 input   66.30 | X-H torsion
[ 10763 10752 10751 10750 ] final  -69.58 input  -60.55 | X-H torsion
[ 11005 11000 10999 10996 ] final  -23.74 input  -57.11 | X-H torsion

> <Gold.Protein.ActiveResidues>
 VAL166  LYS551  ARG553  GLY616  TRP617  ASP618  TYR619  PRO620  LYS621  CYS622 
 ASP623  PHE694  ASN695  SER759  ASP760  ASP761  ALA762  ILE779  LEU786  VAL792 
 PHE793  MET794  SER795  GLU796  ALA797  LYS798  CYS799  TRP800  GLU811  SER814 

> <Gold.Protein.RotatedAtoms>
  152.5361  134.2679  159.8959 H   0  0  0  0  0  0  0  0  0  0  0  0  # atno 6907 bound_to 6896
  151.2637  133.4283  159.2625 H   0  0  0  0  0  0  0  0  0  0  0  0  # atno 6908 bound_to 6896
  151.0430  134.9635  159.8228 H   0  0  0  0  0  0  0  0  0  0  0  0  # atno 6909 bound_to 6896
  146.0342  139.4800  142.9819 H   0  0  0  0  0  0  0  0  0  0  0  0  # atno 7974 bound_to 7965
  155.8679  140.0988  157.1570 H   0  0  0  0  0  0  0  0  0  0  0  0  # atno 8008 bound_to 7997
  154.3995  140.1352  156.4105 H   0  0  0  0  0  0  0  0  0  0  0  0  # atno 8009 bound_to 7997
  155.7783  140.3459  155.5286 H   0  0  0  0  0  0  0  0  0  0  0  0  # atno 8010 bound_to 7997
  139.7350  143.8750  152.2546 H   0  0  0  0  0  0  0  0  0  0  0  0  # atno 10167 bound_to 10162
  157.6364  130.9443  150.0559 H   0  0  0  0  0  0  0  0  0  0  0  0  # atno 10718 bound_to 10713
  154.4055  135.6021  153.5922 H   0  0  0  0  0  0  0  0  0  0  0  0  # atno 10763 bound_to 10752
  152.9789  135.5916  154.4133 H   0  0  0  0  0  0  0  0  0  0  0  0  # atno 10764 bound_to 10752
  154.3938  135.2842  155.2117 H   0  0  0  0  0  0  0  0  0  0  0  0  # atno 10765 bound_to 10752
  140.8780  133.7674  156.0267 H   0  0  0  0  0  0  0  0  0  0  0  0  # atno 11005 bound_to 11000
  145.6992  141.0141  143.1513 LP  0  0  0  0  0  0  0  0  0  0  0  0  # atno 17320 bound_to 7965
  144.7044  139.8624  143.7434 LP  0  0  0  0  0  0  0  0  0  0  0  0  # atno 17321 bound_to 7965
  139.8684  144.7081  150.9016 LP  0  0  0  0  0  0  0  0  0  0  0  0  # atno 17342 bound_to 10162
  140.7777  143.3759  151.1565 LP  0  0  0  0  0  0  0  0  0  0  0  0  # atno 17343 bound_to 10162
  156.1606  130.3644  149.9304 LP  0  0  0  0  0  0  0  0  0  0  0  0  # atno 17370 bound_to 10713
  156.7303  130.9041  151.3625 LP  0  0  0  0  0  0  0  0  0  0  0  0  # atno 17371 bound_to 10713
  140.8495  134.2971  157.5281 LP  0  0  0  0  0  0  0  0  0  0  0  0  # atno 17394 bound_to 11000
  139.8717  134.9460  156.3925 LP  0  0  0  0  0  0  0  0  0  0  0  0  # atno 17395 bound_to 11000

$$$$
