#       Name:                AV-unprocessed.smi:735
#       Creating user name   scv26
#       Creation time:       Fri Mar 27 00:52:42 2020


#       File generated by GOLD software.
#

@<TRIPOS>MOLECULE
AV-unprocessed.smi:735
    25    25     1
SMALL
NO_CHARGES


@<TRIPOS>ATOM
      1 ****        -2.6093   0.7773  -1.8627 O.co2          1 S1                 0.0000
      2 ****        -1.9057  -0.2546  -1.7818 C.2            1 S1                 0.0000
      3 ****        -2.3519  -1.4204  -1.6875 O.co2          1 S1                -1.0000
      4 ****        -0.3809  -0.0738  -1.7286 C.3            1 S1                 0.0000
      5 ****         0.1808  -1.0833  -2.3986 F              1 S1                 0.0000
      6 ****        -0.0470   1.0454  -2.3771 F              1 S1                 0.0000
      7 ****         0.1184  -0.0734  -0.2825 C.2            1 S1                 0.0000
      8 ****         0.3127  -1.2377   0.4394 C.2            1 S1                 0.0000
      9 ****         0.7878  -1.3626   1.6971 N.pl3          1 S1                -1.0000
     10 ****         1.1368  -0.2070   2.3313 C.2            1 S1                 0.0000
     11 ****         1.5912  -0.1651   3.4726 O.2            1 S1                 0.0000
     12 ****         0.9786   0.9769   1.6777 N.am           1 S1                 0.0000
     13 ****         0.4923   1.1649   0.4200 C.2            1 S1                 0.0000
     14 ****         0.3856   2.3014  -0.0386 O.2            1 S1                 0.0000
     15 ****         1.2451   1.8081   2.1842 H              1 S1                 0.0000
     16 ****         0.0653  -2.1960  -0.0657 H              1 S1                 0.0000
     17 ****        -3.6066   0.7044  -1.8545 LP             1 S1                 0.0000
     18 ****        -2.1742   1.6747  -1.9355 LP             1 S1                 0.0000
     19 ****        -3.3392  -1.5782  -1.6725 LP             1 S1                 0.0000
     20 ****        -1.7210  -2.1939  -1.6271 LP             1 S1                 0.0000
     21 ****         0.8789  -2.2547   2.1398 LP             1 S1                 0.0000
     22 ****         1.7233  -1.0109   3.9896 LP             1 S1                 0.0000
     23 ****         1.8288   0.7148   3.8842 LP             1 S1                 0.0000
     24 ****         0.0197   2.4367  -0.9593 LP             1 S1                 0.0000
     25 ****         0.6647   3.0899   0.5094 LP             1 S1                 0.0000
@<TRIPOS>BOND
    1    1    2 ar    
    2    2    3 ar    
    3    2    4 1     
    4    4    5 1     
    5    4    6 1     
    6    4    7 1     
    7    7   13 1     
    8    7    8 2     
    9    8    9 1     
   10    8   16 1     
   11    9   10 1     
   12   10   11 2     
   13   10   12 am    
   14   12   15 1     
   15   12   13 am    
   16   13   14 2     
   17    1   17 1     
   18    1   18 1     
   19    3   19 1     
   20    3   20 1     
   21    9   21 1     
   22   11   22 1     
   23   11   23 1     
   24   14   24 1     
   25   14   25 1     
@<TRIPOS>SUBSTRUCTURE
      1 S1             1
@<TRIPOS>SET
LONE_PAIRS      STATIC     ATOMS    <user>   **** ""
9 17 18 19 20 21 22 23 24 25
DONOR_HYDROGENS      STATIC     ATOMS    <user>   **** ""
1 15
ATOM$BLUE        STATIC     ATOMS    COLORGROUP SYSTEM
9 17 18 19 20 21 22 23 24 25
ATOM$RED        STATIC     ATOMS    COLORGROUP SYSTEM
1 15
