#       Name:                AV-unprocessed.smi:2081
#       Creating user name   scv26
#       Creation time:       Fri Mar 27 11:19:32 2020


#       File generated by GOLD software.
#

@<TRIPOS>MOLECULE
AV-unprocessed.smi:2081
    51    52     1
SMALL
NO_CHARGES


@<TRIPOS>ATOM
      1 ****        -2.5275   0.9513   1.7165 C.3            1 S1                 0.0000
      2 ****        -2.1037   1.7184   2.9017 N.pl3          1 S1                 0.0000
      3 ****        -1.2506   0.9979   3.8702 C.3            1 S1                 0.0000
      4 ****        -0.0633   0.2243   3.2932 C.2            1 S1                 0.0000
      5 ****        -0.0642  -1.0065   3.2996 O.2            1 S1                 0.0000
      6 ****         0.9352   0.9642   2.7879 N.am           1 S1                 0.0000
      7 ****         2.1277   0.4277   2.1416 C.3            1 S1                 0.0000
      8 ****         1.8978  -0.0199   0.7060 C.ar           1 S1                 0.0000
      9 ****         1.0441   0.6873  -0.1658 C.ar           1 S1                 0.0000
     10 ****         0.8738   0.2217  -1.4832 C.ar           1 S1                 0.0000
     11 ****         1.5687  -0.9382  -1.9018 C.ar           1 S1                 0.0000
     12 ****         1.4134  -1.4255  -3.2183 N.3            1 S1                 0.0000
     13 ****         1.9605  -2.7450  -3.5299 C.3            1 S1                 0.0000
     14 ****         1.4471  -3.2298  -4.8959 C.3            1 S1                 0.0000
     15 ****         1.7526  -2.2607  -5.8929 O.3            1 S1                 0.0000
     16 ****         1.1180  -1.0138  -5.6296 C.3            1 S1                 0.0000
     17 ****         1.6132  -0.4489  -4.2866 C.3            1 S1                 0.0000
     18 ****         2.3900  -1.6132  -1.0596 N.ar           1 S1                 0.0000
     19 ****         2.5495  -1.1629   0.2026 C.ar           1 S1                 0.0000
     20 ****        -3.2103   2.8956   3.5334 S.o2           1 S1                 0.0000
     21 ****        -4.5220   1.8553   4.2961 C.3            1 S1                 0.0000
     22 ****        -2.5231   3.6366   4.6022 O.2            1 S1                 0.0000
     23 ****        -3.7962   3.6232   2.3973 O.2            1 S1                 0.0000
     24 ****        -3.1437   0.1037   2.0173 H              1 S1                 0.0000
     25 ****        -1.6725   0.5806   1.1522 H              1 S1                 0.0000
     26 ****        -3.1106   1.5755   1.0403 H              1 S1                 0.0000
     27 ****        -0.8557   1.7072   4.5977 H              1 S1                 0.0000
     28 ****        -1.8763   0.3048   4.4337 H              1 S1                 0.0000
     29 ****         0.8494   1.9695   2.8307 H              1 S1                 0.0000
     30 ****         2.8916   1.2053   2.1381 H              1 S1                 0.0000
     31 ****         2.5296  -0.3974   2.7322 H              1 S1                 0.0000
     32 ****         0.5203   1.5720   0.1652 H              1 S1                 0.0000
     33 ****         0.2046   0.7486  -2.1466 H              1 S1                 0.0000
     34 ****         3.0501  -2.6913  -3.5382 H              1 S1                 0.0000
     35 ****         1.6741  -3.4648  -2.7619 H              1 S1                 0.0000
     36 ****         1.9211  -4.1749  -5.1609 H              1 S1                 0.0000
     37 ****         0.3714  -3.4104  -4.8654 H              1 S1                 0.0000
     38 ****         1.3512  -0.3198  -6.4371 H              1 S1                 0.0000
     39 ****         0.0340  -1.1397  -5.6217 H              1 S1                 0.0000
     40 ****         1.0929   0.4859  -4.0845 H              1 S1                 0.0000
     41 ****         2.6759  -0.2116  -4.3509 H              1 S1                 0.0000
     42 ****         3.2156  -1.7375   0.8291 H              1 S1                 0.0000
     43 ****        -5.2885   2.5003   4.7254 H              1 S1                 0.0000
     44 ****        -4.0909   1.2373   5.0830 H              1 S1                 0.0000
     45 ****        -4.9730   1.2175   3.5364 H              1 S1                 0.0000
     46 ****        -0.8425  -1.5039   3.6827 LP             1 S1                 0.0000
     47 ****         0.7134  -1.5090   2.9217 LP             1 S1                 0.0000
     48 ****         0.4291  -1.6013  -3.1990 LP             1 S1                 0.0000
     49 ****         1.4425  -2.6007  -6.7807 LP             1 S1                 0.0000
     50 ****         2.7426  -2.1215  -5.9165 LP             1 S1                 0.0000
     51 ****         2.8708  -2.4334  -1.3696 LP             1 S1                 0.0000
@<TRIPOS>BOND
    1    1    2 1     
    2    1   24 1     
    3    1   25 1     
    4    1   26 1     
    5    2    3 1     
    6    2   20 1     
    7    3    4 1     
    8    3   27 1     
    9    3   28 1     
   10    4    5 2     
   11    4    6 am    
   12    6    7 1     
   13    6   29 1     
   14    7    8 1     
   15    7   30 1     
   16    7   31 1     
   17    8   19 ar    
   18    8    9 ar    
   19    9   10 ar    
   20    9   32 1     
   21   10   11 ar    
   22   10   33 1     
   23   11   12 1     
   24   11   18 ar    
   25   12   17 1     
   26   12   13 1     
   27   13   14 1     
   28   13   34 1     
   29   13   35 1     
   30   14   15 1     
   31   14   36 1     
   32   14   37 1     
   33   15   16 1     
   34   16   17 1     
   35   16   38 1     
   36   16   39 1     
   37   17   40 1     
   38   17   41 1     
   39   18   19 ar    
   40   19   42 1     
   41   20   21 1     
   42   20   22 2     
   43   20   23 2     
   44   21   43 1     
   45   21   44 1     
   46   21   45 1     
   47    5   46 1     
   48    5   47 1     
   49   12   48 1     
   50   15   49 1     
   51   15   50 1     
   52   18   51 1     
@<TRIPOS>SUBSTRUCTURE
      1 S1             1
@<TRIPOS>SET
LONE_PAIRS      STATIC     ATOMS    <user>   **** ""
8 46 47 48 49 50 51 22 23
DONOR_HYDROGENS      STATIC     ATOMS    <user>   **** ""
1 29
ATOM$BLUE        STATIC     ATOMS    COLORGROUP SYSTEM
8 46 47 48 49 50 51 22 23
ATOM$RED        STATIC     ATOMS    COLORGROUP SYSTEM
1 29
