AV-unprocessed.smi:415|AV-procd|sdf|2524|dock4
  -GOLD-   2262022483D 1   1.00000     0.00000
 Structure written by MMmdl.
 53 54  0  0  0  0  0  0  0  0  1 V2000
  143.3674  144.9306  158.6435 C   0  0  0  0  0  0  0  0  0  0  0  0
  143.4934  143.6292  158.0925 O   0  0  0  0  0  0  0  0  0  0  0  0
  144.6372  143.4600  157.2665 C   0  0  0  0  0  0  0  0  0  0  0  0
  144.6415  142.1037  156.5318 C   0  0  0  0  0  0  0  0  0  0  0  0
  145.7981  141.9301  155.6730 N   0  0  0  0  0  0  0  0  0  0  0  0
  146.0235  142.7080  154.5406 C   0  0  0  0  0  0  0  0  0  0  0  0
  145.1044  143.6789  154.1841 N   0  0  0  0  0  0  0  0  0  0  0  0
  147.1300  142.5456  153.7820 C   0  0  0  0  0  0  0  0  0  0  0  0
  148.1479  141.5570  154.1078 C   0  0  0  0  0  0  0  0  0  0  0  0
  149.1680  141.4022  153.4358 O   0  0  0  0  0  0  0  0  0  0  0  0
  147.9019  140.7812  155.2636 N   0  0  0  0  0  0  0  0  0  0  0  0
  148.9115  139.7839  155.6821 C   0  0  0  0  0  0  0  0  0  0  0  0
  150.2525  140.4148  156.0862 C   0  0  0  0  0  0  0  0  0  0  0  0
  151.2473  140.3053  155.3678 O   0  0  0  0  0  0  0  0  0  0  0  0
  150.2589  141.0762  157.2529 N   0  0  0  0  0  0  0  0  0  0  0  0
  151.4055  141.7848  157.8161 C   0  0  2  0  0  0  0  0  0  0  0  0
  151.8684  141.0830  159.1075 C   0  0  0  0  0  0  0  0  0  0  0  0
  153.0914  141.7853  159.7159 C   0  0  0  0  0  0  0  0  0  0  0  0
  152.8246  143.2803  159.9516 C   0  0  0  0  0  0  0  0  0  0  0  0
  152.3584  143.9799  158.6588 C   0  0  2  0  0  0  0  0  0  0  0  0
  152.1907  145.4954  158.8578 C   0  0  0  0  0  0  0  0  0  0  0  0
  151.1054  143.2908  158.0555 C   0  0  2  0  0  0  0  0  0  0  0  0
  149.8134  143.5330  158.8713 C   0  0  0  0  0  0  0  0  0  0  0  0
  146.7494  140.9529  156.0644 C   0  0  0  0  0  0  0  0  0  0  0  0
  146.5942  140.2684  157.0795 O   0  0  0  0  0  0  0  0  0  0  0  0
  142.4604  144.9828  159.2456 H   0  0  0  0  0  0  0  0  0  0  0  0
  143.2986  145.6964  157.8713 H   0  0  0  0  0  0  0  0  0  0  0  0
  144.2126  145.1652  159.2916 H   0  0  0  0  0  0  0  0  0  0  0  0
  144.7160  144.2815  156.5529 H   0  0  0  0  0  0  0  0  0  0  0  0
  145.5200  143.5291  157.9026 H   0  0  0  0  0  0  0  0  0  0  0  0
  144.5630  141.2495  157.2049 H   0  0  0  0  0  0  0  0  0  0  0  0
  143.7703  142.0179  155.8827 H   0  0  0  0  0  0  0  0  0  0  0  0
  144.2672  143.8425  154.7249 H   0  0  0  0  0  0  0  0  0  0  0  0
  145.1900  144.2025  153.3249 H   0  0  0  0  0  0  0  0  0  0  0  0
  147.2763  143.1670  152.9099 H   0  0  0  0  0  0  0  0  0  0  0  0
  148.5331  139.1871  156.5140 H   0  0  0  0  0  0  0  0  0  0  0  0
  149.1041  139.0501  154.8984 H   0  0  0  0  0  0  0  0  0  0  0  0
  149.3995  141.1109  157.7815 H   0  0  0  0  0  0  0  0  0  0  0  0
  152.2269  141.7120  157.1001 H   0  0  0  0  0  0  0  0  0  0  0  0
  151.0583  141.0604  159.8372 H   0  0  0  0  0  0  0  0  0  0  0  0
  152.1177  140.0424  158.8959 H   0  0  0  0  0  0  0  0  0  0  0  0
  153.3686  141.3037  160.6539 H   0  0  0  0  0  0  0  0  0  0  0  0
  153.9452  141.6700  159.0469 H   0  0  0  0  0  0  0  0  0  0  0  0
  152.0781  143.4021  160.7369 H   0  0  0  0  0  0  0  0  0  0  0  0
  153.7345  143.7536  160.3220 H   0  0  0  0  0  0  0  0  0  0  0  0
  153.1611  143.8610  157.9292 H   0  0  0  0  0  0  0  0  0  0  0  0
  151.4758  145.7248  159.6478 H   0  0  0  0  0  0  0  0  0  0  0  0
  151.8476  145.9771  157.9417 H   0  0  0  0  0  0  0  0  0  0  0  0
  153.1389  145.9569  159.1352 H   0  0  0  0  0  0  0  0  0  0  0  0
  150.9354  143.7448  157.0780 H   0  0  0  0  0  0  0  0  0  0  0  0
  149.8887  143.1410  159.8849 H   0  0  0  0  0  0  0  0  0  0  0  0
  148.9483  143.0641  158.4025 H   0  0  0  0  0  0  0  0  0  0  0  0
  149.5804  144.5947  158.9440 H   0  0  0  0  0  0  0  0  0  0  0  0
  1  2  1  0  0  0  0
  1 26  1  0  0  0  0
  1 27  1  0  0  0  0
  1 28  1  0  0  0  0
  2  3  1  0  0  0  0
  3  4  1  0  0  0  0
  3 29  1  0  0  0  0
  3 30  1  0  0  0  0
  4  5  1  0  0  0  0
  4 31  1  0  0  0  0
  4 32  1  0  0  0  0
  5 24  1  0  0  0  0
  5  6  1  0  0  0  0
  6  7  1  0  0  0  0
  6  8  2  0  0  0  0
  7 33  1  0  0  0  0
  7 34  1  0  0  0  0
  8  9  1  0  0  0  0
  8 35  1  0  0  0  0
  9 10  2  0  0  0  0
  9 11  1  0  0  0  0
 11 12  1  0  0  0  0
 11 24  1  0  0  0  0
 12 13  1  0  0  0  0
 12 36  1  0  0  0  0
 12 37  1  0  0  0  0
 13 14  2  0  0  0  0
 13 15  1  0  0  0  0
 15 16  1  0  0  0  0
 15 38  1  0  0  0  0
 16 22  1  0  0  0  0
 16 17  1  0  0  0  0
 16 39  1  0  0  0  0
 17 18  1  0  0  0  0
 17 40  1  0  0  0  0
 17 41  1  0  0  0  0
 18 19  1  0  0  0  0
 18 42  1  0  0  0  0
 18 43  1  0  0  0  0
 19 20  1  0  0  0  0
 19 44  1  0  0  0  0
 19 45  1  0  0  0  0
 20 21  1  0  0  0  0
 20 22  1  0  0  0  0
 20 46  1  0  0  0  0
 21 47  1  0  0  0  0
 21 48  1  0  0  0  0
 21 49  1  0  0  0  0
 22 23  1  0  0  0  0
 22 50  1  0  0  0  0
 23 51  1  0  0  0  0
 23 52  1  0  0  0  0
 23 53  1  0  0  0  0
 24 25  2  0  0  0  0
M  END
> <s_m_source_file>
AV-unprocessed.smi

> <i_m_source_file_index>
415

> <i_lp_mmshare_version>
43012

> <i_f3d_flags>
0

> <s_epik_input>
W0NIM11PW0NIMl1bQ0gyXW4xYyhbTkgyXSlbY0hdYyg9TyluKGMxPU8pW0NIMl1DKD1PKVtOSF1bQ0BASF0yW0NIMl1bQ0gyXVtDSDJdW0NAQEhdKFtDSDNdKVtDQEhdMltDSDNd

> <s_epik_cmdline>
J2VwaWtfcHl0aG9uJywgJy1waCcsICc3LjAnLCAnLXRuJywgJzgnLCAnLW1hJywgJzIwMCcsICctbWV0YWxfYmluZGluZycsICctaW1hZScsICc8aW5maWxlLm1hZT4nLCAnLW9tYWUnLCAnPG91dGZpbGUubWFlPic=

> <r_lp_tautomer_probability>
1

> <r_epik_Ionization_Penalty>
8.6647e-06

> <r_epik_Ionization_Penalty_Charging>
1.81162e-08

> <r_epik_Ionization_Penalty_Neutral>
8.64658e-06

> <r_epik_State_Penalty>
-0

> <r_epik_Charging_Adjusted_Penalty>
1.81162e-08

> <i_epik_Tot_Q>
0

> <i_epik_Tot_abs_Q>
0

> <r_epik_Metal_State_Penalty>
-0

> <b_epik_Metal_Only>
0

> <s_lp_Force_Field>
OPLS_2005

> <r_lp_Energy>
23.9123

> <b_lp_Chiralities_Consistent>
1

> <s_lp_Variant>
AV-unprocessed.smi:415-7

> <Gold.Version>
5.8.1

> <Gold.Id.Protein>
6NUR|6NUR_protein|mol2

> <Gold.PLP.Fitness>
47.0721

> <Gold.PLP.PLP>
-41.6557

> <Gold.PLP.part.hbond>
-3.0000

> <Gold.PLP.part.metal>
0.0000

> <Gold.PLP.part.buried>
-7.7766

> <Gold.PLP.part.nonpolar>
-33.6173

> <Gold.PLP.part.repulsive>
3.0312

> <Gold.PLP.ligand.clash>
0.0000

> <Gold.PLP.ligand.torsion>
0.2456

> <Gold.PLP.Chemscore.Hbond>
1.9280

> <Gold.PLP.Chemscore.CHOScore>
0.0000

> <Gold.PLP.Chemscore.Metal>
0.0000

> <Gold.Chemscore.Hbonds>
donor molecule, donor type, donor heavy atom, donor atom, acceptor molecule, acceptor atom, score
      P1  H  7989  7998       L1    14  0.99
      P1  H  8011  8017       L1    10  0.93

> <Gold.PLP.Chemscore.Internal.Correction>
0.1236

> <Gold.Rescore>
     Score         DG    S(hbond)    S(metal)    S(lipo)     H(rot)  DE(clash)    DE(int)     intcor
     15.64     -17.72       1.92        0.00      99.31       2.26       1.68       0.40       ----

> <Gold.Chemscore.Fitness>
15.6386

> <Gold.Chemscore.DG>
-17.7214

> <Gold.Chemscore.ZeroCoef>
-5.4800

> <Gold.Chemscore.Hbond>
1.9220

> <Gold.Chemscore.Metal>
0.0000

> <Gold.Chemscore.Lipo>
99.3089

> <Gold.Chemscore.Internal_Hbond>
0.0000

> <Gold.Chemscore.DEClash>
1.6846

> <Gold.Chemscore.DEInternal>
0.3982

> <Gold.Chemscore.Rot>
2.2645

> <Gold.Chemscore.Internal.Correction>
   9.000000E+99

> <Gold.Chemscore.Hbonds>
donor molecule, donor type, donor heavy atom, donor atom, acceptor molecule, acceptor atom, score
      P1  H  7989  7998       L1    14  0.92
      P1  H  8011  8017       L1    10  0.89

> <Gold.Chemscore.Hbond.Weighted>
-6.4194

> <Gold.Chemscore.Metal.Weighted>
-0.0000

> <Gold.Chemscore.Lipo.Weighted>
-11.6191

> <Gold.Chemscore.Internal_Hbond.Weighted>
0.0000

> <Gold.Chemscore.DEClash.Weighted>
1.6846

> <Gold.Chemscore.DEInternal.Weighted>
0.3982

> <Gold.Chemscore.Rot.Weighted>
5.7972

> <Gold.Chemscore.Internal.Correction.Weighted>
   9.000000E+99

> <Gold.Protein.RotatedTorsions>
[ 6907 6896 6895 6894 ] final -125.39 input  -60.11 | X-H torsion
[ 7974 7965 7964 7962 ] final   55.52 input  175.53 | X-H torsion
[ 8008 7997 7996 7995 ] final -145.47 input   59.86 | X-H torsion
[ 10167 10162 10161 10158 ] final  -21.83 input  -65.29 | X-H torsion
[ 10718 10713 10712 10709 ] final  130.43 input   66.30 | X-H torsion
[ 10763 10752 10751 10750 ] final  -22.52 input  -60.55 | X-H torsion
[ 11005 11000 10999 10996 ] final  -35.80 input  -57.11 | X-H torsion

> <Gold.Protein.ActiveResidues>
 VAL166  LYS551  ARG553  GLY616  TRP617  ASP618  TYR619  PRO620  LYS621  CYS622 
 ASP623  PHE694  ASN695  SER759  ASP760  ASP761  ALA762  ILE779  LEU786  VAL792 
 PHE793  MET794  SER795  GLU796  ALA797  LYS798  CYS799  TRP800  GLU811  SER814 

> <Gold.Protein.RotatedAtoms>
  150.8863  133.7304  159.2917 H   0  0  0  0  0  0  0  0  0  0  0  0  # atno 6907 bound_to 6896
  151.4869  135.1054  159.9802 H   0  0  0  0  0  0  0  0  0  0  0  0  # atno 6908 bound_to 6896
  152.4792  133.8165  159.7087 H   0  0  0  0  0  0  0  0  0  0  0  0  # atno 6909 bound_to 6896
  145.9495  139.3960  143.0314 H   0  0  0  0  0  0  0  0  0  0  0  0  # atno 7974 bound_to 7965
  155.5438  140.0610  157.2864 H   0  0  0  0  0  0  0  0  0  0  0  0  # atno 8008 bound_to 7997
  154.4443  140.1914  156.0661 H   0  0  0  0  0  0  0  0  0  0  0  0  # atno 8009 bound_to 7997
  156.0566  140.3277  155.7416 H   0  0  0  0  0  0  0  0  0  0  0  0  # atno 8010 bound_to 7997
  140.7283  143.4591  151.0405 H   0  0  0  0  0  0  0  0  0  0  0  0  # atno 10167 bound_to 10162
  157.5062  131.1095  150.9357 H   0  0  0  0  0  0  0  0  0  0  0  0  # atno 10718 bound_to 10713
  153.6533  135.6980  153.5201 H   0  0  0  0  0  0  0  0  0  0  0  0  # atno 10763 bound_to 10752
  153.2689  135.4221  155.0967 H   0  0  0  0  0  0  0  0  0  0  0  0  # atno 10764 bound_to 10752
  154.8471  135.3573  154.6078 H   0  0  0  0  0  0  0  0  0  0  0  0  # atno 10765 bound_to 10752
  140.9825  133.7048  156.1708 H   0  0  0  0  0  0  0  0  0  0  0  0  # atno 11005 bound_to 11000
  145.8190  140.9688  143.0909 LP  0  0  0  0  0  0  0  0  0  0  0  0  # atno 17320 bound_to 7965
  144.6793  140.0017  143.7484 LP  0  0  0  0  0  0  0  0  0  0  0  0  # atno 17321 bound_to 7965
  139.8274  143.7737  152.3179 LP  0  0  0  0  0  0  0  0  0  0  0  0  # atno 17342 bound_to 10162
  139.7841  144.7434  151.0047 LP  0  0  0  0  0  0  0  0  0  0  0  0  # atno 17343 bound_to 10162
  157.0012  130.5600  149.5311 LP  0  0  0  0  0  0  0  0  0  0  0  0  # atno 17370 bound_to 10713
  156.0260  130.5354  150.8407 LP  0  0  0  0  0  0  0  0  0  0  0  0  # atno 17371 bound_to 10713
  140.7165  134.4405  157.5578 LP  0  0  0  0  0  0  0  0  0  0  0  0  # atno 17394 bound_to 11000
  139.8956  134.8679  156.2123 LP  0  0  0  0  0  0  0  0  0  0  0  0  # atno 17395 bound_to 11000

$$$$
