AV-unprocessed.smi:2439|AV-procd|sdf|9611|dock9
  -GOLD-   2272013243D 1   1.00000     0.00000
 Structure written by MMmdl.
 40 42  0  0  0  0  0  0  0  0  1 V2000
  155.2020  144.9891  165.8365 N   0  0  0  0  0  0  0  0  0  0  0  0
  155.3488  143.8476  165.9549 C   0  0  0  0  0  0  0  0  0  0  0  0
  155.5335  142.4092  166.1049 C   0  0  0  0  0  0  0  0  0  0  0  0
  155.9162  141.8977  167.3628 C   0  0  0  0  0  0  0  0  0  0  0  0
  156.0951  140.5106  167.5138 C   0  0  0  0  0  0  0  0  0  0  0  0
  155.8855  139.6867  166.3933 C   0  0  0  0  0  0  0  0  0  0  0  0
  155.5217  140.1629  165.1845 N   0  0  0  0  0  0  0  0  0  0  0  0
  155.3425  141.4982  165.0311 C   0  0  0  0  0  0  0  0  0  0  0  0
  154.9630  141.9669  163.7593 N   0  0  0  0  0  0  0  0  0  0  0  0
  154.3204  141.1002  162.7784 C   0  0  0  0  0  0  0  0  0  0  0  0
  154.0303  141.8251  161.4540 C   0  0  2  0  0  0  0  0  0  0  0  0
  152.9557  142.9138  161.6273 C   0  0  0  0  0  0  0  0  0  0  0  0
  152.6224  143.5546  160.3616 N   0  0  0  0  0  0  0  0  0  0  0  0
  151.5976  144.5819  160.5392 C   0  0  0  0  0  0  0  0  0  0  0  0
  151.2524  145.2980  159.2242 C   0  0  0  0  0  0  0  0  0  0  0  0
  150.8080  144.2804  158.1636 C   0  0  0  0  0  0  0  0  0  0  0  0
  151.8637  143.1732  158.0201 C   0  0  0  0  0  0  0  0  0  0  0  0
  152.1937  142.5442  159.3896 C   0  0  1  0  0  0  0  0  0  0  0  0
  153.2585  141.4386  159.2396 C   0  0  0  0  0  0  0  0  0  0  0  0
  153.5496  140.8693  160.5119 O   0  0  0  0  0  0  0  0  0  0  0  0
  156.0719  142.5563  168.2053 H   0  0  0  0  0  0  0  0  0  0  0  0
  156.3860  140.0890  168.4644 H   0  0  0  0  0  0  0  0  0  0  0  0
  156.0140  138.6171  166.4687 H   0  0  0  0  0  0  0  0  0  0  0  0
  154.9540  142.9623  163.5881 H   0  0  0  0  0  0  0  0  0  0  0  0
  154.9706  140.2443  162.5955 H   0  0  0  0  0  0  0  0  0  0  0  0
  153.4001  140.6942  163.1997 H   0  0  0  0  0  0  0  0  0  0  0  0
  154.9442  142.2838  161.0724 H   0  0  0  0  0  0  0  0  0  0  0  0
  152.0589  142.4720  162.0652 H   0  0  0  0  0  0  0  0  0  0  0  0
  153.3107  143.6636  162.3354 H   0  0  0  0  0  0  0  0  0  0  0  0
  150.6939  144.1345  160.9562 H   0  0  0  0  0  0  0  0  0  0  0  0
  151.9403  145.3190  161.2661 H   0  0  0  0  0  0  0  0  0  0  0  0
  150.4664  146.0349  159.3912 H   0  0  0  0  0  0  0  0  0  0  0  0
  152.1245  145.8467  158.8661 H   0  0  0  0  0  0  0  0  0  0  0  0
  149.8542  143.8401  158.4565 H   0  0  0  0  0  0  0  0  0  0  0  0
  150.6445  144.7759  157.2063 H   0  0  0  0  0  0  0  0  0  0  0  0
  151.5050  142.4090  157.3298 H   0  0  0  0  0  0  0  0  0  0  0  0
  152.7698  143.5903  157.5784 H   0  0  0  0  0  0  0  0  0  0  0  0
  151.2841  142.0708  159.7638 H   0  0  0  0  0  0  0  0  0  0  0  0
  152.8984  140.6502  158.5782 H   0  0  0  0  0  0  0  0  0  0  0  0
  154.1738  141.8345  158.7961 H   0  0  0  0  0  0  0  0  0  0  0  0
  1  2  3  0  0  0  0
  2  3  1  0  0  0  0
  3  8  1  0  0  0  0
  3  4  2  0  0  0  0
  4  5  1  0  0  0  0
  4 21  1  0  0  0  0
  5  6  2  0  0  0  0
  5 22  1  0  0  0  0
  6  7  1  0  0  0  0
  6 23  1  0  0  0  0
  7  8  2  0  0  0  0
  8  9  1  0  0  0  0
  9 10  1  0  0  0  0
  9 24  1  0  0  0  0
 10 11  1  0  0  0  0
 10 25  1  0  0  0  0
 10 26  1  0  0  0  0
 11 20  1  0  0  0  0
 11 12  1  0  0  0  0
 11 27  1  0  0  0  0
 12 13  1  0  0  0  0
 12 28  1  0  0  0  0
 12 29  1  0  0  0  0
 13 18  1  0  0  0  0
 13 14  1  0  0  0  0
 14 15  1  0  0  0  0
 14 30  1  0  0  0  0
 14 31  1  0  0  0  0
 15 16  1  0  0  0  0
 15 32  1  0  0  0  0
 15 33  1  0  0  0  0
 16 17  1  0  0  0  0
 16 34  1  0  0  0  0
 16 35  1  0  0  0  0
 17 18  1  0  0  0  0
 17 36  1  0  0  0  0
 17 37  1  0  0  0  0
 18 19  1  0  0  0  0
 18 38  1  0  0  0  0
 19 20  1  0  0  0  0
 19 39  1  0  0  0  0
 19 40  1  0  0  0  0
M  END
> <s_m_source_file>
AV-unprocessed.smi

> <i_m_source_file_index>
2439

> <i_lp_mmshare_version>
43012

> <i_f3d_flags>
0

> <s_epik_input>
TiNDYzFbY0hdW2NIXVtjSF1uYzFbTkhdW0NIMl1bQ0BIXShbQ0gyXTIpT1tDSDJdW0NAQEhdKE4yMylbQ0gyXVtDSDJdW0NIMl1bQ0gyXTM=

> <s_epik_cmdline>
J2VwaWtfcHl0aG9uJywgJy1waCcsICc3LjAnLCAnLXRuJywgJzgnLCAnLW1hJywgJzIwMCcsICctbWV0YWxfYmluZGluZycsICctaW1hZScsICc8aW5maWxlLm1hZT4nLCAnLW9tYWUnLCAnPG91dGZpbGUubWFlPic=

> <r_epik_Ionization_Penalty>
1.22355

> <r_epik_Ionization_Penalty_Charging>
0

> <r_epik_Ionization_Penalty_Neutral>
1.22355

> <r_epik_State_Penalty>
1.29103

> <r_epik_Charging_Adjusted_Penalty>
1.29103

> <i_epik_Tot_Q>
0

> <i_epik_Tot_abs_Q>
0

> <r_epik_Metal_State_Penalty>
1.29103

> <b_epik_Metal_Only>
0

> <s_lp_Force_Field>
OPLS_2005

> <r_lp_Energy>
37.4104

> <b_lp_Chiralities_Consistent>
1

> <s_lp_Variant>
AV-unprocessed.smi:2439-9

> <Gold.Version>
5.8.1

> <Gold.Id.Protein>
6NUR|6NUR_protein|mol2

> <Gold.PLP.Fitness>
42.5024

> <Gold.PLP.PLP>
-42.7594

> <Gold.PLP.part.hbond>
-2.0000

> <Gold.PLP.part.metal>
0.0000

> <Gold.PLP.part.buried>
-5.2650

> <Gold.PLP.part.nonpolar>
-34.8206

> <Gold.PLP.part.repulsive>
0.1784

> <Gold.PLP.ligand.clash>
0.0000

> <Gold.PLP.ligand.torsion>
0.1295

> <Gold.PLP.Chemscore.Hbond>
0.0000

> <Gold.PLP.Chemscore.CHOScore>
0.0000

> <Gold.PLP.Chemscore.Metal>
0.0000

> <Gold.PLP.Chemscore.Internal.Correction>
0.0019

> <Gold.Rescore>
     Score         DG    S(hbond)    S(metal)    S(lipo)     H(rot)  DE(clash)    DE(int)     intcor
     14.84     -16.33       0.00        0.00     120.08       1.25       1.38       0.11       ----

> <Gold.Chemscore.Fitness>
14.8363

> <Gold.Chemscore.DG>
-16.3336

> <Gold.Chemscore.ZeroCoef>
-5.4800

> <Gold.Chemscore.Hbond>
0.0000

> <Gold.Chemscore.Metal>
0.0000

> <Gold.Chemscore.Lipo>
120.0833

> <Gold.Chemscore.Internal_Hbond>
0.0000

> <Gold.Chemscore.DEClash>
1.3847

> <Gold.Chemscore.DEInternal>
0.1126

> <Gold.Chemscore.Rot>
1.2485

> <Gold.Chemscore.Internal.Correction>
   9.000000E+99

> <Gold.Chemscore.Hbond.Weighted>
-0.0000

> <Gold.Chemscore.Metal.Weighted>
-0.0000

> <Gold.Chemscore.Lipo.Weighted>
-14.0497

> <Gold.Chemscore.Internal_Hbond.Weighted>
0.0000

> <Gold.Chemscore.DEClash.Weighted>
1.3847

> <Gold.Chemscore.DEInternal.Weighted>
0.1126

> <Gold.Chemscore.Rot.Weighted>
3.1961

> <Gold.Chemscore.Internal.Correction.Weighted>
   9.000000E+99

> <Gold.Protein.RotatedTorsions>
[ 6907 6896 6895 6894 ] final  -50.47 input  -60.11 | X-H torsion
[ 7974 7965 7964 7962 ] final   26.38 input  175.53 | X-H torsion
[ 8008 7997 7996 7995 ] final  158.57 input   59.86 | X-H torsion
[ 10167 10162 10161 10158 ] final  -60.27 input  -65.29 | X-H torsion
[ 10718 10713 10712 10709 ] final -109.28 input   66.30 | X-H torsion
[ 10763 10752 10751 10750 ] final  -22.23 input  -60.55 | X-H torsion
[ 11005 11000 10999 10996 ] final -170.65 input  -57.11 | X-H torsion

> <Gold.Protein.ActiveResidues>
 VAL166  LYS551  ARG553  GLY616  TRP617  ASP618  TYR619  PRO620  LYS621  CYS622 
 ASP623  PHE694  ASN695  SER759  ASP760  ASP761  ALA762  ILE779  LEU786  VAL792 
 PHE793  MET794  SER795  GLU796  ALA797  LYS798  CYS799  TRP800  GLU811  SER814 

> <Gold.Protein.RotatedAtoms>
  150.8704  134.8076  159.7150 H   0  0  0  0  0  0  0  0  0  0  0  0  # atno 6907 bound_to 6896
  152.4710  134.4956  159.9719 H   0  0  0  0  0  0  0  0  0  0  0  0  # atno 6908 bound_to 6896
  151.5046  133.3459  159.2910 H   0  0  0  0  0  0  0  0  0  0  0  0  # atno 6909 bound_to 6896
  146.1840  139.7336  142.8880 H   0  0  0  0  0  0  0  0  0  0  0  0  # atno 7974 bound_to 7965
  156.2294  140.1855  156.7280 H   0  0  0  0  0  0  0  0  0  0  0  0  # atno 8008 bound_to 7997
  154.5997  140.0638  156.9379 H   0  0  0  0  0  0  0  0  0  0  0  0  # atno 8009 bound_to 7997
  155.2196  140.3306  155.4320 H   0  0  0  0  0  0  0  0  0  0  0  0  # atno 8010 bound_to 7997
  140.6082  143.2379  151.5771 H   0  0  0  0  0  0  0  0  0  0  0  0  # atno 10167 bound_to 10162
  156.0529  130.5756  150.8078 H   0  0  0  0  0  0  0  0  0  0  0  0  # atno 10718 bound_to 10713
  153.6486  135.6982  153.5216 H   0  0  0  0  0  0  0  0  0  0  0  0  # atno 10763 bound_to 10752
  153.2724  135.4210  155.1000 H   0  0  0  0  0  0  0  0  0  0  0  0  # atno 10764 bound_to 10752
  154.8482  135.3582  154.6031 H   0  0  0  0  0  0  0  0  0  0  0  0  # atno 10765 bound_to 10752
  140.5171  134.5745  157.5036 H   0  0  0  0  0  0  0  0  0  0  0  0  # atno 11005 bound_to 11000
  145.3992  141.0383  143.3080 LP  0  0  0  0  0  0  0  0  0  0  0  0  # atno 17320 bound_to 7965
  144.8365  139.5542  143.6920 LP  0  0  0  0  0  0  0  0  0  0  0  0  # atno 17321 bound_to 7965
  139.5341  144.2831  152.1213 LP  0  0  0  0  0  0  0  0  0  0  0  0  # atno 17342 bound_to 10162
  140.2025  144.4643  150.6424 LP  0  0  0  0  0  0  0  0  0  0  0  0  # atno 17343 bound_to 10162
  157.5472  131.0943  150.9746 LP  0  0  0  0  0  0  0  0  0  0  0  0  # atno 17370 bound_to 10713
  157.0014  130.5601  149.5312 LP  0  0  0  0  0  0  0  0  0  0  0  0  # atno 17371 bound_to 10713
  139.9626  134.7426  156.0204 LP  0  0  0  0  0  0  0  0  0  0  0  0  # atno 17394 bound_to 11000
  141.1354  133.6576  156.3580 LP  0  0  0  0  0  0  0  0  0  0  0  0  # atno 17395 bound_to 11000

$$$$
