AV-unprocessed.smi:1335|AV-procd|sdf|5495|dock6
  -GOLD-   22720 5 73D 1   1.00000     0.00000
 Structure written by MMmdl.
 47 49  0  0  0  0  0  0  0  0  1 V2000
  145.1242  137.9386  162.2589 C   0  0  0  0  0  0  0  0  0  0  0  0
  146.2985  137.4450  161.6313 O   0  0  0  0  0  0  0  0  0  0  0  0
  146.5390  136.0864  161.6624 C   0  0  0  0  0  0  0  0  0  0  0  0
  145.9743  135.2159  162.6301 C   0  0  0  0  0  0  0  0  0  0  0  0
  146.2678  133.8392  162.6162 C   0  0  0  0  0  0  0  0  0  0  0  0
  147.1301  133.3116  161.6396 C   0  0  0  0  0  0  0  0  0  0  0  0
  147.6949  134.1633  160.6738 C   0  0  0  0  0  0  0  0  0  0  0  0
  147.4014  135.5429  160.6780 C   0  0  0  0  0  0  0  0  0  0  0  0
  148.0358  136.4232  159.6109 C   0  0  0  0  0  0  0  0  0  0  0  0
  149.4523  136.3365  159.6035 O   0  0  0  0  0  0  0  0  0  0  0  0
  150.0748  137.1710  158.6369 C   0  0  0  0  0  0  0  0  0  0  0  0
  151.2464  137.9018  159.3081 C   0  0  1  0  0  0  0  0  0  0  0  0
  152.2737  136.9542  159.5173 O   0  0  0  0  0  0  0  0  0  0  0  0
  151.7956  139.0459  158.4296 C   0  0  0  0  0  0  0  0  0  0  0  0
  152.4575  140.0665  159.2375 N   0  0  0  0  0  0  0  0  0  0  0  0
  153.2830  139.8509  160.2880 C   0  0  0  0  0  0  0  0  0  0  0  0
  153.6155  138.7514  160.7303 O   0  0  0  0  0  0  0  0  0  0  0  0
  153.6618  141.0551  160.7765 N   0  0  0  0  0  0  0  0  0  0  0  0
  154.5450  141.3034  161.9096 C   0  0  0  0  0  0  0  0  0  0  0  0
  153.0393  142.0681  160.0360 C   0  0  0  0  0  0  0  0  0  0  0  0
  153.0903  143.4669  160.1612 C   0  0  0  0  0  0  0  0  0  0  0  0
  152.3243  144.2252  159.2448 C   0  0  0  0  0  0  0  0  0  0  0  0
  151.5411  143.5865  158.2480 C   0  0  0  0  0  0  0  0  0  0  0  0
  151.5071  142.1759  158.1458 C   0  0  0  0  0  0  0  0  0  0  0  0
  152.2796  141.4470  159.0670 C   0  0  0  0  0  0  0  0  0  0  0  0
  145.0967  139.0241  162.1652 H   0  0  0  0  0  0  0  0  0  0  0  0
  145.1106  137.7000  163.3233 H   0  0  0  0  0  0  0  0  0  0  0  0
  144.2234  137.5447  161.7866 H   0  0  0  0  0  0  0  0  0  0  0  0
  145.3103  135.5799  163.3989 H   0  0  0  0  0  0  0  0  0  0  0  0
  145.8309  133.1875  163.3583 H   0  0  0  0  0  0  0  0  0  0  0  0
  147.3576  132.2557  161.6306 H   0  0  0  0  0  0  0  0  0  0  0  0
  148.3583  133.7549  159.9255 H   0  0  0  0  0  0  0  0  0  0  0  0
  147.6812  136.0757  158.6401 H   0  0  0  0  0  0  0  0  0  0  0  0
  147.7143  137.4624  159.6874 H   0  0  0  0  0  0  0  0  0  0  0  0
  150.4339  136.5504  157.8143 H   0  0  0  0  0  0  0  0  0  0  0  0
  149.3714  137.8928  158.2192 H   0  0  0  0  0  0  0  0  0  0  0  0
  150.9185  138.2749  160.2796 H   0  0  0  0  0  0  0  0  0  0  0  0
  153.0557  137.2579  159.0818 H   0  0  0  0  0  0  0  0  0  0  0  0
  152.4655  138.6683  157.6549 H   0  0  0  0  0  0  0  0  0  0  0  0
  150.9818  139.5299  157.8887 H   0  0  0  0  0  0  0  0  0  0  0  0
  153.9681  141.6586  162.7640 H   0  0  0  0  0  0  0  0  0  0  0  0
  155.2843  142.0636  161.6554 H   0  0  0  0  0  0  0  0  0  0  0  0
  155.0829  140.4042  162.2128 H   0  0  0  0  0  0  0  0  0  0  0  0
  153.6858  143.9449  160.9247 H   0  0  0  0  0  0  0  0  0  0  0  0
  152.3347  145.3035  159.3061 H   0  0  0  0  0  0  0  0  0  0  0  0
  150.9625  144.1845  157.5596 H   0  0  0  0  0  0  0  0  0  0  0  0
  150.9098  141.6857  157.3913 H   0  0  0  0  0  0  0  0  0  0  0  0
  1  2  1  0  0  0  0
  1 26  1  0  0  0  0
  1 27  1  0  0  0  0
  1 28  1  0  0  0  0
  2  3  1  0  0  0  0
  3  8  1  0  0  0  0
  3  4  2  0  0  0  0
  4  5  1  0  0  0  0
  4 29  1  0  0  0  0
  5  6  2  0  0  0  0
  5 30  1  0  0  0  0
  6  7  1  0  0  0  0
  6 31  1  0  0  0  0
  7  8  2  0  0  0  0
  7 32  1  0  0  0  0
  8  9  1  0  0  0  0
  9 10  1  0  0  0  0
  9 33  1  0  0  0  0
  9 34  1  0  0  0  0
 10 11  1  0  0  0  0
 11 12  1  0  0  0  0
 11 35  1  0  0  0  0
 11 36  1  0  0  0  0
 12 13  1  0  0  0  0
 12 14  1  0  0  0  0
 12 37  1  0  0  0  0
 13 38  1  0  0  0  0
 14 15  1  0  0  0  0
 14 39  1  0  0  0  0
 14 40  1  0  0  0  0
 15 25  1  0  0  0  0
 15 16  1  0  0  0  0
 16 17  2  0  0  0  0
 16 18  1  0  0  0  0
 18 19  1  0  0  0  0
 18 20  1  0  0  0  0
 19 41  1  0  0  0  0
 19 42  1  0  0  0  0
 19 43  1  0  0  0  0
 20 25  2  0  0  0  0
 20 21  1  0  0  0  0
 21 22  2  0  0  0  0
 21 44  1  0  0  0  0
 22 23  1  0  0  0  0
 22 45  1  0  0  0  0
 23 24  2  0  0  0  0
 23 46  1  0  0  0  0
 24 25  1  0  0  0  0
 24 47  1  0  0  0  0
M  END
> <s_m_source_file>
AV-unprocessed.smi

> <i_m_source_file_index>
1335

> <i_lp_mmshare_version>
43012

> <i_f3d_flags>
0

> <s_epik_input>
W0NIM11PYzFbY0hdW2NIXVtjSF1bY0hdYzFbQ0gyXU9bQ0gyXVtDQEhdKFtPSF0pW0NIMl1uKGMoPU8pbjJbQ0gzXSljKGMyMylbY0hdW2NIXVtjSF1bY0hdMw==

> <s_epik_cmdline>
J2VwaWtfcHl0aG9uJywgJy1waCcsICc3LjAnLCAnLXRuJywgJzgnLCAnLW1hJywgJzIwMCcsICctbWV0YWxfYmluZGluZycsICctaW1hZScsICc8aW5maWxlLm1hZT4nLCAnLW9tYWUnLCAnPG91dGZpbGUubWFlPic=

> <r_lp_tautomer_probability>
1

> <r_epik_Ionization_Penalty>
1.07897e-06

> <r_epik_Ionization_Penalty_Charging>
2.2947e-09

> <r_epik_Ionization_Penalty_Neutral>
1.07667e-06

> <r_epik_State_Penalty>
-0

> <r_epik_Charging_Adjusted_Penalty>
2.2947e-09

> <i_epik_Tot_Q>
0

> <i_epik_Tot_abs_Q>
0

> <r_epik_Metal_State_Penalty>
-0

> <b_epik_Metal_Only>
0

> <s_lp_Force_Field>
OPLS_2005

> <r_lp_Energy>
49.5291

> <b_lp_Chiralities_Consistent>
1

> <s_lp_Variant>
AV-unprocessed.smi:1335-2

> <Gold.Version>
5.8.1

> <Gold.Id.Protein>
6NUR|6NUR_protein|mol2

> <Gold.PLP.Fitness>
57.9232

> <Gold.PLP.PLP>
-53.2779

> <Gold.PLP.part.hbond>
-3.0000

> <Gold.PLP.part.metal>
0.0000

> <Gold.PLP.part.buried>
-4.5409

> <Gold.PLP.part.nonpolar>
-46.5045

> <Gold.PLP.part.repulsive>
0.0000

> <Gold.PLP.ligand.clash>
0.0000

> <Gold.PLP.ligand.torsion>
1.2439

> <Gold.PLP.Chemscore.Hbond>
2.3036

> <Gold.PLP.Chemscore.CHOScore>
0.0000

> <Gold.PLP.Chemscore.Metal>
0.0000

> <Gold.Chemscore.Hbonds>
donor molecule, donor type, donor heavy atom, donor atom, acceptor molecule, acceptor atom, score
      P1  H  6896  6907       L1    13  0.37
      P1  H  6896  6909       L1    10  0.71
      P1  H  6934  6947       L1     2  1.00

> <Gold.PLP.Chemscore.Internal.Correction>
0.2224

> <Gold.Rescore>
     Score         DG    S(hbond)    S(metal)    S(lipo)     H(rot)  DE(clash)    DE(int)     intcor
     15.60     -20.63       1.74        0.00     134.63       2.50       1.05       3.98       ----

> <Gold.Chemscore.Fitness>
15.5973

> <Gold.Chemscore.DG>
-20.6274

> <Gold.Chemscore.ZeroCoef>
-5.4800

> <Gold.Chemscore.Hbond>
1.7381

> <Gold.Chemscore.Metal>
0.0000

> <Gold.Chemscore.Lipo>
134.6307

> <Gold.Chemscore.Internal_Hbond>
0.0000

> <Gold.Chemscore.DEClash>
1.0499

> <Gold.Chemscore.DEInternal>
3.9802

> <Gold.Chemscore.Rot>
2.5038

> <Gold.Chemscore.Internal.Correction>
   9.000000E+99

> <Gold.Chemscore.Hbonds>
donor molecule, donor type, donor heavy atom, donor atom, acceptor molecule, acceptor atom, score
      P1  H  6896  6907       L1    13  0.32
      P1  H  6896  6909       L1    10  0.27
      P1  H  6934  6947       L1     2  0.42

> <Gold.Chemscore.Hbond.Weighted>
-5.8054

> <Gold.Chemscore.Metal.Weighted>
-0.0000

> <Gold.Chemscore.Lipo.Weighted>
-15.7518

> <Gold.Chemscore.Internal_Hbond.Weighted>
0.0000

> <Gold.Chemscore.DEClash.Weighted>
1.0499

> <Gold.Chemscore.DEInternal.Weighted>
3.9802

> <Gold.Chemscore.Rot.Weighted>
6.4098

> <Gold.Chemscore.Internal.Correction.Weighted>
   9.000000E+99

> <Gold.Protein.RotatedTorsions>
[ 6907 6896 6895 6894 ] final   49.82 input  -60.11 | X-H torsion
[ 7974 7965 7964 7962 ] final   34.68 input  175.53 | X-H torsion
[ 8008 7997 7996 7995 ] final -159.50 input   59.86 | X-H torsion
[ 10167 10162 10161 10158 ] final  169.97 input  -65.29 | X-H torsion
[ 10718 10713 10712 10709 ] final  -43.92 input   66.30 | X-H torsion
[ 10763 10752 10751 10750 ] final   45.28 input  -60.55 | X-H torsion
[ 11005 11000 10999 10996 ] final  -42.11 input  -57.11 | X-H torsion

> <Gold.Protein.ActiveResidues>
 VAL166  LYS551  ARG553  GLY616  TRP617  ASP618  TYR619  PRO620  LYS621  CYS622 
 ASP623  PHE694  ASN695  SER759  ASP760  ASP761  ALA762  ILE779  LEU786  VAL792 
 PHE793  MET794  SER795  GLU796  ALA797  LYS798  CYS799  TRP800  GLU811  SER814 

> <Gold.Protein.RotatedAtoms>
  152.2951  134.7677  160.0369 H   0  0  0  0  0  0  0  0  0  0  0  0  # atno 6907 bound_to 6896
  151.8210  133.3389  159.3592 H   0  0  0  0  0  0  0  0  0  0  0  0  # atno 6908 bound_to 6896
  150.7247  134.5503  159.5836 H   0  0  0  0  0  0  0  0  0  0  0  0  # atno 6909 bound_to 6896
  146.1336  139.6238  142.9210 H   0  0  0  0  0  0  0  0  0  0  0  0  # atno 7974 bound_to 7965
  155.7635  140.0842  157.2144 H   0  0  0  0  0  0  0  0  0  0  0  0  # atno 8008 bound_to 7997
  154.4001  140.1538  156.2916 H   0  0  0  0  0  0  0  0  0  0  0  0  # atno 8009 bound_to 7997
  155.8817  140.3420  155.5895 H   0  0  0  0  0  0  0  0  0  0  0  0  # atno 8010 bound_to 7997
  139.5006  144.3648  151.9787 H   0  0  0  0  0  0  0  0  0  0  0  0  # atno 10167 bound_to 10162
  156.2440  130.4182  149.8727 H   0  0  0  0  0  0  0  0  0  0  0  0  # atno 10718 bound_to 10713
  152.9827  135.6044  154.3411 H   0  0  0  0  0  0  0  0  0  0  0  0  # atno 10763 bound_to 10752
  154.3108  135.2771  155.2569 H   0  0  0  0  0  0  0  0  0  0  0  0  # atno 10764 bound_to 10752
  154.4779  135.5925  153.6424 H   0  0  0  0  0  0  0  0  0  0  0  0  # atno 10765 bound_to 10752
  141.0293  133.6827  156.2549 H   0  0  0  0  0  0  0  0  0  0  0  0  # atno 11005 bound_to 11000
  145.5206  141.0432  143.2438 LP  0  0  0  0  0  0  0  0  0  0  0  0  # atno 17320 bound_to 7965
  144.7716  139.6722  143.7192 LP  0  0  0  0  0  0  0  0  0  0  0  0  # atno 17321 bound_to 7965
  140.3084  144.3566  150.6040 LP  0  0  0  0  0  0  0  0  0  0  0  0  # atno 17342 bound_to 10162
  140.5818  143.2172  151.7414 LP  0  0  0  0  0  0  0  0  0  0  0  0  # atno 17343 bound_to 10162
  156.6299  130.8661  151.3493 LP  0  0  0  0  0  0  0  0  0  0  0  0  # atno 17370 bound_to 10713
  157.7187  130.9530  150.1354 LP  0  0  0  0  0  0  0  0  0  0  0  0  # atno 17371 bound_to 10713
  140.6436  134.5141  157.5571 LP  0  0  0  0  0  0  0  0  0  0  0  0  # atno 17394 bound_to 11000
  139.9197  134.8174  156.1252 LP  0  0  0  0  0  0  0  0  0  0  0  0  # atno 17395 bound_to 11000

$$$$
