AV-unprocessed.smi:1601|AV-procd|sdf|6438|dock5
  -GOLD-   22720 7 83D 1   1.00000     0.00000
 Structure written by MMmdl.
 42 43  0  0  0  0  0  0  0  0  2 V2000
  146.6115  142.3635  154.8642 C   0  0  0  0  0  0  0  0  0  0  0  0
  147.2575  141.4977  153.7542 C   0  0  1  0  0  0  0  0  0  0  0  0
  148.7493  141.2155  154.0746 C   0  0  0  0  0  0  0  0  0  0  0  0
  149.0446  141.2541  155.5051 N   0  0  0  0  0  0  0  0  0  0  0  0
  150.2263  140.9538  156.0686 C   0  0  0  0  0  0  0  0  0  0  0  0
  151.2094  140.5945  155.4196 O   0  0  0  0  0  0  0  0  0  0  0  0
  150.2963  141.0730  157.5992 C   0  0  1  0  0  0  0  0  0  0  0  0
  150.7133  139.7576  158.2820 C   0  0  0  0  0  0  0  0  0  0  0  0
  151.1804  142.1641  157.9875 N   0  0  0  0  0  0  0  0  0  0  0  0
  152.1486  142.1892  158.9730 C   0  0  0  0  0  0  0  0  0  0  0  0
  152.7037  143.4364  158.9698 C   0  0  0  0  0  0  0  0  0  0  0  0
  151.9984  144.1169  157.9388 C   0  0  0  0  0  0  0  0  0  0  0  0
  151.0883  143.3546  157.3546 N   0  0  0  0  0  0  0  0  0  0  0  0
  146.5286  140.2086  153.5088 N   0  3  0  0  0  0  0  0  0  0  0  0
  147.0803  139.3539  152.4203 C   0  0  0  0  0  0  0  0  0  0  0  0
  146.2428  138.0765  152.2353 C   0  0  0  0  0  0  0  0  0  0  0  0
  146.1776  137.3596  153.4586 O   0  0  0  0  0  0  0  0  0  0  0  0
  145.5460  138.1246  154.4739 C   0  0  0  0  0  0  0  0  0  0  0  0
  146.3687  139.3946  154.7454 C   0  0  0  0  0  0  0  0  0  0  0  0
  147.1588  143.2912  155.0264 H   0  0  0  0  0  0  0  0  0  0  0  0
  146.5797  141.8320  155.8159 H   0  0  0  0  0  0  0  0  0  0  0  0
  145.5980  142.6721  154.6085 H   0  0  0  0  0  0  0  0  0  0  0  0
  147.2087  142.0844  152.8354 H   0  0  0  0  0  0  0  0  0  0  0  0
  149.0484  140.2611  153.6381 H   0  0  0  0  0  0  0  0  0  0  0  0
  149.3973  141.9638  153.6229 H   0  0  0  0  0  0  0  0  0  0  0  0
  148.2947  141.5430  156.1173 H   0  0  0  0  0  0  0  0  0  0  0  0
  149.2895  141.3127  157.9473 H   0  0  0  0  0  0  0  0  0  0  0  0
  150.0428  138.9416  158.0107 H   0  0  0  0  0  0  0  0  0  0  0  0
  150.6820  139.8581  159.3673 H   0  0  0  0  0  0  0  0  0  0  0  0
  151.7269  139.4622  158.0084 H   0  0  0  0  0  0  0  0  0  0  0  0
  152.3589  141.3260  159.5874 H   0  0  0  0  0  0  0  0  0  0  0  0
  153.4908  143.8073  159.6090 H   0  0  0  0  0  0  0  0  0  0  0  0
  152.1187  145.1356  157.6006 H   0  0  0  0  0  0  0  0  0  0  0  0
  147.0742  139.8836  151.4681 H   0  0  0  0  0  0  0  0  0  0  0  0
  148.1156  139.0939  152.6468 H   0  0  0  0  0  0  0  0  0  0  0  0
  145.2373  138.3170  151.8861 H   0  0  0  0  0  0  0  0  0  0  0  0
  146.6966  137.4381  151.4769 H   0  0  0  0  0  0  0  0  0  0  0  0
  144.5244  138.3738  154.1823 H   0  0  0  0  0  0  0  0  0  0  0  0
  145.4800  137.5203  155.3787 H   0  0  0  0  0  0  0  0  0  0  0  0
  147.3522  139.1197  155.1303 H   0  0  0  0  0  0  0  0  0  0  0  0
  145.8706  139.9605  155.5301 H   0  0  0  0  0  0  0  0  0  0  0  0
  145.5997  140.4662  153.2065 H   0  0  0  0  0  0  0  0  0  0  0  0
  1  2  1  0  0  0  0
  1 20  1  0  0  0  0
  1 21  1  0  0  0  0
  1 22  1  0  0  0  0
  2  3  1  0  0  0  0
  2 14  1  0  0  0  0
  2 23  1  0  0  0  0
  3  4  1  0  0  0  0
  3 24  1  0  0  0  0
  3 25  1  0  0  0  0
  4  5  1  0  0  0  0
  4 26  1  0  0  0  0
  5  6  2  0  0  0  0
  5  7  1  0  0  0  0
  7  8  1  0  0  0  0
  7  9  1  0  0  0  0
  7 27  1  0  0  0  0
  8 28  1  0  0  0  0
  8 29  1  0  0  0  0
  8 30  1  0  0  0  0
  9 13  1  0  0  0  0
  9 10  1  0  0  0  0
 10 11  2  0  0  0  0
 10 31  1  0  0  0  0
 11 12  1  0  0  0  0
 11 32  1  0  0  0  0
 12 13  2  0  0  0  0
 12 33  1  0  0  0  0
 14 19  1  0  0  0  0
 14 15  1  0  0  0  0
 14 42  1  0  0  0  0
 15 16  1  0  0  0  0
 15 34  1  0  0  0  0
 15 35  1  0  0  0  0
 16 17  1  0  0  0  0
 16 36  1  0  0  0  0
 16 37  1  0  0  0  0
 17 18  1  0  0  0  0
 18 19  1  0  0  0  0
 18 38  1  0  0  0  0
 18 39  1  0  0  0  0
 19 40  1  0  0  0  0
 19 41  1  0  0  0  0
M  CHG  1  14   1
M  END
> <s_m_source_file>
AV-unprocessed.smi

> <i_m_source_file_index>
1601

> <i_lp_mmshare_version>
43012

> <i_f3d_flags>
0

> <s_epik_input>
W0NIMl0xW0NIMl1PW0NIMl1bQ0gyXU4xW0NASF0oW0NIM10pW0NIMl1bTkhdQyg9TylbQ0BIXShbQ0gzXSluMltjSF1bY0hdW2NIXW4y

> <s_epik_cmdline>
J2VwaWtfcHl0aG9uJywgJy1waCcsICc3LjAnLCAnLXRuJywgJzgnLCAnLW1hJywgJzIwMCcsICctbWV0YWxfYmluZGluZycsICctaW1hZScsICc8aW5maWxlLm1hZT4nLCAnLW9tYWUnLCAnPG91dGZpbGUubWFlPic=

> <r_lp_tautomer_probability>
1

> <r_epik_Ionization_Penalty>
0.732551

> <r_epik_Ionization_Penalty_Charging>
0.732531

> <r_epik_Ionization_Penalty_Neutral>
2.04647e-05

> <r_epik_State_Penalty>
0.757939

> <r_epik_Charging_Adjusted_Penalty>
1.49047

> <i_epik_Tot_Q>
1

> <i_epik_Tot_abs_Q>
1

> <r_epik_Metal_State_Penalty>
0.757952

> <b_epik_Metal_Only>
0

> <s_lp_Force_Field>
OPLS_2005

> <r_lp_Energy>
25.2472

> <b_lp_Chiralities_Consistent>
1

> <s_lp_Variant>
AV-unprocessed.smi:1601-8

> <Gold.Version>
5.8.1

> <Gold.Id.Protein>
6NUR|6NUR_protein|mol2

> <Gold.PLP.Fitness>
42.3445

> <Gold.PLP.PLP>
-35.4529

> <Gold.PLP.part.hbond>
-2.0000

> <Gold.PLP.part.metal>
0.0000

> <Gold.PLP.part.buried>
-3.1760

> <Gold.PLP.part.nonpolar>
-32.1623

> <Gold.PLP.part.repulsive>
0.9100

> <Gold.PLP.ligand.clash>
0.0071

> <Gold.PLP.ligand.torsion>
0.8890

> <Gold.PLP.Chemscore.Hbond>
2.8480

> <Gold.PLP.Chemscore.CHOScore>
0.0000

> <Gold.PLP.Chemscore.Metal>
0.0000

> <Gold.Chemscore.Hbonds>
donor molecule, donor type, donor heavy atom, donor atom, acceptor molecule, acceptor atom, score
      L1  H    14    42       P1 10175  1.92
      P1  H  7989  7998       L1     6  0.86

> <Gold.PLP.Chemscore.Internal.Correction>
0.1327

> <Gold.Rescore>
     Score         DG    S(hbond)    S(metal)    S(lipo)     H(rot)  DE(clash)    DE(int)     intcor
     15.80     -16.72       1.91        0.00      82.34       1.86       0.04       0.88       ----

> <Gold.Chemscore.Fitness>
15.7984

> <Gold.Chemscore.DG>
-16.7185

> <Gold.Chemscore.ZeroCoef>
-5.4800

> <Gold.Chemscore.Hbond>
1.9086

> <Gold.Chemscore.Metal>
0.0000

> <Gold.Chemscore.Lipo>
82.3355

> <Gold.Chemscore.Internal_Hbond>
0.0000

> <Gold.Chemscore.DEClash>
0.0388

> <Gold.Chemscore.DEInternal>
0.8812

> <Gold.Chemscore.Rot>
1.8631

> <Gold.Chemscore.Internal.Correction>
   9.000000E+99

> <Gold.Chemscore.Hbonds>
donor molecule, donor type, donor heavy atom, donor atom, acceptor molecule, acceptor atom, score
      L1  H    14    42       P1 10175  0.83
      P1  H  7989  7998       L1     6  0.83

> <Gold.Chemscore.Hbond.Weighted>
-6.3749

> <Gold.Chemscore.Metal.Weighted>
-0.0000

> <Gold.Chemscore.Lipo.Weighted>
-9.6333

> <Gold.Chemscore.Internal_Hbond.Weighted>
0.0000

> <Gold.Chemscore.DEClash.Weighted>
0.0388

> <Gold.Chemscore.DEInternal.Weighted>
0.8812

> <Gold.Chemscore.Rot.Weighted>
4.7697

> <Gold.Chemscore.Internal.Correction.Weighted>
   9.000000E+99

> <Gold.Protein.RotatedTorsions>
[ 6907 6896 6895 6894 ] final  119.07 input  -60.11 | X-H torsion
[ 7974 7965 7964 7962 ] final  170.46 input  175.53 | X-H torsion
[ 8008 7997 7996 7995 ] final  172.88 input   59.86 | X-H torsion
[ 10167 10162 10161 10158 ] final  -99.51 input  -65.29 | X-H torsion
[ 10718 10713 10712 10709 ] final   24.18 input   66.30 | X-H torsion
[ 10763 10752 10751 10750 ] final  143.12 input  -60.55 | X-H torsion
[ 11005 11000 10999 10996 ] final  168.51 input  -57.11 | X-H torsion

> <Gold.Protein.ActiveResidues>
 VAL166  LYS551  ARG553  GLY616  TRP617  ASP618  TYR619  PRO620  LYS621  CYS622 
 ASP623  PHE694  ASN695  SER759  ASP760  ASP761  ALA762  ILE779  LEU786  VAL792 
 PHE793  MET794  SER795  GLU796  ALA797  LYS798  CYS799  TRP800  GLU811  SER814 

> <Gold.Protein.RotatedAtoms>
  152.4498  133.7606  159.6744 H   0  0  0  0  0  0  0  0  0  0  0  0  # atno 6907 bound_to 6896
  150.8407  133.7931  159.3068 H   0  0  0  0  0  0  0  0  0  0  0  0  # atno 6908 bound_to 6896
  151.5557  135.1069  160.0012 H   0  0  0  0  0  0  0  0  0  0  0  0  # atno 6909 bound_to 6896
  144.7323  139.9205  143.6420 H   0  0  0  0  0  0  0  0  0  0  0  0  # atno 7974 bound_to 7965
  156.1130  140.1474  156.9311 H   0  0  0  0  0  0  0  0  0  0  0  0  # atno 8008 bound_to 7997
  154.4781  140.0888  156.7353 H   0  0  0  0  0  0  0  0  0  0  0  0  # atno 8009 bound_to 7997
  155.4562  140.3436  155.4309 H   0  0  0  0  0  0  0  0  0  0  0  0  # atno 8010 bound_to 7997
  140.2617  143.3403  152.0619 H   0  0  0  0  0  0  0  0  0  0  0  0  # atno 10167 bound_to 10162
  157.1762  130.6782  149.6096 H   0  0  0  0  0  0  0  0  0  0  0  0  # atno 10718 bound_to 10713
  153.9671  135.2954  155.3430 H   0  0  0  0  0  0  0  0  0  0  0  0  # atno 10763 bound_to 10752
  154.7343  135.5054  153.9018 H   0  0  0  0  0  0  0  0  0  0  0  0  # atno 10764 bound_to 10752
  153.0918  135.6710  153.9951 H   0  0  0  0  0  0  0  0  0  0  0  0  # atno 10765 bound_to 10752
  140.2880  134.7696  157.3815 H   0  0  0  0  0  0  0  0  0  0  0  0  # atno 11005 bound_to 11000
  146.0933  139.3924  143.0392 LP  0  0  0  0  0  0  0  0  0  0  0  0  # atno 17320 bound_to 7965
  145.7680  140.9908  143.1164 LP  0  0  0  0  0  0  0  0  0  0  0  0  # atno 17321 bound_to 7965
  139.5015  144.6714  151.6233 LP  0  0  0  0  0  0  0  0  0  0  0  0  # atno 17342 bound_to 10162
  140.5961  143.9694  150.6355 LP  0  0  0  0  0  0  0  0  0  0  0  0  # atno 17343 bound_to 10162
  155.9731  130.4662  150.6281 LP  0  0  0  0  0  0  0  0  0  0  0  0  # atno 17370 bound_to 10713
  157.3996  131.0808  151.1321 LP  0  0  0  0  0  0  0  0  0  0  0  0  # atno 17371 bound_to 10713
  140.1221  134.5205  155.8175 LP  0  0  0  0  0  0  0  0  0  0  0  0  # atno 17394 bound_to 11000
  141.2151  133.6760  156.6885 LP  0  0  0  0  0  0  0  0  0  0  0  0  # atno 17395 bound_to 11000

$$$$
