AV-unprocessed.smi:2510|AV-procd|sdf|9873|dock2
  -GOLD-   2272013503D 1   1.00000     0.00000
 Structure written by MMmdl.
 48 49  0  0  0  0  0  0  0  0  1 V2000
  150.1733  136.3753  157.7001 C   0  0  0  0  0  0  0  0  0  0  0  0
  150.1779  135.3261  156.5758 C   0  0  0  0  0  0  0  0  0  0  0  0
  149.7744  135.8601  155.1790 C   0  0  0  0  0  0  0  0  0  0  0  0
  149.7155  134.6774  154.1805 C   0  0  0  0  0  0  0  0  0  0  0  0
  148.7856  133.5250  154.5907 C   0  0  0  0  0  0  0  0  0  0  0  0
  148.5651  136.8439  155.2245 C   0  0  2  0  0  0  0  0  0  0  0  0
  147.7629  136.8517  154.0017 N   0  0  0  0  0  0  0  0  0  0  0  0
  146.4367  136.6540  153.9538 C   0  0  0  0  0  0  0  0  0  0  0  0
  145.7332  136.5305  154.9561 O   0  0  0  0  0  0  0  0  0  0  0  0
  145.8142  136.5587  152.5596 C   0  0  0  0  0  0  0  0  0  0  0  0
  145.1828  135.2040  152.3699 C   0  0  0  0  0  0  0  0  0  0  0  0
  145.3104  134.3262  151.2524 C   0  0  0  0  0  0  0  0  0  0  0  0
  144.5750  133.2281  151.5988 C   0  0  0  0  0  0  0  0  0  0  0  0
  144.3108  131.9506  150.8778 C   0  0  0  0  0  0  0  0  0  0  0  0
  144.0557  133.4909  152.8453 N   0  0  0  0  0  0  0  0  0  0  0  0
  144.4172  134.6950  153.3255 N   0  0  0  0  0  0  0  0  0  0  0  0
  149.5461  138.0295  155.2738 C   0  0  2  0  0  0  0  0  0  0  0  0
  149.2154  139.3416  154.5665 C   0  0  0  0  0  0  0  0  0  0  0  0
  150.5905  137.0765  154.6750 C   0  0  1  0  0  0  0  0  0  0  0  0
  151.8828  137.1527  155.2585 O   0  0  0  0  0  0  0  0  0  0  0  0
  152.5226  138.3966  155.0351 C   0  0  0  0  0  0  0  0  0  0  0  0
  143.4625  132.8665  153.3733 H   0  0  0  0  0  0  0  0  0  0  0  0
  150.5792  135.9512  158.6184 H   0  0  0  0  0  0  0  0  0  0  0  0
  149.1658  136.7229  157.9266 H   0  0  0  0  0  0  0  0  0  0  0  0
  150.7795  137.2440  157.4442 H   0  0  0  0  0  0  0  0  0  0  0  0
  151.1831  134.9063  156.5322 H   0  0  0  0  0  0  0  0  0  0  0  0
  149.5487  134.4861  156.8688 H   0  0  0  0  0  0  0  0  0  0  0  0
  149.4534  135.0224  153.1805 H   0  0  0  0  0  0  0  0  0  0  0  0
  150.7060  134.2371  154.0697 H   0  0  0  0  0  0  0  0  0  0  0  0
  148.8991  132.6831  153.9077 H   0  0  0  0  0  0  0  0  0  0  0  0
  147.7367  133.8179  154.5659 H   0  0  0  0  0  0  0  0  0  0  0  0
  149.0153  133.1675  155.5947 H   0  0  0  0  0  0  0  0  0  0  0  0
  147.9676  136.7750  156.1348 H   0  0  0  0  0  0  0  0  0  0  0  0
  148.2612  136.9476  153.1288 H   0  0  0  0  0  0  0  0  0  0  0  0
  145.0770  137.3526  152.4311 H   0  0  0  0  0  0  0  0  0  0  0  0
  146.5889  136.7274  151.8108 H   0  0  0  0  0  0  0  0  0  0  0  0
  145.8697  134.4768  150.3407 H   0  0  0  0  0  0  0  0  0  0  0  0
  144.9523  131.8591  150.0011 H   0  0  0  0  0  0  0  0  0  0  0  0
  143.2743  131.9018  150.5439 H   0  0  0  0  0  0  0  0  0  0  0  0
  144.5007  131.0934  151.5241 H   0  0  0  0  0  0  0  0  0  0  0  0
  149.7945  138.2229  156.3188 H   0  0  0  0  0  0  0  0  0  0  0  0
  149.1383  139.2110  153.4869 H   0  0  0  0  0  0  0  0  0  0  0  0
  149.9819  140.0941  154.7492 H   0  0  0  0  0  0  0  0  0  0  0  0
  148.2680  139.7498  154.9189 H   0  0  0  0  0  0  0  0  0  0  0  0
  150.6173  137.1208  153.5838 H   0  0  0  0  0  0  0  0  0  0  0  0
  153.5218  138.3750  155.4696 H   0  0  0  0  0  0  0  0  0  0  0  0
  151.9748  139.2152  155.5016 H   0  0  0  0  0  0  0  0  0  0  0  0
  152.6238  138.6032  153.9691 H   0  0  0  0  0  0  0  0  0  0  0  0
  1  2  1  0  0  0  0
  1 23  1  0  0  0  0
  1 24  1  0  0  0  0
  1 25  1  0  0  0  0
  2  3  1  0  0  0  0
  2 26  1  0  0  0  0
  2 27  1  0  0  0  0
  3 19  1  0  0  0  0
  3  4  1  0  0  0  0
  3  6  1  0  0  0  0
  4  5  1  0  0  0  0
  4 28  1  0  0  0  0
  4 29  1  0  0  0  0
  5 30  1  0  0  0  0
  5 31  1  0  0  0  0
  5 32  1  0  0  0  0
  6  7  1  0  0  0  0
  6 17  1  0  0  0  0
  6 33  1  0  0  0  0
  7  8  1  0  0  0  0
  7 34  1  0  0  0  0
  8  9  2  0  0  0  0
  8 10  1  0  0  0  0
 10 11  1  0  0  0  0
 10 35  1  0  0  0  0
 10 36  1  0  0  0  0
 11 16  2  0  0  0  0
 11 12  1  0  0  0  0
 12 13  2  0  0  0  0
 12 37  1  0  0  0  0
 13 14  1  0  0  0  0
 13 15  1  0  0  0  0
 14 38  1  0  0  0  0
 14 39  1  0  0  0  0
 14 40  1  0  0  0  0
 15 22  1  0  0  0  0
 15 16  1  0  0  0  0
 17 18  1  0  0  0  0
 17 19  1  0  0  0  0
 17 41  1  0  0  0  0
 18 42  1  0  0  0  0
 18 43  1  0  0  0  0
 18 44  1  0  0  0  0
 19 20  1  0  0  0  0
 19 45  1  0  0  0  0
 20 21  1  0  0  0  0
 21 46  1  0  0  0  0
 21 47  1  0  0  0  0
 21 48  1  0  0  0  0
M  END
> <s_m_source_file>
AV-unprocessed.smi

> <i_m_source_file_index>
2510

> <i_lp_mmshare_version>
43012

> <i_f3d_flags>
0

> <s_epik_input>
W0NIM11PW0NAQEhdMVtDQEhdKFtDSDNdKVtDQEBIXShDMShbQ0gyXVtDSDNdKVtDSDJdW0NIM10pW05IXUMoPU8pW0NIMl1jMltjSF1jKFtDSDNdKVtuSF1uMg==

> <s_epik_cmdline>
J2VwaWtfcHl0aG9uJywgJy1waCcsICc3LjAnLCAnLXRuJywgJzgnLCAnLW1hJywgJzIwMCcsICctbWV0YWxfYmluZGluZycsICctaW1hZScsICc8aW5maWxlLm1hZT4nLCAnLW9tYWUnLCAnPG91dGZpbGUubWFlPic=

> <r_lp_tautomer_probability>
0.5

> <r_epik_Ionization_Penalty>
9.73156e-05

> <r_epik_Ionization_Penalty_Charging>
0

> <r_epik_Ionization_Penalty_Neutral>
9.73156e-05

> <r_epik_State_Penalty>
0.41068

> <r_epik_Charging_Adjusted_Penalty>
0.41068

> <i_epik_Tot_Q>
0

> <i_epik_Tot_abs_Q>
0

> <r_epik_Metal_State_Penalty>
0.410699

> <b_epik_Metal_Only>
0

> <s_lp_Force_Field>
OPLS_2005

> <r_lp_Energy>
25.1692

> <b_lp_Chiralities_Consistent>
1

> <s_lp_Variant>
AV-unprocessed.smi:2510-4

> <Gold.Version>
5.8.1

> <Gold.Id.Protein>
6NUR|6NUR_protein|mol2

> <Gold.PLP.Fitness>
34.7572

> <Gold.PLP.PLP>
-26.1136

> <Gold.PLP.part.hbond>
-2.7768

> <Gold.PLP.part.metal>
0.0000

> <Gold.PLP.part.buried>
-1.8831

> <Gold.PLP.part.nonpolar>
-21.9574

> <Gold.PLP.part.repulsive>
0.1626

> <Gold.PLP.ligand.clash>
0.0000

> <Gold.PLP.ligand.torsion>
0.4789

> <Gold.PLP.Chemscore.Hbond>
3.0000

> <Gold.PLP.Chemscore.CHOScore>
0.0000

> <Gold.PLP.Chemscore.Metal>
0.0000

> <Gold.Chemscore.Hbonds>
donor molecule, donor type, donor heavy atom, donor atom, acceptor molecule, acceptor atom, score
      L1  H     7    34       P1  7948  0.98
      L1  H    15    22       P1 10957  1.00
      P1  H 10752 10763       L1    20  0.98

> <Gold.PLP.Chemscore.Internal.Correction>
0.6015

> <Gold.Rescore>
     Score         DG    S(hbond)    S(metal)    S(lipo)     H(rot)  DE(clash)    DE(int)     intcor
     14.47     -18.78       2.76        0.00      74.39       1.81       1.19       3.12       ----

> <Gold.Chemscore.Fitness>
14.4731

> <Gold.Chemscore.DG>
-18.7798

> <Gold.Chemscore.ZeroCoef>
-5.4800

> <Gold.Chemscore.Hbond>
2.7636

> <Gold.Chemscore.Metal>
0.0000

> <Gold.Chemscore.Lipo>
74.3901

> <Gold.Chemscore.Internal_Hbond>
0.0000

> <Gold.Chemscore.DEClash>
1.1855

> <Gold.Chemscore.DEInternal>
3.1212

> <Gold.Chemscore.Rot>
1.8102

> <Gold.Chemscore.Internal.Correction>
   9.000000E+99

> <Gold.Chemscore.Hbonds>
donor molecule, donor type, donor heavy atom, donor atom, acceptor molecule, acceptor atom, score
      L1  H     7    34       P1  7948  0.92
      L1  H    15    22       P1 10957  0.69
      P1  H 10752 10763       L1    20  0.59

> <Gold.Chemscore.Hbond.Weighted>
-9.2303

> <Gold.Chemscore.Metal.Weighted>
-0.0000

> <Gold.Chemscore.Lipo.Weighted>
-8.7036

> <Gold.Chemscore.Internal_Hbond.Weighted>
0.0000

> <Gold.Chemscore.DEClash.Weighted>
1.1855

> <Gold.Chemscore.DEInternal.Weighted>
3.1212

> <Gold.Chemscore.Rot.Weighted>
4.6341

> <Gold.Chemscore.Internal.Correction.Weighted>
   9.000000E+99

> <Gold.Protein.RotatedTorsions>
[ 6907 6896 6895 6894 ] final   14.76 input  -60.11 | X-H torsion
[ 7974 7965 7964 7962 ] final  150.60 input  175.53 | X-H torsion
[ 8008 7997 7996 7995 ] final  158.77 input   59.86 | X-H torsion
[ 10167 10162 10161 10158 ] final  178.39 input  -65.29 | X-H torsion
[ 10718 10713 10712 10709 ] final  154.36 input   66.30 | X-H torsion
[ 10763 10752 10751 10750 ] final   66.45 input  -60.55 | X-H torsion
[ 11005 11000 10999 10996 ] final  159.24 input  -57.11 | X-H torsion

> <Gold.Protein.ActiveResidues>
 VAL166  LYS551  ARG553  GLY616  TRP617  ASP618  TYR619  PRO620  LYS621  CYS622 
 ASP623  PHE694  ASN695  SER759  ASP760  ASP761  ALA762  ILE779  LEU786  VAL792 
 PHE793  MET794  SER795  GLU796  ALA797  LYS798  CYS799  TRP800  GLU811  SER814 

> <Gold.Protein.RotatedAtoms>
  151.8074  135.0691  160.0408 H   0  0  0  0  0  0  0  0  0  0  0  0  # atno 6907 bound_to 6896
  152.3045  133.5685  159.5649 H   0  0  0  0  0  0  0  0  0  0  0  0  # atno 6908 bound_to 6896
  150.7289  134.0159  159.3727 H   0  0  0  0  0  0  0  0  0  0  0  0  # atno 6909 bound_to 6896
  144.8353  139.6429  143.6041 H   0  0  0  0  0  0  0  0  0  0  0  0  # atno 7974 bound_to 7965
  156.2281  140.1849  156.7311 H   0  0  0  0  0  0  0  0  0  0  0  0  # atno 8008 bound_to 7997
  154.5976  140.0641  156.9352 H   0  0  0  0  0  0  0  0  0  0  0  0  # atno 8009 bound_to 7997
  155.2229  140.3309  155.4316 H   0  0  0  0  0  0  0  0  0  0  0  0  # atno 8010 bound_to 7997
  139.5292  144.2685  152.0647 H   0  0  0  0  0  0  0  0  0  0  0  0  # atno 10167 bound_to 10162
  157.2327  131.0742  151.1843 H   0  0  0  0  0  0  0  0  0  0  0  0  # atno 10718 bound_to 10713
  153.0140  135.5320  154.6825 H   0  0  0  0  0  0  0  0  0  0  0  0  # atno 10763 bound_to 10752
  154.5981  135.2865  155.0566 H   0  0  0  0  0  0  0  0  0  0  0  0  # atno 10764 bound_to 10752
  154.1634  135.6544  153.5044 H   0  0  0  0  0  0  0  0  0  0  0  0  # atno 10765 bound_to 10752
  140.1942  134.8385  157.2946 H   0  0  0  0  0  0  0  0  0  0  0  0  # atno 11005 bound_to 11000
  146.2652  139.6503  142.9334 LP  0  0  0  0  0  0  0  0  0  0  0  0  # atno 17320 bound_to 7965
  145.4809  141.0438  143.2646 LP  0  0  0  0  0  0  0  0  0  0  0  0  # atno 17321 bound_to 7965
  140.2146  144.4528  150.6370 LP  0  0  0  0  0  0  0  0  0  0  0  0  # atno 17342 bound_to 10162
  140.6458  143.2213  151.6189 LP  0  0  0  0  0  0  0  0  0  0  0  0  # atno 17343 bound_to 10162
  157.3461  130.7058  149.6412 LP  0  0  0  0  0  0  0  0  0  0  0  0  # atno 17370 bound_to 10713
  155.9674  130.4266  150.4705 LP  0  0  0  0  0  0  0  0  0  0  0  0  # atno 17371 bound_to 10713
  140.2125  134.4121  155.7605 LP  0  0  0  0  0  0  0  0  0  0  0  0  # atno 17394 bound_to 11000
  141.2227  133.7125  156.8362 LP  0  0  0  0  0  0  0  0  0  0  0  0  # atno 17395 bound_to 11000

$$$$
