AV-unprocessed.smi:1554|AV-procd|sdf|6260|dock3
  -GOLD-   22720 6443D 1   1.00000     0.00000
 Structure written by MMmdl.
 49 51  0  0  0  0  0  0  0  0  3 V2000
  152.5205  144.1323  159.9589 C   0  0  0  0  0  0  0  0  0  0  0  0
  152.1496  143.0450  158.9648 C   0  0  0  0  0  0  0  0  0  0  0  0
  151.2694  143.3691  157.9081 C   0  0  0  0  0  0  0  0  0  0  0  0
  150.9500  142.3541  157.0142 C   0  0  0  0  0  0  0  0  0  0  0  0
  150.1263  142.3568  155.8871 N   0  3  0  0  0  0  0  0  0  0  0  0
  150.1219  141.1172  155.3248 C   0  0  0  0  0  0  0  0  0  0  0  0
  150.9252  140.3189  156.0802 N   0  0  0  0  0  0  0  0  0  0  0  0
  151.2587  138.8948  155.9061 C   0  0  0  0  0  0  0  0  0  0  0  0
  150.1014  138.0480  155.3307 C   0  0  2  0  0  0  0  0  0  0  0  0
  148.8942  138.4517  155.9486 O   0  0  0  0  0  0  0  0  0  0  0  0
  150.2900  136.5297  155.5437 C   0  0  0  0  0  0  0  0  0  0  0  0
  149.2874  135.7127  154.8082 N   0  3  1  0  0  0  0  0  0  0  0  0
  149.7543  134.3567  154.4207 C   0  0  0  0  0  0  0  0  0  0  0  0
  149.7168  133.3810  155.6136 C   0  0  0  0  0  0  0  0  0  0  0  0
  148.4149  133.3647  156.1864 O   0  0  0  0  0  0  0  0  0  0  0  0
  148.0162  134.6412  156.6738 C   0  0  2  0  0  0  0  0  0  0  0  0
  146.6491  134.4888  157.3498 C   0  0  0  0  0  0  0  0  0  0  0  0
  147.9729  135.6314  155.4917 C   0  0  0  0  0  0  0  0  0  0  0  0
  151.4715  141.0514  157.1422 C   0  0  0  0  0  0  0  0  0  0  0  0
  152.3419  140.7168  158.1779 C   0  0  0  0  0  0  0  0  0  0  0  0
  152.6785  141.7353  159.0978 C   0  0  0  0  0  0  0  0  0  0  0  0
  153.6252  141.3979  160.2371 C   0  0  0  0  0  0  0  0  0  0  0  0
  152.0507  145.0827  159.7043 H   0  0  0  0  0  0  0  0  0  0  0  0
  153.5995  144.2881  159.9723 H   0  0  0  0  0  0  0  0  0  0  0  0
  152.1970  143.8595  160.9636 H   0  0  0  0  0  0  0  0  0  0  0  0
  150.8634  144.3646  157.7998 H   0  0  0  0  0  0  0  0  0  0  0  0
  149.5747  140.8184  154.4419 H   0  0  0  0  0  0  0  0  0  0  0  0
  152.1200  138.8468  155.2384 H   0  0  0  0  0  0  0  0  0  0  0  0
  151.5988  138.4854  156.8568 H   0  0  0  0  0  0  0  0  0  0  0  0
  150.0228  138.2773  154.2687 H   0  0  0  0  0  0  0  0  0  0  0  0
  148.2398  137.7840  155.8098 H   0  0  0  0  0  0  0  0  0  0  0  0
  151.2945  136.2320  155.2443 H   0  0  0  0  0  0  0  0  0  0  0  0
  150.2198  136.3159  156.6111 H   0  0  0  0  0  0  0  0  0  0  0  0
  149.0939  133.9843  153.6364 H   0  0  0  0  0  0  0  0  0  0  0  0
  150.7522  134.3896  153.9853 H   0  0  0  0  0  0  0  0  0  0  0  0
  149.9624  132.3737  155.2769 H   0  0  0  0  0  0  0  0  0  0  0  0
  150.4562  133.6446  156.3707 H   0  0  0  0  0  0  0  0  0  0  0  0
  148.7332  134.9817  157.4229 H   0  0  0  0  0  0  0  0  0  0  0  0
  146.3014  135.4404  157.7528 H   0  0  0  0  0  0  0  0  0  0  0  0
  146.6994  133.7784  158.1756 H   0  0  0  0  0  0  0  0  0  0  0  0
  145.8978  134.1284  156.6464 H   0  0  0  0  0  0  0  0  0  0  0  0
  147.6510  136.6201  155.8208 H   0  0  0  0  0  0  0  0  0  0  0  0
  147.2313  135.2977  154.7644 H   0  0  0  0  0  0  0  0  0  0  0  0
  152.7500  139.7230  158.2830 H   0  0  0  0  0  0  0  0  0  0  0  0
  153.9127  140.3461  160.2198 H   0  0  0  0  0  0  0  0  0  0  0  0
  153.1543  141.5972  161.1999 H   0  0  0  0  0  0  0  0  0  0  0  0
  154.5356  141.9934  160.1659 H   0  0  0  0  0  0  0  0  0  0  0  0
  149.1167  136.2172  153.9501 H   0  0  0  0  0  0  0  0  0  0  0  0
  149.6062  143.1456  155.5239 H   0  0  0  0  0  0  0  0  0  0  0  0
  1  2  1  0  0  0  0
  1 23  1  0  0  0  0
  1 24  1  0  0  0  0
  1 25  1  0  0  0  0
  2 21  1  0  0  0  0
  2  3  2  0  0  0  0
  3  4  1  0  0  0  0
  3 26  1  0  0  0  0
  4 19  2  0  0  0  0
  4  5  1  0  0  0  0
  5  6  2  0  0  0  0
  5 49  1  0  0  0  0
  6  7  1  0  0  0  0
  6 27  1  0  0  0  0
  7  8  1  0  0  0  0
  7 19  1  0  0  0  0
  8  9  1  0  0  0  0
  8 28  1  0  0  0  0
  8 29  1  0  0  0  0
  9 10  1  0  0  0  0
  9 11  1  0  0  0  0
  9 30  1  0  0  0  0
 10 31  1  0  0  0  0
 11 12  1  0  0  0  0
 11 32  1  0  0  0  0
 11 33  1  0  0  0  0
 12 18  1  0  0  0  0
 12 13  1  0  0  0  0
 12 48  1  0  0  0  0
 13 14  1  0  0  0  0
 13 34  1  0  0  0  0
 13 35  1  0  0  0  0
 14 15  1  0  0  0  0
 14 36  1  0  0  0  0
 14 37  1  0  0  0  0
 15 16  1  0  0  0  0
 16 17  1  0  0  0  0
 16 18  1  0  0  0  0
 16 38  1  0  0  0  0
 17 39  1  0  0  0  0
 17 40  1  0  0  0  0
 17 41  1  0  0  0  0
 18 42  1  0  0  0  0
 18 43  1  0  0  0  0
 19 20  1  0  0  0  0
 20 21  2  0  0  0  0
 20 44  1  0  0  0  0
 21 22  1  0  0  0  0
 22 45  1  0  0  0  0
 22 46  1  0  0  0  0
 22 47  1  0  0  0  0
M  CHG  1   5   1
M  CHG  1  12   1
M  END
> <s_m_source_file>
AV-unprocessed.smi

> <i_m_source_file_index>
1554

> <i_lp_mmshare_version>
43012

> <i_f3d_flags>
0

> <s_epik_input>
W0NIM11jKFtjSF0xKWMoW0NIM10pW2NIXWMoYzEyKW4oW2NIXW4yKVtDSDJdW0NASF0oW09IXSlbQ0gyXU4zW0NIMl1bQ0gyXU9bQ0BASF0oW0NIM10pW0NIMl0z

> <s_epik_cmdline>
J2VwaWtfcHl0aG9uJywgJy1waCcsICc3LjAnLCAnLXRuJywgJzgnLCAnLW1hJywgJzIwMCcsICctbWV0YWxfYmluZGluZycsICctaW1hZScsICc8aW5maWxlLm1hZT4nLCAnLW9tYWUnLCAnPG91dGZpbGUubWFlPic=

> <r_epik_Ionization_Penalty>
1.8848

> <r_epik_Ionization_Penalty_Charging>
1.88479

> <r_epik_Ionization_Penalty_Neutral>
1.42224e-05

> <r_epik_State_Penalty>
1.94551

> <r_epik_Charging_Adjusted_Penalty>
3.8303

> <i_epik_Tot_Q>
2

> <i_epik_Tot_abs_Q>
2

> <r_epik_Metal_State_Penalty>
5.95849

> <b_epik_Metal_Only>
0

> <s_lp_Force_Field>
OPLS_2005

> <r_lp_Energy>
33.2635

> <b_lp_Chiralities_Consistent>
1

> <s_lp_Variant>
AV-unprocessed.smi:1554-21

> <Gold.Version>
5.8.1

> <Gold.Id.Protein>
6NUR|6NUR_protein|mol2

> <Gold.PLP.Fitness>
47.6091

> <Gold.PLP.PLP>
-37.1566

> <Gold.PLP.part.hbond>
-2.0000

> <Gold.PLP.part.metal>
0.0000

> <Gold.PLP.part.buried>
-3.4033

> <Gold.PLP.part.nonpolar>
-31.7245

> <Gold.PLP.part.repulsive>
0.1730

> <Gold.PLP.ligand.clash>
0.0000

> <Gold.PLP.ligand.torsion>
0.8154

> <Gold.PLP.Chemscore.Hbond>
4.0000

> <Gold.PLP.Chemscore.CHOScore>
0.0000

> <Gold.PLP.Chemscore.Metal>
0.0000

> <Gold.Chemscore.Hbonds>
donor molecule, donor type, donor heavy atom, donor atom, acceptor molecule, acceptor atom, score
      L1  H     5    49       P1  8028  2.00
      L1  H    12    48       P1  7948  1.74

> <Gold.PLP.Chemscore.Internal.Correction>
0.0834

> <Gold.Rescore>
     Score         DG    S(hbond)    S(metal)    S(lipo)     H(rot)  DE(clash)    DE(int)     intcor
     16.03     -18.33       1.78        0.00     105.12       2.11       0.05       2.25       ----

> <Gold.Chemscore.Fitness>
16.0291

> <Gold.Chemscore.DG>
-18.3290

> <Gold.Chemscore.ZeroCoef>
-5.4800

> <Gold.Chemscore.Hbond>
1.7837

> <Gold.Chemscore.Metal>
0.0000

> <Gold.Chemscore.Lipo>
105.1174

> <Gold.Chemscore.Internal_Hbond>
0.0000

> <Gold.Chemscore.DEClash>
0.0496

> <Gold.Chemscore.DEInternal>
2.2503

> <Gold.Chemscore.Rot>
2.1122

> <Gold.Chemscore.Internal.Correction>
   9.000000E+99

> <Gold.Chemscore.Hbonds>
donor molecule, donor type, donor heavy atom, donor atom, acceptor molecule, acceptor atom, score
      L1  H     5    49       P1  8028  0.98
      L1  H    12    48       P1  7948  0.77

> <Gold.Chemscore.Hbond.Weighted>
-5.9576

> <Gold.Chemscore.Metal.Weighted>
-0.0000

> <Gold.Chemscore.Lipo.Weighted>
-12.2987

> <Gold.Chemscore.Internal_Hbond.Weighted>
0.0000

> <Gold.Chemscore.DEClash.Weighted>
0.0496

> <Gold.Chemscore.DEInternal.Weighted>
2.2503

> <Gold.Chemscore.Rot.Weighted>
5.4073

> <Gold.Chemscore.Internal.Correction.Weighted>
   9.000000E+99

> <Gold.Protein.RotatedTorsions>
[ 6907 6896 6895 6894 ] final -164.24 input  -60.11 | X-H torsion
[ 7974 7965 7964 7962 ] final  -46.88 input  175.53 | X-H torsion
[ 8008 7997 7996 7995 ] final -108.16 input   59.86 | X-H torsion
[ 10167 10162 10161 10158 ] final  -43.86 input  -65.29 | X-H torsion
[ 10718 10713 10712 10709 ] final  119.14 input   66.30 | X-H torsion
[ 10763 10752 10751 10750 ] final   89.88 input  -60.55 | X-H torsion
[ 11005 11000 10999 10996 ] final   -0.48 input  -57.11 | X-H torsion

> <Gold.Protein.ActiveResidues>
 VAL166  LYS551  ARG553  GLY616  TRP617  ASP618  TYR619  PRO620  LYS621  CYS622 
 ASP623  PHE694  ASN695  SER759  ASP760  ASP761  ALA762  ILE779  LEU786  VAL792 
 PHE793  MET794  SER795  GLU796  ALA797  LYS798  CYS799  TRP800  GLU811  SER814 

> <Gold.Protein.RotatedAtoms>
  151.4086  133.3734  159.2740 H   0  0  0  0  0  0  0  0  0  0  0  0  # atno 6907 bound_to 6896
  150.9379  134.8792  159.7604 H   0  0  0  0  0  0  0  0  0  0  0  0  # atno 6908 bound_to 6896
  152.5058  134.4035  159.9477 H   0  0  0  0  0  0  0  0  0  0  0  0  # atno 6909 bound_to 6896
  145.9674  140.7418  142.9427 H   0  0  0  0  0  0  0  0  0  0  0  0  # atno 7974 bound_to 7965
  154.9402  140.0403  157.2093 H   0  0  0  0  0  0  0  0  0  0  0  0  # atno 8008 bound_to 7997
  154.8076  140.2862  155.5854 H   0  0  0  0  0  0  0  0  0  0  0  0  # atno 8009 bound_to 7997
  156.2968  140.2543  156.2958 H   0  0  0  0  0  0  0  0  0  0  0  0  # atno 8010 bound_to 7997
  140.6918  143.2960  151.3412 H   0  0  0  0  0  0  0  0  0  0  0  0  # atno 10167 bound_to 10162
  157.5982  131.1055  150.7854 H   0  0  0  0  0  0  0  0  0  0  0  0  # atno 10718 bound_to 10713
  153.1917  135.4454  155.0157 H   0  0  0  0  0  0  0  0  0  0  0  0  # atno 10763 bound_to 10752
  154.8094  135.3288  154.7348 H   0  0  0  0  0  0  0  0  0  0  0  0  # atno 10764 bound_to 10752
  153.7801  135.6978  153.4945 H   0  0  0  0  0  0  0  0  0  0  0  0  # atno 10765 bound_to 10752
  140.6368  133.9526  155.8304 H   0  0  0  0  0  0  0  0  0  0  0  0  # atno 11005 bound_to 11000
  144.6828  140.2691  143.7308 LP  0  0  0  0  0  0  0  0  0  0  0  0  # atno 17320 bound_to 7965
  145.7955  139.1943  143.2078 LP  0  0  0  0  0  0  0  0  0  0  0  0  # atno 17321 bound_to 7965
  139.6330  144.0685  152.2492 LP  0  0  0  0  0  0  0  0  0  0  0  0  # atno 17342 bound_to 10162
  140.0166  144.6184  150.7602 LP  0  0  0  0  0  0  0  0  0  0  0  0  # atno 17343 bound_to 10162
  156.8260  130.5000  149.5337 LP  0  0  0  0  0  0  0  0  0  0  0  0  # atno 17370 bound_to 10713
  156.1049  130.5997  150.9955 LP  0  0  0  0  0  0  0  0  0  0  0  0  # atno 17371 bound_to 10713
  141.0636  134.0310  157.3625 LP  0  0  0  0  0  0  0  0  0  0  0  0  # atno 17394 bound_to 11000
  139.9095  135.0187  156.7632 LP  0  0  0  0  0  0  0  0  0  0  0  0  # atno 17395 bound_to 11000

$$$$
