#       Name:                AV-unprocessed.smi:455
#       Creating user name   scv26
#       Creation time:       Thu Mar 26 23:01:33 2020


#       File generated by GOLD software.
#

@<TRIPOS>MOLECULE
AV-unprocessed.smi:455
    52    53     1
SMALL
NO_CHARGES


@<TRIPOS>ATOM
      1 ****        -3.3629   3.6039  -0.5428 C.3            1 S1                 0.0000
      2 ****        -3.6346   2.4899   0.4907 C.3            1 S1                 0.0000
      3 ****        -5.1365   2.5130   0.8364 C.3            1 S1                 0.0000
      4 ****        -3.3011   1.1202  -0.1367 C.3            1 S1                 0.0000
      5 ****        -2.8375   2.7121   1.8087 C.3            1 S1                 0.0000
      6 ****        -1.3060   2.6524   1.7003 C.2            1 S1                 0.0000
      7 ****        -0.6909   3.5104   1.0679 O.2            1 S1                 0.0000
      8 ****        -0.7024   1.6463   2.3532 N.am           1 S1                 0.0000
      9 ****         0.7390   1.4274   2.4392 C.3            1 S1                 0.0000
     10 ****         1.2570   0.3378   1.5129 C.ar           1 S1                 0.0000
     11 ****         2.2367  -0.5687   1.9628 C.ar           1 S1                 0.0000
     12 ****         2.7075  -1.5623   1.0840 C.ar           1 S1                 0.0000
     13 ****         2.1907  -1.6215  -0.2320 C.ar           1 S1                 0.0000
     14 ****         2.6495  -2.6093  -1.1304 N.3            1 S1                 0.0000
     15 ****         4.0988  -2.6934  -1.2933 C.3            1 S1                 0.0000
     16 ****         4.4806  -3.9858  -2.0351 C.3            1 S1                 0.0000
     17 ****         3.7812  -4.0554  -3.2730 O.3            1 S1                 0.0000
     18 ****         2.3705  -4.0851  -3.0829 C.3            1 S1                 0.0000
     19 ****         1.9143  -2.7953  -2.3800 C.3            1 S1                 0.0000
     20 ****         1.2493  -0.7457  -0.6631 N.ar           1 S1                 0.0000
     21 ****         0.8032   0.2065   0.1833 C.ar           1 S1                 0.0000
     22 ****        -4.0222   3.5095  -1.4063 H              1 S1                 0.0000
     23 ****        -2.3420   3.5723  -0.9229 H              1 S1                 0.0000
     24 ****        -3.5271   4.5928  -0.1134 H              1 S1                 0.0000
     25 ****        -5.4279   3.4663   1.2790 H              1 S1                 0.0000
     26 ****        -5.3937   1.7283   1.5487 H              1 S1                 0.0000
     27 ****        -5.7539   2.3625  -0.0501 H              1 S1                 0.0000
     28 ****        -3.9269   0.9215  -1.0075 H              1 S1                 0.0000
     29 ****        -3.4598   0.3084   0.5738 H              1 S1                 0.0000
     30 ****        -2.2652   1.0680  -0.4707 H              1 S1                 0.0000
     31 ****        -3.0950   3.6849   2.2295 H              1 S1                 0.0000
     32 ****        -3.1608   1.9807   2.5518 H              1 S1                 0.0000
     33 ****        -1.2883   0.9908   2.8498 H              1 S1                 0.0000
     34 ****         1.2918   2.3468   2.2398 H              1 S1                 0.0000
     35 ****         0.9656   1.1570   3.4710 H              1 S1                 0.0000
     36 ****         2.6220  -0.5106   2.9702 H              1 S1                 0.0000
     37 ****         3.4440  -2.2710   1.4322 H              1 S1                 0.0000
     38 ****         4.4391  -1.8252  -1.8590 H              1 S1                 0.0000
     39 ****         4.6166  -2.6693  -0.3355 H              1 S1                 0.0000
     40 ****         5.5526  -4.0020  -2.2318 H              1 S1                 0.0000
     41 ****         4.2554  -4.8639  -1.4274 H              1 S1                 0.0000
     42 ****         1.8828  -4.1763  -4.0534 H              1 S1                 0.0000
     43 ****         2.0896  -4.9647  -2.5016 H              1 S1                 0.0000
     44 ****         0.8430  -2.8507  -2.1830 H              1 S1                 0.0000
     45 ****         2.0838  -1.9361  -3.0304 H              1 S1                 0.0000
     46 ****         0.0681   0.8847  -0.2218 H              1 S1                 0.0000
     47 ****        -1.1878   4.2535   0.6198 LP             1 S1                 0.0000
     48 ****         0.3059   3.4644   1.0021 LP             1 S1                 0.0000
     49 ****         2.3903  -3.4224  -0.6091 LP             1 S1                 0.0000
     50 ****         4.0602  -4.8854  -3.7561 LP             1 S1                 0.0000
     51 ****         4.0168  -3.2544  -3.8233 LP             1 S1                 0.0000
     52 ****         0.8908  -0.8045  -1.5948 LP             1 S1                 0.0000
@<TRIPOS>BOND
    1    1    2 1     
    2    1   22 1     
    3    1   23 1     
    4    1   24 1     
    5    2    3 1     
    6    2    4 1     
    7    2    5 1     
    8    3   25 1     
    9    3   26 1     
   10    3   27 1     
   11    4   28 1     
   12    4   29 1     
   13    4   30 1     
   14    5    6 1     
   15    5   31 1     
   16    5   32 1     
   17    6    7 2     
   18    6    8 am    
   19    8    9 1     
   20    8   33 1     
   21    9   10 1     
   22    9   34 1     
   23    9   35 1     
   24   10   21 ar    
   25   10   11 ar    
   26   11   12 ar    
   27   11   36 1     
   28   12   13 ar    
   29   12   37 1     
   30   13   14 1     
   31   13   20 ar    
   32   14   19 1     
   33   14   15 1     
   34   15   16 1     
   35   15   38 1     
   36   15   39 1     
   37   16   17 1     
   38   16   40 1     
   39   16   41 1     
   40   17   18 1     
   41   18   19 1     
   42   18   42 1     
   43   18   43 1     
   44   19   44 1     
   45   19   45 1     
   46   20   21 ar    
   47   21   46 1     
   48    7   47 1     
   49    7   48 1     
   50   14   49 1     
   51   17   50 1     
   52   17   51 1     
   53   20   52 1     
@<TRIPOS>SUBSTRUCTURE
      1 S1             1
@<TRIPOS>SET
LONE_PAIRS      STATIC     ATOMS    <user>   **** ""
6 47 48 49 50 51 52
DONOR_HYDROGENS      STATIC     ATOMS    <user>   **** ""
1 33
ATOM$BLUE        STATIC     ATOMS    COLORGROUP SYSTEM
6 47 48 49 50 51 52
ATOM$RED        STATIC     ATOMS    COLORGROUP SYSTEM
1 33
