AV-unprocessed.smi:1085|AV-procd|sdf|4721|dock9
  -GOLD-   22720 3253D 1   1.00000     0.00000
 Structure written by MMmdl.
 33 34  0  0  0  0  0  0  0  0  1 V2000
  150.1394  141.1478  154.7182 O   0  0  0  0  0  0  0  0  0  0  0  0
  148.9781  141.3293  155.0823 C   0  0  0  0  0  0  0  0  0  0  0  0
  147.8649  141.4694  154.0428 C   0  0  0  0  0  0  0  0  0  0  0  0
  147.1074  140.2379  153.9175 N   0  0  0  0  0  0  0  0  0  0  0  0
  147.0770  139.3217  152.9477 C   0  0  0  0  0  0  0  0  0  0  0  0
  146.2237  138.3469  153.2231 N   0  0  0  0  0  0  0  0  0  0  0  0
  145.7097  138.7168  154.4547 N   0  0  0  0  0  0  0  0  0  0  0  0
  146.2309  139.8376  154.8723 N   0  0  0  0  0  0  0  0  0  0  0  0
  148.6105  141.4165  156.3707 N   0  0  0  0  0  0  0  0  0  0  0  0
  149.5105  141.3374  157.5167 C   0  0  1  0  0  0  0  0  0  0  0  0
  150.5959  140.2670  157.2838 C   0  0  0  0  0  0  0  0  0  0  0  0
  151.6013  140.2303  158.4439 C   0  0  0  0  0  0  0  0  0  0  0  0
  152.2328  141.6112  158.6780 C   0  0  0  0  0  0  0  0  0  0  0  0
  151.1603  142.6924  158.9272 C   0  0  1  0  0  0  0  0  0  0  0  0
  151.7859  144.0802  159.1769 C   0  0  0  0  0  0  0  0  0  0  0  0
  152.5859  144.4281  158.1685 F   0  0  0  0  0  0  0  0  0  0  0  0
  150.8267  144.9972  159.3020 F   0  0  0  0  0  0  0  0  0  0  0  0
  152.4961  144.0653  160.3049 F   0  0  0  0  0  0  0  0  0  0  0  0
  150.1500  142.7176  157.7599 C   0  0  0  0  0  0  0  0  0  0  0  0
  147.1826  142.2712  154.3288 H   0  0  0  0  0  0  0  0  0  0  0  0
  148.2910  141.7369  153.0746 H   0  0  0  0  0  0  0  0  0  0  0  0
  147.6692  139.3719  152.0459 H   0  0  0  0  0  0  0  0  0  0  0  0
  147.6319  141.5660  156.5722 H   0  0  0  0  0  0  0  0  0  0  0  0
  148.9310  141.0689  158.4022 H   0  0  0  0  0  0  0  0  0  0  0  0
  150.1406  139.2831  157.1670 H   0  0  0  0  0  0  0  0  0  0  0  0
  151.1257  140.4738  156.3528 H   0  0  0  0  0  0  0  0  0  0  0  0
  151.0984  139.8983  159.3531 H   0  0  0  0  0  0  0  0  0  0  0  0
  152.3802  139.4959  158.2360 H   0  0  0  0  0  0  0  0  0  0  0  0
  152.9153  141.5565  159.5266 H   0  0  0  0  0  0  0  0  0  0  0  0
  152.8388  141.8833  157.8129 H   0  0  0  0  0  0  0  0  0  0  0  0
  150.6147  142.4143  159.8306 H   0  0  0  0  0  0  0  0  0  0  0  0
  150.6526  143.0529  156.8513 H   0  0  0  0  0  0  0  0  0  0  0  0
  149.3674  143.4489  157.9645 H   0  0  0  0  0  0  0  0  0  0  0  0
  1  2  2  0  0  0  0
  2  3  1  0  0  0  0
  2  9  1  0  0  0  0
  3  4  1  0  0  0  0
  3 20  1  0  0  0  0
  3 21  1  0  0  0  0
  4  8  1  0  0  0  0
  4  5  1  0  0  0  0
  5  6  2  0  0  0  0
  5 22  1  0  0  0  0
  6  7  1  0  0  0  0
  7  8  2  0  0  0  0
  9 10  1  0  0  0  0
  9 23  1  0  0  0  0
 10 19  1  0  0  0  0
 10 11  1  0  0  0  0
 10 24  1  0  0  0  0
 11 12  1  0  0  0  0
 11 25  1  0  0  0  0
 11 26  1  0  0  0  0
 12 13  1  0  0  0  0
 12 27  1  0  0  0  0
 12 28  1  0  0  0  0
 13 14  1  0  0  0  0
 13 29  1  0  0  0  0
 13 30  1  0  0  0  0
 14 15  1  0  0  0  0
 14 19  1  0  0  0  0
 14 31  1  0  0  0  0
 15 16  1  0  0  0  0
 15 17  1  0  0  0  0
 15 18  1  0  0  0  0
 19 32  1  0  0  0  0
 19 33  1  0  0  0  0
M  END
> <s_m_source_file>
AV-unprocessed.smi

> <i_m_source_file_index>
1085

> <i_lp_mmshare_version>
43012

> <i_f3d_flags>
0

> <s_epik_input>
bjFubltjSF1uMVtDSDJdQyg9TylbTkhdW0NAQEhdMltDSDJdW0NIMl1bQ0gyXVtDQEBIXShDKEYpKEYpRilbQ0gyXTI=

> <s_epik_cmdline>
J2VwaWtfcHl0aG9uJywgJy1waCcsICc3LjAnLCAnLXRuJywgJzgnLCAnLW1hJywgJzIwMCcsICctbWV0YWxfYmluZGluZycsICctaW1hZScsICc8aW5maWxlLm1hZT4nLCAnLW9tYWUnLCAnPG91dGZpbGUubWFlPic=

> <r_lp_tautomer_probability>
1

> <r_epik_Ionization_Penalty>
8.41315e-07

> <r_epik_Ionization_Penalty_Charging>
0

> <r_epik_Ionization_Penalty_Neutral>
8.41315e-07

> <r_epik_State_Penalty>
-0

> <r_epik_Charging_Adjusted_Penalty>
0

> <i_epik_Tot_Q>
0

> <i_epik_Tot_abs_Q>
0

> <r_epik_Metal_State_Penalty>
-0

> <b_epik_Metal_Only>
0

> <s_lp_Force_Field>
OPLS_2005

> <r_lp_Energy>
12.0143

> <b_lp_Chiralities_Consistent>
1

> <s_lp_Variant>
AV-unprocessed.smi:1085-2

> <Gold.Version>
5.8.1

> <Gold.Id.Protein>
6NUR|6NUR_protein|mol2

> <Gold.PLP.Fitness>
38.6080

> <Gold.PLP.PLP>
-35.3295

> <Gold.PLP.part.hbond>
-1.0000

> <Gold.PLP.part.metal>
0.0000

> <Gold.PLP.part.buried>
-3.6137

> <Gold.PLP.part.nonpolar>
-31.1825

> <Gold.PLP.part.repulsive>
0.5322

> <Gold.PLP.ligand.clash>
0.0000

> <Gold.PLP.ligand.torsion>
0.7842

> <Gold.PLP.Chemscore.Hbond>
0.6080

> <Gold.PLP.Chemscore.CHOScore>
1.0000

> <Gold.PLP.Chemscore.Metal>
0.0000

> <Gold.Chemscore.Hbonds>
donor molecule, donor type, donor heavy atom, donor atom, acceptor molecule, acceptor atom, score
      P1  H  7989  7998       L1     1  0.59
      L1  C     5    22       P1  7957  1.00

> <Gold.PLP.Chemscore.Internal.Correction>
0.0229

> <Gold.Rescore>
     Score         DG    S(hbond)    S(metal)    S(lipo)     H(rot)  DE(clash)    DE(int)     intcor
      7.70      -9.79       0.81        0.00      58.36       2.05       0.11       1.98       ----

> <Gold.Chemscore.Fitness>
7.6979

> <Gold.Chemscore.DG>
-9.7882

> <Gold.Chemscore.ZeroCoef>
-5.4800

> <Gold.Chemscore.Hbond>
0.8135

> <Gold.Chemscore.Metal>
0.0000

> <Gold.Chemscore.Lipo>
58.3571

> <Gold.Chemscore.Internal_Hbond>
0.0000

> <Gold.Chemscore.DEClash>
0.1128

> <Gold.Chemscore.DEInternal>
1.9775

> <Gold.Chemscore.Rot>
2.0456

> <Gold.Chemscore.Internal.Correction>
   9.000000E+99

> <Gold.Chemscore.Hbonds>
donor molecule, donor type, donor heavy atom, donor atom, acceptor molecule, acceptor atom, score
      P1  H  7989  7998       L1     1  0.58

> <Gold.Chemscore.Hbond.Weighted>
-2.7172

> <Gold.Chemscore.Metal.Weighted>
-0.0000

> <Gold.Chemscore.Lipo.Weighted>
-6.8278

> <Gold.Chemscore.Internal_Hbond.Weighted>
0.0000

> <Gold.Chemscore.DEClash.Weighted>
0.1128

> <Gold.Chemscore.DEInternal.Weighted>
1.9775

> <Gold.Chemscore.Rot.Weighted>
5.2368

> <Gold.Chemscore.Internal.Correction.Weighted>
   9.000000E+99

> <Gold.Protein.RotatedTorsions>
[ 6907 6896 6895 6894 ] final   90.84 input  -60.11 | X-H torsion
[ 7974 7965 7964 7962 ] final -147.22 input  175.53 | X-H torsion
[ 8008 7997 7996 7995 ] final -176.68 input   59.86 | X-H torsion
[ 10167 10162 10161 10158 ] final -179.62 input  -65.29 | X-H torsion
[ 10718 10713 10712 10709 ] final  -63.19 input   66.30 | X-H torsion
[ 10763 10752 10751 10750 ] final   74.55 input  -60.55 | X-H torsion
[ 11005 11000 10999 10996 ] final  132.13 input  -57.11 | X-H torsion

> <Gold.Protein.ActiveResidues>
 VAL166  LYS551  ARG553  GLY616  TRP617  ASP618  TYR619  PRO620  LYS621  CYS622 
 ASP623  PHE694  ASN695  SER759  ASP760  ASP761  ALA762  ILE779  LEU786  VAL792 
 PHE793  MET794  SER795  GLU796  ALA797  LYS798  CYS799  TRP800  GLU811  SER814 

> <Gold.Protein.RotatedAtoms>
  152.5447  134.1750  159.8611 H   0  0  0  0  0  0  0  0  0  0  0  0  # atno 6907 bound_to 6896
  151.1757  133.4749  159.2601 H   0  0  0  0  0  0  0  0  0  0  0  0  # atno 6908 bound_to 6896
  151.1230  135.0101  159.8602 H   0  0  0  0  0  0  0  0  0  0  0  0  # atno 6909 bound_to 6896
  144.8108  140.5356  143.5644 H   0  0  0  0  0  0  0  0  0  0  0  0  # atno 7974 bound_to 7965
  155.9978  140.1214  157.0577 H   0  0  0  0  0  0  0  0  0  0  0  0  # atno 8008 bound_to 7997
  154.4232  140.1113  156.5723 H   0  0  0  0  0  0  0  0  0  0  0  0  # atno 8009 bound_to 7997
  155.6254  140.3472  155.4668 H   0  0  0  0  0  0  0  0  0  0  0  0  # atno 8010 bound_to 7997
  139.5378  144.2448  152.0832 H   0  0  0  0  0  0  0  0  0  0  0  0  # atno 10167 bound_to 10162
  156.0807  130.4218  150.1242 H   0  0  0  0  0  0  0  0  0  0  0  0  # atno 10718 bound_to 10713
  153.0594  135.5021  154.8059 H   0  0  0  0  0  0  0  0  0  0  0  0  # atno 10763 bound_to 10752
  154.6860  135.2976  154.9550 H   0  0  0  0  0  0  0  0  0  0  0  0  # atno 10764 bound_to 10752
  154.0320  135.6728  153.4834 H   0  0  0  0  0  0  0  0  0  0  0  0  # atno 10765 bound_to 10752
  139.9772  134.9560  156.9538 H   0  0  0  0  0  0  0  0  0  0  0  0  # atno 11005 bound_to 11000
  145.5329  139.1475  143.3490 LP  0  0  0  0  0  0  0  0  0  0  0  0  # atno 17320 bound_to 7965
  146.2406  140.5469  142.8936 LP  0  0  0  0  0  0  0  0  0  0  0  0  # atno 17321 bound_to 7965
  140.1921  144.4741  150.6473 LP  0  0  0  0  0  0  0  0  0  0  0  0  # atno 17342 bound_to 10162
  140.6593  143.2247  151.5893 LP  0  0  0  0  0  0  0  0  0  0  0  0  # atno 17343 bound_to 10162
  156.9274  130.9702  151.3539 LP  0  0  0  0  0  0  0  0  0  0  0  0  # atno 17370 bound_to 10713
  157.5922  130.8452  149.8676 LP  0  0  0  0  0  0  0  0  0  0  0  0  # atno 17371 bound_to 10713
  140.5171  134.0944  155.7283 LP  0  0  0  0  0  0  0  0  0  0  0  0  # atno 17394 bound_to 11000
  141.1448  133.9075  157.2242 LP  0  0  0  0  0  0  0  0  0  0  0  0  # atno 17395 bound_to 11000

$$$$
