#       Name:                AV-unprocessed.smi:1942
#       Creating user name   scv26
#       Creation time:       Fri Mar 27 09:59:35 2020


#       File generated by GOLD software.
#

@<TRIPOS>MOLECULE
AV-unprocessed.smi:1942
    40    42     1
SMALL
NO_CHARGES


@<TRIPOS>ATOM
      1 ****        -1.4479   2.9391  -1.9171 O.2            1 S1                 0.0000
      2 ****        -1.2874   3.1618  -0.7171 C.2            1 S1                 0.0000
      3 ****        -2.1510   4.0853   0.0276 C.2            1 S1                 0.0000
      4 ****        -1.9847   4.2981   1.3482 C.2            1 S1                 0.0000
      5 ****        -0.9398   3.6129   2.0715 C.2            1 S1                 0.0000
      6 ****        -0.1409   2.7760   1.3909 C.2            1 S1                 0.0000
      7 ****        -0.2991   2.5553   0.0090 N.am           1 S1                 0.0000
      8 ****         0.6403   1.6210  -0.6267 C.3            1 S1                 0.0000
      9 ****         0.1664   0.1974  -0.6363 C.2            1 S1                 0.0000
     10 ****        -1.1292  -0.2315  -0.6303 N.pl3          1 S1                 1.0000
     11 ****        -1.1689  -1.6254  -0.6523 C.ar           1 S1                 0.0000
     12 ****        -2.2463  -2.5055  -0.6531 C.ar           1 S1                 0.0000
     13 ****        -1.9408  -3.8822  -0.6801 C.ar           1 S1                 0.0000
     14 ****        -3.2255  -5.0334  -0.6840 Cl             1 S1                 0.0000
     15 ****        -0.6053  -4.3346  -0.7036 C.ar           1 S1                 0.0000
     16 ****         0.4789  -3.4325  -0.7018 C.ar           1 S1                 0.0000
     17 ****         0.1673  -2.0732  -0.6772 C.ar           1 S1                 0.0000
     18 ****         0.9552  -0.9154  -0.6682 N.pl3          1 S1                 0.0000
     19 ****         2.4222  -1.0336  -0.6949 C.3            1 S1                 0.0000
     20 ****         3.0485  -1.0049   0.7096 C.3            1 S1                 0.0000
     21 ****         2.5922  -2.0850   1.4965 O.3            1 S1                 0.0000
     22 ****        -2.9381   4.6070  -0.4970 H              1 S1                 0.0000
     23 ****        -2.6358   4.9852   1.8685 H              1 S1                 0.0000
     24 ****        -0.8059   3.7692   3.1320 H              1 S1                 0.0000
     25 ****         0.6619   2.2219   1.8561 H              1 S1                 0.0000
     26 ****         0.8577   1.9209  -1.6530 H              1 S1                 0.0000
     27 ****         1.6012   1.6694  -0.1133 H              1 S1                 0.0000
     28 ****        -3.2692  -2.1586  -0.6339 H              1 S1                 0.0000
     29 ****        -0.4060  -5.3963  -0.7225 H              1 S1                 0.0000
     30 ****         1.4968  -3.7924  -0.7132 H              1 S1                 0.0000
     31 ****         2.7039  -1.9382  -1.2337 H              1 S1                 0.0000
     32 ****         2.8053  -0.2008  -1.2854 H              1 S1                 0.0000
     33 ****         4.1349  -1.0583   0.6366 H              1 S1                 0.0000
     34 ****         2.8072  -0.0712   1.2183 H              1 S1                 0.0000
     35 ****         3.0094  -2.0371   2.3433 H              1 S1                 0.0000
     36 ****        -1.9279   0.3897  -0.6141 H              1 S1                 0.0000
     37 ****        -0.8454   2.2972  -2.3914 LP             1 S1                 0.0000
     38 ****        -2.1807   3.4001  -2.4175 LP             1 S1                 0.0000
     39 ****         2.8287  -2.9492   1.0525 LP             1 S1                 0.0000
     40 ****         1.5999  -2.0270   1.6058 LP             1 S1                 0.0000
@<TRIPOS>BOND
    1    1    2 2     
    2    2    7 am    
    3    2    3 1     
    4    3    4 2     
    5    3   22 1     
    6    4    5 1     
    7    4   23 1     
    8    5    6 2     
    9    5   24 1     
   10    6    7 1     
   11    6   25 1     
   12    7    8 1     
   13    8    9 1     
   14    8   26 1     
   15    8   27 1     
   16    9   18 1     
   17    9   10 2     
   18   10   11 1     
   19   10   36 1     
   20   11   17 ar    
   21   11   12 ar    
   22   12   13 ar    
   23   12   28 1     
   24   13   14 1     
   25   13   15 ar    
   26   15   16 ar    
   27   15   29 1     
   28   16   17 ar    
   29   16   30 1     
   30   17   18 1     
   31   18   19 1     
   32   19   20 1     
   33   19   31 1     
   34   19   32 1     
   35   20   21 1     
   36   20   33 1     
   37   20   34 1     
   38   21   35 1     
   39    1   37 1     
   40    1   38 1     
   41   21   39 1     
   42   21   40 1     
@<TRIPOS>SUBSTRUCTURE
      1 S1             1
@<TRIPOS>SET
LONE_PAIRS      STATIC     ATOMS    <user>   **** ""
4 37 38 39 40
DONOR_HYDROGENS      STATIC     ATOMS    <user>   **** ""
2 36 35
ATOM$BLUE        STATIC     ATOMS    COLORGROUP SYSTEM
4 37 38 39 40
ATOM$RED        STATIC     ATOMS    COLORGROUP SYSTEM
2 36 35
