#       Name:                AV-unprocessed.smi:393
#       Creating user name   scv26
#       Creation time:       Thu Mar 26 22:42:37 2020


#       File generated by GOLD software.
#

@<TRIPOS>MOLECULE
AV-unprocessed.smi:393
    49    50     1
SMALL
NO_CHARGES


@<TRIPOS>ATOM
      1 ****        -4.0415   1.9524  -2.4790 C.3            1 S1                 0.0000
      2 ****        -3.8086   0.4384  -2.5266 C.3            1 S1                 0.0000
      3 ****        -2.3208   0.0686  -2.4432 C.3            1 S1                 0.0000
      4 ****        -2.0896  -1.4520  -2.4820 C.3            1 S1                 0.0000
      5 ****        -0.6090  -1.8129  -2.3452 C.2            1 S1                 0.0000
      6 ****         0.2237  -1.3096  -3.0994 O.2            1 S1                 0.0000
      7 ****        -0.2917  -2.6805  -1.3721 N.am           1 S1                 0.0000
      8 ****         1.0651  -3.1065  -1.0428 C.3            1 S1                 0.0000
      9 ****         1.8899  -2.0763  -0.2804 C.ar           1 S1                 0.0000
     10 ****         3.2960  -2.1440  -0.3208 C.ar           1 S1                 0.0000
     11 ****         4.0357  -1.1775   0.3846 C.ar           1 S1                 0.0000
     12 ****         3.4654  -0.1901   1.1056 N.ar           1 S1                 0.0000
     13 ****         2.1126  -0.1203   1.1666 C.ar           1 S1                 0.0000
     14 ****         1.5295   0.9174   1.9261 N.3            1 S1                 0.0000
     15 ****         0.5331   0.5045   2.9114 C.3            1 S1                 0.0000
     16 ****        -0.2447   1.7262   3.4300 C.3            1 S1                 0.0000
     17 ****         0.6644   2.6970   3.9378 O.3            1 S1                 0.0000
     18 ****         1.5534   3.1667   2.9297 C.3            1 S1                 0.0000
     19 ****         2.3966   1.9966   2.3956 C.3            1 S1                 0.0000
     20 ****         1.2912  -1.0499   0.4850 C.ar           1 S1                 0.0000
     21 ****        -5.1055   2.1844  -2.5289 H              1 S1                 0.0000
     22 ****        -3.5525   2.4518  -3.3156 H              1 S1                 0.0000
     23 ****        -3.6503   2.3821  -1.5564 H              1 S1                 0.0000
     24 ****        -4.3496  -0.0335  -1.7058 H              1 S1                 0.0000
     25 ****        -4.2335   0.0377  -3.4475 H              1 S1                 0.0000
     26 ****        -1.7859   0.5454  -3.2660 H              1 S1                 0.0000
     27 ****        -1.8993   0.4781  -1.5235 H              1 S1                 0.0000
     28 ****        -2.6613  -1.9323  -1.6863 H              1 S1                 0.0000
     29 ****        -2.4587  -1.8624  -3.4224 H              1 S1                 0.0000
     30 ****        -1.0376  -3.0483  -0.7998 H              1 S1                 0.0000
     31 ****         0.9980  -4.0077  -0.4332 H              1 S1                 0.0000
     32 ****         1.5900  -3.3904  -1.9566 H              1 S1                 0.0000
     33 ****         3.7999  -2.9145  -0.8860 H              1 S1                 0.0000
     34 ****         5.1153  -1.1967   0.3689 H              1 S1                 0.0000
     35 ****        -0.1731  -0.2143   2.4986 H              1 S1                 0.0000
     36 ****         1.0423   0.0090   3.7389 H              1 S1                 0.0000
     37 ****        -0.8552   2.1628   2.6381 H              1 S1                 0.0000
     38 ****        -0.9252   1.4265   4.2269 H              1 S1                 0.0000
     39 ****         0.9893   3.6391   2.1237 H              1 S1                 0.0000
     40 ****         2.2015   3.9324   3.3558 H              1 S1                 0.0000
     41 ****         3.0510   1.6178   3.1821 H              1 S1                 0.0000
     42 ****         3.0321   2.3516   1.5834 H              1 S1                 0.0000
     43 ****         0.2160  -0.9654   0.5310 H              1 S1                 0.0000
     44 ****        -0.0667  -0.6626  -3.8044 LP             1 S1                 0.0000
     45 ****         1.1906  -1.5478  -3.0071 LP             1 S1                 0.0000
     46 ****         4.0311   0.4793   1.5871 LP             1 S1                 0.0000
     47 ****         1.0123   1.3632   1.1955 LP             1 S1                 0.0000
     48 ****         1.1997   2.2848   4.6751 LP             1 S1                 0.0000
     49 ****         0.1437   3.4716   4.2968 LP             1 S1                 0.0000
@<TRIPOS>BOND
    1    1    2 1     
    2    1   21 1     
    3    1   22 1     
    4    1   23 1     
    5    2    3 1     
    6    2   24 1     
    7    2   25 1     
    8    3    4 1     
    9    3   26 1     
   10    3   27 1     
   11    4    5 1     
   12    4   28 1     
   13    4   29 1     
   14    5    6 2     
   15    5    7 am    
   16    7    8 1     
   17    7   30 1     
   18    8    9 1     
   19    8   31 1     
   20    8   32 1     
   21    9   20 ar    
   22    9   10 ar    
   23   10   11 ar    
   24   10   33 1     
   25   11   12 ar    
   26   11   34 1     
   27   12   13 ar    
   28   13   14 1     
   29   13   20 ar    
   30   14   19 1     
   31   14   15 1     
   32   15   16 1     
   33   15   35 1     
   34   15   36 1     
   35   16   17 1     
   36   16   37 1     
   37   16   38 1     
   38   17   18 1     
   39   18   19 1     
   40   18   39 1     
   41   18   40 1     
   42   19   41 1     
   43   19   42 1     
   44   20   43 1     
   45    6   44 1     
   46    6   45 1     
   47   12   46 1     
   48   14   47 1     
   49   17   48 1     
   50   17   49 1     
@<TRIPOS>SUBSTRUCTURE
      1 S1             1
@<TRIPOS>SET
LONE_PAIRS      STATIC     ATOMS    <user>   **** ""
6 44 45 46 47 48 49
DONOR_HYDROGENS      STATIC     ATOMS    <user>   **** ""
1 30
ATOM$BLUE        STATIC     ATOMS    COLORGROUP SYSTEM
6 44 45 46 47 48 49
ATOM$RED        STATIC     ATOMS    COLORGROUP SYSTEM
1 30
