#       Name:                AV-unprocessed.smi:261
#       Creating user name   scv26
#       Creation time:       Thu Mar 26 21:17:03 2020


#       File generated by GOLD software.
#

@<TRIPOS>MOLECULE
AV-unprocessed.smi:261
    62    65     1
SMALL
NO_CHARGES


@<TRIPOS>ATOM
      1 ****        -6.1936   1.4055   0.7588 C.3            1 S1                 0.0000
      2 ****        -4.8938   1.1289   0.2633 O.3            1 S1                 0.0000
      3 ****        -4.1464   0.2503   1.0918 C.3            1 S1                 0.0000
      4 ****        -3.6570   0.9023   2.3885 C.3            1 S1                 0.0000
      5 ****        -2.4205   0.0786   2.7862 C.3            1 S1                 0.0000
      6 ****        -2.7885  -1.0953   3.7112 C.2            1 S1                 0.0000
      7 ****        -2.7060  -0.8724   5.0249 N.am           1 S1                 0.0000
      8 ****        -3.1533  -2.1781   3.2551 O.2            1 S1                 0.0000
      9 ****        -1.8942  -0.3817   1.4985 N.pl3          1 S1                 0.0000
     10 ****        -0.5962  -0.7437   1.3018 C.ar           1 S1                 0.0000
     11 ****         0.2301  -0.7953   2.3808 N.ar           1 S1                 0.0000
     12 ****         1.5111  -1.1471   2.2462 C.ar           1 S1                 0.0000
     13 ****         2.1701  -1.4832   1.1376 N.ar           1 S1                 0.0000
     14 ****         1.3541  -1.4343   0.0471 C.ar           1 S1                 0.0000
     15 ****        -0.0269  -1.0797   0.0356 C.ar           1 S1                 0.0000
     16 ****        -0.5088  -1.1506  -1.2681 N.2            1 S1                 0.0000
     17 ****         0.5200  -1.5207  -1.9791 C.2            1 S1                 0.0000
     18 ****         1.6821  -1.7075  -1.2685 N.pl3          1 S1                 0.0000
     19 ****         2.9724  -2.1094  -1.7988 C.3            1 S1                 0.0000
     20 ****         4.0117  -0.9679  -1.7993 C.3            1 S1                 0.0000
     21 ****         5.2030  -1.4867  -2.3559 O.3            1 S1                 0.0000
     22 ****         3.5844   0.2844  -2.5969 C.3            1 S1                 0.0000
     23 ****         4.6570   1.3710  -2.6946 C.3            1 S1                 0.0000
     24 ****         3.8594   2.6351  -2.9687 C.3            1 S1                 0.0000
     25 ****         2.4389   2.2773  -2.5254 C.3            1 S1                 0.0000
     26 ****         2.5459   0.9903  -1.9338 O.3            1 S1                 0.0000
     27 ****        -2.8381  -0.1559   0.4120 C.3            1 S1                 0.0000
     28 ****        -4.7219  -0.6491   1.3197 H              1 S1                 0.0000
     29 ****        -1.7041   0.7296   3.2906 H              1 S1                 0.0000
     30 ****        -6.7225   2.0472   0.0543 H              1 S1                 0.0000
     31 ****        -6.1552   1.9246   1.7168 H              1 S1                 0.0000
     32 ****        -6.7741   0.4900   0.8790 H              1 S1                 0.0000
     33 ****        -3.3555   1.9320   2.1905 H              1 S1                 0.0000
     34 ****        -4.4261   0.9321   3.1615 H              1 S1                 0.0000
     35 ****        -2.9418  -1.6065   5.6764 H              1 S1                 0.0000
     36 ****        -2.4131   0.0334   5.3610 H              1 S1                 0.0000
     37 ****         2.0907  -1.1609   3.1573 H              1 S1                 0.0000
     38 ****         0.4599  -1.6604  -3.0485 H              1 S1                 0.0000
     39 ****         3.3344  -2.9488  -1.2036 H              1 S1                 0.0000
     40 ****         2.8252  -2.4866  -2.8119 H              1 S1                 0.0000
     41 ****         4.2327  -0.6785  -0.7713 H              1 S1                 0.0000
     42 ****         5.0313  -1.7392  -3.2501 H              1 S1                 0.0000
     43 ****         3.2466   0.0046  -3.5967 H              1 S1                 0.0000
     44 ****         5.1794   1.4684  -1.7418 H              1 S1                 0.0000
     45 ****         5.3997   1.1651  -3.4657 H              1 S1                 0.0000
     46 ****         4.2608   3.4841  -2.4141 H              1 S1                 0.0000
     47 ****         3.8739   2.8885  -4.0293 H              1 S1                 0.0000
     48 ****         2.0280   2.9958  -1.8159 H              1 S1                 0.0000
     49 ****         1.7691   2.2245  -3.3846 H              1 S1                 0.0000
     50 ****        -2.9799  -1.0464  -0.2009 H              1 S1                 0.0000
     51 ****        -2.4644   0.6500  -0.2216 H              1 S1                 0.0000
     52 ****        -4.3945   1.9918   0.1855 LP             1 S1                 0.0000
     53 ****        -4.9821   0.7122  -0.6415 LP             1 S1                 0.0000
     54 ****        -3.2153  -2.3085   2.2655 LP             1 S1                 0.0000
     55 ****        -3.3878  -2.9278   3.8738 LP             1 S1                 0.0000
     56 ****        -0.1264  -0.5668   3.2867 LP             1 S1                 0.0000
     57 ****         3.1367  -1.7379   1.1096 LP             1 S1                 0.0000
     58 ****        -1.4368  -0.9602  -1.5883 LP             1 S1                 0.0000
     59 ****         5.5008  -2.2844  -1.8315 LP             1 S1                 0.0000
     60 ****         5.9178  -0.7877  -2.3342 LP             1 S1                 0.0000
     61 ****         2.7646   1.0811  -0.9623 LP             1 S1                 0.0000
     62 ****         1.6819   0.4973  -2.0364 LP             1 S1                 0.0000
@<TRIPOS>BOND
    1    1    2 1     
    2    1   30 1     
    3    1   31 1     
    4    1   32 1     
    5    2    3 1     
    6    3   28 1     
    7    3   27 1     
    8    3    4 1     
    9    4    5 1     
   10    4   33 1     
   11    4   34 1     
   12    5   29 1     
   13    5    6 1     
   14    5    9 1     
   15    6    7 am    
   16    6    8 2     
   17    7   35 1     
   18    7   36 1     
   19    9   10 1     
   20    9   27 1     
   21   10   15 ar    
   22   10   11 ar    
   23   11   12 ar    
   24   12   13 ar    
   25   12   37 1     
   26   13   14 ar    
   27   14   18 1     
   28   14   15 ar    
   29   15   16 1     
   30   16   17 2     
   31   17   18 1     
   32   17   38 1     
   33   18   19 1     
   34   19   20 1     
   35   19   39 1     
   36   19   40 1     
   37   20   21 1     
   38   20   22 1     
   39   20   41 1     
   40   21   42 1     
   41   22   26 1     
   42   22   23 1     
   43   22   43 1     
   44   23   24 1     
   45   23   44 1     
   46   23   45 1     
   47   24   25 1     
   48   24   46 1     
   49   24   47 1     
   50   25   26 1     
   51   25   48 1     
   52   25   49 1     
   53   27   50 1     
   54   27   51 1     
   55    2   52 1     
   56    2   53 1     
   57    8   54 1     
   58    8   55 1     
   59   11   56 1     
   60   13   57 1     
   61   16   58 1     
   62   21   59 1     
   63   21   60 1     
   64   26   61 1     
   65   26   62 1     
@<TRIPOS>SUBSTRUCTURE
      1 S1             1
@<TRIPOS>SET
LONE_PAIRS      STATIC     ATOMS    <user>   **** ""
11 52 53 54 55 56 57 58 59 60 61 62
DONOR_HYDROGENS      STATIC     ATOMS    <user>   **** ""
3 35 36 42
ATOM$BLUE        STATIC     ATOMS    COLORGROUP SYSTEM
11 52 53 54 55 56 57 58 59 60 61 62
ATOM$RED        STATIC     ATOMS    COLORGROUP SYSTEM
3 35 36 42
