AV-unprocessed.smi:1423|AV-procd|sdf|5796|dock10
  -GOLD-   22720 5443D 1   1.00000     0.00000
 Structure written by MMmdl.
 44 45  0  0  0  0  0  0  0  0  2 V2000
  154.6632  140.5657  160.6309 C   0  0  0  0  0  0  0  0  0  0  0  0
  154.3137  141.9137  160.3372 O   0  0  0  0  0  0  0  0  0  0  0  0
  153.3331  142.1459  159.3947 C   0  0  0  0  0  0  0  0  0  0  0  0
  152.9805  143.4784  159.1031 C   0  0  0  0  0  0  0  0  0  0  0  0
  151.9787  143.7251  158.1451 C   0  0  0  0  0  0  0  0  0  0  0  0
  151.3514  142.6253  157.5115 C   0  0  0  0  0  0  0  0  0  0  0  0
  150.3364  142.7349  156.5215 N   0  0  0  0  0  0  0  0  0  0  0  0
  149.7828  141.7670  155.7707 C   0  0  0  0  0  0  0  0  0  0  0  0
  150.0800  140.5738  155.8101 O   0  0  0  0  0  0  0  0  0  0  0  0
  148.8569  142.2678  154.9397 N   0  0  0  0  0  0  0  0  0  0  0  0
  148.0564  141.4845  153.9984 C   0  0  2  0  0  0  0  0  0  0  0  0
  147.0278  142.3564  153.2498 C   0  0  0  0  0  0  0  0  0  0  0  0
  145.8817  142.8144  154.1681 C   0  0  0  0  0  0  0  0  0  0  0  0
  145.2140  141.6503  154.8089 N   0  3  2  0  0  0  0  0  0  0  0  0
  144.0064  142.0257  155.5890 C   0  0  0  0  0  0  0  0  0  0  0  0
  143.1908  140.8148  156.0550 C   0  0  0  0  0  0  0  0  0  0  0  0
  142.7077  140.0132  155.1032 N   0  0  0  0  0  0  0  0  0  0  0  0
  142.9852  140.6103  157.2500 O   0  0  0  0  0  0  0  0  0  0  0  0
  146.1738  140.8412  155.6022 C   0  0  0  0  0  0  0  0  0  0  0  0
  147.3353  140.3363  154.7261 C   0  0  0  0  0  0  0  0  0  0  0  0
  151.7875  141.3312  157.8651 C   0  0  0  0  0  0  0  0  0  0  0  0
  152.7473  141.0877  158.7819 N   0  0  0  0  0  0  0  0  0  0  0  0
  155.4382  140.5532  161.3972 H   0  0  0  0  0  0  0  0  0  0  0  0
  155.0594  140.0566  159.7511 H   0  0  0  0  0  0  0  0  0  0  0  0
  153.8097  140.0053  161.0148 H   0  0  0  0  0  0  0  0  0  0  0  0
  153.4732  144.2985  159.6040 H   0  0  0  0  0  0  0  0  0  0  0  0
  151.7257  144.7475  157.9131 H   0  0  0  0  0  0  0  0  0  0  0  0
  150.0276  143.6762  156.3276 H   0  0  0  0  0  0  0  0  0  0  0  0
  148.6777  143.2606  154.9763 H   0  0  0  0  0  0  0  0  0  0  0  0
  148.7385  141.0434  153.2690 H   0  0  0  0  0  0  0  0  0  0  0  0
  147.5117  143.2217  152.7954 H   0  0  0  0  0  0  0  0  0  0  0  0
  146.6089  141.7809  152.4232 H   0  0  0  0  0  0  0  0  0  0  0  0
  146.2601  143.4900  154.9368 H   0  0  0  0  0  0  0  0  0  0  0  0
  145.1619  143.3839  153.5795 H   0  0  0  0  0  0  0  0  0  0  0  0
  144.3038  142.5645  156.4896 H   0  0  0  0  0  0  0  0  0  0  0  0
  143.3817  142.7070  155.0087 H   0  0  0  0  0  0  0  0  0  0  0  0
  142.1670  139.1970  155.3514 H   0  0  0  0  0  0  0  0  0  0  0  0
  142.8891  140.2231  154.1317 H   0  0  0  0  0  0  0  0  0  0  0  0
  146.5531  141.4367  156.4341 H   0  0  0  0  0  0  0  0  0  0  0  0
  145.6601  139.9830  156.0369 H   0  0  0  0  0  0  0  0  0  0  0  0
  146.9414  139.6384  153.9858 H   0  0  0  0  0  0  0  0  0  0  0  0
  148.0427  139.7670  155.3306 H   0  0  0  0  0  0  0  0  0  0  0  0
  151.3494  140.4596  157.4008 H   0  0  0  0  0  0  0  0  0  0  0  0
  144.8871  141.0518  154.0631 H   0  0  0  0  0  0  0  0  0  0  0  0
  1  2  1  0  0  0  0
  1 23  1  0  0  0  0
  1 24  1  0  0  0  0
  1 25  1  0  0  0  0
  2  3  1  0  0  0  0
  3 22  1  0  0  0  0
  3  4  2  0  0  0  0
  4  5  1  0  0  0  0
  4 26  1  0  0  0  0
  5  6  2  0  0  0  0
  5 27  1  0  0  0  0
  6  7  1  0  0  0  0
  6 21  1  0  0  0  0
  7  8  1  0  0  0  0
  7 28  1  0  0  0  0
  8  9  2  0  0  0  0
  8 10  1  0  0  0  0
 10 11  1  0  0  0  0
 10 29  1  0  0  0  0
 11 20  1  0  0  0  0
 11 12  1  0  0  0  0
 11 30  1  0  0  0  0
 12 13  1  0  0  0  0
 12 31  1  0  0  0  0
 12 32  1  0  0  0  0
 13 14  1  0  0  0  0
 13 33  1  0  0  0  0
 13 34  1  0  0  0  0
 14 15  1  0  0  0  0
 14 19  1  0  0  0  0
 14 44  1  0  0  0  0
 15 16  1  0  0  0  0
 15 35  1  0  0  0  0
 15 36  1  0  0  0  0
 16 17  1  0  0  0  0
 16 18  2  0  0  0  0
 17 37  1  0  0  0  0
 17 38  1  0  0  0  0
 19 20  1  0  0  0  0
 19 39  1  0  0  0  0
 19 40  1  0  0  0  0
 20 41  1  0  0  0  0
 20 42  1  0  0  0  0
 21 22  2  0  0  0  0
 21 43  1  0  0  0  0
M  CHG  1  14   1
M  END
> <s_m_source_file>
AV-unprocessed.smi

> <i_m_source_file_index>
1423

> <i_lp_mmshare_version>
43012

> <i_f3d_flags>
0

> <s_epik_input>
W0NIM11PYzFbY0hdW2NIXWMoW2NIXW4xKVtOSF1DKD1PKVtOSF1bQ0hdMltDSDJdW0NIMl1OKFtDSDJdW0NIMl0yKVtDSDJdQyg9TylbTkgyXQ==

> <s_epik_cmdline>
J2VwaWtfcHl0aG9uJywgJy1waCcsICc3LjAnLCAnLXRuJywgJzgnLCAnLW1hJywgJzIwMCcsICctbWV0YWxfYmluZGluZycsICctaW1hZScsICc8aW5maWxlLm1hZT4nLCAnLW9tYWUnLCAnPG91dGZpbGUubWFlPic=

> <r_lp_tautomer_probability>
1

> <r_epik_Ionization_Penalty>
0.838963

> <r_epik_Ionization_Penalty_Charging>
0.838844

> <r_epik_Ionization_Penalty_Neutral>
0.0001192

> <r_epik_State_Penalty>
0.8734

> <r_epik_Charging_Adjusted_Penalty>
1.71224

> <i_epik_Tot_Q>
1

> <i_epik_Tot_abs_Q>
1

> <r_epik_Metal_State_Penalty>
0.890706

> <b_epik_Metal_Only>
0

> <s_lp_Force_Field>
OPLS_2005

> <r_lp_Energy>
16.4792

> <b_lp_Chiralities_Consistent>
1

> <s_lp_Variant>
AV-unprocessed.smi:1423-3

> <Gold.Version>
5.8.1

> <Gold.Id.Protein>
6NUR|6NUR_protein|mol2

> <Gold.PLP.Fitness>
51.1776

> <Gold.PLP.PLP>
-36.2711

> <Gold.PLP.part.hbond>
-4.1120

> <Gold.PLP.part.metal>
0.0000

> <Gold.PLP.part.buried>
-5.8034

> <Gold.PLP.part.nonpolar>
-26.6616

> <Gold.PLP.part.repulsive>
0.3171

> <Gold.PLP.ligand.clash>
0.0000

> <Gold.PLP.ligand.torsion>
0.0585

> <Gold.PLP.Chemscore.Hbond>
5.0000

> <Gold.PLP.Chemscore.CHOScore>
0.0000

> <Gold.PLP.Chemscore.Metal>
0.0000

> <Gold.Chemscore.Hbonds>
donor molecule, donor type, donor heavy atom, donor atom, acceptor molecule, acceptor atom, score
      L1  H     7    28       P1  8028  1.00
      L1  H    10    29       P1  8028  1.00
      L1  H    14    44       P1 10175  1.85
      L1  H    17    38       P1 10175  1.00

> <Gold.PLP.Chemscore.Internal.Correction>
0.0234

> <Gold.Rescore>
     Score         DG    S(hbond)    S(metal)    S(lipo)     H(rot)  DE(clash)    DE(int)     intcor
     17.60     -21.70       3.82        0.00      80.59       2.33       1.57       2.53       ----

> <Gold.Chemscore.Fitness>
17.6000

> <Gold.Chemscore.DG>
-21.7006

> <Gold.Chemscore.ZeroCoef>
-5.4800

> <Gold.Chemscore.Hbond>
3.8172

> <Gold.Chemscore.Metal>
0.0000

> <Gold.Chemscore.Lipo>
80.5855

> <Gold.Chemscore.Internal_Hbond>
0.0000

> <Gold.Chemscore.DEClash>
1.5661

> <Gold.Chemscore.DEInternal>
2.5345

> <Gold.Chemscore.Rot>
2.3271

> <Gold.Chemscore.Internal.Correction>
   9.000000E+99

> <Gold.Chemscore.Hbonds>
donor molecule, donor type, donor heavy atom, donor atom, acceptor molecule, acceptor atom, score
      L1  H     7    28       P1  8028  0.95
      L1  H    10    29       P1  8028  0.96
      L1  H    14    44       P1 10175  0.71
      L1  H    17    38       P1 10175  0.99

> <Gold.Chemscore.Hbond.Weighted>
-12.7494

> <Gold.Chemscore.Metal.Weighted>
-0.0000

> <Gold.Chemscore.Lipo.Weighted>
-9.4285

> <Gold.Chemscore.Internal_Hbond.Weighted>
0.0000

> <Gold.Chemscore.DEClash.Weighted>
1.5661

> <Gold.Chemscore.DEInternal.Weighted>
2.5345

> <Gold.Chemscore.Rot.Weighted>
5.9573

> <Gold.Chemscore.Internal.Correction.Weighted>
   9.000000E+99

> <Gold.Protein.RotatedTorsions>
[ 6907 6896 6895 6894 ] final    5.87 input  -60.11 | X-H torsion
[ 7974 7965 7964 7962 ] final -147.80 input  175.53 | X-H torsion
[ 8008 7997 7996 7995 ] final  130.82 input   59.86 | X-H torsion
[ 10167 10162 10161 10158 ] final    7.25 input  -65.29 | X-H torsion
[ 10718 10713 10712 10709 ] final   78.02 input   66.30 | X-H torsion
[ 10763 10752 10751 10750 ] final  -25.07 input  -60.55 | X-H torsion
[ 11005 11000 10999 10996 ] final   38.73 input  -57.11 | X-H torsion

> <Gold.Protein.ActiveResidues>
 VAL166  LYS551  ARG553  GLY616  TRP617  ASP618  TYR619  PRO620  LYS621  CYS622 
 ASP623  PHE694  ASN695  SER759  ASP760  ASP761  ALA762  ILE779  LEU786  VAL792 
 PHE793  MET794  SER795  GLU796  ALA797  LYS798  CYS799  TRP800  GLU811  SER814 

> <Gold.Protein.RotatedAtoms>
  151.6644  135.0985  160.0185 H   0  0  0  0  0  0  0  0  0  0  0  0  # atno 6907 bound_to 6896
  152.3928  133.6699  159.6260 H   0  0  0  0  0  0  0  0  0  0  0  0  # atno 6908 bound_to 6896
  150.7840  133.8842  159.3336 H   0  0  0  0  0  0  0  0  0  0  0  0  # atno 6909 bound_to 6896
  144.8070  140.5280  143.5668 H   0  0  0  0  0  0  0  0  0  0  0  0  # atno 7974 bound_to 7965
  156.2960  140.2586  156.2824 H   0  0  0  0  0  0  0  0  0  0  0  0  # atno 8008 bound_to 7997
  154.9589  140.0393  157.2199 H   0  0  0  0  0  0  0  0  0  0  0  0  # atno 8009 bound_to 7997
  154.7966  140.2821  155.5957 H   0  0  0  0  0  0  0  0  0  0  0  0  # atno 8010 bound_to 7997
  140.6382  143.7836  150.7390 H   0  0  0  0  0  0  0  0  0  0  0  0  # atno 10167 bound_to 10162
  157.6731  130.9849  150.1726 H   0  0  0  0  0  0  0  0  0  0  0  0  # atno 10718 bound_to 10713
  153.6940  135.6960  153.5082 H   0  0  0  0  0  0  0  0  0  0  0  0  # atno 10763 bound_to 10752
  153.2392  135.4311  155.0679 H   0  0  0  0  0  0  0  0  0  0  0  0  # atno 10764 bound_to 10752
  154.8364  135.3503  154.6481 H   0  0  0  0  0  0  0  0  0  0  0  0  # atno 10765 bound_to 10752
  140.2098  134.3769  155.8055 H   0  0  0  0  0  0  0  0  0  0  0  0  # atno 11005 bound_to 11000
  145.5414  139.1475  143.3445 LP  0  0  0  0  0  0  0  0  0  0  0  0  # atno 17320 bound_to 7965
  146.2363  140.5554  142.8953 LP  0  0  0  0  0  0  0  0  0  0  0  0  # atno 17321 bound_to 7965
  140.1461  143.4398  152.2162 LP  0  0  0  0  0  0  0  0  0  0  0  0  # atno 17342 bound_to 10162
  139.5592  144.7394  151.4204 LP  0  0  0  0  0  0  0  0  0  0  0  0  # atno 17343 bound_to 10162
  156.2477  130.3697  149.8267 LP  0  0  0  0  0  0  0  0  0  0  0  0  # atno 17370 bound_to 10713
  156.6049  130.8562  151.3440 LP  0  0  0  0  0  0  0  0  0  0  0  0  # atno 17371 bound_to 10713
  141.2226  133.7137  156.8398 LP  0  0  0  0  0  0  0  0  0  0  0  0  # atno 17394 bound_to 11000
  140.1964  134.8929  157.3119 LP  0  0  0  0  0  0  0  0  0  0  0  0  # atno 17395 bound_to 11000

$$$$
