#       Name:                AV-unprocessed.smi:1169
#       Creating user name   scv26
#       Creation time:       Fri Mar 27 03:52:38 2020


#       File generated by GOLD software.
#

@<TRIPOS>MOLECULE
AV-unprocessed.smi:1169
    32    33     1
SMALL
NO_CHARGES


@<TRIPOS>ATOM
      1 ****        -0.9182   2.4068  -0.6809 O.2            1 S1                 0.0000
      2 ****        -0.1791   1.4350  -0.5267 C.2            1 S1                 0.0000
      3 ****         1.3218   1.6518  -0.2994 C.3            1 S1                 0.0000
      4 ****         1.8549   0.8069   0.7573 N.pl3          1 S1                 0.0000
      5 ****         2.5211  -0.3941   0.6392 C.2            1 S1                 0.0000
      6 ****         2.8167  -0.8196   1.9020 C.2            1 S1                 0.0000
      7 ****         2.2889   0.2013   2.7450 C.2            1 S1                 0.0000
      8 ****         2.3156   0.2781   4.2488 C.3            1 S1                 0.0000
      9 ****         2.9227  -0.7947   4.7559 F              1 S1                 0.0000
     10 ****         2.9766   1.3684   4.6370 F              1 S1                 0.0000
     11 ****         1.0715   0.3305   4.7240 F              1 S1                 0.0000
     12 ****         1.7158   1.1743   2.0493 N.2            1 S1                 0.0000
     13 ****        -0.6169   0.1660  -0.5696 N.am           1 S1                 0.0000
     14 ****        -1.9967  -0.2396  -0.7990 C.3            1 S1                 0.0000
     15 ****        -2.4296  -0.2201  -2.2521 C.3            1 S1                 0.0000
     16 ****        -3.6285  -1.0189  -2.7062 C.3            1 S1                 0.0000
     17 ****        -2.2404  -1.4306  -3.1356 C.3            1 S1                 0.0000
     18 ****         1.8591   1.4412  -1.2247 H              1 S1                 0.0000
     19 ****         1.5146   2.6961  -0.0479 H              1 S1                 0.0000
     20 ****         2.7231  -0.8428  -0.3223 H              1 S1                 0.0000
     21 ****         3.3329  -1.7256   2.1829 H              1 S1                 0.0000
     22 ****         0.0578  -0.5726  -0.4330 H              1 S1                 0.0000
     23 ****        -2.1211  -1.2476  -0.4018 H              1 S1                 0.0000
     24 ****        -2.6699   0.3985  -0.2242 H              1 S1                 0.0000
     25 ****        -2.3057   0.7483  -2.7334 H              1 S1                 0.0000
     26 ****        -4.1315  -1.6430  -1.9701 H              1 S1                 0.0000
     27 ****        -4.2753  -0.5708  -3.4577 H              1 S1                 0.0000
     28 ****        -1.9605  -1.2549  -4.1723 H              1 S1                 0.0000
     29 ****        -1.8197  -2.3274  -2.6850 H              1 S1                 0.0000
     30 ****        -0.5392   3.3319  -0.6576 LP             1 S1                 0.0000
     31 ****        -1.8978   2.2713  -0.8295 LP             1 S1                 0.0000
     32 ****         1.2766   1.9997   2.4041 LP             1 S1                 0.0000
@<TRIPOS>BOND
    1    1    2 2     
    2    2    3 1     
    3    2   13 am    
    4    3    4 1     
    5    3   18 1     
    6    3   19 1     
    7    4   12 1     
    8    4    5 1     
    9    5    6 2     
   10    5   20 1     
   11    6    7 1     
   12    6   21 1     
   13    7    8 1     
   14    7   12 2     
   15    8    9 1     
   16    8   10 1     
   17    8   11 1     
   18   13   14 1     
   19   13   22 1     
   20   14   15 1     
   21   14   23 1     
   22   14   24 1     
   23   15   17 1     
   24   15   16 1     
   25   15   25 1     
   26   16   17 1     
   27   16   26 1     
   28   16   27 1     
   29   17   28 1     
   30   17   29 1     
   31    1   30 1     
   32    1   31 1     
   33   12   32 1     
@<TRIPOS>SUBSTRUCTURE
      1 S1             1
@<TRIPOS>SET
LONE_PAIRS      STATIC     ATOMS    <user>   **** ""
3 30 31 32
DONOR_HYDROGENS      STATIC     ATOMS    <user>   **** ""
1 22
ATOM$BLUE        STATIC     ATOMS    COLORGROUP SYSTEM
3 30 31 32
ATOM$RED        STATIC     ATOMS    COLORGROUP SYSTEM
1 22
