AV-unprocessed.smi:1991|AV-procd|sdf|8068|dock2
  -GOLD-   2272010273D 1   1.00000     0.00000
 Structure written by MMmdl.
 44 45  0  0  0  0  0  0  0  0  1 V2000
  143.5142  142.1429  158.2152 C   0  0  0  0  0  0  0  0  0  0  0  0
  144.7184  142.3965  157.2964 C   0  0  1  0  0  0  0  0  0  0  0  0
  144.5594  143.6960  156.7322 O   0  0  0  0  0  0  0  0  0  0  0  0
  143.3108  143.9412  156.0925 C   0  0  0  0  0  0  0  0  0  0  0  0
  143.4845  145.0518  155.0495 C   0  0  0  0  0  0  0  0  0  0  0  0
  142.3275  145.2456  154.4177 F   0  0  0  0  0  0  0  0  0  0  0  0
  143.8439  146.1897  155.6431 F   0  0  0  0  0  0  0  0  0  0  0  0
  144.4073  144.7022  154.1538 F   0  0  0  0  0  0  0  0  0  0  0  0
  146.0413  142.3059  158.0737 C   0  0  0  0  0  0  0  0  0  0  0  0
  146.0406  141.9767  159.2600 O   0  0  0  0  0  0  0  0  0  0  0  0
  147.1533  142.6210  157.3917 N   0  0  0  0  0  0  0  0  0  0  0  0
  148.5128  142.5927  157.9202 C   0  0  0  0  0  0  0  0  0  0  0  0
  149.4447  141.7208  157.0844 C   0  0  0  0  0  0  0  0  0  0  0  0
  148.9425  141.1149  155.9124 C   0  0  0  0  0  0  0  0  0  0  0  0
  149.7994  140.3340  155.1163 C   0  0  0  0  0  0  0  0  0  0  0  0
  151.1371  140.1884  155.5245 C   0  0  0  0  0  0  0  0  0  0  0  0
  151.6333  140.7577  156.6420 N   0  0  0  0  0  0  0  0  0  0  0  0
  150.8113  141.5104  157.4138 C   0  0  0  0  0  0  0  0  0  0  0  0
  151.3576  142.0562  158.5877 N   0  0  0  0  0  0  0  0  0  0  0  0
  152.6189  141.4361  158.9690 C   0  0  0  0  0  0  0  0  0  0  0  0
  153.0245  141.9033  160.3770 C   0  0  0  0  0  0  0  0  0  0  0  0
  153.0892  143.3272  160.4066 O   0  0  0  0  0  0  0  0  0  0  0  0
  151.8360  143.9301  160.0926 C   0  0  0  0  0  0  0  0  0  0  0  0
  151.4008  143.5113  158.6776 C   0  0  0  0  0  0  0  0  0  0  0  0
  143.5799  141.1655  158.6946 H   0  0  0  0  0  0  0  0  0  0  0  0
  142.5836  142.1690  157.6479 H   0  0  0  0  0  0  0  0  0  0  0  0
  143.4414  142.8971  158.9997 H   0  0  0  0  0  0  0  0  0  0  0  0
  144.7036  141.6508  156.4991 H   0  0  0  0  0  0  0  0  0  0  0  0
  142.9394  143.0401  155.6033 H   0  0  0  0  0  0  0  0  0  0  0  0
  142.5664  144.2427  156.8310 H   0  0  0  0  0  0  0  0  0  0  0  0
  147.0504  142.8879  156.4235 H   0  0  0  0  0  0  0  0  0  0  0  0
  148.8963  143.6128  157.8873 H   0  0  0  0  0  0  0  0  0  0  0  0
  148.5253  142.3174  158.9749 H   0  0  0  0  0  0  0  0  0  0  0  0
  147.9116  141.2520  155.6213 H   0  0  0  0  0  0  0  0  0  0  0  0
  149.4409  139.8617  154.2138 H   0  0  0  0  0  0  0  0  0  0  0  0
  151.8270  139.5983  154.9395 H   0  0  0  0  0  0  0  0  0  0  0  0
  152.5348  140.3503  158.9396 H   0  0  0  0  0  0  0  0  0  0  0  0
  153.3886  141.7144  158.2479 H   0  0  0  0  0  0  0  0  0  0  0  0
  152.3153  141.5441  161.1247 H   0  0  0  0  0  0  0  0  0  0  0  0
  154.0005  141.4965  160.6412 H   0  0  0  0  0  0  0  0  0  0  0  0
  151.0868  143.6403  160.8314 H   0  0  0  0  0  0  0  0  0  0  0  0
  151.9379  145.0139  160.1493 H   0  0  0  0  0  0  0  0  0  0  0  0
  152.1041  143.9083  157.9441 H   0  0  0  0  0  0  0  0  0  0  0  0
  150.4190  143.9263  158.4465 H   0  0  0  0  0  0  0  0  0  0  0  0
  1  2  1  0  0  0  0
  1 25  1  0  0  0  0
  1 26  1  0  0  0  0
  1 27  1  0  0  0  0
  2  3  1  0  0  0  0
  2  9  1  0  0  0  0
  2 28  1  0  0  0  0
  3  4  1  0  0  0  0
  4  5  1  0  0  0  0
  4 29  1  0  0  0  0
  4 30  1  0  0  0  0
  5  6  1  0  0  0  0
  5  7  1  0  0  0  0
  5  8  1  0  0  0  0
  9 10  2  0  0  0  0
  9 11  1  0  0  0  0
 11 12  1  0  0  0  0
 11 31  1  0  0  0  0
 12 13  1  0  0  0  0
 12 32  1  0  0  0  0
 12 33  1  0  0  0  0
 13 18  1  0  0  0  0
 13 14  2  0  0  0  0
 14 15  1  0  0  0  0
 14 34  1  0  0  0  0
 15 16  2  0  0  0  0
 15 35  1  0  0  0  0
 16 17  1  0  0  0  0
 16 36  1  0  0  0  0
 17 18  2  0  0  0  0
 18 19  1  0  0  0  0
 19 24  1  0  0  0  0
 19 20  1  0  0  0  0
 20 21  1  0  0  0  0
 20 37  1  0  0  0  0
 20 38  1  0  0  0  0
 21 22  1  0  0  0  0
 21 39  1  0  0  0  0
 21 40  1  0  0  0  0
 22 23  1  0  0  0  0
 23 24  1  0  0  0  0
 23 41  1  0  0  0  0
 23 42  1  0  0  0  0
 24 43  1  0  0  0  0
 24 44  1  0  0  0  0
M  END
> <s_m_source_file>
AV-unprocessed.smi

> <i_m_source_file_index>
1991

> <i_lp_mmshare_version>
43012

> <i_f3d_flags>
0

> <s_epik_input>
RkMoRikoRilbQ0gyXU9bQ0BASF0oW0NIM10pQyg9TylbTkhdW0NIMl1jMVtjSF1bY0hdW2NIXW5jMU4yW0NIMl1bQ0gyXU9bQ0gyXVtDSDJdMg==

> <s_epik_cmdline>
J2VwaWtfcHl0aG9uJywgJy1waCcsICc3LjAnLCAnLXRuJywgJzgnLCAnLW1hJywgJzIwMCcsICctbWV0YWxfYmluZGluZycsICctaW1hZScsICc8aW5maWxlLm1hZT4nLCAnLW9tYWUnLCAnPG91dGZpbGUubWFlPic=

> <r_lp_tautomer_probability>
1

> <r_epik_Ionization_Penalty>
0.00436412

> <r_epik_Ionization_Penalty_Charging>
0

> <r_epik_Ionization_Penalty_Neutral>
0.00436412

> <r_epik_State_Penalty>
0.00314317

> <r_epik_Charging_Adjusted_Penalty>
0.00314317

> <i_epik_Tot_Q>
0

> <i_epik_Tot_abs_Q>
0

> <r_epik_Metal_State_Penalty>
-0

> <b_epik_Metal_Only>
0

> <s_lp_Force_Field>
OPLS_2005

> <r_lp_Energy>
21.3683

> <b_lp_Chiralities_Consistent>
1

> <s_lp_Variant>
AV-unprocessed.smi:1991-2

> <Gold.Version>
5.8.1

> <Gold.Id.Protein>
6NUR|6NUR_protein|mol2

> <Gold.PLP.Fitness>
37.2798

> <Gold.PLP.PLP>
-34.7431

> <Gold.PLP.part.hbond>
-1.4583

> <Gold.PLP.part.metal>
0.0000

> <Gold.PLP.part.buried>
-4.2206

> <Gold.PLP.part.nonpolar>
-29.4048

> <Gold.PLP.part.repulsive>
0.1327

> <Gold.PLP.ligand.clash>
0.0000

> <Gold.PLP.ligand.torsion>
0.4441

> <Gold.PLP.Chemscore.Hbond>
1.0000

> <Gold.PLP.Chemscore.CHOScore>
0.0000

> <Gold.PLP.Chemscore.Metal>
0.0000

> <Gold.Chemscore.Hbonds>
donor molecule, donor type, donor heavy atom, donor atom, acceptor molecule, acceptor atom, score
      P1  H  6934  6946       L1    10  1.00

> <Gold.PLP.Chemscore.Internal.Correction>
0.4249

> <Gold.Rescore>
     Score         DG    S(hbond)    S(metal)    S(lipo)     H(rot)  DE(clash)    DE(int)     intcor
     10.84     -11.32       0.99        0.00      76.18       2.49       0.04       0.45       ----

> <Gold.Chemscore.Fitness>
10.8366

> <Gold.Chemscore.DG>
-11.3222

> <Gold.Chemscore.ZeroCoef>
-5.4800

> <Gold.Chemscore.Hbond>
0.9891

> <Gold.Chemscore.Metal>
0.0000

> <Gold.Chemscore.Lipo>
76.1779

> <Gold.Chemscore.Internal_Hbond>
0.0000

> <Gold.Chemscore.DEClash>
0.0395

> <Gold.Chemscore.DEInternal>
0.4460

> <Gold.Chemscore.Rot>
2.4899

> <Gold.Chemscore.Internal.Correction>
   9.000000E+99

> <Gold.Chemscore.Hbonds>
donor molecule, donor type, donor heavy atom, donor atom, acceptor molecule, acceptor atom, score
      P1  H  6934  6946       L1    10  0.91

> <Gold.Chemscore.Hbond.Weighted>
-3.3035

> <Gold.Chemscore.Metal.Weighted>
-0.0000

> <Gold.Chemscore.Lipo.Weighted>
-8.9128

> <Gold.Chemscore.Internal_Hbond.Weighted>
0.0000

> <Gold.Chemscore.DEClash.Weighted>
0.0395

> <Gold.Chemscore.DEInternal.Weighted>
0.4460

> <Gold.Chemscore.Rot.Weighted>
6.3741

> <Gold.Chemscore.Internal.Correction.Weighted>
   9.000000E+99

> <Gold.Protein.RotatedTorsions>
[ 6907 6896 6895 6894 ] final -106.30 input  -60.11 | X-H torsion
[ 7974 7965 7964 7962 ] final  -71.62 input  175.53 | X-H torsion
[ 8008 7997 7996 7995 ] final  -98.47 input   59.86 | X-H torsion
[ 10167 10162 10161 10158 ] final  147.76 input  -65.29 | X-H torsion
[ 10718 10713 10712 10709 ] final -177.15 input   66.30 | X-H torsion
[ 10763 10752 10751 10750 ] final -164.85 input  -60.55 | X-H torsion
[ 11005 11000 10999 10996 ] final   53.37 input  -57.11 | X-H torsion

> <Gold.Protein.ActiveResidues>
 VAL166  LYS551  ARG553  GLY616  TRP617  ASP618  TYR619  PRO620  LYS621  CYS622 
 ASP623  PHE694  ASN695  SER759  ASP760  ASP761  ALA762  ILE779  LEU786  VAL792 
 PHE793  MET794  SER795  GLU796  ALA797  LYS798  CYS799  TRP800  GLU811  SER814 

> <Gold.Protein.RotatedAtoms>
  150.7382  133.9996  159.3633 H   0  0  0  0  0  0  0  0  0  0  0  0  # atno 6907 bound_to 6896
  151.7949  135.0723  160.0402 H   0  0  0  0  0  0  0  0  0  0  0  0  # atno 6908 bound_to 6896
  152.3181  133.5788  159.5762 H   0  0  0  0  0  0  0  0  0  0  0  0  # atno 6909 bound_to 6896
  145.6758  140.9205  143.0859 H   0  0  0  0  0  0  0  0  0  0  0  0  # atno 7974 bound_to 7965
  154.8016  140.0455  157.1277 H   0  0  0  0  0  0  0  0  0  0  0  0  # atno 8008 bound_to 7997
  154.9472  140.3060  155.5072 H   0  0  0  0  0  0  0  0  0  0  0  0  # atno 8009 bound_to 7997
  156.2962  140.2295  156.4546 H   0  0  0  0  0  0  0  0  0  0  0  0  # atno 8010 bound_to 7997
  139.4885  144.5731  151.7018 H   0  0  0  0  0  0  0  0  0  0  0  0  # atno 10167 bound_to 10162
  156.8252  130.9634  151.3109 H   0  0  0  0  0  0  0  0  0  0  0  0  # atno 10718 bound_to 10713
  154.6989  135.2984  154.9371 H   0  0  0  0  0  0  0  0  0  0  0  0  # atno 10763 bound_to 10752
  154.0310  135.6670  153.4785 H   0  0  0  0  0  0  0  0  0  0  0  0  # atno 10764 bound_to 10752
  153.0666  135.5084  154.8121 H   0  0  0  0  0  0  0  0  0  0  0  0  # atno 10765 bound_to 10752
  140.0773  134.5387  155.8983 H   0  0  0  0  0  0  0  0  0  0  0  0  # atno 11005 bound_to 11000
  144.7042  139.8631  143.7435 LP  0  0  0  0  0  0  0  0  0  0  0  0  # atno 17320 bound_to 7965
  146.1007  139.4002  143.0349 LP  0  0  0  0  0  0  0  0  0  0  0  0  # atno 17321 bound_to 7965
  140.5321  144.0713  150.6057 LP  0  0  0  0  0  0  0  0  0  0  0  0  # atno 17342 bound_to 10162
  140.3707  143.2856  152.0281 LP  0  0  0  0  0  0  0  0  0  0  0  0  # atno 17343 bound_to 10162
  157.6436  130.8826  149.9495 LP  0  0  0  0  0  0  0  0  0  0  0  0  # atno 17370 bound_to 10713
  156.0966  130.3659  150.0296 LP  0  0  0  0  0  0  0  0  0  0  0  0  # atno 17371 bound_to 10713
  141.2034  133.6631  156.6061 LP  0  0  0  0  0  0  0  0  0  0  0  0  # atno 17394 bound_to 11000
  140.3539  134.7745  157.4486 LP  0  0  0  0  0  0  0  0  0  0  0  0  # atno 17395 bound_to 11000

$$$$
