AV-unprocessed.smi:276|AV-procd|sdf|2081|dock2
  -GOLD-   2262021353D 1   1.00000     0.00000
 Structure written by MMmdl.
 57 61  0  0  0  0  0  0  0  0  1 V2000
  151.3962  140.9191  158.5267 C   0  0  0  0  0  0  0  0  0  0  0  0
  151.4991  141.4184  157.2050 O   0  0  0  0  0  0  0  0  0  0  0  0
  150.2541  141.4176  156.5243 C   0  0  1  0  0  0  0  0  0  0  0  0
  150.2635  142.1533  155.1787 C   0  0  0  0  0  0  0  0  0  0  0  0
  149.3986  141.0159  154.5998 C   0  0  2  0  0  0  0  0  0  0  0  0
  147.9647  141.3258  154.6959 N   0  0  0  0  0  0  0  0  0  0  0  0
  147.4553  142.3114  153.7472 C   0  0  0  0  0  0  0  0  0  0  0  0
  147.1302  140.2637  154.7473 C   0  0  0  0  0  0  0  0  0  0  0  0
  146.5789  139.9741  155.9521 N   0  0  0  0  0  0  0  0  0  0  0  0
  145.7485  138.9344  156.0752 C   0  0  0  0  0  0  0  0  0  0  0  0
  145.3385  138.0773  155.1378 N   0  0  0  0  0  0  0  0  0  0  0  0
  145.8813  138.3751  153.9226 C   0  0  0  0  0  0  0  0  0  0  0  0
  146.7763  139.4442  153.6368 C   0  0  0  0  0  0  0  0  0  0  0  0
  147.1064  139.4347  152.2863 N   0  0  0  0  0  0  0  0  0  0  0  0
  146.4531  138.4128  151.8045 C   0  0  0  0  0  0  0  0  0  0  0  0
  145.6928  137.7206  152.7190 N   0  0  0  0  0  0  0  0  0  0  0  0
  144.8648  136.5553  152.4636 C   0  0  0  0  0  0  0  0  0  0  0  0
  145.6237  135.4458  151.7092 C   0  0  2  0  0  0  0  0  0  0  0  0
  145.4369  135.6211  150.3173 O   0  0  0  0  0  0  0  0  0  0  0  0
  145.1413  134.0379  152.1056 C   0  0  1  0  0  0  0  0  0  0  0  0
  143.7859  133.6430  151.5162 C   0  0  0  0  0  0  0  0  0  0  0  0
  143.8682  132.1343  151.5456 C   0  0  0  0  0  0  0  0  0  0  0  0
  145.3263  131.8970  151.1667 C   0  0  0  0  0  0  0  0  0  0  0  0
  146.0415  133.0450  151.6167 O   0  0  0  0  0  0  0  0  0  0  0  0
  149.9718  140.1258  155.7363 C   0  0  0  0  0  0  0  0  0  0  0  0
  151.1220  139.1513  155.4225 C   0  0  0  0  0  0  0  0  0  0  0  0
  150.6254  138.2765  156.5767 C   0  0  0  0  0  0  0  0  0  0  0  0
  149.2545  138.9331  156.3974 C   0  0  0  0  0  0  0  0  0  0  0  0
  152.3774  140.9349  159.0009 H   0  0  0  0  0  0  0  0  0  0  0  0
  151.0366  139.8893  158.5305 H   0  0  0  0  0  0  0  0  0  0  0  0
  150.7216  141.5276  159.1304 H   0  0  0  0  0  0  0  0  0  0  0  0
  149.4094  141.6986  157.1572 H   0  0  0  0  0  0  0  0  0  0  0  0
  149.8136  143.1452  155.2081 H   0  0  0  0  0  0  0  0  0  0  0  0
  151.2567  142.1879  154.7279 H   0  0  0  0  0  0  0  0  0  0  0  0
  149.7255  140.7198  153.6032 H   0  0  0  0  0  0  0  0  0  0  0  0
  146.3706  142.2602  153.6359 H   0  0  0  0  0  0  0  0  0  0  0  0
  147.9014  142.1635  152.7632 H   0  0  0  0  0  0  0  0  0  0  0  0
  147.6964  143.3194  154.0831 H   0  0  0  0  0  0  0  0  0  0  0  0
  145.3568  138.7648  157.0672 H   0  0  0  0  0  0  0  0  0  0  0  0
  146.5093  138.1345  150.7622 H   0  0  0  0  0  0  0  0  0  0  0  0
  144.5048  136.1836  153.4235 H   0  0  0  0  0  0  0  0  0  0  0  0
  143.9842  136.8675  151.9004 H   0  0  0  0  0  0  0  0  0  0  0  0
  146.6908  135.5313  151.9186 H   0  0  0  0  0  0  0  0  0  0  0  0
  145.7080  134.8307  149.8765 H   0  0  0  0  0  0  0  0  0  0  0  0
  145.1010  133.9420  153.1921 H   0  0  0  0  0  0  0  0  0  0  0  0
  142.9429  134.0353  152.0856 H   0  0  0  0  0  0  0  0  0  0  0  0
  143.6957  133.9916  150.4862 H   0  0  0  0  0  0  0  0  0  0  0  0
  143.6773  131.7691  152.5558 H   0  0  0  0  0  0  0  0  0  0  0  0
  143.1654  131.6506  150.8668 H   0  0  0  0  0  0  0  0  0  0  0  0
  145.7247  130.9821  151.6056 H   0  0  0  0  0  0  0  0  0  0  0  0
  145.4330  131.8271  150.0836 H   0  0  0  0  0  0  0  0  0  0  0  0
  151.0066  138.6660  154.4519 H   0  0  0  0  0  0  0  0  0  0  0  0
  152.1280  139.5517  155.5488 H   0  0  0  0  0  0  0  0  0  0  0  0
  150.6488  137.2042  156.3815 H   0  0  0  0  0  0  0  0  0  0  0  0
  151.0938  138.5276  157.5299 H   0  0  0  0  0  0  0  0  0  0  0  0
  148.7335  139.1665  157.3263 H   0  0  0  0  0  0  0  0  0  0  0  0
  148.6282  138.3557  155.7178 H   0  0  0  0  0  0  0  0  0  0  0  0
  1  2  1  0  0  0  0
  1 29  1  0  0  0  0
  1 30  1  0  0  0  0
  1 31  1  0  0  0  0
  2  3  1  0  0  0  0
  3 25  1  0  0  0  0
  3  4  1  0  0  0  0
  3 32  1  0  0  0  0
  4  5  1  0  0  0  0
  4 33  1  0  0  0  0
  4 34  1  0  0  0  0
  5  6  1  0  0  0  0
  5 25  1  0  0  0  0
  5 35  1  0  0  0  0
  6  7  1  0  0  0  0
  6  8  1  0  0  0  0
  7 36  1  0  0  0  0
  7 37  1  0  0  0  0
  7 38  1  0  0  0  0
  8 13  1  0  0  0  0
  8  9  2  0  0  0  0
  9 10  1  0  0  0  0
 10 11  2  0  0  0  0
 10 39  1  0  0  0  0
 11 12  1  0  0  0  0
 12 16  1  0  0  0  0
 12 13  2  0  0  0  0
 13 14  1  0  0  0  0
 14 15  2  0  0  0  0
 15 16  1  0  0  0  0
 15 40  1  0  0  0  0
 16 17  1  0  0  0  0
 17 18  1  0  0  0  0
 17 41  1  0  0  0  0
 17 42  1  0  0  0  0
 18 19  1  0  0  0  0
 18 20  1  0  0  0  0
 18 43  1  0  0  0  0
 19 44  1  0  0  0  0
 20 24  1  0  0  0  0
 20 21  1  0  0  0  0
 20 45  1  0  0  0  0
 21 22  1  0  0  0  0
 21 46  1  0  0  0  0
 21 47  1  0  0  0  0
 22 23  1  0  0  0  0
 22 48  1  0  0  0  0
 22 49  1  0  0  0  0
 23 24  1  0  0  0  0
 23 50  1  0  0  0  0
 23 51  1  0  0  0  0
 25 28  1  0  0  0  0
 25 26  1  0  0  0  0
 26 27  1  0  0  0  0
 26 52  1  0  0  0  0
 26 53  1  0  0  0  0
 27 28  1  0  0  0  0
 27 54  1  0  0  0  0
 27 55  1  0  0  0  0
 28 56  1  0  0  0  0
 28 57  1  0  0  0  0
M  END
> <s_m_source_file>
AV-unprocessed.smi

> <i_m_source_file_index>
276

> <i_lp_mmshare_version>
43012

> <i_f3d_flags>
0

> <s_epik_input>
W0NIMl0xW0NIMl1bQ0gyXUMxMltDQEhdKE9bQ0gzXSlbQ0gyXVtDQEhdMk4oW0NIM10pYyhuW2NIXW4zKWMoYzM0KW5bY0hdbjRbQ0gyXVtDQEhdKFtPSF0pW0NAQEhdNVtDSDJdW0NIMl1bQ0gyXU81

> <s_epik_cmdline>
J2VwaWtfcHl0aG9uJywgJy1waCcsICc3LjAnLCAnLXRuJywgJzgnLCAnLW1hJywgJzIwMCcsICctbWV0YWxfYmluZGluZycsICctaW1hZScsICc8aW5maWxlLm1hZT4nLCAnLW9tYWUnLCAnPG91dGZpbGUubWFlPic=

> <r_lp_tautomer_probability>
1

> <r_epik_Ionization_Penalty>
0.00204117

> <r_epik_Ionization_Penalty_Charging>
0

> <r_epik_Ionization_Penalty_Neutral>
0.00204117

> <r_epik_State_Penalty>
0.00127401

> <r_epik_Charging_Adjusted_Penalty>
0.00127401

> <i_epik_Tot_Q>
0

> <i_epik_Tot_abs_Q>
0

> <r_epik_Metal_State_Penalty>
-0

> <b_epik_Metal_Only>
0

> <s_lp_Force_Field>
OPLS_2005

> <r_lp_Energy>
57.2167

> <b_lp_Chiralities_Consistent>
1

> <s_lp_Variant>
AV-unprocessed.smi:276-12

> <Gold.Version>
5.8.1

> <Gold.Id.Protein>
6NUR|6NUR_protein|mol2

> <Gold.PLP.Fitness>
46.5566

> <Gold.PLP.PLP>
-43.3521

> <Gold.PLP.part.hbond>
-1.7684

> <Gold.PLP.part.metal>
0.0000

> <Gold.PLP.part.buried>
-5.0492

> <Gold.PLP.part.nonpolar>
-37.8071

> <Gold.PLP.part.repulsive>
2.0254

> <Gold.PLP.ligand.clash>
0.0000

> <Gold.PLP.ligand.torsion>
1.3041

> <Gold.PLP.Chemscore.Hbond>
1.0000

> <Gold.PLP.Chemscore.CHOScore>
0.6543

> <Gold.PLP.Chemscore.Metal>
0.0000

> <Gold.Chemscore.Hbonds>
donor molecule, donor type, donor heavy atom, donor atom, acceptor molecule, acceptor atom, score
      L1  H    19    44       P1  7921  0.16
      L1  C    15    40       P1 10171  0.13

> <Gold.PLP.Chemscore.Internal.Correction>
0.8501

> <Gold.Rescore>
     Score         DG    S(hbond)    S(metal)    S(lipo)     H(rot)  DE(clash)    DE(int)     intcor
     10.73     -13.12       0.99        0.00      96.52       2.72       0.23       2.16       ----

> <Gold.Chemscore.Fitness>
10.7256

> <Gold.Chemscore.DG>
-13.1186

> <Gold.Chemscore.ZeroCoef>
-5.4800

> <Gold.Chemscore.Hbond>
0.9887

> <Gold.Chemscore.Metal>
0.0000

> <Gold.Chemscore.Lipo>
96.5155

> <Gold.Chemscore.Internal_Hbond>
0.0000

> <Gold.Chemscore.DEClash>
0.2338

> <Gold.Chemscore.DEInternal>
2.1592

> <Gold.Chemscore.Rot>
2.7172

> <Gold.Chemscore.Internal.Correction>
   9.000000E+99

> <Gold.Chemscore.Hbonds>
donor molecule, donor type, donor heavy atom, donor atom, acceptor molecule, acceptor atom, score
      L1  H    19    44       P1  7921  0.15

> <Gold.Chemscore.Hbond.Weighted>
-3.3023

> <Gold.Chemscore.Metal.Weighted>
-0.0000

> <Gold.Chemscore.Lipo.Weighted>
-11.2923

> <Gold.Chemscore.Internal_Hbond.Weighted>
0.0000

> <Gold.Chemscore.DEClash.Weighted>
0.2338

> <Gold.Chemscore.DEInternal.Weighted>
2.1592

> <Gold.Chemscore.Rot.Weighted>
6.9560

> <Gold.Chemscore.Internal.Correction.Weighted>
   9.000000E+99

> <Gold.Protein.RotatedTorsions>
[ 6907 6896 6895 6894 ] final   78.49 input  -60.11 | X-H torsion
[ 7974 7965 7964 7962 ] final -114.42 input  175.53 | X-H torsion
[ 8008 7997 7996 7995 ] final -178.88 input   59.86 | X-H torsion
[ 10167 10162 10161 10158 ] final   46.57 input  -65.29 | X-H torsion
[ 10718 10713 10712 10709 ] final  -94.56 input   66.30 | X-H torsion
[ 10763 10752 10751 10750 ] final -152.40 input  -60.55 | X-H torsion
[ 11005 11000 10999 10996 ] final -121.68 input  -57.11 | X-H torsion

> <Gold.Protein.ActiveResidues>
 VAL166  LYS551  ARG553  GLY616  TRP617  ASP618  TYR619  PRO620  LYS621  CYS622 
 ASP623  PHE694  ASN695  SER759  ASP760  ASP761  ALA762  ILE779  LEU786  VAL792 
 PHE793  MET794  SER795  GLU796  ALA797  LYS798  CYS799  TRP800  GLU811  SER814 

> <Gold.Protein.RotatedAtoms>
  152.5161  134.3657  159.9300 H   0  0  0  0  0  0  0  0  0  0  0  0  # atno 6907 bound_to 6896
  151.3610  133.3883  159.2697 H   0  0  0  0  0  0  0  0  0  0  0  0  # atno 6908 bound_to 6896
  150.9652  134.9053  159.7813 H   0  0  0  0  0  0  0  0  0  0  0  0  # atno 6909 bound_to 6896
  145.1204  140.8665  143.3817 H   0  0  0  0  0  0  0  0  0  0  0  0  # atno 7974 bound_to 7965
  156.0240  140.1267  157.0328 H   0  0  0  0  0  0  0  0  0  0  0  0  # atno 8008 bound_to 7997
  154.4323  140.1063  156.6074 H   0  0  0  0  0  0  0  0  0  0  0  0  # atno 8009 bound_to 7997
  155.5904  140.3469  155.4567 H   0  0  0  0  0  0  0  0  0  0  0  0  # atno 8010 bound_to 7997
  140.3125  144.2803  150.6197 H   0  0  0  0  0  0  0  0  0  0  0  0  # atno 10167 bound_to 10162
  156.0029  130.5073  150.5945 H   0  0  0  0  0  0  0  0  0  0  0  0  # atno 10718 bound_to 10713
  154.7996  135.3237  154.7582 H   0  0  0  0  0  0  0  0  0  0  0  0  # atno 10763 bound_to 10752
  153.8252  135.6884  153.4826 H   0  0  0  0  0  0  0  0  0  0  0  0  # atno 10764 bound_to 10752
  153.1706  135.4625  154.9840 H   0  0  0  0  0  0  0  0  0  0  0  0  # atno 10765 bound_to 10752
  141.0052  134.0345  157.3486 H   0  0  0  0  0  0  0  0  0  0  0  0  # atno 11005 bound_to 11000
  145.0747  139.3005  143.5814 LP  0  0  0  0  0  0  0  0  0  0  0  0  # atno 17320 bound_to 7965
  146.3521  140.0233  142.8656 LP  0  0  0  0  0  0  0  0  0  0  0  0  # atno 17321 bound_to 7965
  140.5555  143.2199  151.7854 LP  0  0  0  0  0  0  0  0  0  0  0  0  # atno 17342 bound_to 10162
  139.4891  144.4419  151.9754 LP  0  0  0  0  0  0  0  0  0  0  0  0  # atno 17343 bound_to 10162
  157.3804  131.0780  151.1481 LP  0  0  0  0  0  0  0  0  0  0  0  0  # atno 17370 bound_to 10713
  157.2206  130.6479  149.5809 LP  0  0  0  0  0  0  0  0  0  0  0  0  # atno 17371 bound_to 10713
  139.9059  135.0179  156.7484 LP  0  0  0  0  0  0  0  0  0  0  0  0  # atno 17394 bound_to 11000
  140.6824  133.9462  155.7918 LP  0  0  0  0  0  0  0  0  0  0  0  0  # atno 17395 bound_to 11000

$$$$
