AV-unprocessed.smi:1047|AV-procd|sdf|4561|dock8
  -GOLD-   22720 3 03D 1   1.00000     0.00000
 Structure written by MMmdl.
 57 59  0  0  0  0  0  0  0  0  3 V2000
  146.9530  133.4122  151.5999 C   0  0  0  0  0  0  0  0  0  0  0  0
  147.1189  132.2378  152.5750 C   0  0  0  0  0  0  0  0  0  0  0  0
  148.5462  131.8893  152.8063 N   0  3  2  0  0  0  0  0  0  0  0  0
  148.7347  130.7470  153.7336 C   0  0  0  0  0  0  0  0  0  0  0  0
  148.5550  131.1841  155.1981 C   0  0  0  0  0  0  0  0  0  0  0  0
  149.4595  132.2429  155.4900 O   0  0  0  0  0  0  0  0  0  0  0  0
  149.2216  133.4007  154.6953 C   0  0  1  0  0  0  0  0  0  0  0  0
  150.2064  134.4933  155.1399 C   0  0  0  0  0  0  0  0  0  0  0  0
  149.7760  135.8272  154.6739 N   0  3  0  0  0  0  0  0  0  0  0  0
  150.8088  136.8750  154.8022 C   0  0  0  0  0  0  0  0  0  0  0  0
  150.1917  138.2805  154.7155 C   0  0  2  0  0  0  0  0  0  0  0  0
  149.5970  138.4355  153.4410 O   0  0  0  0  0  0  0  0  0  0  0  0
  151.2446  139.3858  154.9248 C   0  0  0  0  0  0  0  0  0  0  0  0
  151.7423  139.4260  156.2883 N   0  0  0  0  0  0  0  0  0  0  0  0
  152.2697  138.4065  156.9938 C   0  0  0  0  0  0  0  0  0  0  0  0
  152.6705  138.6682  158.2342 N   0  0  0  0  0  0  0  0  0  0  0  0
  152.3598  140.0121  158.3508 C   0  0  0  0  0  0  0  0  0  0  0  0
  152.5319  140.9026  159.4329 C   0  0  0  0  0  0  0  0  0  0  0  0
  152.1326  142.2542  159.3297 C   0  0  0  0  0  0  0  0  0  0  0  0
  152.3340  143.1763  160.5195 C   0  0  0  0  0  0  0  0  0  0  0  0
  151.5523  142.7342  158.1280 C   0  0  0  0  0  0  0  0  0  0  0  0
  151.1134  144.1819  157.9965 C   0  0  0  0  0  0  0  0  0  0  0  0
  151.3765  141.8588  157.0356 C   0  0  0  0  0  0  0  0  0  0  0  0
  151.7761  140.5156  157.1514 C   0  0  0  0  0  0  0  0  0  0  0  0
  149.4118  133.0292  153.2068 C   0  0  0  0  0  0  0  0  0  0  0  0
  145.8988  133.5781  151.3764 H   0  0  0  0  0  0  0  0  0  0  0  0
  147.4621  133.2159  150.6556 H   0  0  0  0  0  0  0  0  0  0  0  0
  147.3453  134.3436  152.0070 H   0  0  0  0  0  0  0  0  0  0  0  0
  146.6096  132.4492  153.5151 H   0  0  0  0  0  0  0  0  0  0  0  0
  146.6101  131.3763  152.1411 H   0  0  0  0  0  0  0  0  0  0  0  0
  148.0561  129.9302  153.4854 H   0  0  0  0  0  0  0  0  0  0  0  0
  149.7443  130.3569  153.5963 H   0  0  0  0  0  0  0  0  0  0  0  0
  147.5287  131.4965  155.3970 H   0  0  0  0  0  0  0  0  0  0  0  0
  148.7658  130.3488  155.8661 H   0  0  0  0  0  0  0  0  0  0  0  0
  148.2044  133.7581  154.8638 H   0  0  0  0  0  0  0  0  0  0  0  0
  150.3060  134.4973  156.2264 H   0  0  0  0  0  0  0  0  0  0  0  0
  151.1946  134.2856  154.7273 H   0  0  0  0  0  0  0  0  0  0  0  0
  149.5174  135.7642  153.6991 H   0  0  0  0  0  0  0  0  0  0  0  0
  151.3090  136.7510  155.7636 H   0  0  0  0  0  0  0  0  0  0  0  0
  151.5668  136.7437  154.0282 H   0  0  0  0  0  0  0  0  0  0  0  0
  149.4125  138.3820  155.4724 H   0  0  0  0  0  0  0  0  0  0  0  0
  149.7882  137.6664  152.9248 H   0  0  0  0  0  0  0  0  0  0  0  0
  152.0941  139.2292  154.2587 H   0  0  0  0  0  0  0  0  0  0  0  0
  150.8297  140.3637  154.6750 H   0  0  0  0  0  0  0  0  0  0  0  0
  152.3705  137.4176  156.5705 H   0  0  0  0  0  0  0  0  0  0  0  0
  152.9739  140.5370  160.3482 H   0  0  0  0  0  0  0  0  0  0  0  0
  151.3832  143.6043  160.8378 H   0  0  0  0  0  0  0  0  0  0  0  0
  153.0114  143.9901  160.2606 H   0  0  0  0  0  0  0  0  0  0  0  0
  152.7605  142.6429  161.3694 H   0  0  0  0  0  0  0  0  0  0  0  0
  150.7129  144.3885  157.0036 H   0  0  0  0  0  0  0  0  0  0  0  0
  151.9554  144.8538  158.1637 H   0  0  0  0  0  0  0  0  0  0  0  0
  150.3359  144.4125  158.7253 H   0  0  0  0  0  0  0  0  0  0  0  0
  150.9358  142.2115  156.1150 H   0  0  0  0  0  0  0  0  0  0  0  0
  150.4490  132.7349  153.0395 H   0  0  0  0  0  0  0  0  0  0  0  0
  149.2391  133.8943  152.5675 H   0  0  0  0  0  0  0  0  0  0  0  0
  148.9644  136.1101  155.2046 H   0  0  0  0  0  0  0  0  0  0  0  0
  148.8845  131.5714  151.9087 H   0  0  0  0  0  0  0  0  0  0  0  0
  1  2  1  0  0  0  0
  1 26  1  0  0  0  0
  1 27  1  0  0  0  0
  1 28  1  0  0  0  0
  2  3  1  0  0  0  0
  2 29  1  0  0  0  0
  2 30  1  0  0  0  0
  3 25  1  0  0  0  0
  3  4  1  0  0  0  0
  3 57  1  0  0  0  0
  4  5  1  0  0  0  0
  4 31  1  0  0  0  0
  4 32  1  0  0  0  0
  5  6  1  0  0  0  0
  5 33  1  0  0  0  0
  5 34  1  0  0  0  0
  6  7  1  0  0  0  0
  7  8  1  0  0  0  0
  7 25  1  0  0  0  0
  7 35  1  0  0  0  0
  8  9  1  0  0  0  0
  8 36  1  0  0  0  0
  8 37  1  0  0  0  0
  9 10  1  0  0  0  0
  9 38  1  0  0  0  0
  9 56  1  0  0  0  0
 10 11  1  0  0  0  0
 10 39  1  0  0  0  0
 10 40  1  0  0  0  0
 11 12  1  0  0  0  0
 11 13  1  0  0  0  0
 11 41  1  0  0  0  0
 12 42  1  0  0  0  0
 13 14  1  0  0  0  0
 13 43  1  0  0  0  0
 13 44  1  0  0  0  0
 14 24  1  0  0  0  0
 14 15  1  0  0  0  0
 15 16  2  0  0  0  0
 15 45  1  0  0  0  0
 16 17  1  0  0  0  0
 17 24  2  0  0  0  0
 17 18  1  0  0  0  0
 18 19  2  0  0  0  0
 18 46  1  0  0  0  0
 19 20  1  0  0  0  0
 19 21  1  0  0  0  0
 20 47  1  0  0  0  0
 20 48  1  0  0  0  0
 20 49  1  0  0  0  0
 21 22  1  0  0  0  0
 21 23  2  0  0  0  0
 22 50  1  0  0  0  0
 22 51  1  0  0  0  0
 22 52  1  0  0  0  0
 23 24  1  0  0  0  0
 23 53  1  0  0  0  0
 25 54  1  0  0  0  0
 25 55  1  0  0  0  0
M  CHG  1   3   1
M  CHG  1   9   1
M  END
> <s_m_source_file>
AV-unprocessed.smi

> <i_m_source_file_index>
1047

> <i_lp_mmshare_version>
43012

> <i_f3d_flags>
0

> <s_epik_input>
W0NIM11bQ0gyXU4xW0NIMl1bQ0gyXU9bQ0BIXShbQ0gyXTEpW0NIMl1bTkhdW0NIMl1bQ0BIXShbT0hdKVtDSDJdbihbY0hdbjIpYyhjMjMpW2NIXWMoW0NIM10pYyhbY0hdMylbQ0gzXQ==

> <s_epik_cmdline>
J2VwaWtfcHl0aG9uJywgJy1waCcsICc3LjAnLCAnLXRuJywgJzgnLCAnLW1hJywgJzIwMCcsICctbWV0YWxfYmluZGluZycsICctaW1hZScsICc8aW5maWxlLm1hZT4nLCAnLW9tYWUnLCAnPG91dGZpbGUubWFlPic=

> <r_epik_Ionization_Penalty>
0.528991

> <r_epik_Ionization_Penalty_Charging>
0.438567

> <r_epik_Ionization_Penalty_Neutral>
0.0904237

> <r_epik_State_Penalty>
0.533036

> <r_epik_Charging_Adjusted_Penalty>
0.971603

> <i_epik_Tot_Q>
2

> <i_epik_Tot_abs_Q>
2

> <r_epik_Metal_State_Penalty>
0.448985

> <b_epik_Metal_Only>
0

> <s_lp_Force_Field>
OPLS_2005

> <r_lp_Energy>
30.8403

> <b_lp_Chiralities_Consistent>
1

> <s_lp_Variant>
AV-unprocessed.smi:1047-2

> <Gold.Version>
5.8.1

> <Gold.Id.Protein>
6NUR|6NUR_protein|mol2

> <Gold.PLP.Fitness>
59.6394

> <Gold.PLP.PLP>
-48.2693

> <Gold.PLP.part.hbond>
-4.0000

> <Gold.PLP.part.metal>
0.0000

> <Gold.PLP.part.buried>
-6.2943

> <Gold.PLP.part.nonpolar>
-38.5363

> <Gold.PLP.part.repulsive>
0.0392

> <Gold.PLP.ligand.clash>
0.0000

> <Gold.PLP.ligand.torsion>
0.3589

> <Gold.PLP.Chemscore.Hbond>
4.0000

> <Gold.PLP.Chemscore.CHOScore>
0.0000

> <Gold.PLP.Chemscore.Metal>
0.0000

> <Gold.Chemscore.Hbonds>
donor molecule, donor type, donor heavy atom, donor atom, acceptor molecule, acceptor atom, score
      L1  H     3    57       P1 10747  1.00
      L1  H     9    38       P1  7948  2.00
      L1  H    12    42       P1  7948  0.90

> <Gold.PLP.Chemscore.Internal.Correction>
0.0879

> <Gold.Rescore>
     Score         DG    S(hbond)    S(metal)    S(lipo)     H(rot)  DE(clash)    DE(int)     intcor
     22.36     -22.81       2.86        0.00     125.48       2.70       0.04       0.41       ----

> <Gold.Chemscore.Fitness>
22.3613

> <Gold.Chemscore.DG>
-22.8106

> <Gold.Chemscore.ZeroCoef>
-5.4800

> <Gold.Chemscore.Hbond>
2.8616

> <Gold.Chemscore.Metal>
0.0000

> <Gold.Chemscore.Lipo>
125.4793

> <Gold.Chemscore.Internal_Hbond>
0.0000

> <Gold.Chemscore.DEClash>
0.0375

> <Gold.Chemscore.DEInternal>
0.4118

> <Gold.Chemscore.Rot>
2.6985

> <Gold.Chemscore.Internal.Correction>
   9.000000E+99

> <Gold.Chemscore.Hbonds>
donor molecule, donor type, donor heavy atom, donor atom, acceptor molecule, acceptor atom, score
      L1  H     3    57       P1 10747  0.88
      L1  H     9    38       P1  7948  0.34
      L1  H    12    42       P1  7948  0.39

> <Gold.Chemscore.Hbond.Weighted>
-9.5576

> <Gold.Chemscore.Metal.Weighted>
-0.0000

> <Gold.Chemscore.Lipo.Weighted>
-14.6811

> <Gold.Chemscore.Internal_Hbond.Weighted>
0.0000

> <Gold.Chemscore.DEClash.Weighted>
0.0375

> <Gold.Chemscore.DEInternal.Weighted>
0.4118

> <Gold.Chemscore.Rot.Weighted>
6.9081

> <Gold.Chemscore.Internal.Correction.Weighted>
   9.000000E+99

> <Gold.Protein.RotatedTorsions>
[ 6907 6896 6895 6894 ] final  -10.93 input  -60.11 | X-H torsion
[ 7974 7965 7964 7962 ] final  153.34 input  175.53 | X-H torsion
[ 8008 7997 7996 7995 ] final   66.79 input   59.86 | X-H torsion
[ 10167 10162 10161 10158 ] final  172.22 input  -65.29 | X-H torsion
[ 10718 10713 10712 10709 ] final  167.85 input   66.30 | X-H torsion
[ 10763 10752 10751 10750 ] final -153.48 input  -60.55 | X-H torsion
[ 11005 11000 10999 10996 ] final  -83.49 input  -57.11 | X-H torsion

> <Gold.Protein.ActiveResidues>
 VAL166  LYS551  ARG553  GLY616  TRP617  ASP618  TYR619  PRO620  LYS621  CYS622 
 ASP623  PHE694  ASN695  SER759  ASP760  ASP761  ALA762  ILE779  LEU786  VAL792 
 PHE793  MET794  SER795  GLU796  ALA797  LYS798  CYS799  TRP800  GLU811  SER814 

> <Gold.Protein.RotatedAtoms>
  151.3942  135.0961  159.9535 H   0  0  0  0  0  0  0  0  0  0  0  0  # atno 6907 bound_to 6896
  152.5070  133.8951  159.7423 H   0  0  0  0  0  0  0  0  0  0  0  0  # atno 6908 bound_to 6896
  150.9411  133.6600  159.2819 H   0  0  0  0  0  0  0  0  0  0  0  0  # atno 6909 bound_to 6896
  144.8161  139.6787  143.6120 H   0  0  0  0  0  0  0  0  0  0  0  0  # atno 7974 bound_to 7965
  155.6828  140.3496  155.4862 H   0  0  0  0  0  0  0  0  0  0  0  0  # atno 8008 bound_to 7997
  155.9592  140.1134  157.0933 H   0  0  0  0  0  0  0  0  0  0  0  0  # atno 8009 bound_to 7997
  154.4139  140.1179  156.5142 H   0  0  0  0  0  0  0  0  0  0  0  0  # atno 8010 bound_to 7997
  139.5070  144.3399  152.0029 H   0  0  0  0  0  0  0  0  0  0  0  0  # atno 10167 bound_to 10162
  157.0456  131.0299  151.2698 H   0  0  0  0  0  0  0  0  0  0  0  0  # atno 10718 bound_to 10713
  154.7925  135.3212  154.7744 H   0  0  0  0  0  0  0  0  0  0  0  0  # atno 10763 bound_to 10752
  153.8430  135.6869  153.4805 H   0  0  0  0  0  0  0  0  0  0  0  0  # atno 10764 bound_to 10752
  153.1601  135.4664  154.9701 H   0  0  0  0  0  0  0  0  0  0  0  0  # atno 10765 bound_to 10752
  141.1657  133.7297  156.8727 H   0  0  0  0  0  0  0  0  0  0  0  0  # atno 11005 bound_to 11000
  146.2464  139.6108  142.9456 LP  0  0  0  0  0  0  0  0  0  0  0  0  # atno 17320 bound_to 7965
  145.5211  141.0432  143.2435 LP  0  0  0  0  0  0  0  0  0  0  0  0  # atno 17321 bound_to 7965
  140.2837  144.3831  150.6111 LP  0  0  0  0  0  0  0  0  0  0  0  0  # atno 17342 bound_to 10162
  140.5999  143.2167  151.7092 LP  0  0  0  0  0  0  0  0  0  0  0  0  # atno 17343 bound_to 10162
  157.5070  130.7915  149.7665 LP  0  0  0  0  0  0  0  0  0  0  0  0  # atno 17370 bound_to 10713
  156.0024  130.3873  150.2556 LP  0  0  0  0  0  0  0  0  0  0  0  0  # atno 17371 bound_to 10713
  140.1770  134.9060  157.2903 LP  0  0  0  0  0  0  0  0  0  0  0  0  # atno 17394 bound_to 11000
  140.2437  134.3764  155.7470 LP  0  0  0  0  0  0  0  0  0  0  0  0  # atno 17395 bound_to 11000

$$$$
