AV-unprocessed.smi:249|AV-procd|sdf|1924|dock5
  -GOLD-   2262021 33D 1   1.00000     0.00000
 Structure written by MMmdl.
 64 67  0  0  0  0  0  0  0  0  2 V2000
  146.6258  129.4120  152.6378 C   0  0  0  0  0  0  0  0  0  0  0  0
  146.9185  130.7739  153.2859 C   0  0  0  0  0  0  0  0  0  0  0  0
  148.1932  131.3895  152.8114 N   0  3  2  0  0  0  0  0  0  0  0  0
  149.3743  131.0821  153.6672 C   0  0  0  0  0  0  0  0  0  0  0  0
  149.3345  131.8505  155.0023 C   0  0  0  0  0  0  0  0  0  0  0  0
  149.2198  133.3678  154.7565 C   0  0  2  0  0  0  0  0  0  0  0  0
  149.1813  134.1379  156.0053 N   0  0  0  0  0  0  0  0  0  0  0  0
  149.3327  133.4521  157.2885 C   0  0  0  0  0  0  0  0  0  0  0  0
  149.6796  135.3994  155.9268 C   0  0  0  0  0  0  0  0  0  0  0  0
  150.0650  135.8967  154.7210 N   0  0  0  0  0  0  0  0  0  0  0  0
  150.5380  137.1426  154.6238 C   0  0  0  0  0  0  0  0  0  0  0  0
  150.7031  138.0493  155.5883 N   0  0  0  0  0  0  0  0  0  0  0  0
  150.3233  137.5565  156.8013 C   0  0  0  0  0  0  0  0  0  0  0  0
  149.8129  136.2528  157.0589 C   0  0  0  0  0  0  0  0  0  0  0  0
  149.5590  136.1052  158.4179 N   0  0  0  0  0  0  0  0  0  0  0  0
  149.8873  137.2591  158.9315 C   0  0  0  0  0  0  0  0  0  0  0  0
  150.3312  138.1981  158.0278 N   0  0  0  0  0  0  0  0  0  0  0  0
  150.7588  139.5540  158.3264 C   0  0  0  0  0  0  0  0  0  0  0  0
  152.2311  139.8766  157.9433 C   0  0  2  0  0  0  0  0  0  0  0  0
  153.1591  138.7923  158.5425 C   0  0  0  0  0  0  0  0  0  0  0  0
  154.4307  138.8038  157.9268 O   0  0  0  0  0  0  0  0  0  0  0  0
  152.6804  141.3060  158.3725 C   0  0  1  0  0  0  0  0  0  0  0  0
  151.7745  142.4336  157.8992 C   0  0  0  0  0  0  0  0  0  0  0  0
  152.1752  143.5823  158.8132 C   0  0  0  0  0  0  0  0  0  0  0  0
  152.4201  142.9705  160.0695 O   0  0  0  0  0  0  0  0  0  0  0  0
  152.6856  141.5831  159.8858 C   0  0  0  0  0  0  0  0  0  0  0  0
  148.0264  133.6760  153.8308 C   0  0  0  0  0  0  0  0  0  0  0  0
  148.1232  132.8563  152.5270 C   0  0  2  0  0  0  0  0  0  0  0  0
  147.0326  133.2366  151.5094 C   0  0  0  0  0  0  0  0  0  0  0  0
  145.6190  129.0797  152.8914 H   0  0  0  0  0  0  0  0  0  0  0  0
  147.3094  128.6363  152.9811 H   0  0  0  0  0  0  0  0  0  0  0  0
  146.6895  129.4677  151.5508 H   0  0  0  0  0  0  0  0  0  0  0  0
  146.0816  131.4205  153.0296 H   0  0  0  0  0  0  0  0  0  0  0  0
  146.9088  130.6804  154.3715 H   0  0  0  0  0  0  0  0  0  0  0  0
  149.4708  130.0124  153.8447 H   0  0  0  0  0  0  0  0  0  0  0  0
  150.2754  131.3640  153.1203 H   0  0  0  0  0  0  0  0  0  0  0  0
  148.5033  131.4941  155.6103 H   0  0  0  0  0  0  0  0  0  0  0  0
  150.2401  131.6348  155.5709 H   0  0  0  0  0  0  0  0  0  0  0  0
  150.1119  133.6528  154.2006 H   0  0  0  0  0  0  0  0  0  0  0  0
  149.1020  134.1247  158.1157 H   0  0  0  0  0  0  0  0  0  0  0  0
  150.3521  133.0886  157.4195 H   0  0  0  0  0  0  0  0  0  0  0  0
  148.6548  132.6035  157.3682 H   0  0  0  0  0  0  0  0  0  0  0  0
  150.8204  137.4599  153.6308 H   0  0  0  0  0  0  0  0  0  0  0  0
  149.8006  137.4619  159.9893 H   0  0  0  0  0  0  0  0  0  0  0  0
  150.0857  140.2485  157.8220 H   0  0  0  0  0  0  0  0  0  0  0  0
  150.5995  139.7014  159.3946 H   0  0  0  0  0  0  0  0  0  0  0  0
  152.3313  139.8136  156.8592 H   0  0  0  0  0  0  0  0  0  0  0  0
  153.3325  138.9566  159.6049 H   0  0  0  0  0  0  0  0  0  0  0  0
  152.7157  137.8015  158.4392 H   0  0  0  0  0  0  0  0  0  0  0  0
  154.7110  137.9105  157.7978 H   0  0  0  0  0  0  0  0  0  0  0  0
  153.6813  141.4967  157.9814 H   0  0  0  0  0  0  0  0  0  0  0  0
  151.9090  142.6857  156.8470 H   0  0  0  0  0  0  0  0  0  0  0  0
  150.7264  142.1764  158.0614 H   0  0  0  0  0  0  0  0  0  0  0  0
  153.0965  144.0478  158.4607 H   0  0  0  0  0  0  0  0  0  0  0  0
  151.4074  144.3531  158.8839 H   0  0  0  0  0  0  0  0  0  0  0  0
  151.8989  141.0233  160.3926 H   0  0  0  0  0  0  0  0  0  0  0  0
  153.6373  141.3262  160.3491 H   0  0  0  0  0  0  0  0  0  0  0  0
  147.0794  133.4634  154.3257 H   0  0  0  0  0  0  0  0  0  0  0  0
  148.0180  134.7412  153.5959 H   0  0  0  0  0  0  0  0  0  0  0  0
  149.0709  133.1140  152.0508 H   0  0  0  0  0  0  0  0  0  0  0  0
  147.1605  134.2685  151.1810 H   0  0  0  0  0  0  0  0  0  0  0  0
  146.0301  133.1620  151.9308 H   0  0  0  0  0  0  0  0  0  0  0  0
  147.0792  132.6041  150.6225 H   0  0  0  0  0  0  0  0  0  0  0  0
  148.3784  130.9521  151.9201 H   0  0  0  0  0  0  0  0  0  0  0  0
  1  2  1  0  0  0  0
  1 30  1  0  0  0  0
  1 31  1  0  0  0  0
  1 32  1  0  0  0  0
  2  3  1  0  0  0  0
  2 33  1  0  0  0  0
  2 34  1  0  0  0  0
  3 28  1  0  0  0  0
  3  4  1  0  0  0  0
  3 64  1  0  0  0  0
  4  5  1  0  0  0  0
  4 35  1  0  0  0  0
  4 36  1  0  0  0  0
  5  6  1  0  0  0  0
  5 37  1  0  0  0  0
  5 38  1  0  0  0  0
  6  7  1  0  0  0  0
  6 27  1  0  0  0  0
  6 39  1  0  0  0  0
  7  8  1  0  0  0  0
  7  9  1  0  0  0  0
  8 40  1  0  0  0  0
  8 41  1  0  0  0  0
  8 42  1  0  0  0  0
  9 14  1  0  0  0  0
  9 10  2  0  0  0  0
 10 11  1  0  0  0  0
 11 12  2  0  0  0  0
 11 43  1  0  0  0  0
 12 13  1  0  0  0  0
 13 17  1  0  0  0  0
 13 14  2  0  0  0  0
 14 15  1  0  0  0  0
 15 16  2  0  0  0  0
 16 17  1  0  0  0  0
 16 44  1  0  0  0  0
 17 18  1  0  0  0  0
 18 19  1  0  0  0  0
 18 45  1  0  0  0  0
 18 46  1  0  0  0  0
 19 20  1  0  0  0  0
 19 22  1  0  0  0  0
 19 47  1  0  0  0  0
 20 21  1  0  0  0  0
 20 48  1  0  0  0  0
 20 49  1  0  0  0  0
 21 50  1  0  0  0  0
 22 26  1  0  0  0  0
 22 23  1  0  0  0  0
 22 51  1  0  0  0  0
 23 24  1  0  0  0  0
 23 52  1  0  0  0  0
 23 53  1  0  0  0  0
 24 25  1  0  0  0  0
 24 54  1  0  0  0  0
 24 55  1  0  0  0  0
 25 26  1  0  0  0  0
 26 56  1  0  0  0  0
 26 57  1  0  0  0  0
 27 28  1  0  0  0  0
 27 58  1  0  0  0  0
 27 59  1  0  0  0  0
 28 29  1  0  0  0  0
 28 60  1  0  0  0  0
 29 61  1  0  0  0  0
 29 62  1  0  0  0  0
 29 63  1  0  0  0  0
M  CHG  1   3   1
M  END
> <s_m_source_file>
AV-unprocessed.smi

> <i_m_source_file_index>
249

> <i_lp_mmshare_version>
43012

> <i_f3d_flags>
0

> <s_epik_input>
W0NIM11bQ0gyXU4xW0NIMl1bQ0gyXVtDQEhdKFtDSDJdW0NASF0xW0NIM10pTihbQ0gzXSljKG5bY0hdbjIpYyhjMjMpbltjSF1uM1tDSDJdW0NASF0oW0NIMl1bT0hdKVtDQEBIXTRbQ0gyXVtDSDJdT1tDSDJdNA==

> <s_epik_cmdline>
J2VwaWtfcHl0aG9uJywgJy1waCcsICc3LjAnLCAnLXRuJywgJzgnLCAnLW1hJywgJzIwMCcsICctbWV0YWxfYmluZGluZycsICctaW1hZScsICc8aW5maWxlLm1hZT4nLCAnLW9tYWUnLCAnPG91dGZpbGUubWFlPic=

> <r_lp_tautomer_probability>
1

> <r_epik_Ionization_Penalty>
0.00294688

> <r_epik_Ionization_Penalty_Charging>
0.00169971

> <r_epik_Ionization_Penalty_Neutral>
0.00124717

> <r_epik_State_Penalty>
-0

> <r_epik_Charging_Adjusted_Penalty>
0.00169971

> <i_epik_Tot_Q>
1

> <i_epik_Tot_abs_Q>
1

> <r_epik_Metal_State_Penalty>
-0

> <b_epik_Metal_Only>
0

> <s_lp_Force_Field>
OPLS_2005

> <r_lp_Energy>
54.5526

> <b_lp_Chiralities_Consistent>
1

> <s_lp_Variant>
AV-unprocessed.smi:249-27

> <Gold.Version>
5.8.1

> <Gold.Id.Protein>
6NUR|6NUR_protein|mol2

> <Gold.PLP.Fitness>
51.8358

> <Gold.PLP.PLP>
-42.8394

> <Gold.PLP.part.hbond>
-3.0000

> <Gold.PLP.part.metal>
0.0000

> <Gold.PLP.part.buried>
-7.1026

> <Gold.PLP.part.nonpolar>
-32.3527

> <Gold.PLP.part.repulsive>
0.2137

> <Gold.PLP.ligand.clash>
0.0000

> <Gold.PLP.ligand.torsion>
1.2182

> <Gold.PLP.Chemscore.Hbond>
3.0000

> <Gold.PLP.Chemscore.CHOScore>
0.4388

> <Gold.PLP.Chemscore.Metal>
0.0000

> <Gold.Chemscore.Hbonds>
donor molecule, donor type, donor heavy atom, donor atom, acceptor molecule, acceptor atom, score
      L1  H     3    64       P1 10747  1.00
      P1  H  6896  6908       L1    15  0.60
      P1  H  7997  8008       L1    21  0.80
      L1  C    11    43       P1  7948  0.09
      L1  C    11    43       P1  7949  0.68

> <Gold.PLP.Chemscore.Internal.Correction>
1.1166

> <Gold.Rescore>
     Score         DG    S(hbond)    S(metal)    S(lipo)     H(rot)  DE(clash)    DE(int)     intcor
     16.98     -19.72       2.61        0.00     105.06       2.65       0.01       2.73       ----

> <Gold.Chemscore.Fitness>
16.9825

> <Gold.Chemscore.DG>
-19.7168

> <Gold.Chemscore.ZeroCoef>
-5.4800

> <Gold.Chemscore.Hbond>
2.6145

> <Gold.Chemscore.Metal>
0.0000

> <Gold.Chemscore.Lipo>
105.0642

> <Gold.Chemscore.Internal_Hbond>
0.0000

> <Gold.Chemscore.DEClash>
0.0066

> <Gold.Chemscore.DEInternal>
2.7277

> <Gold.Chemscore.Rot>
2.6515

> <Gold.Chemscore.Internal.Correction>
   9.000000E+99

> <Gold.Chemscore.Hbonds>
donor molecule, donor type, donor heavy atom, donor atom, acceptor molecule, acceptor atom, score
      L1  H     3    64       P1 10747  0.98
      P1  H  6896  6908       L1    15  0.13
      P1  H  7997  8008       L1    21  0.75

> <Gold.Chemscore.Hbond.Weighted>
-8.7323

> <Gold.Chemscore.Metal.Weighted>
-0.0000

> <Gold.Chemscore.Lipo.Weighted>
-12.2925

> <Gold.Chemscore.Internal_Hbond.Weighted>
0.0000

> <Gold.Chemscore.DEClash.Weighted>
0.0066

> <Gold.Chemscore.DEInternal.Weighted>
2.7277

> <Gold.Chemscore.Rot.Weighted>
6.7880

> <Gold.Chemscore.Internal.Correction.Weighted>
   9.000000E+99

> <Gold.Protein.RotatedTorsions>
[ 6907 6896 6895 6894 ] final -173.64 input  -60.11 | X-H torsion
[ 7974 7965 7964 7962 ] final -133.70 input  175.53 | X-H torsion
[ 8008 7997 7996 7995 ] final -107.50 input   59.86 | X-H torsion
[ 10167 10162 10161 10158 ] final   53.32 input  -65.29 | X-H torsion
[ 10718 10713 10712 10709 ] final -135.51 input   66.30 | X-H torsion
[ 10763 10752 10751 10750 ] final   44.42 input  -60.55 | X-H torsion
[ 11005 11000 10999 10996 ] final   29.95 input  -57.11 | X-H torsion

> <Gold.Protein.ActiveResidues>
 VAL166  LYS551  ARG553  GLY616  TRP617  ASP618  TYR619  PRO620  LYS621  CYS622 
 ASP623  PHE694  ASN695  SER759  ASP760  ASP761  ALA762  ILE779  LEU786  VAL792 
 PHE793  MET794  SER795  GLU796  ALA797  LYS798  CYS799  TRP800  GLU811  SER814 

> <Gold.Protein.RotatedAtoms>
  151.5594  133.3405  159.2967 H   0  0  0  0  0  0  0  0  0  0  0  0  # atno 6907 bound_to 6896
  150.8431  134.7734  159.6960 H   0  0  0  0  0  0  0  0  0  0  0  0  # atno 6908 bound_to 6896
  152.4495  134.5432  159.9896 H   0  0  0  0  0  0  0  0  0  0  0  0  # atno 6909 bound_to 6896
  144.9169  140.6966  143.4990 H   0  0  0  0  0  0  0  0  0  0  0  0  # atno 7974 bound_to 7965
  154.9302  140.0405  157.2044 H   0  0  0  0  0  0  0  0  0  0  0  0  # atno 8008 bound_to 7997
  154.8168  140.2877  155.5793 H   0  0  0  0  0  0  0  0  0  0  0  0  # atno 8009 bound_to 7997
  156.2976  140.2526  156.3067 H   0  0  0  0  0  0  0  0  0  0  0  0  # atno 8010 bound_to 7997
  140.2421  144.3573  150.6377 H   0  0  0  0  0  0  0  0  0  0  0  0  # atno 10167 bound_to 10162
  156.2670  130.7243  151.1197 H   0  0  0  0  0  0  0  0  0  0  0  0  # atno 10718 bound_to 10713
  152.9841  135.6071  154.3271 H   0  0  0  0  0  0  0  0  0  0  0  0  # atno 10763 bound_to 10752
  154.2977  135.2773  155.2627 H   0  0  0  0  0  0  0  0  0  0  0  0  # atno 10764 bound_to 10752
  154.4894  135.5896  153.6504 H   0  0  0  0  0  0  0  0  0  0  0  0  # atno 10765 bound_to 10752
  140.2995  134.2772  155.7757 H   0  0  0  0  0  0  0  0  0  0  0  0  # atno 11005 bound_to 11000
  145.3360  139.1745  143.4511 LP  0  0  0  0  0  0  0  0  0  0  0  0  # atno 17320 bound_to 7965
  146.3186  140.3396  142.8647 LP  0  0  0  0  0  0  0  0  0  0  0  0  # atno 17321 bound_to 7965
  140.6106  143.2169  151.6894 LP  0  0  0  0  0  0  0  0  0  0  0  0  # atno 17342 bound_to 10162
  139.5074  144.3648  152.0528 LP  0  0  0  0  0  0  0  0  0  0  0  0  # atno 17343 bound_to 10162
  157.7271  131.0642  150.5882 LP  0  0  0  0  0  0  0  0  0  0  0  0  # atno 17370 bound_to 10713
  156.5974  130.4345  149.5911 LP  0  0  0  0  0  0  0  0  0  0  0  0  # atno 17371 bound_to 10713
  141.2131  133.7637  156.9746 LP  0  0  0  0  0  0  0  0  0  0  0  0  # atno 17394 bound_to 11000
  140.1122  134.9470  157.2081 LP  0  0  0  0  0  0  0  0  0  0  0  0  # atno 17395 bound_to 11000

$$$$
