AV-unprocessed.smi:2450|AV-procd|sdf|9665|dock4
  -GOLD-   2272013303D 1   1.00000     0.00000
 Structure written by MMmdl.
 41 42  0  0  0  0  0  0  0  0  1 V2000
  147.2096  136.0269  162.3305 C   0  0  0  0  0  0  0  0  0  0  0  0
  147.8770  136.7256  161.1367 C   0  0  0  0  0  0  0  0  0  0  0  0
  147.2009  136.4230  159.7865 C   0  0  2  0  0  0  0  0  0  0  0  0
  147.3680  134.9493  159.3857 C   0  0  0  0  0  0  0  0  0  0  0  0
  147.7512  137.2846  158.7425 N   0  0  0  0  0  0  0  0  0  0  0  0
  149.0138  137.2575  158.2930 C   0  0  0  0  0  0  0  0  0  0  0  0
  149.8736  136.4855  158.7176 O   0  0  0  0  0  0  0  0  0  0  0  0
  149.1971  138.1662  157.3205 N   0  0  0  0  0  0  0  0  0  0  0  0
  150.3635  138.4048  156.5397 C   0  0  0  0  0  0  0  0  0  0  0  0
  151.5949  137.7656  156.8256 C   0  0  0  0  0  0  0  0  0  0  0  0
  152.7327  138.0883  156.0661 C   0  0  0  0  0  0  0  0  0  0  0  0
  152.6044  139.0543  155.0547 C   0  0  0  0  0  0  0  0  0  0  0  0
  151.4440  139.6822  154.7792 N   0  0  0  0  0  0  0  0  0  0  0  0
  150.3340  139.3712  155.4933 C   0  0  0  0  0  0  0  0  0  0  0  0
  149.1436  140.0530  155.1507 N   0  0  0  0  0  0  0  0  0  0  0  0
  149.1985  141.3741  154.5341 C   0  0  0  0  0  0  0  0  0  0  0  0
  147.7964  141.6089  153.9804 C   0  0  0  0  0  0  0  0  0  0  0  0
  147.3890  140.2113  153.5242 C   0  0  0  0  0  0  0  0  0  0  0  0
  148.0605  139.2846  154.5435 C   0  0  0  0  0  0  0  0  0  0  0  0
  147.7503  136.2382  163.2530 H   0  0  0  0  0  0  0  0  0  0  0  0
  147.1954  134.9451  162.1949 H   0  0  0  0  0  0  0  0  0  0  0  0
  146.1809  136.3609  162.4684 H   0  0  0  0  0  0  0  0  0  0  0  0
  147.8903  137.8023  161.3109 H   0  0  0  0  0  0  0  0  0  0  0  0
  148.9210  136.4135  161.0917 H   0  0  0  0  0  0  0  0  0  0  0  0
  146.1337  136.6239  159.8986 H   0  0  0  0  0  0  0  0  0  0  0  0
  146.9469  134.2870  160.1423 H   0  0  0  0  0  0  0  0  0  0  0  0
  148.4196  134.6880  159.2624 H   0  0  0  0  0  0  0  0  0  0  0  0
  146.8592  134.7369  158.4449 H   0  0  0  0  0  0  0  0  0  0  0  0
  147.1171  137.9519  158.3282 H   0  0  0  0  0  0  0  0  0  0  0  0
  148.3737  138.6710  157.0262 H   0  0  0  0  0  0  0  0  0  0  0  0
  151.6935  137.0516  157.6286 H   0  0  0  0  0  0  0  0  0  0  0  0
  153.6832  137.6155  156.2636 H   0  0  0  0  0  0  0  0  0  0  0  0
  153.4569  139.3355  154.4547 H   0  0  0  0  0  0  0  0  0  0  0  0
  149.4829  142.1396  155.2566 H   0  0  0  0  0  0  0  0  0  0  0  0
  149.9187  141.3898  153.7150 H   0  0  0  0  0  0  0  0  0  0  0  0
  147.1323  141.9503  154.7756 H   0  0  0  0  0  0  0  0  0  0  0  0
  147.7740  142.3456  153.1772 H   0  0  0  0  0  0  0  0  0  0  0  0
  146.3081  140.0768  153.4773 H   0  0  0  0  0  0  0  0  0  0  0  0
  147.7952  140.0189  152.5305 H   0  0  0  0  0  0  0  0  0  0  0  0
  148.4205  138.3688  154.0723 H   0  0  0  0  0  0  0  0  0  0  0  0
  147.3458  139.0082  155.3191 H   0  0  0  0  0  0  0  0  0  0  0  0
  1  2  1  0  0  0  0
  1 20  1  0  0  0  0
  1 21  1  0  0  0  0
  1 22  1  0  0  0  0
  2  3  1  0  0  0  0
  2 23  1  0  0  0  0
  2 24  1  0  0  0  0
  3  4  1  0  0  0  0
  3  5  1  0  0  0  0
  3 25  1  0  0  0  0
  4 26  1  0  0  0  0
  4 27  1  0  0  0  0
  4 28  1  0  0  0  0
  5  6  1  0  0  0  0
  5 29  1  0  0  0  0
  6  7  2  0  0  0  0
  6  8  1  0  0  0  0
  8  9  1  0  0  0  0
  8 30  1  0  0  0  0
  9 14  1  0  0  0  0
  9 10  2  0  0  0  0
 10 11  1  0  0  0  0
 10 31  1  0  0  0  0
 11 12  2  0  0  0  0
 11 32  1  0  0  0  0
 12 13  1  0  0  0  0
 12 33  1  0  0  0  0
 13 14  2  0  0  0  0
 14 15  1  0  0  0  0
 15 19  1  0  0  0  0
 15 16  1  0  0  0  0
 16 17  1  0  0  0  0
 16 34  1  0  0  0  0
 16 35  1  0  0  0  0
 17 18  1  0  0  0  0
 17 36  1  0  0  0  0
 17 37  1  0  0  0  0
 18 19  1  0  0  0  0
 18 38  1  0  0  0  0
 18 39  1  0  0  0  0
 19 40  1  0  0  0  0
 19 41  1  0  0  0  0
M  END
> <s_m_source_file>
AV-unprocessed.smi

> <i_m_source_file_index>
2450

> <i_lp_mmshare_version>
43012

> <i_f3d_flags>
0

> <s_epik_input>
W0NIM11bQ0gyXVtDQEhdKFtDSDNdKVtOSF1DKD1PKVtOSF1jMVtjSF1bY0hdW2NIXW5jMU4yW0NIMl1bQ0gyXVtDSDJdW0NIMl0y

> <s_epik_cmdline>
J2VwaWtfcHl0aG9uJywgJy1waCcsICc3LjAnLCAnLXRuJywgJzgnLCAnLW1hJywgJzIwMCcsICctbWV0YWxfYmluZGluZycsICctaW1hZScsICc8aW5maWxlLm1hZT4nLCAnLW9tYWUnLCAnPG91dGZpbGUubWFlPic=

> <r_lp_tautomer_probability>
1

> <r_epik_Ionization_Penalty>
0.103391

> <r_epik_Ionization_Penalty_Charging>
0

> <r_epik_Ionization_Penalty_Neutral>
0.103391

> <r_epik_State_Penalty>
0.0927616

> <r_epik_Charging_Adjusted_Penalty>
0.0927616

> <i_epik_Tot_Q>
0

> <i_epik_Tot_abs_Q>
0

> <r_epik_Metal_State_Penalty>
0.0789158

> <b_epik_Metal_Only>
0

> <s_lp_Force_Field>
OPLS_2005

> <r_lp_Energy>
32.2235

> <b_lp_Chiralities_Consistent>
1

> <s_lp_Variant>
AV-unprocessed.smi:2450-1

> <Gold.Version>
5.8.1

> <Gold.Id.Protein>
6NUR|6NUR_protein|mol2

> <Gold.PLP.Fitness>
34.2494

> <Gold.PLP.PLP>
-28.8700

> <Gold.PLP.part.hbond>
-2.0000

> <Gold.PLP.part.metal>
0.0000

> <Gold.PLP.part.buried>
-4.0467

> <Gold.PLP.part.nonpolar>
-23.6765

> <Gold.PLP.part.repulsive>
0.2595

> <Gold.PLP.ligand.clash>
0.0000

> <Gold.PLP.ligand.torsion>
0.4815

> <Gold.PLP.Chemscore.Hbond>
2.0000

> <Gold.PLP.Chemscore.CHOScore>
0.0000

> <Gold.PLP.Chemscore.Metal>
0.0000

> <Gold.Chemscore.Hbonds>
donor molecule, donor type, donor heavy atom, donor atom, acceptor molecule, acceptor atom, score
      P1  H  6896  6909       L1     7  0.76
      P1  H  7989  7998       L1    13  1.00

> <Gold.PLP.Chemscore.Internal.Correction>
0.3425

> <Gold.Rescore>
     Score         DG    S(hbond)    S(metal)    S(lipo)     H(rot)  DE(clash)    DE(int)     intcor
     14.10     -17.22       1.92        0.00      74.42       1.32       0.12       3.00       ----

> <Gold.Chemscore.Fitness>
14.1036

> <Gold.Chemscore.DG>
-17.2240

> <Gold.Chemscore.ZeroCoef>
-5.4800

> <Gold.Chemscore.Hbond>
1.9182

> <Gold.Chemscore.Metal>
0.0000

> <Gold.Chemscore.Lipo>
74.4188

> <Gold.Chemscore.Internal_Hbond>
0.0000

> <Gold.Chemscore.DEClash>
0.1158

> <Gold.Chemscore.DEInternal>
3.0047

> <Gold.Chemscore.Rot>
1.3163

> <Gold.Chemscore.Internal.Correction>
   9.000000E+99

> <Gold.Chemscore.Hbonds>
donor molecule, donor type, donor heavy atom, donor atom, acceptor molecule, acceptor atom, score
      P1  H  6896  6909       L1     7  0.75
      P1  H  7989  7998       L1    13  0.78

> <Gold.Chemscore.Hbond.Weighted>
-6.4066

> <Gold.Chemscore.Metal.Weighted>
-0.0000

> <Gold.Chemscore.Lipo.Weighted>
-8.7070

> <Gold.Chemscore.Internal_Hbond.Weighted>
0.0000

> <Gold.Chemscore.DEClash.Weighted>
0.1158

> <Gold.Chemscore.DEInternal.Weighted>
3.0047

> <Gold.Chemscore.Rot.Weighted>
3.3696

> <Gold.Chemscore.Internal.Correction.Weighted>
   9.000000E+99

> <Gold.Protein.RotatedTorsions>
[ 6907 6896 6895 6894 ] final   67.56 input  -60.11 | X-H torsion
[ 7974 7965 7964 7962 ] final    0.53 input  175.53 | X-H torsion
[ 8008 7997 7996 7995 ] final  -22.50 input   59.86 | X-H torsion
[ 10167 10162 10161 10158 ] final  149.14 input  -65.29 | X-H torsion
[ 10718 10713 10712 10709 ] final   88.83 input   66.30 | X-H torsion
[ 10763 10752 10751 10750 ] final  -24.65 input  -60.55 | X-H torsion
[ 11005 11000 10999 10996 ] final -177.89 input  -57.11 | X-H torsion

> <Gold.Protein.ActiveResidues>
 VAL166  LYS551  ARG553  GLY616  TRP617  ASP618  TYR619  PRO620  LYS621  CYS622 
 ASP623  PHE694  ASN695  SER759  ASP760  ASP761  ALA762  ILE779  LEU786  VAL792 
 PHE793  MET794  SER795  GLU796  ALA797  LYS798  CYS799  TRP800  GLU811  SER814 

> <Gold.Protein.RotatedAtoms>
  152.4560  134.5290  159.9805 H   0  0  0  0  0  0  0  0  0  0  0  0  # atno 6907 bound_to 6896
  151.5351  133.3436  159.2933 H   0  0  0  0  0  0  0  0  0  0  0  0  # atno 6908 bound_to 6896
  150.8505  134.7858  159.7067 H   0  0  0  0  0  0  0  0  0  0  0  0  # atno 6909 bound_to 6896
  146.2435  140.1123  142.8343 H   0  0  0  0  0  0  0  0  0  0  0  0  # atno 7974 bound_to 7965
  154.4640  140.2006  156.0167 H   0  0  0  0  0  0  0  0  0  0  0  0  # atno 8008 bound_to 7997
  156.0893  140.3260  155.7766 H   0  0  0  0  0  0  0  0  0  0  0  0  # atno 8009 bound_to 7997
  155.4982  140.0552  157.2934 H   0  0  0  0  0  0  0  0  0  0  0  0  # atno 8010 bound_to 7997
  139.4865  144.5625  151.7206 H   0  0  0  0  0  0  0  0  0  0  0  0  # atno 10167 bound_to 10162
  157.6951  131.0310  150.3334 H   0  0  0  0  0  0  0  0  0  0  0  0  # atno 10718 bound_to 10713
  153.6872  135.6963  153.5100 H   0  0  0  0  0  0  0  0  0  0  0  0  # atno 10763 bound_to 10752
  153.2440  135.4296  155.0727 H   0  0  0  0  0  0  0  0  0  0  0  0  # atno 10764 bound_to 10752
  154.8383  135.3515  154.6415 H   0  0  0  0  0  0  0  0  0  0  0  0  # atno 10765 bound_to 10752
  140.4359  134.6476  157.4734 H   0  0  0  0  0  0  0  0  0  0  0  0  # atno 11005 bound_to 11000
  145.0476  140.8993  143.5015 LP  0  0  0  0  0  0  0  0  0  0  0  0  # atno 17320 bound_to 7965
  145.1215  139.2690  143.5586 LP  0  0  0  0  0  0  0  0  0  0  0  0  # atno 17321 bound_to 7965
  140.5197  144.0898  150.6019 LP  0  0  0  0  0  0  0  0  0  0  0  0  # atno 17342 bound_to 10162
  140.3852  143.2781  152.0124 LP  0  0  0  0  0  0  0  0  0  0  0  0  # atno 17343 bound_to 10162
  156.3804  130.3879  149.7106 LP  0  0  0  0  0  0  0  0  0  0  0  0  # atno 17370 bound_to 10713
  156.4490  130.7897  151.2919 LP  0  0  0  0  0  0  0  0  0  0  0  0  # atno 17371 bound_to 10713
  140.0103  134.6701  155.9391 LP  0  0  0  0  0  0  0  0  0  0  0  0  # atno 17394 bound_to 11000
  141.1726  133.6538  156.4708 LP  0  0  0  0  0  0  0  0  0  0  0  0  # atno 17395 bound_to 11000

$$$$
