AV-unprocessed.smi:69|AV-procd|sdf|657|dock3
  -GOLD-   2262016553D 1   1.00000     0.00000
 Structure written by MMmdl.
 32 34  0  0  0  0  0  0  0  0  1 V2000
  154.1472  138.3858  155.6578 N   0  0  0  0  0  0  0  0  0  0  0  0
  152.8407  138.4303  155.3630 C   0  0  0  0  0  0  0  0  0  0  0  0
  152.2996  137.3943  154.6807 N   0  0  0  0  0  0  0  0  0  0  0  0
  150.9990  137.4176  154.3724 C   0  0  0  0  0  0  0  0  0  0  0  0
  150.0923  138.3586  154.6475 N   0  0  0  0  0  0  0  0  0  0  0  0
  150.6384  139.4030  155.3366 C   0  0  0  0  0  0  0  0  0  0  0  0
  152.0013  139.5125  155.7299 C   0  0  0  0  0  0  0  0  0  0  0  0
  152.2043  140.7058  156.4090 N   0  0  0  0  0  0  0  0  0  0  0  0
  151.0258  141.2682  156.4126 C   0  0  0  0  0  0  0  0  0  0  0  0
  150.0255  140.5576  155.7853 N   0  0  0  0  0  0  0  0  0  0  0  0
  148.5890  140.9621  155.6292 C   0  0  2  0  0  0  0  0  0  0  0  0
  147.7632  139.8597  155.8683 O   0  0  0  0  0  0  0  0  0  0  0  0
  146.9649  139.5691  154.7205 C   0  0  1  0  0  0  0  0  0  0  0  0
  145.6059  139.0046  155.1625 C   0  0  0  0  0  0  0  0  0  0  0  0
  144.9117  138.4794  154.0513 O   0  0  0  0  0  0  0  0  0  0  0  0
  146.8636  140.9259  154.0208 C   0  0  2  0  0  0  0  0  0  0  0  0
  146.4959  140.8257  152.6578 O   0  0  0  0  0  0  0  0  0  0  0  0
  148.2562  141.5048  154.2256 C   0  0  2  0  0  0  0  0  0  0  0  0
  149.1737  141.0981  153.2219 O   0  0  0  0  0  0  0  0  0  0  0  0
  148.4209  141.6981  156.4166 H   0  0  0  0  0  0  0  0  0  0  0  0
  147.4913  138.8658  154.0733 H   0  0  0  0  0  0  0  0  0  0  0  0
  146.1375  141.5536  154.5401 H   0  0  0  0  0  0  0  0  0  0  0  0
  148.2409  142.5948  154.2503 H   0  0  0  0  0  0  0  0  0  0  0  0
  154.5738  139.1483  156.1642 H   0  0  0  0  0  0  0  0  0  0  0  0
  154.7011  137.5909  155.3737 H   0  0  0  0  0  0  0  0  0  0  0  0
  150.6313  136.5608  153.8270 H   0  0  0  0  0  0  0  0  0  0  0  0
  150.8533  142.2297  156.8737 H   0  0  0  0  0  0  0  0  0  0  0  0
  145.7237  138.2421  155.9329 H   0  0  0  0  0  0  0  0  0  0  0  0
  144.9899  139.7990  155.5849 H   0  0  0  0  0  0  0  0  0  0  0  0
  144.4340  139.1811  153.6361 H   0  0  0  0  0  0  0  0  0  0  0  0
  145.6140  140.4902  152.6087 H   0  0  0  0  0  0  0  0  0  0  0  0
  148.7563  140.4456  152.6804 H   0  0  0  0  0  0  0  0  0  0  0  0
  1  2  1  0  0  0  0
  1 24  1  0  0  0  0
  1 25  1  0  0  0  0
  2  7  1  0  0  0  0
  2  3  2  0  0  0  0
  3  4  1  0  0  0  0
  4  5  2  0  0  0  0
  4 26  1  0  0  0  0
  5  6  1  0  0  0  0
  6 10  1  0  0  0  0
  6  7  2  0  0  0  0
  7  8  1  0  0  0  0
  8  9  2  0  0  0  0
  9 10  1  0  0  0  0
  9 27  1  0  0  0  0
 10 11  1  0  0  0  0
 11 20  1  0  0  0  0
 11 18  1  0  0  0  0
 11 12  1  0  0  0  0
 12 13  1  0  0  0  0
 13 21  1  0  0  0  0
 13 14  1  0  0  0  0
 13 16  1  0  0  0  0
 14 15  1  0  0  0  0
 14 28  1  0  0  0  0
 14 29  1  0  0  0  0
 15 30  1  0  0  0  0
 16 22  1  0  0  0  0
 16 17  1  0  0  0  0
 16 18  1  0  0  0  0
 17 31  1  0  0  0  0
 18 23  1  0  0  0  0
 18 19  1  0  0  0  0
 19 32  1  0  0  0  0
M  END
> <s_m_source_file>
AV-unprocessed.smi

> <i_m_source_file_index>
69

> <i_lp_mmshare_version>
43012

> <i_f3d_flags>
0

> <s_epik_input>
bjFbY0hdbmMoW05IMl0pYyhjMTIpbltjSF1uMltDQEBIXTNPW0NASF0oW0NIMl1bT0hdKVtDQEBIXShbT0hdKVtDQEhdM1tPSF0=

> <s_epik_cmdline>
J2VwaWtfcHl0aG9uJywgJy1waCcsICc3LjAnLCAnLXRuJywgJzgnLCAnLW1hJywgJzIwMCcsICctbWV0YWxfYmluZGluZycsICctaW1hZScsICc8aW5maWxlLm1hZT4nLCAnLW9tYWUnLCAnPG91dGZpbGUubWFlPic=

> <r_lp_tautomer_probability>
1

> <r_epik_Ionization_Penalty>
0.000428445

> <r_epik_Ionization_Penalty_Charging>
0

> <r_epik_Ionization_Penalty_Neutral>
0.000428445

> <r_epik_State_Penalty>
-0

> <r_epik_Charging_Adjusted_Penalty>
0

> <i_epik_Tot_Q>
0

> <i_epik_Tot_abs_Q>
0

> <r_epik_Metal_State_Penalty>
-0

> <b_epik_Metal_Only>
0

> <s_epik_Chemistry_Notes>
This compound contains an acetal/aminal-like group ( X-CH(R)-Y where X, Y are N, S, or O) that may be acid/base labile, releasing an aldehyde.

> <s_lp_Force_Field>
OPLS_2005

> <r_lp_Energy>
44.883

> <b_lp_Chiralities_Consistent>
1

> <s_lp_Variant>
AV-unprocessed.smi:69-15

> <Gold.Version>
5.8.1

> <Gold.Id.Protein>
6NUR|6NUR_protein|mol2

> <Gold.PLP.Fitness>
40.5149

> <Gold.PLP.PLP>
-24.6158

> <Gold.PLP.part.hbond>
-6.6589

> <Gold.PLP.part.metal>
0.0000

> <Gold.PLP.part.buried>
-0.1380

> <Gold.PLP.part.nonpolar>
-20.7950

> <Gold.PLP.part.repulsive>
2.6794

> <Gold.PLP.ligand.clash>
0.0000

> <Gold.PLP.ligand.torsion>
0.5812

> <Gold.PLP.Chemscore.Hbond>
4.8100

> <Gold.PLP.Chemscore.CHOScore>
0.8746

> <Gold.PLP.Chemscore.Metal>
0.0000

> <Gold.Chemscore.Hbonds>
donor molecule, donor type, donor heavy atom, donor atom, acceptor molecule, acceptor atom, score
      L1  H    15    30       P1 10175  1.00
      L1  H    17    31       P1 10175  1.00
      L1  H    19    32       P1  7957  0.32
      P1  H  7997  8010       L1     8  0.13
      P1  H  8011  8017       L1    19  1.00
      P1  H 10752 10763       L1     3  0.72
      L1  C     4    26       P1  7948  0.38
      L1  C     4    26       P1  7949  0.56

> <Gold.PLP.Chemscore.Internal.Correction>
0.0080

> <Gold.Rescore>
     Score         DG    S(hbond)    S(metal)    S(lipo)     H(rot)  DE(clash)    DE(int)     intcor
      5.99      -8.36       3.16        0.00      22.59       4.03       0.36       2.01       ----

> <Gold.Chemscore.Fitness>
5.9904

> <Gold.Chemscore.DG>
-8.3574

> <Gold.Chemscore.ZeroCoef>
-5.4800

> <Gold.Chemscore.Hbond>
3.1573

> <Gold.Chemscore.Metal>
0.0000

> <Gold.Chemscore.Lipo>
22.5897

> <Gold.Chemscore.Internal_Hbond>
0.0000

> <Gold.Chemscore.DEClash>
0.3604

> <Gold.Chemscore.DEInternal>
2.0065

> <Gold.Chemscore.Rot>
4.0277

> <Gold.Chemscore.Internal.Correction>
   9.000000E+99

> <Gold.Chemscore.Hbonds>
donor molecule, donor type, donor heavy atom, donor atom, acceptor molecule, acceptor atom, score
      L1  H    15    30       P1 10175  1.00
      L1  H    17    31       P1 10175  0.60
      L1  H    19    32       P1  7957  0.32
      P1  H  7989  7998       L1    19  0.01
      P1  H  8011  8017       L1    19  0.72
      P1  H 10752 10763       L1     3  0.50

> <Gold.Chemscore.Hbond.Weighted>
-10.5454

> <Gold.Chemscore.Metal.Weighted>
-0.0000

> <Gold.Chemscore.Lipo.Weighted>
-2.6430

> <Gold.Chemscore.Internal_Hbond.Weighted>
0.0000

> <Gold.Chemscore.DEClash.Weighted>
0.3604

> <Gold.Chemscore.DEInternal.Weighted>
2.0065

> <Gold.Chemscore.Rot.Weighted>
10.3110

> <Gold.Chemscore.Internal.Correction.Weighted>
   9.000000E+99

> <Gold.Protein.RotatedTorsions>
[ 6907 6896 6895 6894 ] final   46.30 input  -60.11 | X-H torsion
[ 7974 7965 7964 7962 ] final  -90.50 input  175.53 | X-H torsion
[ 8008 7997 7996 7995 ] final   77.74 input   59.86 | X-H torsion
[ 10167 10162 10161 10158 ] final  -26.91 input  -65.29 | X-H torsion
[ 10718 10713 10712 10709 ] final  -19.47 input   66.30 | X-H torsion
[ 10763 10752 10751 10750 ] final   46.16 input  -60.55 | X-H torsion
[ 11005 11000 10999 10996 ] final -162.27 input  -57.11 | X-H torsion

> <Gold.Protein.ActiveResidues>
 VAL166  LYS551  ARG553  GLY616  TRP617  ASP618  TYR619  PRO620  LYS621  CYS622 
 ASP623  PHE694  ASN695  SER759  ASP760  ASP761  ALA762  ILE779  LEU786  VAL792 
 PHE793  MET794  SER795  GLU796  ALA797  LYS798  CYS799  TRP800  GLU811  SER814 

> <Gold.Protein.RotatedAtoms>
  152.2548  134.8095  160.0440 H   0  0  0  0  0  0  0  0  0  0  0  0  # atno 6907 bound_to 6896
  151.8763  133.3481  159.3759 H   0  0  0  0  0  0  0  0  0  0  0  0  # atno 6908 bound_to 6896
  150.7096  134.4990  159.5596 H   0  0  0  0  0  0  0  0  0  0  0  0  # atno 6909 bound_to 6896
  145.4256  140.9553  143.2156 H   0  0  0  0  0  0  0  0  0  0  0  0  # atno 7974 bound_to 7965
  155.8459  140.3460  155.5662 H   0  0  0  0  0  0  0  0  0  0  0  0  # atno 8008 bound_to 7997
  155.8090  140.0896  157.1934 H   0  0  0  0  0  0  0  0  0  0  0  0  # atno 8009 bound_to 7997
  154.4006  140.1451  156.3351 H   0  0  0  0  0  0  0  0  0  0  0  0  # atno 8010 bound_to 7997
  140.7280  143.4138  151.1062 H   0  0  0  0  0  0  0  0  0  0  0  0  # atno 10167 bound_to 10162
  156.5453  130.4688  149.6479 H   0  0  0  0  0  0  0  0  0  0  0  0  # atno 10718 bound_to 10713
  152.9814  135.6017  154.3555 H   0  0  0  0  0  0  0  0  0  0  0  0  # atno 10763 bound_to 10752
  154.3241  135.2769  155.2507 H   0  0  0  0  0  0  0  0  0  0  0  0  # atno 10764 bound_to 10752
  154.4660  135.5954  153.6344 H   0  0  0  0  0  0  0  0  0  0  0  0  # atno 10765 bound_to 10752
  140.6111  134.4848  157.5215 H   0  0  0  0  0  0  0  0  0  0  0  0  # atno 11005 bound_to 11000
  144.8216  139.5781  143.6984 LP  0  0  0  0  0  0  0  0  0  0  0  0  # atno 17320 bound_to 7965
  146.2634  139.6462  142.9346 LP  0  0  0  0  0  0  0  0  0  0  0  0  # atno 17321 bound_to 7965
  139.7775  143.8404  152.3132 LP  0  0  0  0  0  0  0  0  0  0  0  0  # atno 17342 bound_to 10162
  139.8343  144.7239  150.9410 LP  0  0  0  0  0  0  0  0  0  0  0  0  # atno 17343 bound_to 10162
  156.2934  130.7137  151.1991 LP  0  0  0  0  0  0  0  0  0  0  0  0  # atno 17370 bound_to 10713
  157.7398  131.0525  150.5209 LP  0  0  0  0  0  0  0  0  0  0  0  0  # atno 17371 bound_to 10713
  139.9192  134.8184  156.1267 LP  0  0  0  0  0  0  0  0  0  0  0  0  # atno 17394 bound_to 11000
  141.0807  133.6755  156.2330 LP  0  0  0  0  0  0  0  0  0  0  0  0  # atno 17395 bound_to 11000

$$$$
