AV-unprocessed.smi:3083|AV-procd|sdf|11747|dock8
  -GOLD-   2272017143D 1   1.00000     0.00000
 Structure written by MMmdl.
 28 29  0  0  0  0  0  0  0  0  2 V2000
  148.8223  138.6667  153.0761 N   0  3  0  0  0  0  0  0  0  0  0  0
  149.5354  138.9743  154.3296 C   0  0  1  0  0  0  0  0  0  0  0  0
  150.9260  138.3122  154.3244 C   0  0  0  0  0  0  0  0  0  0  0  0
  151.7030  138.6273  155.6120 C   0  0  0  0  0  0  0  0  0  0  0  0
  151.8250  140.1430  155.8297 C   0  0  0  0  0  0  0  0  0  0  0  0
  150.4437  140.8161  155.8364 C   0  0  0  0  0  0  0  0  0  0  0  0
  149.6549  140.5053  154.5474 C   0  0  2  0  0  0  0  0  0  0  0  0
  148.3593  141.1743  154.5695 N   0  0  0  0  0  0  0  0  0  0  0  0
  147.4686  141.3346  153.5279 C   0  0  0  0  0  0  0  0  0  0  0  0
  146.4065  142.0489  154.0031 C   0  0  0  0  0  0  0  0  0  0  0  0
  146.7481  142.2999  155.3609 C   0  0  0  0  0  0  0  0  0  0  0  0
  147.9184  141.7809  155.6951 N   0  0  0  0  0  0  0  0  0  0  0  0
  148.7989  137.6670  152.9353 H   0  0  0  0  0  0  0  0  0  0  0  0
  149.3045  139.1049  152.3040 H   0  0  0  0  0  0  0  0  0  0  0  0
  148.9559  138.5365  155.1439 H   0  0  0  0  0  0  0  0  0  0  0  0
  150.8265  137.2315  154.2141 H   0  0  0  0  0  0  0  0  0  0  0  0
  151.4990  138.6588  153.4630 H   0  0  0  0  0  0  0  0  0  0  0  0
  151.1967  138.1746  156.4655 H   0  0  0  0  0  0  0  0  0  0  0  0
  152.6953  138.1775  155.5667 H   0  0  0  0  0  0  0  0  0  0  0  0
  152.3402  140.3431  156.7699 H   0  0  0  0  0  0  0  0  0  0  0  0
  152.4408  140.5782  155.0416 H   0  0  0  0  0  0  0  0  0  0  0  0
  149.8818  140.4762  156.7079 H   0  0  0  0  0  0  0  0  0  0  0  0
  150.5639  141.8941  155.9501 H   0  0  0  0  0  0  0  0  0  0  0  0
  150.2131  140.9232  153.7075 H   0  0  0  0  0  0  0  0  0  0  0  0
  147.6618  140.9320  152.5443 H   0  0  0  0  0  0  0  0  0  0  0  0
  145.5234  142.3534  153.4609 H   0  0  0  0  0  0  0  0  0  0  0  0
  146.1864  142.8421  156.1074 H   0  0  0  0  0  0  0  0  0  0  0  0
  147.8789  139.0232  153.1286 H   0  0  0  0  0  0  0  0  0  0  0  0
  1  2  1  0  0  0  0
  1 13  1  0  0  0  0
  1 14  1  0  0  0  0
  1 28  1  0  0  0  0
  2  7  1  0  0  0  0
  2  3  1  0  0  0  0
  2 15  1  0  0  0  0
  3  4  1  0  0  0  0
  3 16  1  0  0  0  0
  3 17  1  0  0  0  0
  4  5  1  0  0  0  0
  4 18  1  0  0  0  0
  4 19  1  0  0  0  0
  5  6  1  0  0  0  0
  5 20  1  0  0  0  0
  5 21  1  0  0  0  0
  6  7  1  0  0  0  0
  6 22  1  0  0  0  0
  6 23  1  0  0  0  0
  7  8  1  0  0  0  0
  7 24  1  0  0  0  0
  8 12  1  0  0  0  0
  8  9  1  0  0  0  0
  9 10  2  0  0  0  0
  9 25  1  0  0  0  0
 10 11  1  0  0  0  0
 10 26  1  0  0  0  0
 11 12  2  0  0  0  0
 11 27  1  0  0  0  0
M  CHG  1   1   1
M  END
> <s_m_source_file>
AV-unprocessed.smi

> <i_m_source_file_index>
3083

> <i_lp_mmshare_version>
43012

> <i_f3d_flags>
0

> <s_epik_input>
W05IMl1bQ0BASF0xW0NIMl1bQ0gyXVtDSDJdW0NIMl1bQ0BIXTFuMltjSF1bY0hdW2NIXW4y

> <s_epik_cmdline>
J2VwaWtfcHl0aG9uJywgJy1waCcsICc3LjAnLCAnLXRuJywgJzgnLCAnLW1hJywgJzIwMCcsICctbWV0YWxfYmluZGluZycsICctaW1hZScsICc8aW5maWxlLm1hZT4nLCAnLW9tYWUnLCAnPG91dGZpbGUubWFlPic=

> <r_lp_tautomer_probability>
1

> <r_epik_Ionization_Penalty>
0.00385053

> <r_epik_Ionization_Penalty_Charging>
0.0038389

> <r_epik_Ionization_Penalty_Neutral>
1.16305e-05

> <r_epik_State_Penalty>
-0

> <r_epik_Charging_Adjusted_Penalty>
0.0038389

> <i_epik_Tot_Q>
1

> <i_epik_Tot_abs_Q>
1

> <r_epik_Metal_State_Penalty>
-0

> <b_epik_Metal_Only>
0

> <s_lp_Force_Field>
OPLS_2005

> <r_lp_Energy>
13.574

> <b_lp_Chiralities_Consistent>
1

> <s_lp_Variant>
AV-unprocessed.smi:3083-4

> <Gold.Version>
5.8.1

> <Gold.Id.Protein>
6NUR|6NUR_protein|mol2

> <Gold.PLP.Fitness>
39.4223

> <Gold.PLP.PLP>
-27.9541

> <Gold.PLP.part.hbond>
-1.8206

> <Gold.PLP.part.metal>
0.0000

> <Gold.PLP.part.buried>
-2.7839

> <Gold.PLP.part.nonpolar>
-24.4552

> <Gold.PLP.part.repulsive>
0.5165

> <Gold.PLP.ligand.clash>
0.0000

> <Gold.PLP.ligand.torsion>
0.1454

> <Gold.PLP.Chemscore.Hbond>
2.9103

> <Gold.PLP.Chemscore.CHOScore>
1.0000

> <Gold.PLP.Chemscore.Metal>
0.0000

> <Gold.Chemscore.Hbonds>
donor molecule, donor type, donor heavy atom, donor atom, acceptor molecule, acceptor atom, score
      L1  H     1    13       P1  7948  1.98
      L1  H     1    14       P1  7957  0.91
      L1  C     9    25       P1  7957  1.00

> <Gold.PLP.Chemscore.Internal.Correction>
0.0283

> <Gold.Rescore>
     Score         DG    S(hbond)    S(metal)    S(lipo)     H(rot)  DE(clash)    DE(int)     intcor
     15.14     -16.23       1.90        0.00      59.51       1.00       0.00       1.09       ----

> <Gold.Chemscore.Fitness>
15.1420

> <Gold.Chemscore.DG>
-16.2340

> <Gold.Chemscore.ZeroCoef>
-5.4800

> <Gold.Chemscore.Hbond>
1.9015

> <Gold.Chemscore.Metal>
0.0000

> <Gold.Chemscore.Lipo>
59.5123

> <Gold.Chemscore.Internal_Hbond>
0.0000

> <Gold.Chemscore.DEClash>
0.0015

> <Gold.Chemscore.DEInternal>
1.0905

> <Gold.Chemscore.Rot>
1.0000

> <Gold.Chemscore.Internal.Correction>
   9.000000E+99

> <Gold.Chemscore.Hbonds>
donor molecule, donor type, donor heavy atom, donor atom, acceptor molecule, acceptor atom, score
      L1  H     1    13       P1  7948  0.93
      L1  H     1    14       P1  7957  0.83

> <Gold.Chemscore.Hbond.Weighted>
-6.3510

> <Gold.Chemscore.Metal.Weighted>
-0.0000

> <Gold.Chemscore.Lipo.Weighted>
-6.9629

> <Gold.Chemscore.Internal_Hbond.Weighted>
0.0000

> <Gold.Chemscore.DEClash.Weighted>
0.0015

> <Gold.Chemscore.DEInternal.Weighted>
1.0905

> <Gold.Chemscore.Rot.Weighted>
2.5600

> <Gold.Chemscore.Internal.Correction.Weighted>
   9.000000E+99

> <Gold.Protein.RotatedTorsions>
[ 6907 6896 6895 6894 ] final   -4.44 input  -60.11 | X-H torsion
[ 7974 7965 7964 7962 ] final  174.35 input  175.53 | X-H torsion
[ 8008 7997 7996 7995 ] final   17.46 input   59.86 | X-H torsion
[ 10167 10162 10161 10158 ] final  -31.69 input  -65.29 | X-H torsion
[ 10718 10713 10712 10709 ] final   57.28 input   66.30 | X-H torsion
[ 10763 10752 10751 10750 ] final -168.11 input  -60.55 | X-H torsion
[ 11005 11000 10999 10996 ] final  -88.94 input  -57.11 | X-H torsion

> <Gold.Protein.ActiveResidues>
 VAL166  LYS551  ARG553  GLY616  TRP617  ASP618  TYR619  PRO620  LYS621  CYS622 
 ASP623  PHE694  ASN695  SER759  ASP760  ASP761  ALA762  ILE779  LEU786  VAL792 
 PHE793  MET794  SER795  GLU796  ALA797  LYS798  CYS799  TRP800  GLU811  SER814 

> <Gold.Protein.RotatedAtoms>
  151.4976  135.1060  159.9819 H   0  0  0  0  0  0  0  0  0  0  0  0  # atno 6907 bound_to 6896
  152.4715  133.8037  159.6977 H   0  0  0  0  0  0  0  0  0  0  0  0  # atno 6908 bound_to 6896
  150.8727  133.7419  159.2982 H   0  0  0  0  0  0  0  0  0  0  0  0  # atno 6909 bound_to 6896
  144.7223  139.9784  143.6438 H   0  0  0  0  0  0  0  0  0  0  0  0  # atno 7974 bound_to 7965
  154.8917  140.2988  155.5367 H   0  0  0  0  0  0  0  0  0  0  0  0  # atno 8008 bound_to 7997
  156.3021  140.2423  156.3868 H   0  0  0  0  0  0  0  0  0  0  0  0  # atno 8009 bound_to 7997
  154.8611  140.0405  157.1655 H   0  0  0  0  0  0  0  0  0  0  0  0  # atno 8010 bound_to 7997
  140.7232  143.3751  151.1704 H   0  0  0  0  0  0  0  0  0  0  0  0  # atno 10167 bound_to 10162
  157.5501  130.8759  149.8950 H   0  0  0  0  0  0  0  0  0  0  0  0  # atno 10718 bound_to 10713
  154.6662  135.2932  154.9802 H   0  0  0  0  0  0  0  0  0  0  0  0  # atno 10763 bound_to 10752
  154.0845  135.6600  153.4847 H   0  0  0  0  0  0  0  0  0  0  0  0  # atno 10764 bound_to 10752
  153.0459  135.5205  154.7636 H   0  0  0  0  0  0  0  0  0  0  0  0  # atno 10765 bound_to 10752
  141.1593  133.7600  156.9523 H   0  0  0  0  0  0  0  0  0  0  0  0  # atno 11005 bound_to 11000
  146.0507  139.3509  143.0641 LP  0  0  0  0  0  0  0  0  0  0  0  0  # atno 17320 bound_to 7965
  145.8218  140.9675  143.0895 LP  0  0  0  0  0  0  0  0  0  0  0  0  # atno 17321 bound_to 7965
  139.7330  143.9043  152.3025 LP  0  0  0  0  0  0  0  0  0  0  0  0  # atno 17342 bound_to 10162
  139.8838  144.7003  150.8847 LP  0  0  0  0  0  0  0  0  0  0  0  0  # atno 17343 bound_to 10162
  156.0569  130.3707  150.1070 LP  0  0  0  0  0  0  0  0  0  0  0  0  # atno 17370 bound_to 10713
  156.9244  130.9693  151.3543 LP  0  0  0  0  0  0  0  0  0  0  0  0  # atno 17371 bound_to 10713
  140.1249  134.9393  157.2255 LP  0  0  0  0  0  0  0  0  0  0  0  0  # atno 17394 bound_to 11000
  140.3026  134.3115  155.7286 LP  0  0  0  0  0  0  0  0  0  0  0  0  # atno 17395 bound_to 11000

$$$$
