AV-unprocessed.smi:2758|AV-procd|sdf|10625|dock1
  -GOLD-   2272015 73D 1   1.00000     0.00000
 Structure written by MMmdl.
 33 34  0  0  0  0  0  0  0  0  2 V2000
  151.0377  136.5444  156.1503 C   0  0  0  0  0  0  0  0  0  0  0  0
  151.8933  136.8610  155.0665 O   0  0  0  0  0  0  0  0  0  0  0  0
  151.5177  138.0611  154.4107 C   0  0  0  0  0  0  0  0  0  0  0  0
  152.1926  139.2488  155.1117 C   0  0  2  0  0  0  0  0  0  0  0  0
  153.5811  138.9980  155.1910 O   0  0  0  0  0  0  0  0  0  0  0  0
  151.6279  139.4957  156.5251 C   0  0  0  0  0  0  0  0  0  0  0  0
  151.2488  140.8980  156.7550 N   0  0  0  0  0  0  0  0  0  0  0  0
  150.3798  141.7029  156.0791 C   0  0  0  0  0  0  0  0  0  0  0  0
  149.5615  141.3325  154.8879 C   0  0  0  0  0  0  0  0  0  0  0  0
  150.3954  142.9193  156.6940 N   0  3  0  0  0  0  0  0  0  0  0  0
  151.2847  142.8937  157.7696 C   0  0  0  0  0  0  0  0  0  0  0  0
  151.6397  143.8808  158.6839 C   0  0  0  0  0  0  0  0  0  0  0  0
  152.5868  143.5227  159.6659 C   0  0  0  0  0  0  0  0  0  0  0  0
  153.1418  142.2271  159.7132 C   0  0  0  0  0  0  0  0  0  0  0  0
  152.7740  141.2344  158.7810 C   0  0  0  0  0  0  0  0  0  0  0  0
  151.8373  141.5975  157.8139 C   0  0  0  0  0  0  0  0  0  0  0  0
  152.0586  140.1402  154.4981 H   0  0  0  0  0  0  0  0  0  0  0  0
  151.3641  135.6139  156.6145 H   0  0  0  0  0  0  0  0  0  0  0  0
  150.0088  136.4095  155.8143 H   0  0  0  0  0  0  0  0  0  0  0  0
  151.0585  137.3260  156.9109 H   0  0  0  0  0  0  0  0  0  0  0  0
  151.8011  138.0273  153.3573 H   0  0  0  0  0  0  0  0  0  0  0  0
  150.4324  138.1692  154.4549 H   0  0  0  0  0  0  0  0  0  0  0  0
  153.7162  138.0630  155.1904 H   0  0  0  0  0  0  0  0  0  0  0  0
  150.7532  138.8712  156.7114 H   0  0  0  0  0  0  0  0  0  0  0  0
  152.3649  139.2210  157.2807 H   0  0  0  0  0  0  0  0  0  0  0  0
  148.8939  142.1492  154.6124 H   0  0  0  0  0  0  0  0  0  0  0  0
  148.9588  140.4500  155.1028 H   0  0  0  0  0  0  0  0  0  0  0  0
  150.2106  141.1137  154.0400 H   0  0  0  0  0  0  0  0  0  0  0  0
  151.2163  144.8739  158.6493 H   0  0  0  0  0  0  0  0  0  0  0  0
  152.8940  144.2565  160.3970 H   0  0  0  0  0  0  0  0  0  0  0  0
  153.8647  141.9897  160.4804 H   0  0  0  0  0  0  0  0  0  0  0  0
  153.2039  140.2445  158.8250 H   0  0  0  0  0  0  0  0  0  0  0  0
  149.8388  143.7100  156.3953 H   0  0  0  0  0  0  0  0  0  0  0  0
  1  2  1  0  0  0  0
  1 18  1  0  0  0  0
  1 19  1  0  0  0  0
  1 20  1  0  0  0  0
  2  3  1  0  0  0  0
  3  4  1  0  0  0  0
  3 21  1  0  0  0  0
  3 22  1  0  0  0  0
  4 17  1  0  0  0  0
  4  5  1  0  0  0  0
  4  6  1  0  0  0  0
  5 23  1  0  0  0  0
  6  7  1  0  0  0  0
  6 24  1  0  0  0  0
  6 25  1  0  0  0  0
  7 16  1  0  0  0  0
  7  8  1  0  0  0  0
  8  9  1  0  0  0  0
  8 10  2  0  0  0  0
  9 26  1  0  0  0  0
  9 27  1  0  0  0  0
  9 28  1  0  0  0  0
 10 11  1  0  0  0  0
 10 33  1  0  0  0  0
 11 16  2  0  0  0  0
 11 12  1  0  0  0  0
 12 13  2  0  0  0  0
 12 29  1  0  0  0  0
 13 14  1  0  0  0  0
 13 30  1  0  0  0  0
 14 15  2  0  0  0  0
 14 31  1  0  0  0  0
 15 16  1  0  0  0  0
 15 32  1  0  0  0  0
M  CHG  1  10   1
M  END
> <s_m_source_file>
AV-unprocessed.smi

> <i_m_source_file_index>
2758

> <i_lp_mmshare_version>
43012

> <i_f3d_flags>
0

> <s_epik_input>
W0NIM11PW0NIMl1bQ0BASF0oW09IXSlbQ0gyXW4oYyhuMSlbQ0gzXSljKGMxMilbY0hdW2NIXVtjSF1bY0hdMg==

> <s_epik_cmdline>
J2VwaWtfcHl0aG9uJywgJy1waCcsICc3LjAnLCAnLXRuJywgJzgnLCAnLW1hJywgJzIwMCcsICctbWV0YWxfYmluZGluZycsICctaW1hZScsICc8aW5maWxlLm1hZT4nLCAnLW9tYWUnLCAnPG91dGZpbGUubWFlPic=

> <r_epik_Ionization_Penalty>
0.974942

> <r_epik_Ionization_Penalty_Charging>
0.974941

> <r_epik_Ionization_Penalty_Neutral>
8.70205e-07

> <r_epik_State_Penalty>
1.02127

> <r_epik_Charging_Adjusted_Penalty>
1.99621

> <i_epik_Tot_Q>
1

> <i_epik_Tot_abs_Q>
1

> <r_epik_Metal_State_Penalty>
4.99771

> <b_epik_Metal_Only>
0

> <s_lp_Force_Field>
OPLS_2005

> <r_lp_Energy>
10.5024

> <b_lp_Chiralities_Consistent>
1

> <s_lp_Variant>
AV-unprocessed.smi:2758-4

> <Gold.Version>
5.8.1

> <Gold.Id.Protein>
6NUR|6NUR_protein|mol2

> <Gold.PLP.Fitness>
49.2865

> <Gold.PLP.PLP>
-39.0572

> <Gold.PLP.part.hbond>
-3.0000

> <Gold.PLP.part.metal>
0.0000

> <Gold.PLP.part.buried>
-4.6600

> <Gold.PLP.part.nonpolar>
-31.4673

> <Gold.PLP.part.repulsive>
0.1475

> <Gold.PLP.ligand.clash>
0.0000

> <Gold.PLP.ligand.torsion>
0.9001

> <Gold.PLP.Chemscore.Hbond>
4.0000

> <Gold.PLP.Chemscore.CHOScore>
0.0000

> <Gold.PLP.Chemscore.Metal>
0.0000

> <Gold.Chemscore.Hbonds>
donor molecule, donor type, donor heavy atom, donor atom, acceptor molecule, acceptor atom, score
      L1  H    10    33       P1  8028  2.00
      P1  H  7997  8010       L1     5  1.00
      P1  H 10752 10764       L1     2  1.00

> <Gold.PLP.Chemscore.Internal.Correction>
0.0294

> <Gold.Rescore>
     Score         DG    S(hbond)    S(metal)    S(lipo)     H(rot)  DE(clash)    DE(int)     intcor
     19.61     -20.60       2.83        0.00      94.86       2.12       0.01       0.98       ----

> <Gold.Chemscore.Fitness>
19.6136

> <Gold.Chemscore.DG>
-20.6042

> <Gold.Chemscore.ZeroCoef>
-5.4800

> <Gold.Chemscore.Hbond>
2.8312

> <Gold.Chemscore.Metal>
0.0000

> <Gold.Chemscore.Lipo>
94.8592

> <Gold.Chemscore.Internal_Hbond>
0.0000

> <Gold.Chemscore.DEClash>
0.0088

> <Gold.Chemscore.DEInternal>
0.9818

> <Gold.Chemscore.Rot>
2.1213

> <Gold.Chemscore.Internal.Correction>
   9.000000E+99

> <Gold.Chemscore.Hbonds>
donor molecule, donor type, donor heavy atom, donor atom, acceptor molecule, acceptor atom, score
      L1  H    10    33       P1  8028  0.97
      P1  H  7997  8010       L1     5  0.86
      P1  H 10752 10764       L1     2  0.86

> <Gold.Chemscore.Hbond.Weighted>
-9.4562

> <Gold.Chemscore.Metal.Weighted>
-0.0000

> <Gold.Chemscore.Lipo.Weighted>
-11.0985

> <Gold.Chemscore.Internal_Hbond.Weighted>
0.0000

> <Gold.Chemscore.DEClash.Weighted>
0.0088

> <Gold.Chemscore.DEInternal.Weighted>
0.9818

> <Gold.Chemscore.Rot.Weighted>
5.4306

> <Gold.Chemscore.Internal.Correction.Weighted>
   9.000000E+99

> <Gold.Protein.RotatedTorsions>
[ 6907 6896 6895 6894 ] final -138.73 input  -60.11 | X-H torsion
[ 7974 7965 7964 7962 ] final -135.22 input  175.53 | X-H torsion
[ 8008 7997 7996 7995 ] final  100.41 input   59.86 | X-H torsion
[ 10167 10162 10161 10158 ] final   88.55 input  -65.29 | X-H torsion
[ 10718 10713 10712 10709 ] final  105.04 input   66.30 | X-H torsion
[ 10763 10752 10751 10750 ] final  -56.80 input  -60.55 | X-H torsion
[ 11005 11000 10999 10996 ] final   99.67 input  -57.11 | X-H torsion

> <Gold.Protein.ActiveResidues>
 VAL166  LYS551  ARG553  GLY616  TRP617  ASP618  TYR619  PRO620  LYS621  CYS622 
 ASP623  PHE694  ASN695  SER759  ASP760  ASP761  ALA762  ILE779  LEU786  VAL792 
 PHE793  MET794  SER795  GLU796  ALA797  LYS798  CYS799  TRP800  GLU811  SER814 

> <Gold.Protein.RotatedAtoms>
  151.0388  133.5724  159.2652 H   0  0  0  0  0  0  0  0  0  0  0  0  # atno 6907 bound_to 6896
  151.2779  135.0704  159.9168 H   0  0  0  0  0  0  0  0  0  0  0  0  # atno 6908 bound_to 6896
  152.5360  134.0107  159.7991 H   0  0  0  0  0  0  0  0  0  0  0  0  # atno 6909 bound_to 6896
  144.9033  140.6800  143.5071 H   0  0  0  0  0  0  0  0  0  0  0  0  # atno 7974 bound_to 7965
  156.1201  140.3213  155.8196 H   0  0  0  0  0  0  0  0  0  0  0  0  # atno 8008 bound_to 7997
  155.4520  140.0533  157.3017 H   0  0  0  0  0  0  0  0  0  0  0  0  # atno 8009 bound_to 7997
  154.4821  140.2057  155.9753 H   0  0  0  0  0  0  0  0  0  0  0  0  # atno 8010 bound_to 7997
  139.8662  144.6518  150.9002 H   0  0  0  0  0  0  0  0  0  0  0  0  # atno 10167 bound_to 10162
  157.6719  131.0818  150.5797 H   0  0  0  0  0  0  0  0  0  0  0  0  # atno 10718 bound_to 10713
  154.2124  135.6392  153.5119 H   0  0  0  0  0  0  0  0  0  0  0  0  # atno 10763 bound_to 10752
  152.9987  135.5477  154.6201 H   0  0  0  0  0  0  0  0  0  0  0  0  # atno 10764 bound_to 10752
  154.5641  135.2911  155.0864 H   0  0  0  0  0  0  0  0  0  0  0  0  # atno 10765 bound_to 10752
  139.8770  134.9106  156.4640 H   0  0  0  0  0  0  0  0  0  0  0  0  # atno 11005 bound_to 11000
  145.3579  139.1689  143.4399 LP  0  0  0  0  0  0  0  0  0  0  0  0  # atno 17320 bound_to 7965
  146.3120  140.3638  142.8667 LP  0  0  0  0  0  0  0  0  0  0  0  0  # atno 17321 bound_to 7965
  140.7768  143.3702  151.1663 LP  0  0  0  0  0  0  0  0  0  0  0  0  # atno 17342 bound_to 10162
  139.7327  143.9047  152.3025 LP  0  0  0  0  0  0  0  0  0  0  0  0  # atno 17343 bound_to 10162
  156.6098  130.4377  149.5863 LP  0  0  0  0  0  0  0  0  0  0  0  0  # atno 17370 bound_to 10713
  156.2439  130.6867  151.1582 LP  0  0  0  0  0  0  0  0  0  0  0  0  # atno 17371 bound_to 10713
  140.8843  133.7894  155.9501 LP  0  0  0  0  0  0  0  0  0  0  0  0  # atno 17394 bound_to 11000
  140.8821  134.2599  157.5139 LP  0  0  0  0  0  0  0  0  0  0  0  0  # atno 17395 bound_to 11000

$$$$
