#       Name:                AV-unprocessed.smi:1945
#       Creating user name   scv26
#       Creation time:       Fri Mar 27 10:00:50 2020


#       File generated by GOLD software.
#

@<TRIPOS>MOLECULE
AV-unprocessed.smi:1945
    52    53     1
SMALL
NO_CHARGES


@<TRIPOS>ATOM
      1 ****        -4.1551   3.0208   1.5072 C.3            1 S1                 0.0000
      2 ****        -3.5488   1.6489   1.5290 C.2            1 S1                 0.0000
      3 ****        -2.1997   1.2897   1.8136 C.2            1 S1                 0.0000
      4 ****        -2.2174  -0.0727   1.6879 C.2            1 S1                 0.0000
      5 ****        -1.1958  -0.9545   1.8505 N.am           1 S1                 0.0000
      6 ****         0.1189  -0.6976   1.9586 C.2            1 S1                 0.0000
      7 ****         0.6212   0.4225   2.0534 O.2            1 S1                 0.0000
      8 ****         0.8369  -1.8296   1.9213 N.am           1 S1                 0.0000
      9 ****         2.2923  -1.8916   1.8322 C.3            1 S1                 0.0000
     10 ****         2.7530  -1.8361   0.3678 C.3            1 S1                 0.0000
     11 ****         2.4545  -0.5527  -0.1601 O.3            1 S1                 0.0000
     12 ****         2.5851  -0.4346  -1.5711 C.3            1 S1                 0.0000
     13 ****         3.4219   0.8272  -1.8524 C.3            1 S1                 0.0000
     14 ****         2.6898   2.1097  -1.4208 C.3            1 S1                 0.0000
     15 ****         1.3040   2.2093  -2.0759 C.3            1 S1                 0.0000
     16 ****         0.4594   0.9578  -1.7893 C.3            1 S1                 0.0000
     17 ****         1.1875  -0.3281  -2.2305 C.3            1 S1                 0.0000
     18 ****         0.3202  -1.5760  -2.0052 C.3            1 S1                 0.0000
     19 ****        -3.4948  -0.4725   1.3579 N.pl3          1 S1                 0.0000
     20 ****        -4.0288  -1.7994   1.1165 C.3            1 S1                 0.0000
     21 ****        -4.3133   0.5969   1.2597 N.2            1 S1                 0.0000
     22 ****        -3.4072   3.7854   1.7180 H              1 S1                 0.0000
     23 ****        -4.9433   3.1133   2.2547 H              1 S1                 0.0000
     24 ****        -4.5900   3.2426   0.5325 H              1 S1                 0.0000
     25 ****        -1.3742   1.9382   2.0661 H              1 S1                 0.0000
     26 ****        -1.4538  -1.9278   1.7851 H              1 S1                 0.0000
     27 ****         0.3411  -2.7066   1.8591 H              1 S1                 0.0000
     28 ****         2.7573  -1.0947   2.4148 H              1 S1                 0.0000
     29 ****         2.6147  -2.8317   2.2800 H              1 S1                 0.0000
     30 ****         3.8277  -2.0096   0.3011 H              1 S1                 0.0000
     31 ****         2.2610  -2.6231  -0.2054 H              1 S1                 0.0000
     32 ****         3.1201  -1.2927  -1.9829 H              1 S1                 0.0000
     33 ****         4.3828   0.7580  -1.3417 H              1 S1                 0.0000
     34 ****         3.6454   0.8820  -2.9184 H              1 S1                 0.0000
     35 ****         2.5816   2.1239  -0.3354 H              1 S1                 0.0000
     36 ****         3.2873   2.9834  -1.6816 H              1 S1                 0.0000
     37 ****         0.7854   3.0980  -1.7147 H              1 S1                 0.0000
     38 ****         1.4175   2.3343  -3.1535 H              1 S1                 0.0000
     39 ****         0.2283   0.9093  -0.7247 H              1 S1                 0.0000
     40 ****        -0.4978   1.0406  -2.3051 H              1 S1                 0.0000
     41 ****         1.3481  -0.2537  -3.3071 H              1 S1                 0.0000
     42 ****         0.0686  -1.7048  -0.9530 H              1 S1                 0.0000
     43 ****         0.8337  -2.4773  -2.3406 H              1 S1                 0.0000
     44 ****        -0.6161  -1.5054  -2.5590 H              1 S1                 0.0000
     45 ****        -3.2327  -2.5438   1.1249 H              1 S1                 0.0000
     46 ****        -4.5218  -1.8262   0.1442 H              1 S1                 0.0000
     47 ****        -4.7542  -2.0486   1.8912 H              1 S1                 0.0000
     48 ****         0.0369   1.2341   2.0538 LP             1 S1                 0.0000
     49 ****         1.6134   0.5207   2.1300 LP             1 S1                 0.0000
     50 ****         3.0732   0.1083   0.2645 LP             1 S1                 0.0000
     51 ****         1.5105  -0.3297   0.0832 LP             1 S1                 0.0000
     52 ****        -5.2872   0.5968   1.0327 LP             1 S1                 0.0000
@<TRIPOS>BOND
    1    1    2 1     
    2    1   22 1     
    3    1   23 1     
    4    1   24 1     
    5    2   21 2     
    6    2    3 1     
    7    3    4 2     
    8    3   25 1     
    9    4    5 1     
   10    4   19 1     
   11    5    6 am    
   12    5   26 1     
   13    6    7 2     
   14    6    8 am    
   15    8    9 1     
   16    8   27 1     
   17    9   10 1     
   18    9   28 1     
   19    9   29 1     
   20   10   11 1     
   21   10   30 1     
   22   10   31 1     
   23   11   12 1     
   24   12   17 1     
   25   12   13 1     
   26   12   32 1     
   27   13   14 1     
   28   13   33 1     
   29   13   34 1     
   30   14   15 1     
   31   14   35 1     
   32   14   36 1     
   33   15   16 1     
   34   15   37 1     
   35   15   38 1     
   36   16   17 1     
   37   16   39 1     
   38   16   40 1     
   39   17   18 1     
   40   17   41 1     
   41   18   42 1     
   42   18   43 1     
   43   18   44 1     
   44   19   20 1     
   45   19   21 1     
   46   20   45 1     
   47   20   46 1     
   48   20   47 1     
   49    7   48 1     
   50    7   49 1     
   51   11   50 1     
   52   11   51 1     
   53   21   52 1     
@<TRIPOS>SUBSTRUCTURE
      1 S1             1
@<TRIPOS>SET
LONE_PAIRS      STATIC     ATOMS    <user>   **** ""
5 48 49 50 51 52
DONOR_HYDROGENS      STATIC     ATOMS    <user>   **** ""
2 26 27
ATOM$BLUE        STATIC     ATOMS    COLORGROUP SYSTEM
5 48 49 50 51 52
ATOM$RED        STATIC     ATOMS    COLORGROUP SYSTEM
2 26 27
