AV-unprocessed.smi:114|AV-procd|sdf|1119|dock4
  -GOLD-   2262018243D 1   1.00000     0.00000
 Structure written by MMmdl.
 32 34  0  0  0  0  0  0  0  0  1 V2000
  152.1068  143.7372  160.8068 N   0  0  0  0  0  0  0  0  0  0  0  0
  152.3629  142.6785  160.0258 C   0  0  0  0  0  0  0  0  0  0  0  0
  153.4502  141.9215  160.3026 N   0  0  0  0  0  0  0  0  0  0  0  0
  153.7447  140.8581  159.5445 C   0  0  0  0  0  0  0  0  0  0  0  0
  154.8511  140.1597  159.8913 F   0  0  0  0  0  0  0  0  0  0  0  0
  153.0677  140.4064  158.4828 N   0  0  0  0  0  0  0  0  0  0  0  0
  151.9666  141.1639  158.2055 C   0  0  0  0  0  0  0  0  0  0  0  0
  151.5513  142.3165  158.9233 C   0  0  0  0  0  0  0  0  0  0  0  0
  150.4036  142.8437  158.3477 N   0  0  0  0  0  0  0  0  0  0  0  0
  150.1631  142.0467  157.3409 C   0  0  0  0  0  0  0  0  0  0  0  0
  151.0379  140.9880  157.2010 N   0  0  0  0  0  0  0  0  0  0  0  0
  151.0652  139.9168  156.1528 C   0  0  2  0  0  0  0  0  0  0  0  0
  150.8798  140.5165  154.9026 O   0  0  0  0  0  0  0  0  0  0  0  0
  149.5709  140.2634  154.3945 C   0  0  2  0  0  0  0  0  0  0  0  0
  148.5949  141.3745  154.8451 C   0  0  0  0  0  0  0  0  0  0  0  0
  148.8898  142.5761  154.1655 O   0  0  0  0  0  0  0  0  0  0  0  0
  149.2823  138.8686  154.9653 C   0  0  2  0  0  0  0  0  0  0  0  0
  147.9020  138.5676  155.0292 O   0  0  0  0  0  0  0  0  0  0  0  0
  149.9130  138.9129  156.3502 C   0  0  1  0  0  0  0  0  0  0  0  0
  150.3885  137.6278  156.6963 O   0  0  0  0  0  0  0  0  0  0  0  0
  152.0643  139.4855  156.2294 H   0  0  0  0  0  0  0  0  0  0  0  0
  149.5938  140.2213  153.3045 H   0  0  0  0  0  0  0  0  0  0  0  0
  149.7848  138.1261  154.3428 H   0  0  0  0  0  0  0  0  0  0  0  0
  149.2059  139.2861  157.0933 H   0  0  0  0  0  0  0  0  0  0  0  0
  151.3020  144.3177  160.6177 H   0  0  0  0  0  0  0  0  0  0  0  0
  152.7172  143.9524  161.5821 H   0  0  0  0  0  0  0  0  0  0  0  0
  149.3283  142.2107  156.6748 H   0  0  0  0  0  0  0  0  0  0  0  0
  147.5703  141.1150  154.5788 H   0  0  0  0  0  0  0  0  0  0  0  0
  148.6071  141.5319  155.9223 H   0  0  0  0  0  0  0  0  0  0  0  0
  149.0145  143.2599  154.8058 H   0  0  0  0  0  0  0  0  0  0  0  0
  147.6650  138.4509  155.9368 H   0  0  0  0  0  0  0  0  0  0  0  0
  151.3237  137.6100  156.5587 H   0  0  0  0  0  0  0  0  0  0  0  0
  1  2  1  0  0  0  0
  1 25  1  0  0  0  0
  1 26  1  0  0  0  0
  2  8  1  0  0  0  0
  2  3  2  0  0  0  0
  3  4  1  0  0  0  0
  4  5  1  0  0  0  0
  4  6  2  0  0  0  0
  6  7  1  0  0  0  0
  7 11  1  0  0  0  0
  7  8  2  0  0  0  0
  8  9  1  0  0  0  0
  9 10  2  0  0  0  0
 10 11  1  0  0  0  0
 10 27  1  0  0  0  0
 11 12  1  0  0  0  0
 12 21  1  0  0  0  0
 12 19  1  0  0  0  0
 12 13  1  0  0  0  0
 13 14  1  0  0  0  0
 14 22  1  0  0  0  0
 14 15  1  0  0  0  0
 14 17  1  0  0  0  0
 15 16  1  0  0  0  0
 15 28  1  0  0  0  0
 15 29  1  0  0  0  0
 16 30  1  0  0  0  0
 17 23  1  0  0  0  0
 17 18  1  0  0  0  0
 17 19  1  0  0  0  0
 18 31  1  0  0  0  0
 19 24  1  0  0  0  0
 19 20  1  0  0  0  0
 20 32  1  0  0  0  0
M  END
> <s_m_source_file>
AV-unprocessed.smi

> <i_m_source_file_index>
114

> <i_lp_mmshare_version>
43012

> <i_f3d_flags>
0

> <s_epik_input>
RmMobjEpbmMoW05IMl0pYyhjMTIpbltjSF1uMltDQEBIXTNPW0NASF0oW0NIMl1bT0hdKVtDQEBIXShbT0hdKVtDQEBIXTNbT0hd

> <s_epik_cmdline>
J2VwaWtfcHl0aG9uJywgJy1waCcsICc3LjAnLCAnLXRuJywgJzgnLCAnLW1hJywgJzIwMCcsICctbWV0YWxfYmluZGluZycsICctaW1hZScsICc8aW5maWxlLm1hZT4nLCAnLW9tYWUnLCAnPG91dGZpbGUubWFlPic=

> <r_lp_tautomer_probability>
1

> <r_epik_Ionization_Penalty>
1.13199e-05

> <r_epik_Ionization_Penalty_Charging>
0

> <r_epik_Ionization_Penalty_Neutral>
1.13199e-05

> <r_epik_State_Penalty>
-0

> <r_epik_Charging_Adjusted_Penalty>
0

> <i_epik_Tot_Q>
0

> <i_epik_Tot_abs_Q>
0

> <r_epik_Metal_State_Penalty>
-0

> <b_epik_Metal_Only>
0

> <s_epik_Chemistry_Notes>
This compound contains an acetal/aminal-like group ( X-CH(R)-Y where X, Y are N, S, or O) that may be acid/base labile, releasing an aldehyde.

> <s_lp_Force_Field>
OPLS_2005

> <r_lp_Energy>
35.5551

> <b_lp_Chiralities_Consistent>
1

> <s_lp_Variant>
AV-unprocessed.smi:114-13

> <Gold.Version>
5.8.1

> <Gold.Id.Protein>
6NUR|6NUR_protein|mol2

> <Gold.PLP.Fitness>
39.8166

> <Gold.PLP.PLP>
-30.3105

> <Gold.PLP.part.hbond>
-4.0076

> <Gold.PLP.part.metal>
0.0000

> <Gold.PLP.part.buried>
-1.9671

> <Gold.PLP.part.nonpolar>
-22.0577

> <Gold.PLP.part.repulsive>
0.2492

> <Gold.PLP.ligand.clash>
0.0000

> <Gold.PLP.ligand.torsion>
0.2844

> <Gold.PLP.Chemscore.Hbond>
2.8561

> <Gold.PLP.Chemscore.CHOScore>
0.4906

> <Gold.PLP.Chemscore.Metal>
0.0000

> <Gold.Chemscore.Hbonds>
donor molecule, donor type, donor heavy atom, donor atom, acceptor molecule, acceptor atom, score
      L1  H    16    30       P1  8028  1.00
      P1  H  7989  7998       L1    13  0.95
      P1  H  7997  8009       L1     6  0.65
      P1  H  8011  8017       L1    16  0.10
      L1  C    10    27       P1  8028  0.37

> <Gold.PLP.Chemscore.Internal.Correction>
0.0348

> <Gold.Rescore>
     Score         DG    S(hbond)    S(metal)    S(lipo)     H(rot)  DE(clash)    DE(int)     intcor
      4.06      -5.26       2.05        0.00      27.71       4.03       0.02       1.19       ----

> <Gold.Chemscore.Fitness>
4.0567

> <Gold.Chemscore.DG>
-5.2642

> <Gold.Chemscore.ZeroCoef>
-5.4800

> <Gold.Chemscore.Hbond>
2.0517

> <Gold.Chemscore.Metal>
0.0000

> <Gold.Chemscore.Lipo>
27.7138

> <Gold.Chemscore.Internal_Hbond>
0.0000

> <Gold.Chemscore.DEClash>
0.0220

> <Gold.Chemscore.DEInternal>
1.1854

> <Gold.Chemscore.Rot>
4.0277

> <Gold.Chemscore.Internal.Correction>
   9.000000E+99

> <Gold.Chemscore.Hbonds>
donor molecule, donor type, donor heavy atom, donor atom, acceptor molecule, acceptor atom, score
      L1  H    16    30       P1  8028  1.00
      P1  H  7989  7998       L1    13  0.21
      P1  H  7997  8009       L1     6  0.25
      P1  H  8011  8017       L1    16  0.09

> <Gold.Chemscore.Hbond.Weighted>
-6.8526

> <Gold.Chemscore.Metal.Weighted>
-0.0000

> <Gold.Chemscore.Lipo.Weighted>
-3.2425

> <Gold.Chemscore.Internal_Hbond.Weighted>
0.0000

> <Gold.Chemscore.DEClash.Weighted>
0.0220

> <Gold.Chemscore.DEInternal.Weighted>
1.1854

> <Gold.Chemscore.Rot.Weighted>
10.3110

> <Gold.Chemscore.Internal.Correction.Weighted>
   9.000000E+99

> <Gold.Protein.RotatedTorsions>
[ 6907 6896 6895 6894 ] final   19.61 input  -60.11 | X-H torsion
[ 7974 7965 7964 7962 ] final  179.02 input  175.53 | X-H torsion
[ 8008 7997 7996 7995 ] final  153.59 input   59.86 | X-H torsion
[ 10167 10162 10161 10158 ] final   -8.83 input  -65.29 | X-H torsion
[ 10718 10713 10712 10709 ] final   -5.34 input   66.30 | X-H torsion
[ 10763 10752 10751 10750 ] final  100.27 input  -60.55 | X-H torsion
[ 11005 11000 10999 10996 ] final -166.40 input  -57.11 | X-H torsion

> <Gold.Protein.ActiveResidues>
 VAL166  LYS551  ARG553  GLY616  TRP617  ASP618  TYR619  PRO620  LYS621  CYS622 
 ASP623  PHE694  ASN695  SER759  ASP760  ASP761  ALA762  ILE779  LEU786  VAL792 
 PHE793  MET794  SER795  GLU796  ALA797  LYS798  CYS799  TRP800  GLU811  SER814 

> <Gold.Protein.RotatedAtoms>
  151.8835  135.0444  160.0490 H   0  0  0  0  0  0  0  0  0  0  0  0  # atno 6907 bound_to 6896
  152.2494  133.5197  159.5324 H   0  0  0  0  0  0  0  0  0  0  0  0  # atno 6908 bound_to 6896
  150.7079  134.0897  159.3970 H   0  0  0  0  0  0  0  0  0  0  0  0  # atno 6909 bound_to 6896
  144.7150  140.0485  143.6436 H   0  0  0  0  0  0  0  0  0  0  0  0  # atno 7974 bound_to 7965
  156.2574  140.1989  156.6515 H   0  0  0  0  0  0  0  0  0  0  0  0  # atno 8008 bound_to 7997
  154.6533  140.0569  157.0005 H   0  0  0  0  0  0  0  0  0  0  0  0  # atno 8009 bound_to 7997
  155.1385  140.3240  155.4460 H   0  0  0  0  0  0  0  0  0  0  0  0  # atno 8010 bound_to 7997
  140.7070  143.5925  150.8879 H   0  0  0  0  0  0  0  0  0  0  0  0  # atno 10167 bound_to 10162
  156.7481  130.5231  149.5810 H   0  0  0  0  0  0  0  0  0  0  0  0  # atno 10718 bound_to 10713
  153.3119  135.4084  155.1343 H   0  0  0  0  0  0  0  0  0  0  0  0  # atno 10763 bound_to 10752
  154.8578  135.3566  154.5712 H   0  0  0  0  0  0  0  0  0  0  0  0  # atno 10764 bound_to 10752
  153.6141  135.7067  153.5394 H   0  0  0  0  0  0  0  0  0  0  0  0  # atno 10765 bound_to 10752
  140.5649  134.5296  157.5150 H   0  0  0  0  0  0  0  0  0  0  0  0  # atno 11005 bound_to 11000
  145.9964  139.3055  143.0954 LP  0  0  0  0  0  0  0  0  0  0  0  0  # atno 17320 bound_to 7965
  145.8844  140.9343  143.0584 LP  0  0  0  0  0  0  0  0  0  0  0  0  # atno 17321 bound_to 7965
  139.9651  143.6120  152.2991 LP  0  0  0  0  0  0  0  0  0  0  0  0  # atno 17342 bound_to 10162
  139.6686  144.7661  151.1825 LP  0  0  0  0  0  0  0  0  0  0  0  0  # atno 17343 bound_to 10162
  156.1420  130.6251  151.0479 LP  0  0  0  0  0  0  0  0  0  0  0  0  # atno 17370 bound_to 10713
  157.6789  131.0843  150.7422 LP  0  0  0  0  0  0  0  0  0  0  0  0  # atno 17371 bound_to 10713
  139.9389  134.7823  156.0729 LP  0  0  0  0  0  0  0  0  0  0  0  0  # atno 17394 bound_to 11000
  141.1092  133.6649  156.2936 LP  0  0  0  0  0  0  0  0  0  0  0  0  # atno 17395 bound_to 11000

$$$$
