AV-unprocessed.smi:2077|AV-procd|sdf|8461|dock2
  -GOLD-   2272011163D 1   1.00000     0.00000
 Structure written by MMmdl.
 38 40  0  0  0  0  0  0  0  0  1 V2000
  156.6958  137.0212  165.2232 C   0  0  0  0  0  0  0  0  0  0  0  0
  155.9054  136.7995  163.9977 N   0  0  0  0  0  0  0  0  0  0  0  0
  155.3703  137.8901  163.3636 C   0  0  0  0  0  0  0  0  0  0  0  0
  155.4993  139.0553  163.7408 O   0  0  0  0  0  0  0  0  0  0  0  0
  154.6059  137.5591  162.1553 C   0  0  0  0  0  0  0  0  0  0  0  0
  154.4475  136.2896  161.7063 C   0  0  0  0  0  0  0  0  0  0  0  0
  153.6885  136.2575  160.5415 N   0  0  0  0  0  0  0  0  0  0  0  0
  153.4235  137.5492  160.3445 C   0  0  0  0  0  0  0  0  0  0  0  0
  153.9352  138.3945  161.2615 N   0  0  0  0  0  0  0  0  0  0  0  0
  153.7911  139.8428  161.2637 C   0  0  0  0  0  0  0  0  0  0  0  0
  154.1741  140.4833  159.9133 C   0  0  2  0  0  0  0  0  0  0  0  0
  155.4961  140.9844  159.9600 O   0  0  0  0  0  0  0  0  0  0  0  0
  153.1749  141.5548  159.5079 C   0  0  0  0  0  0  0  0  0  0  0  0
  153.0967  142.7628  160.2339 C   0  0  0  0  0  0  0  0  0  0  0  0
  152.1733  143.7578  159.8578 C   0  0  0  0  0  0  0  0  0  0  0  0
  151.3254  143.5518  158.7527 C   0  0  0  0  0  0  0  0  0  0  0  0
  151.4015  142.3502  158.0226 C   0  0  0  0  0  0  0  0  0  0  0  0
  150.5880  142.1518  156.9584 F   0  0  0  0  0  0  0  0  0  0  0  0
  152.3240  141.3548  158.3984 C   0  0  0  0  0  0  0  0  0  0  0  0
  155.0465  135.2333  162.4405 N   0  0  0  0  0  0  0  0  0  0  0  0
  154.8882  133.8554  161.9670 C   0  0  0  0  0  0  0  0  0  0  0  0
  155.7738  135.4876  163.5764 C   0  0  0  0  0  0  0  0  0  0  0  0
  156.2968  134.5606  164.2016 O   0  0  0  0  0  0  0  0  0  0  0  0
  156.7370  138.0569  165.5619 H   0  0  0  0  0  0  0  0  0  0  0  0
  157.7275  136.7006  165.0699 H   0  0  0  0  0  0  0  0  0  0  0  0
  156.2857  136.4443  166.0539 H   0  0  0  0  0  0  0  0  0  0  0  0
  152.8394  137.8928  159.5034 H   0  0  0  0  0  0  0  0  0  0  0  0
  152.7509  140.0758  161.4957 H   0  0  0  0  0  0  0  0  0  0  0  0
  154.3766  140.2639  162.0798 H   0  0  0  0  0  0  0  0  0  0  0  0
  154.1692  139.7043  159.1495 H   0  0  0  0  0  0  0  0  0  0  0  0
  155.5874  141.6520  159.2973 H   0  0  0  0  0  0  0  0  0  0  0  0
  153.7438  142.9318  161.0822 H   0  0  0  0  0  0  0  0  0  0  0  0
  152.1160  144.6799  160.4173 H   0  0  0  0  0  0  0  0  0  0  0  0
  150.6176  144.3152  158.4645 H   0  0  0  0  0  0  0  0  0  0  0  0
  152.3783  140.4367  157.8316 H   0  0  0  0  0  0  0  0  0  0  0  0
  154.4198  133.2365  162.7337 H   0  0  0  0  0  0  0  0  0  0  0  0
  155.8595  133.4213  161.7258 H   0  0  0  0  0  0  0  0  0  0  0  0
  154.2698  133.7840  161.0727 H   0  0  0  0  0  0  0  0  0  0  0  0
  1  2  1  0  0  0  0
  1 24  1  0  0  0  0
  1 25  1  0  0  0  0
  1 26  1  0  0  0  0
  2 22  1  0  0  0  0
  2  3  1  0  0  0  0
  3  4  2  0  0  0  0
  3  5  1  0  0  0  0
  5  9  1  0  0  0  0
  5  6  2  0  0  0  0
  6  7  1  0  0  0  0
  6 20  1  0  0  0  0
  7  8  2  0  0  0  0
  8  9  1  0  0  0  0
  8 27  1  0  0  0  0
  9 10  1  0  0  0  0
 10 11  1  0  0  0  0
 10 28  1  0  0  0  0
 10 29  1  0  0  0  0
 11 12  1  0  0  0  0
 11 13  1  0  0  0  0
 11 30  1  0  0  0  0
 12 31  1  0  0  0  0
 13 19  1  0  0  0  0
 13 14  2  0  0  0  0
 14 15  1  0  0  0  0
 14 32  1  0  0  0  0
 15 16  2  0  0  0  0
 15 33  1  0  0  0  0
 16 17  1  0  0  0  0
 16 34  1  0  0  0  0
 17 18  1  0  0  0  0
 17 19  2  0  0  0  0
 19 35  1  0  0  0  0
 20 21  1  0  0  0  0
 20 22  1  0  0  0  0
 21 36  1  0  0  0  0
 21 37  1  0  0  0  0
 21 38  1  0  0  0  0
 22 23  2  0  0  0  0
M  END
> <s_m_source_file>
AV-unprocessed.smi

> <i_m_source_file_index>
2077

> <i_lp_mmshare_version>
43012

> <i_f3d_flags>
0

> <s_epik_input>
Tz1jMW4oW0NIM10pYyg9TyluKFtDSDNdKWMoYzEyKW5bY0hdbjJbQ0gyXVtDQEhdKFtPSF0pYzNbY0hdW2NIXVtjSF1jKEYpW2NIXTM=

> <s_epik_cmdline>
J2VwaWtfcHl0aG9uJywgJy1waCcsICc3LjAnLCAnLXRuJywgJzgnLCAnLW1hJywgJzIwMCcsICctbWV0YWxfYmluZGluZycsICctaW1hZScsICc8aW5maWxlLm1hZT4nLCAnLW9tYWUnLCAnPG91dGZpbGUubWFlPic=

> <r_lp_tautomer_probability>
1

> <r_epik_Ionization_Penalty>
1.5338e-06

> <r_epik_Ionization_Penalty_Charging>
3.74189e-09

> <r_epik_Ionization_Penalty_Neutral>
1.53006e-06

> <r_epik_State_Penalty>
-0

> <r_epik_Charging_Adjusted_Penalty>
3.74189e-09

> <i_epik_Tot_Q>
0

> <i_epik_Tot_abs_Q>
0

> <r_epik_Metal_State_Penalty>
-0

> <b_epik_Metal_Only>
0

> <s_lp_Force_Field>
OPLS_2005

> <r_lp_Energy>
35.2177

> <b_lp_Chiralities_Consistent>
1

> <s_lp_Variant>
AV-unprocessed.smi:2077-1

> <Gold.Version>
5.8.1

> <Gold.Id.Protein>
6NUR|6NUR_protein|mol2

> <Gold.PLP.Fitness>
39.8686

> <Gold.PLP.PLP>
-38.4378

> <Gold.PLP.part.hbond>
-1.4400

> <Gold.PLP.part.metal>
0.0000

> <Gold.PLP.part.buried>
-4.8458

> <Gold.PLP.part.nonpolar>
-32.1130

> <Gold.PLP.part.repulsive>
0.0454

> <Gold.PLP.ligand.clash>
0.0000

> <Gold.PLP.ligand.torsion>
0.7380

> <Gold.PLP.Chemscore.Hbond>
0.9588

> <Gold.PLP.Chemscore.CHOScore>
0.0000

> <Gold.PLP.Chemscore.Metal>
0.0000

> <Gold.Chemscore.Hbonds>
donor molecule, donor type, donor heavy atom, donor atom, acceptor molecule, acceptor atom, score
      P1  H  6896  6909       L1     7  1.00

> <Gold.PLP.Chemscore.Internal.Correction>
0.0305

> <Gold.Rescore>
     Score         DG    S(hbond)    S(metal)    S(lipo)     H(rot)  DE(clash)    DE(int)     intcor
     13.50     -14.20       0.99        0.00      95.12       2.24       0.03       0.68       ----

> <Gold.Chemscore.Fitness>
13.5004

> <Gold.Chemscore.DG>
-14.2029

> <Gold.Chemscore.ZeroCoef>
-5.4800

> <Gold.Chemscore.Hbond>
0.9947

> <Gold.Chemscore.Metal>
0.0000

> <Gold.Chemscore.Lipo>
95.1204

> <Gold.Chemscore.Internal_Hbond>
0.0000

> <Gold.Chemscore.DEClash>
0.0257

> <Gold.Chemscore.DEInternal>
0.6768

> <Gold.Chemscore.Rot>
2.2377

> <Gold.Chemscore.Internal.Correction>
   9.000000E+99

> <Gold.Chemscore.Hbonds>
donor molecule, donor type, donor heavy atom, donor atom, acceptor molecule, acceptor atom, score
      P1  H  6896  6909       L1     7  0.90

> <Gold.Chemscore.Hbond.Weighted>
-3.3224

> <Gold.Chemscore.Metal.Weighted>
-0.0000

> <Gold.Chemscore.Lipo.Weighted>
-11.1291

> <Gold.Chemscore.Internal_Hbond.Weighted>
0.0000

> <Gold.Chemscore.DEClash.Weighted>
0.0257

> <Gold.Chemscore.DEInternal.Weighted>
0.6768

> <Gold.Chemscore.Rot.Weighted>
5.7286

> <Gold.Chemscore.Internal.Correction.Weighted>
   9.000000E+99

> <Gold.Protein.RotatedTorsions>
[ 6907 6896 6895 6894 ] final  164.51 input  -60.11 | X-H torsion
[ 7974 7965 7964 7962 ] final   45.21 input  175.53 | X-H torsion
[ 8008 7997 7996 7995 ] final  110.14 input   59.86 | X-H torsion
[ 10167 10162 10161 10158 ] final   68.86 input  -65.29 | X-H torsion
[ 10718 10713 10712 10709 ] final  -11.26 input   66.30 | X-H torsion
[ 10763 10752 10751 10750 ] final  -13.07 input  -60.55 | X-H torsion
[ 11005 11000 10999 10996 ] final  118.26 input  -57.11 | X-H torsion

> <Gold.Protein.ActiveResidues>
 VAL166  LYS551  ARG553  GLY616  TRP617  ASP618  TYR619  PRO620  LYS621  CYS622 
 ASP623  PHE694  ASN695  SER759  ASP760  ASP761  ALA762  ILE779  LEU786  VAL792 
 PHE793  MET794  SER795  GLU796  ALA797  LYS798  CYS799  TRP800  GLU811  SER814 

> <Gold.Protein.RotatedAtoms>
  151.9087  133.3555  159.3855 H   0  0  0  0  0  0  0  0  0  0  0  0  # atno 6907 bound_to 6896
  150.7063  134.4754  159.5454 H   0  0  0  0  0  0  0  0  0  0  0  0  # atno 6908 bound_to 6896
  152.2356  134.8279  160.0518 H   0  0  0  0  0  0  0  0  0  0  0  0  # atno 6909 bound_to 6896
  146.0500  139.4989  142.9724 H   0  0  0  0  0  0  0  0  0  0  0  0  # atno 7974 bound_to 7965
  156.2031  140.3044  155.9569 H   0  0  0  0  0  0  0  0  0  0  0  0  # atno 8008 bound_to 7997
  155.2906  140.0442  157.3040 H   0  0  0  0  0  0  0  0  0  0  0  0  # atno 8009 bound_to 7997
  154.5597  140.2316  155.8363 H   0  0  0  0  0  0  0  0  0  0  0  0  # atno 8010 bound_to 7997
  140.0741  144.5127  150.7207 H   0  0  0  0  0  0  0  0  0  0  0  0  # atno 10167 bound_to 10162
  156.6616  130.4983  149.6028 H   0  0  0  0  0  0  0  0  0  0  0  0  # atno 10718 bound_to 10713
  153.5079  135.7016  153.5797 H   0  0  0  0  0  0  0  0  0  0  0  0  # atno 10763 bound_to 10752
  153.3900  135.3898  155.1916 H   0  0  0  0  0  0  0  0  0  0  0  0  # atno 10764 bound_to 10752
  154.8705  135.3856  154.4556 H   0  0  0  0  0  0  0  0  0  0  0  0  # atno 10765 bound_to 10752
  139.9103  134.9618  156.7475 H   0  0  0  0  0  0  0  0  0  0  0  0  # atno 11005 bound_to 11000
  145.6741  141.0209  143.1642 LP  0  0  0  0  0  0  0  0  0  0  0  0  # atno 17320 bound_to 7965
  144.7117  139.8344  143.7412 LP  0  0  0  0  0  0  0  0  0  0  0  0  # atno 17321 bound_to 7965
  140.7111  143.2505  151.4579 LP  0  0  0  0  0  0  0  0  0  0  0  0  # atno 17342 bound_to 10162
  139.5818  144.1692  152.1978 LP  0  0  0  0  0  0  0  0  0  0  0  0  # atno 17343 bound_to 10162
  156.2006  130.6617  151.1163 LP  0  0  0  0  0  0  0  0  0  0  0  0  # atno 17370 bound_to 10713
  157.7107  131.0735  150.6509 LP  0  0  0  0  0  0  0  0  0  0  0  0  # atno 17371 bound_to 10713
  140.6800  133.9483  155.7905 LP  0  0  0  0  0  0  0  0  0  0  0  0  # atno 17394 bound_to 11000
  141.0517  134.0475  157.3775 LP  0  0  0  0  0  0  0  0  0  0  0  0  # atno 17395 bound_to 11000

$$$$
