AV-unprocessed.smi:34|AV-procd|sdf|221|dock10
  -GOLD-   2262015543D 1   1.00000     0.00000
 Structure written by MMmdl.
 55 59  0  0  0  0  0  0  0  0  1 V2000
  153.0683  139.8698  158.0001 O   0  0  0  0  0  0  0  0  0  0  0  0
  152.2044  140.7326  157.8403 C   0  0  0  0  0  0  0  0  0  0  0  0
  151.1961  140.6332  156.7996 N   0  0  0  0  0  0  0  0  0  0  0  0
  150.9740  139.6061  155.9458 C   0  0  0  0  0  0  0  0  0  0  0  0
  150.8083  139.7912  154.6095 N   0  0  0  0  0  0  0  0  0  0  0  0
  150.5991  138.7444  153.8059 C   0  0  0  0  0  0  0  0  0  0  0  0
  150.5219  137.4513  154.1249 N   0  0  0  0  0  0  0  0  0  0  0  0
  150.6867  137.2564  155.4650 C   0  0  0  0  0  0  0  0  0  0  0  0
  150.9145  138.2742  156.4328 C   0  0  0  0  0  0  0  0  0  0  0  0
  151.0356  137.7048  157.6939 N   0  0  0  0  0  0  0  0  0  0  0  0
  150.8894  136.4247  157.4785 C   0  0  0  0  0  0  0  0  0  0  0  0
  150.6730  136.0681  156.1661 N   0  0  0  0  0  0  0  0  0  0  0  0
  150.4799  134.6949  155.6122 C   0  0  2  0  0  0  0  0  0  0  0  0
  149.1624  134.5933  155.1737 O   0  0  0  0  0  0  0  0  0  0  0  0
  148.7311  133.2559  155.3655 C   0  0  2  0  0  0  0  0  0  0  0  0
  147.2005  133.1652  155.3414 C   0  0  0  0  0  0  0  0  0  0  0  0
  146.7712  132.8918  154.0179 O   0  0  0  0  0  0  0  0  0  0  0  0
  146.3281  133.8930  153.2326 C   0  0  0  0  0  0  0  0  0  0  0  0
  146.5256  135.0861  153.4716 O   0  0  0  0  0  0  0  0  0  0  0  0
  145.5714  133.4058  152.0430 C   0  0  0  0  0  0  0  0  0  0  0  0
  145.3377  132.0191  151.8903 C   0  0  0  0  0  0  0  0  0  0  0  0
  144.6250  131.5299  150.7783 C   0  0  0  0  0  0  0  0  0  0  0  0
  144.1363  132.4216  149.8059 C   0  0  0  0  0  0  0  0  0  0  0  0
  144.3615  133.8033  149.9464 C   0  0  0  0  0  0  0  0  0  0  0  0
  145.0746  134.2944  151.0574 C   0  0  0  0  0  0  0  0  0  0  0  0
  149.3666  132.8750  156.7045 C   0  0  2  0  0  0  0  0  0  0  0  0
  148.6244  133.3067  157.7255 F   0  0  0  0  0  0  0  0  0  0  0  0
  150.6971  133.6200  156.6930 C   0  0  1  0  0  0  0  0  0  0  0  0
  151.7389  132.7290  156.3488 O   0  0  0  0  0  0  0  0  0  0  0  0
  152.1880  141.9929  158.6563 C   0  0  0  0  0  0  0  0  0  0  0  0
  151.6109  143.1695  158.1277 C   0  0  0  0  0  0  0  0  0  0  0  0
  151.6061  144.3612  158.8788 C   0  0  0  0  0  0  0  0  0  0  0  0
  152.1843  144.3884  160.1620 C   0  0  0  0  0  0  0  0  0  0  0  0
  152.7726  143.2243  160.6914 C   0  0  0  0  0  0  0  0  0  0  0  0
  152.7785  142.0321  159.9412 C   0  0  0  0  0  0  0  0  0  0  0  0
  150.5664  141.4181  156.7189 H   0  0  0  0  0  0  0  0  0  0  0  0
  150.4765  138.9760  152.7582 H   0  0  0  0  0  0  0  0  0  0  0  0
  150.9360  135.6995  158.2782 H   0  0  0  0  0  0  0  0  0  0  0  0
  151.1733  134.6218  154.7728 H   0  0  0  0  0  0  0  0  0  0  0  0
  149.1599  132.6326  154.5785 H   0  0  0  0  0  0  0  0  0  0  0  0
  146.8663  132.3591  155.9959 H   0  0  0  0  0  0  0  0  0  0  0  0
  146.7561  134.0929  155.7050 H   0  0  0  0  0  0  0  0  0  0  0  0
  145.7032  131.3150  152.6240 H   0  0  0  0  0  0  0  0  0  0  0  0
  144.4533  130.4687  150.6720 H   0  0  0  0  0  0  0  0  0  0  0  0
  143.5895  132.0466  148.9532 H   0  0  0  0  0  0  0  0  0  0  0  0
  143.9864  134.4890  149.2010 H   0  0  0  0  0  0  0  0  0  0  0  0
  145.2282  135.3608  151.1355 H   0  0  0  0  0  0  0  0  0  0  0  0
  149.4668  131.7961  156.8299 H   0  0  0  0  0  0  0  0  0  0  0  0
  150.9175  134.0708  157.6621 H   0  0  0  0  0  0  0  0  0  0  0  0
  152.5561  133.2033  156.3653 H   0  0  0  0  0  0  0  0  0  0  0  0
  151.1640  143.1660  157.1438 H   0  0  0  0  0  0  0  0  0  0  0  0
  151.1594  145.2551  158.4691 H   0  0  0  0  0  0  0  0  0  0  0  0
  152.1805  145.3021  160.7378 H   0  0  0  0  0  0  0  0  0  0  0  0
  153.2224  143.2465  161.6732 H   0  0  0  0  0  0  0  0  0  0  0  0
  153.2446  141.1535  160.3632 H   0  0  0  0  0  0  0  0  0  0  0  0
  1  2  2  0  0  0  0
  2  3  1  0  0  0  0
  2 30  1  0  0  0  0
  3  4  1  0  0  0  0
  3 36  1  0  0  0  0
  4  9  1  0  0  0  0
  4  5  2  0  0  0  0
  5  6  1  0  0  0  0
  6  7  2  0  0  0  0
  6 37  1  0  0  0  0
  7  8  1  0  0  0  0
  8 12  1  0  0  0  0
  8  9  2  0  0  0  0
  9 10  1  0  0  0  0
 10 11  2  0  0  0  0
 11 12  1  0  0  0  0
 11 38  1  0  0  0  0
 12 13  1  0  0  0  0
 13 28  1  0  0  0  0
 13 14  1  0  0  0  0
 13 39  1  0  0  0  0
 14 15  1  0  0  0  0
 15 16  1  0  0  0  0
 15 26  1  0  0  0  0
 15 40  1  0  0  0  0
 16 17  1  0  0  0  0
 16 41  1  0  0  0  0
 16 42  1  0  0  0  0
 17 18  1  0  0  0  0
 18 19  2  0  0  0  0
 18 20  1  0  0  0  0
 20 25  1  0  0  0  0
 20 21  2  0  0  0  0
 21 22  1  0  0  0  0
 21 43  1  0  0  0  0
 22 23  2  0  0  0  0
 22 44  1  0  0  0  0
 23 24  1  0  0  0  0
 23 45  1  0  0  0  0
 24 25  2  0  0  0  0
 24 46  1  0  0  0  0
 25 47  1  0  0  0  0
 26 27  1  0  0  0  0
 26 28  1  0  0  0  0
 26 48  1  0  0  0  0
 28 29  1  0  0  0  0
 28 49  1  0  0  0  0
 29 50  1  0  0  0  0
 30 35  1  0  0  0  0
 30 31  2  0  0  0  0
 31 32  1  0  0  0  0
 31 51  1  0  0  0  0
 32 33  2  0  0  0  0
 32 52  1  0  0  0  0
 33 34  1  0  0  0  0
 33 53  1  0  0  0  0
 34 35  2  0  0  0  0
 34 54  1  0  0  0  0
 35 55  1  0  0  0  0
M  END
> <s_m_source_file>
AV-unprocessed.smi

> <i_m_source_file_index>
34

> <i_lp_mmshare_version>
43012

> <i_f3d_flags>
0

> <s_epik_input>
W2NIXTFbY0hdW2NIXVtjSF1bY0hdYzFDKD1PKVtOSF1jKG5bY0hdbjIpYyhjMjMpbltjSF1uM1tDQEBIXTRPW0NASF0oW0NAQEhdKEYpW0NASF00W09IXSlbQ0gyXU9DKD1PKWM1W2NIXVtjSF1bY0hdW2NIXVtjSF01

> <s_epik_cmdline>
J2VwaWtfcHl0aG9uJywgJy1waCcsICc3LjAnLCAnLXRuJywgJzgnLCAnLW1hJywgJzIwMCcsICctbWV0YWxfYmluZGluZycsICctaW1hZScsICc8aW5maWxlLm1hZT4nLCAnLW9tYWUnLCAnPG91dGZpbGUubWFlPic=

> <r_lp_tautomer_probability>
1

> <r_epik_Ionization_Penalty>
0.00257489

> <r_epik_Ionization_Penalty_Charging>
0

> <r_epik_Ionization_Penalty_Neutral>
0.00257489

> <r_epik_State_Penalty>
0.00519398

> <r_epik_Charging_Adjusted_Penalty>
0.00519398

> <i_epik_Tot_Q>
0

> <i_epik_Tot_abs_Q>
0

> <r_epik_Metal_State_Penalty>
0.335891

> <b_epik_Metal_Only>
0

> <s_epik_Chemistry_Notes>
This compound has an ester and may undergo hydrolysis at high or low pH. This compound contains an acetal/aminal-like group ( X-CH(R)-Y where X, Y are N, S, or O) that may be acid/base labile, releasing an aldehyde.

> <s_lp_Force_Field>
OPLS_2005

> <r_lp_Energy>
45.7986

> <b_lp_Chiralities_Consistent>
1

> <s_lp_Variant>
AV-unprocessed.smi:34-7

> <Gold.Version>
5.8.1

> <Gold.Id.Protein>
6NUR|6NUR_protein|mol2

> <Gold.PLP.Fitness>
57.0234

> <Gold.PLP.PLP>
-51.1388

> <Gold.PLP.part.hbond>
-2.0000

> <Gold.PLP.part.metal>
0.0000

> <Gold.PLP.part.buried>
-7.1840

> <Gold.PLP.part.nonpolar>
-43.4637

> <Gold.PLP.part.repulsive>
2.1304

> <Gold.PLP.ligand.clash>
0.0000

> <Gold.PLP.ligand.torsion>
1.6353

> <Gold.PLP.Chemscore.Hbond>
2.0000

> <Gold.PLP.Chemscore.CHOScore>
1.0000

> <Gold.PLP.Chemscore.Metal>
0.0000

> <Gold.Chemscore.Hbonds>
donor molecule, donor type, donor heavy atom, donor atom, acceptor molecule, acceptor atom, score
      P1  H  7989  7998       L1     5  1.00
      P1  H  7997  8008       L1     1  1.00
      L1  C     6    37       P1  7957  1.00

> <Gold.PLP.Chemscore.Internal.Correction>
0.1553

> <Gold.Rescore>
     Score         DG    S(hbond)    S(metal)    S(lipo)     H(rot)  DE(clash)    DE(int)     intcor
     15.87     -19.12       1.61        0.00     130.07       2.72       1.02       2.23       ----

> <Gold.Chemscore.Fitness>
15.8742

> <Gold.Chemscore.DG>
-19.1238

> <Gold.Chemscore.ZeroCoef>
-5.4800

> <Gold.Chemscore.Hbond>
1.6144

> <Gold.Chemscore.Metal>
0.0000

> <Gold.Chemscore.Lipo>
130.0735

> <Gold.Chemscore.Internal_Hbond>
0.0000

> <Gold.Chemscore.DEClash>
1.0202

> <Gold.Chemscore.DEInternal>
2.2293

> <Gold.Chemscore.Rot>
2.7215

> <Gold.Chemscore.Internal.Correction>
   9.000000E+99

> <Gold.Chemscore.Hbonds>
donor molecule, donor type, donor heavy atom, donor atom, acceptor molecule, acceptor atom, score
      P1  H  7989  7998       L1     5  0.26
      P1  H  7997  8008       L1     1  0.85

> <Gold.Chemscore.Hbond.Weighted>
-5.3922

> <Gold.Chemscore.Metal.Weighted>
-0.0000

> <Gold.Chemscore.Lipo.Weighted>
-15.2186

> <Gold.Chemscore.Internal_Hbond.Weighted>
0.0000

> <Gold.Chemscore.DEClash.Weighted>
1.0202

> <Gold.Chemscore.DEInternal.Weighted>
2.2293

> <Gold.Chemscore.Rot.Weighted>
6.9670

> <Gold.Chemscore.Internal.Correction.Weighted>
   9.000000E+99

> <Gold.Protein.RotatedTorsions>
[ 6907 6896 6895 6894 ] final  -56.05 input  -60.11 | X-H torsion
[ 7974 7965 7964 7962 ] final  -83.77 input  175.53 | X-H torsion
[ 8008 7997 7996 7995 ] final  -76.15 input   59.86 | X-H torsion
[ 10167 10162 10161 10158 ] final -108.79 input  -65.29 | X-H torsion
[ 10718 10713 10712 10709 ] final   19.40 input   66.30 | X-H torsion
[ 10763 10752 10751 10750 ] final  161.46 input  -60.55 | X-H torsion
[ 11005 11000 10999 10996 ] final  130.08 input  -57.11 | X-H torsion

> <Gold.Protein.ActiveResidues>
 VAL166  LYS551  ARG553  GLY616  TRP617  ASP618  TYR619  PRO620  LYS621  CYS622 
 ASP623  PHE694  ASN695  SER759  ASP760  ASP761  ALA762  ILE779  LEU786  VAL792 
 PHE793  MET794  SER795  GLU796  ALA797  LYS798  CYS799  TRP800  GLU811  SER814 

> <Gold.Protein.RotatedAtoms>
  150.8200  134.7402  159.6763 H   0  0  0  0  0  0  0  0  0  0  0  0  # atno 6907 bound_to 6896
  152.4316  134.5763  159.9945 H   0  0  0  0  0  0  0  0  0  0  0  0  # atno 6908 bound_to 6896
  151.5950  133.3325  159.3071 H   0  0  0  0  0  0  0  0  0  0  0  0  # atno 6909 bound_to 6896
  145.5155  140.9536  143.1683 H   0  0  0  0  0  0  0  0  0  0  0  0  # atno 7974 bound_to 7965
  154.5480  140.0732  156.8620 H   0  0  0  0  0  0  0  0  0  0  0  0  # atno 8008 bound_to 7997
  155.3050  140.3386  155.4228 H   0  0  0  0  0  0  0  0  0  0  0  0  # atno 8009 bound_to 7997
  156.1935  140.1695  156.8030 H   0  0  0  0  0  0  0  0  0  0  0  0  # atno 8010 bound_to 7997
  140.1623  143.4110  152.1416 H   0  0  0  0  0  0  0  0  0  0  0  0  # atno 10167 bound_to 10162
  157.1099  130.6504  149.5895 H   0  0  0  0  0  0  0  0  0  0  0  0  # atno 10718 bound_to 10713
  154.2633  135.2768  155.2769 H   0  0  0  0  0  0  0  0  0  0  0  0  # atno 10763 bound_to 10752
  154.5365  135.5715  153.6806 H   0  0  0  0  0  0  0  0  0  0  0  0  # atno 10764 bound_to 10752
  152.9958  135.6240  154.2785 H   0  0  0  0  0  0  0  0  0  0  0  0  # atno 10765 bound_to 10752
  139.9651  134.9592  156.9241 H   0  0  0  0  0  0  0  0  0  0  0  0  # atno 11005 bound_to 11000
  144.7704  139.6748  143.7197 LP  0  0  0  0  0  0  0  0  0  0  0  0  # atno 17320 bound_to 7965
  146.2139  139.5515  142.9663 LP  0  0  0  0  0  0  0  0  0  0  0  0  # atno 17321 bound_to 7965
  139.5375  144.7224  151.4843 LP  0  0  0  0  0  0  0  0  0  0  0  0  # atno 17342 bound_to 10162
  140.6635  143.8448  150.6915 LP  0  0  0  0  0  0  0  0  0  0  0  0  # atno 17343 bound_to 10162
  155.9853  130.4882  150.7024 LP  0  0  0  0  0  0  0  0  0  0  0  0  # atno 17370 bound_to 10713
  157.4568  131.0879  151.0788 LP  0  0  0  0  0  0  0  0  0  0  0  0  # atno 17371 bound_to 10713
  140.5414  134.0717  155.7342 LP  0  0  0  0  0  0  0  0  0  0  0  0  # atno 17394 bound_to 11000
  141.1331  133.9269  157.2493 LP  0  0  0  0  0  0  0  0  0  0  0  0  # atno 17395 bound_to 11000

$$$$
