AV-unprocessed.smi:2451|AV-procd|sdf|9680|dock1
  -GOLD-   2272013313D 1   1.00000     0.00000
 Structure written by MMmdl.
 37 38  0  0  0  0  0  0  0  0  2 V2000
  149.9404  144.5171  159.7081 C   0  0  0  0  0  0  0  0  0  0  0  0
  151.4614  144.6937  159.4864 C   0  0  1  0  0  0  0  0  0  0  0  0
  152.1930  144.9934  160.8173 C   0  0  0  0  0  0  0  0  0  0  0  0
  152.3588  143.7037  161.6461 C   0  0  0  0  0  0  0  0  0  0  0  0
  153.0679  142.5818  160.8529 C   0  0  0  0  0  0  0  0  0  0  0  0
  152.3781  142.2342  159.5095 C   0  0  2  0  0  0  0  0  0  0  0  0
  153.2120  141.2948  158.7721 N   0  5  0  0  0  0  0  0  0  0  0  0
  152.7025  139.7708  158.5490 S   0  0  0  0  0  0  0  0  0  0  0  0
  153.6579  138.9543  157.7814 O   0  0  0  0  0  0  0  0  0  0  0  0
  152.1634  139.1864  159.7877 O   0  0  0  0  0  0  0  0  0  0  0  0
  151.2447  140.0505  157.4489 C   0  0  0  0  0  0  0  0  0  0  0  0
  151.2632  139.0924  156.2884 C   0  0  0  0  0  0  0  0  0  0  0  0
  151.1762  139.3827  154.8981 C   0  0  0  0  0  0  0  0  0  0  0  0
  151.2458  138.1535  154.3093 C   0  0  0  0  0  0  0  0  0  0  0  0
  151.3528  137.1816  155.2501 O   0  0  0  0  0  0  0  0  0  0  0  0
  151.3593  137.7900  156.5105 N   0  0  0  0  0  0  0  0  0  0  0  0
  152.1558  143.5420  158.6794 C   0  0  1  0  0  0  0  0  0  0  0  0
  151.4498  143.3019  157.3228 C   0  0  0  0  0  0  0  0  0  0  0  0
  149.7057  143.6173  160.2763 H   0  0  0  0  0  0  0  0  0  0  0  0
  149.3998  144.4614  158.7637 H   0  0  0  0  0  0  0  0  0  0  0  0
  149.5283  145.3640  160.2571 H   0  0  0  0  0  0  0  0  0  0  0  0
  151.5590  145.5968  158.8821 H   0  0  0  0  0  0  0  0  0  0  0  0
  153.1786  145.4080  160.6016 H   0  0  0  0  0  0  0  0  0  0  0  0
  151.6607  145.7516  161.3924 H   0  0  0  0  0  0  0  0  0  0  0  0
  152.9348  143.9269  162.5445 H   0  0  0  0  0  0  0  0  0  0  0  0
  151.3850  143.3599  161.9992 H   0  0  0  0  0  0  0  0  0  0  0  0
  154.0971  142.8918  160.6638 H   0  0  0  0  0  0  0  0  0  0  0  0
  153.1331  141.6898  161.4769 H   0  0  0  0  0  0  0  0  0  0  0  0
  151.3966  141.8120  159.7298 H   0  0  0  0  0  0  0  0  0  0  0  0
  150.3487  139.9059  158.0526 H   0  0  0  0  0  0  0  0  0  0  0  0
  151.2480  141.0881  157.1164 H   0  0  0  0  0  0  0  0  0  0  0  0
  151.0882  140.3434  154.4126 H   0  0  0  0  0  0  0  0  0  0  0  0
  151.2311  137.8208  153.2822 H   0  0  0  0  0  0  0  0  0  0  0  0
  153.1499  143.9206  158.4340 H   0  0  0  0  0  0  0  0  0  0  0  0
  150.4691  142.8376  157.4377 H   0  0  0  0  0  0  0  0  0  0  0  0
  152.0365  142.6644  156.6592 H   0  0  0  0  0  0  0  0  0  0  0  0
  151.3025  144.2444  156.7950 H   0  0  0  0  0  0  0  0  0  0  0  0
  1  2  1  0  0  0  0
  1 19  1  0  0  0  0
  1 20  1  0  0  0  0
  1 21  1  0  0  0  0
  2 17  1  0  0  0  0
  2  3  1  0  0  0  0
  2 22  1  0  0  0  0
  3  4  1  0  0  0  0
  3 23  1  0  0  0  0
  3 24  1  0  0  0  0
  4  5  1  0  0  0  0
  4 25  1  0  0  0  0
  4 26  1  0  0  0  0
  5  6  1  0  0  0  0
  5 27  1  0  0  0  0
  5 28  1  0  0  0  0
  6  7  1  0  0  0  0
  6 17  1  0  0  0  0
  6 29  1  0  0  0  0
  7  8  1  0  0  0  0
  8  9  2  0  0  0  0
  8 10  2  0  0  0  0
  8 11  1  0  0  0  0
 11 12  1  0  0  0  0
 11 30  1  0  0  0  0
 11 31  1  0  0  0  0
 12 16  2  0  0  0  0
 12 13  1  0  0  0  0
 13 14  2  0  0  0  0
 13 32  1  0  0  0  0
 14 15  1  0  0  0  0
 14 33  1  0  0  0  0
 15 16  1  0  0  0  0
 17 18  1  0  0  0  0
 17 34  1  0  0  0  0
 18 35  1  0  0  0  0
 18 36  1  0  0  0  0
 18 37  1  0  0  0  0
M  CHG  1   7  -1
M  END
> <s_m_source_file>
AV-unprocessed.smi

> <i_m_source_file_index>
2451

> <i_lp_mmshare_version>
43012

> <i_f3d_flags>
0

> <s_epik_input>
W0NIM11bQ0BASF0xW0NIMl1bQ0gyXVtDSDJdW0NASF0oW0NASF0xW0NIM10pW05IXVMoPU8pKD1PKVtDSDJdYzJbY0hdW2NIXW9uMg==

> <s_epik_cmdline>
J2VwaWtfcHl0aG9uJywgJy1waCcsICc3LjAnLCAnLXRuJywgJzgnLCAnLW1hJywgJzIwMCcsICctbWV0YWxfYmluZGluZycsICctaW1hZScsICc8aW5maWxlLm1hZT4nLCAnLW9tYWUnLCAnPG91dGZpbGUubWFlPic=

> <r_lp_tautomer_probability>
1

> <r_epik_Ionization_Penalty>
5.22693

> <r_epik_Ionization_Penalty_Charging>
5.22693

> <r_epik_Ionization_Penalty_Neutral>
2.67702e-10

> <r_epik_State_Penalty>
5.22685

> <r_epik_Charging_Adjusted_Penalty>
10.4538

> <i_epik_Tot_Q>
-1

> <i_epik_Tot_abs_Q>
1

> <r_epik_Metal_State_Penalty>
1.28716

> <b_epik_Metal_Only>
1

> <s_lp_Force_Field>
OPLS_2005

> <r_lp_Energy>
15.3102

> <b_lp_Chiralities_Consistent>
1

> <s_lp_Variant>
AV-unprocessed.smi:2451-12

> <Gold.Version>
5.8.1

> <Gold.Id.Protein>
6NUR|6NUR_protein|mol2

> <Gold.PLP.Fitness>
45.1525

> <Gold.PLP.PLP>
-36.8095

> <Gold.PLP.part.hbond>
-2.5383

> <Gold.PLP.part.metal>
0.0000

> <Gold.PLP.part.buried>
-1.3626

> <Gold.PLP.part.nonpolar>
-33.6760

> <Gold.PLP.part.repulsive>
0.0773

> <Gold.PLP.ligand.clash>
0.0000

> <Gold.PLP.ligand.torsion>
0.8366

> <Gold.PLP.Chemscore.Hbond>
2.0000

> <Gold.PLP.Chemscore.CHOScore>
1.0000

> <Gold.PLP.Chemscore.Metal>
0.0000

> <Gold.Chemscore.Hbonds>
donor molecule, donor type, donor heavy atom, donor atom, acceptor molecule, acceptor atom, score
      P1  H  7997  8009       L1     9  1.00
      P1  H 10752 10763       L1    15  0.24
      L1  C    14    33       P1  7949  0.93

> <Gold.PLP.Chemscore.Internal.Correction>
1.0162

> <Gold.Rescore>
     Score         DG    S(hbond)    S(metal)    S(lipo)     H(rot)  DE(clash)    DE(int)     intcor
     16.69     -18.26       1.11        0.00     108.07       1.40       0.65       0.92       ----

> <Gold.Chemscore.Fitness>
16.6942

> <Gold.Chemscore.DG>
-18.2621

> <Gold.Chemscore.ZeroCoef>
-5.4800

> <Gold.Chemscore.Hbond>
1.1133

> <Gold.Chemscore.Metal>
0.0000

> <Gold.Chemscore.Lipo>
108.0699

> <Gold.Chemscore.Internal_Hbond>
0.0000

> <Gold.Chemscore.DEClash>
0.6514

> <Gold.Chemscore.DEInternal>
0.9165

> <Gold.Chemscore.Rot>
1.3986

> <Gold.Chemscore.Internal.Correction>
   9.000000E+99

> <Gold.Chemscore.Hbonds>
donor molecule, donor type, donor heavy atom, donor atom, acceptor molecule, acceptor atom, score
      P1  H  7997  8009       L1     9  0.54
      P1  H 10752 10763       L1    15  0.18

> <Gold.Chemscore.Hbond.Weighted>
-3.7183

> <Gold.Chemscore.Metal.Weighted>
-0.0000

> <Gold.Chemscore.Lipo.Weighted>
-12.6442

> <Gold.Chemscore.Internal_Hbond.Weighted>
0.0000

> <Gold.Chemscore.DEClash.Weighted>
0.6514

> <Gold.Chemscore.DEInternal.Weighted>
0.9165

> <Gold.Chemscore.Rot.Weighted>
3.5804

> <Gold.Chemscore.Internal.Correction.Weighted>
   9.000000E+99

> <Gold.Protein.RotatedTorsions>
[ 6907 6896 6895 6894 ] final  -50.89 input  -60.11 | X-H torsion
[ 7974 7965 7964 7962 ] final -152.37 input  175.53 | X-H torsion
[ 8008 7997 7996 7995 ] final  139.85 input   59.86 | X-H torsion
[ 10167 10162 10161 10158 ] final  -46.52 input  -65.29 | X-H torsion
[ 10718 10713 10712 10709 ] final   98.20 input   66.30 | X-H torsion
[ 10763 10752 10751 10750 ] final   58.10 input  -60.55 | X-H torsion
[ 11005 11000 10999 10996 ] final   54.99 input  -57.11 | X-H torsion

> <Gold.Protein.ActiveResidues>
 VAL166  LYS551  ARG553  GLY616  TRP617  ASP618  TYR619  PRO620  LYS621  CYS622 
 ASP623  PHE694  ASN695  SER759  ASP760  ASP761  ALA762  ILE779  LEU786  VAL792 
 PHE793  MET794  SER795  GLU796  ALA797  LYS798  CYS799  TRP800  GLU811  SER814 

> <Gold.Protein.RotatedAtoms>
  150.8664  134.8028  159.7121 H   0  0  0  0  0  0  0  0  0  0  0  0  # atno 6907 bound_to 6896
  152.4684  134.5017  159.9736 H   0  0  0  0  0  0  0  0  0  0  0  0  # atno 6908 bound_to 6896
  151.5113  133.3446  159.2921 H   0  0  0  0  0  0  0  0  0  0  0  0  # atno 6909 bound_to 6896
  144.7798  140.4672  143.5847 H   0  0  0  0  0  0  0  0  0  0  0  0  # atno 7974 bound_to 7965
  156.2985  140.2357  156.4304 H   0  0  0  0  0  0  0  0  0  0  0  0  # atno 8008 bound_to 7997
  154.8275  140.0434  157.1474 H   0  0  0  0  0  0  0  0  0  0  0  0  # atno 8009 bound_to 7997
  154.9245  140.3008  155.5203 H   0  0  0  0  0  0  0  0  0  0  0  0  # atno 8010 bound_to 7997
  140.6814  143.2827  151.3795 H   0  0  0  0  0  0  0  0  0  0  0  0  # atno 10167 bound_to 10162
  157.6899  131.0633  150.4760 H   0  0  0  0  0  0  0  0  0  0  0  0  # atno 10718 bound_to 10713
  152.9863  135.5618  154.5497 H   0  0  0  0  0  0  0  0  0  0  0  0  # atno 10763 bound_to 10752
  154.4936  135.2794  155.1479 H   0  0  0  0  0  0  0  0  0  0  0  0  # atno 10764 bound_to 10752
  154.2938  135.6321  153.5449 H   0  0  0  0  0  0  0  0  0  0  0  0  # atno 10765 bound_to 10752
  140.0643  134.5559  155.9117 H   0  0  0  0  0  0  0  0  0  0  0  0  # atno 11005 bound_to 11000
  145.6082  139.1510  143.3090 LP  0  0  0  0  0  0  0  0  0  0  0  0  # atno 17320 bound_to 7965
  146.1999  140.6200  142.9107 LP  0  0  0  0  0  0  0  0  0  0  0  0  # atno 17321 bound_to 7965
  139.6139  144.1042  152.2326 LP  0  0  0  0  0  0  0  0  0  0  0  0  # atno 17342 bound_to 10162
  140.0465  144.5966  150.7369 LP  0  0  0  0  0  0  0  0  0  0  0  0  # atno 17343 bound_to 10162
  156.5095  130.4136  149.6309 LP  0  0  0  0  0  0  0  0  0  0  0  0  # atno 17370 bound_to 10713
  156.3253  130.7303  151.2222 LP  0  0  0  0  0  0  0  0  0  0  0  0  # atno 17371 bound_to 10713
  141.1986  133.6602  156.5800 LP  0  0  0  0  0  0  0  0  0  0  0  0  # atno 17394 bound_to 11000
  140.3723  134.7595  157.4607 LP  0  0  0  0  0  0  0  0  0  0  0  0  # atno 17395 bound_to 11000

$$$$
