AV-unprocessed.smi:1701|AV-procd|sdf|6827|dock7
  -GOLD-   22720 8 03D 1   1.00000     0.00000
 Structure written by MMmdl.
 55 57  0  0  0  0  0  0  0  0  3 V2000
  152.3507  144.5477  157.0804 C   0  0  0  0  0  0  0  0  0  0  0  0
  151.2933  143.6945  156.3651 C   0  0  0  0  0  0  0  0  0  0  0  0
  151.2975  142.2949  156.7903 N   0  0  0  0  0  0  0  0  0  0  0  0
  151.8351  141.9448  158.1071 C   0  0  0  0  0  0  0  0  0  0  0  0
  151.2371  142.7837  159.2473 C   0  0  0  0  0  0  0  0  0  0  0  0
  150.6185  141.3160  156.0248 C   0  0  0  0  0  0  0  0  0  0  0  0
  150.9867  139.9473  155.9966 C   0  0  0  0  0  0  0  0  0  0  0  0
  150.2569  139.0373  155.2050 C   0  0  0  0  0  0  0  0  0  0  0  0
  149.1551  139.4883  154.4495 C   0  0  0  0  0  0  0  0  0  0  0  0
  148.4627  138.5347  153.6556 N   0  0  0  0  0  0  0  0  0  0  0  0
  147.1600  138.5098  153.3100 C   0  0  0  0  0  0  0  0  0  0  0  0
  146.3256  139.3385  153.6648 O   0  0  0  0  0  0  0  0  0  0  0  0
  146.8124  137.4567  152.5484 N   0  0  0  0  0  0  0  0  0  0  0  0
  145.4919  137.1290  152.0047 C   0  0  2  0  0  0  0  0  0  0  0  0
  144.3872  137.1796  153.0528 C   0  0  0  0  0  0  0  0  0  0  0  0
  143.2583  136.3716  152.4061 C   0  0  0  0  0  0  0  0  0  0  0  0
  143.8994  135.4029  151.4835 N   0  3  2  0  0  0  0  0  0  0  0  0
  143.5487  133.9840  151.7587 C   0  0  0  0  0  0  0  0  0  0  0  0
  144.5143  133.0306  151.0389 C   0  0  0  0  0  0  0  0  0  0  0  0
  145.9632  133.2190  151.5268 C   0  0  0  0  0  0  0  0  0  0  0  0
  146.2043  134.6134  152.1358 C   0  0  0  0  0  0  0  0  0  0  0  0
  145.3593  135.7031  151.4316 C   0  0  2  0  0  0  0  0  0  0  0  0
  148.8289  140.8639  154.5022 C   0  0  0  0  0  0  0  0  0  0  0  0
  149.5569  141.6998  155.2731 N   0  3  0  0  0  0  0  0  0  0  0  0
  152.2706  145.5906  156.7735 H   0  0  0  0  0  0  0  0  0  0  0  0
  153.3607  144.2175  156.8406 H   0  0  0  0  0  0  0  0  0  0  0  0
  152.2327  144.5122  158.1636 H   0  0  0  0  0  0  0  0  0  0  0  0
  150.3012  144.1258  156.4975 H   0  0  0  0  0  0  0  0  0  0  0  0
  151.4767  143.7334  155.2909 H   0  0  0  0  0  0  0  0  0  0  0  0
  151.6826  140.8827  158.3015 H   0  0  0  0  0  0  0  0  0  0  0  0
  152.9163  142.0844  158.0952 H   0  0  0  0  0  0  0  0  0  0  0  0
  151.6608  142.4824  160.2056 H   0  0  0  0  0  0  0  0  0  0  0  0
  150.1561  142.6600  159.3144 H   0  0  0  0  0  0  0  0  0  0  0  0
  151.4433  143.8455  159.1201 H   0  0  0  0  0  0  0  0  0  0  0  0
  151.8264  139.5732  156.5618 H   0  0  0  0  0  0  0  0  0  0  0  0
  150.5456  137.9964  155.1832 H   0  0  0  0  0  0  0  0  0  0  0  0
  149.0144  137.7484  153.3468 H   0  0  0  0  0  0  0  0  0  0  0  0
  147.5454  136.7910  152.3478 H   0  0  0  0  0  0  0  0  0  0  0  0
  145.2341  137.8508  151.2266 H   0  0  0  0  0  0  0  0  0  0  0  0
  144.7127  136.6881  153.9710 H   0  0  0  0  0  0  0  0  0  0  0  0
  144.0858  138.1968  153.3053 H   0  0  0  0  0  0  0  0  0  0  0  0
  142.6216  135.8981  153.1547 H   0  0  0  0  0  0  0  0  0  0  0  0
  142.6238  137.0287  151.8105 H   0  0  0  0  0  0  0  0  0  0  0  0
  143.5846  133.7883  152.8319 H   0  0  0  0  0  0  0  0  0  0  0  0
  142.5218  133.8034  151.4395 H   0  0  0  0  0  0  0  0  0  0  0  0
  144.2049  131.9945  151.1804 H   0  0  0  0  0  0  0  0  0  0  0  0
  144.4632  133.2190  149.9656 H   0  0  0  0  0  0  0  0  0  0  0  0
  146.2095  132.4613  152.2715 H   0  0  0  0  0  0  0  0  0  0  0  0
  146.6439  133.0529  150.6909 H   0  0  0  0  0  0  0  0  0  0  0  0
  145.9527  134.5922  153.1972 H   0  0  0  0  0  0  0  0  0  0  0  0
  147.2688  134.8425  152.0824 H   0  0  0  0  0  0  0  0  0  0  0  0
  145.6570  135.7177  150.3821 H   0  0  0  0  0  0  0  0  0  0  0  0
  148.0286  141.3382  153.9544 H   0  0  0  0  0  0  0  0  0  0  0  0
  143.5412  135.6126  150.5624 H   0  0  0  0  0  0  0  0  0  0  0  0
  149.2924  142.6851  155.2863 H   0  0  0  0  0  0  0  0  0  0  0  0
  1  2  1  0  0  0  0
  1 25  1  0  0  0  0
  1 26  1  0  0  0  0
  1 27  1  0  0  0  0
  2  3  1  0  0  0  0
  2 28  1  0  0  0  0
  2 29  1  0  0  0  0
  3  4  1  0  0  0  0
  3  6  1  0  0  0  0
  4  5  1  0  0  0  0
  4 30  1  0  0  0  0
  4 31  1  0  0  0  0
  5 32  1  0  0  0  0
  5 33  1  0  0  0  0
  5 34  1  0  0  0  0
  6 24  1  0  0  0  0
  6  7  2  0  0  0  0
  7  8  1  0  0  0  0
  7 35  1  0  0  0  0
  8  9  2  0  0  0  0
  8 36  1  0  0  0  0
  9 10  1  0  0  0  0
  9 23  1  0  0  0  0
 10 11  1  0  0  0  0
 10 37  1  0  0  0  0
 11 12  2  0  0  0  0
 11 13  1  0  0  0  0
 13 14  1  0  0  0  0
 13 38  1  0  0  0  0
 14 22  1  0  0  0  0
 14 15  1  0  0  0  0
 14 39  1  0  0  0  0
 15 16  1  0  0  0  0
 15 40  1  0  0  0  0
 15 41  1  0  0  0  0
 16 17  1  0  0  0  0
 16 42  1  0  0  0  0
 16 43  1  0  0  0  0
 17 22  1  0  0  0  0
 17 18  1  0  0  0  0
 17 54  1  0  0  0  0
 18 19  1  0  0  0  0
 18 44  1  0  0  0  0
 18 45  1  0  0  0  0
 19 20  1  0  0  0  0
 19 46  1  0  0  0  0
 19 47  1  0  0  0  0
 20 21  1  0  0  0  0
 20 48  1  0  0  0  0
 20 49  1  0  0  0  0
 21 22  1  0  0  0  0
 21 50  1  0  0  0  0
 21 51  1  0  0  0  0
 22 52  1  0  0  0  0
 23 24  2  0  0  0  0
 23 53  1  0  0  0  0
 24 55  1  0  0  0  0
M  CHG  1  17   1
M  CHG  1  24   1
M  END
> <s_m_source_file>
AV-unprocessed.smi

> <i_m_source_file_index>
1701

> <i_lp_mmshare_version>
43012

> <i_f3d_flags>
0

> <s_epik_input>
W0NIM11bQ0gyXU4oW0NIMl1bQ0gzXSljMVtjSF1bY0hdYyhbY0hdbjEpW05IXUMoPU8pW05IXVtDQEhdKFtDSDJdW0NIMl0yKVtDQEBIXShOMjMpW0NIMl1bQ0gyXVtDSDJdW0NIMl0z

> <s_epik_cmdline>
J2VwaWtfcHl0aG9uJywgJy1waCcsICc3LjAnLCAnLXRuJywgJzgnLCAnLW1hJywgJzIwMCcsICctbWV0YWxfYmluZGluZycsICctaW1hZScsICc8aW5maWxlLm1hZT4nLCAnLW9tYWUnLCAnPG91dGZpbGUubWFlPic=

> <r_lp_tautomer_probability>
0.999994

> <r_epik_Ionization_Penalty>
0.302862

> <r_epik_Ionization_Penalty_Charging>
0.302842

> <r_epik_Ionization_Penalty_Neutral>
1.95166e-05

> <r_epik_State_Penalty>
0.019791

> <r_epik_Charging_Adjusted_Penalty>
0.322633

> <i_epik_Tot_Q>
2

> <i_epik_Tot_abs_Q>
2

> <r_epik_Metal_State_Penalty>
0.0536763

> <b_epik_Metal_Only>
0

> <s_lp_Force_Field>
OPLS_2005

> <r_lp_Energy>
67.6643

> <b_lp_Chiralities_Consistent>
1

> <s_lp_Variant>
AV-unprocessed.smi:1701-7

> <Gold.Version>
5.8.1

> <Gold.Id.Protein>
6NUR|6NUR_protein|mol2

> <Gold.PLP.Fitness>
50.3068

> <Gold.PLP.PLP>
-41.1264

> <Gold.PLP.part.hbond>
-4.0000

> <Gold.PLP.part.metal>
0.0000

> <Gold.PLP.part.buried>
0.5778

> <Gold.PLP.part.nonpolar>
-39.0360

> <Gold.PLP.part.repulsive>
0.6624

> <Gold.PLP.ligand.clash>
0.0000

> <Gold.PLP.ligand.torsion>
1.0376

> <Gold.PLP.Chemscore.Hbond>
3.7007

> <Gold.PLP.Chemscore.CHOScore>
0.0000

> <Gold.PLP.Chemscore.Metal>
0.0000

> <Gold.Chemscore.Hbonds>
donor molecule, donor type, donor heavy atom, donor atom, acceptor molecule, acceptor atom, score
      L1  H    10    37       P1  7948  0.66
      L1  H    13    38       P1  7948  1.00
      L1  H    24    55       P1  8028  1.62

> <Gold.PLP.Chemscore.Internal.Correction>
0.1535

> <Gold.Rescore>
     Score         DG    S(hbond)    S(metal)    S(lipo)     H(rot)  DE(clash)    DE(int)     intcor
     16.43     -23.52       2.55        0.00     109.97       1.30       3.28       3.81       ----

> <Gold.Chemscore.Fitness>
16.4340

> <Gold.Chemscore.DG>
-23.5191

> <Gold.Chemscore.ZeroCoef>
-5.4800

> <Gold.Chemscore.Hbond>
2.5466

> <Gold.Chemscore.Metal>
0.0000

> <Gold.Chemscore.Lipo>
109.9694

> <Gold.Chemscore.Internal_Hbond>
0.0000

> <Gold.Chemscore.DEClash>
3.2763

> <Gold.Chemscore.DEInternal>
3.8088

> <Gold.Chemscore.Rot>
1.3020

> <Gold.Chemscore.Internal.Correction>
   9.000000E+99

> <Gold.Chemscore.Hbonds>
donor molecule, donor type, donor heavy atom, donor atom, acceptor molecule, acceptor atom, score
      L1  H    10    37       P1  7948  0.64
      L1  H    13    38       P1  7948  0.97
      L1  H    24    55       P1  8028  0.80

> <Gold.Chemscore.Hbond.Weighted>
-8.5058

> <Gold.Chemscore.Metal.Weighted>
-0.0000

> <Gold.Chemscore.Lipo.Weighted>
-12.8664

> <Gold.Chemscore.Internal_Hbond.Weighted>
0.0000

> <Gold.Chemscore.DEClash.Weighted>
3.2763

> <Gold.Chemscore.DEInternal.Weighted>
3.8088

> <Gold.Chemscore.Rot.Weighted>
3.3330

> <Gold.Chemscore.Internal.Correction.Weighted>
   9.000000E+99

> <Gold.Protein.RotatedTorsions>
[ 6907 6896 6895 6894 ] final   59.13 input  -60.11 | X-H torsion
[ 7974 7965 7964 7962 ] final   49.83 input  175.53 | X-H torsion
[ 8008 7997 7996 7995 ] final  -75.78 input   59.86 | X-H torsion
[ 10167 10162 10161 10158 ] final  -96.34 input  -65.29 | X-H torsion
[ 10718 10713 10712 10709 ] final  102.44 input   66.30 | X-H torsion
[ 10763 10752 10751 10750 ] final  -90.75 input  -60.55 | X-H torsion
[ 11005 11000 10999 10996 ] final -119.87 input  -57.11 | X-H torsion

> <Gold.Protein.ActiveResidues>
 VAL166  LYS551  ARG553  GLY616  TRP617  ASP618  TYR619  PRO620  LYS621  CYS622 
 ASP623  PHE694  ASN695  SER759  ASP760  ASP761  ALA762  ILE779  LEU786  VAL792 
 PHE793  MET794  SER795  GLU796  ALA797  LYS798  CYS799  TRP800  GLU811  SER814 

> <Gold.Protein.RotatedAtoms>
  152.3887  134.6476  160.0115 H   0  0  0  0  0  0  0  0  0  0  0  0  # atno 6907 bound_to 6896
  151.6716  133.3308  159.3206 H   0  0  0  0  0  0  0  0  0  0  0  0  # atno 6908 bound_to 6896
  150.7808  134.6794  159.6480 H   0  0  0  0  0  0  0  0  0  0  0  0  # atno 6909 bound_to 6896
  146.0071  139.4502  142.9979 H   0  0  0  0  0  0  0  0  0  0  0  0  # atno 7974 bound_to 7965
  154.5447  140.0738  156.8568 H   0  0  0  0  0  0  0  0  0  0  0  0  # atno 8008 bound_to 7997
  155.3111  140.3390  155.4226 H   0  0  0  0  0  0  0  0  0  0  0  0  # atno 8009 bound_to 7997
  156.1907  140.1685  156.8084 H   0  0  0  0  0  0  0  0  0  0  0  0  # atno 8010 bound_to 7997
  140.2948  143.3199  152.0309 H   0  0  0  0  0  0  0  0  0  0  0  0  # atno 10167 bound_to 10162
  157.6802  131.0753  150.5404 H   0  0  0  0  0  0  0  0  0  0  0  0  # atno 10718 bound_to 10713
  154.6690  135.5293  153.8114 H   0  0  0  0  0  0  0  0  0  0  0  0  # atno 10763 bound_to 10752
  153.0489  135.6524  154.0755 H   0  0  0  0  0  0  0  0  0  0  0  0  # atno 10764 bound_to 10752
  154.0655  135.2958  155.3297 H   0  0  0  0  0  0  0  0  0  0  0  0  # atno 10765 bound_to 10752
  141.0184  134.0161  157.3317 H   0  0  0  0  0  0  0  0  0  0  0  0  # atno 11005 bound_to 11000
  145.7399  141.0012  143.1306 LP  0  0  0  0  0  0  0  0  0  0  0  0  # atno 17320 bound_to 7965
  144.6939  139.9086  143.7462 LP  0  0  0  0  0  0  0  0  0  0  0  0  # atno 17321 bound_to 7965
  139.4929  144.6499  151.6698 LP  0  0  0  0  0  0  0  0  0  0  0  0  # atno 17342 bound_to 10162
  140.5702  144.0122  150.6212 LP  0  0  0  0  0  0  0  0  0  0  0  0  # atno 17343 bound_to 10162
  156.5711  130.4280  149.6019 LP  0  0  0  0  0  0  0  0  0  0  0  0  # atno 17370 bound_to 10713
  156.2740  130.7033  151.1838 LP  0  0  0  0  0  0  0  0  0  0  0  0  # atno 17371 bound_to 10713
  139.9131  135.0193  156.7772 LP  0  0  0  0  0  0  0  0  0  0  0  0  # atno 17394 bound_to 11000
  140.6615  133.9641  155.7807 LP  0  0  0  0  0  0  0  0  0  0  0  0  # atno 17395 bound_to 11000

$$$$
