AV-unprocessed.smi:2439|AV-procd|sdf|9612|dock3
  -GOLD-   2272013243D 1   1.00000     0.00000
 Structure written by MMmdl.
 40 42  0  0  0  0  0  0  0  0  1 V2000
  147.4025  142.3892  154.0674 N   0  0  0  0  0  0  0  0  0  0  0  0
  148.3438  141.7848  154.3631 C   0  0  0  0  0  0  0  0  0  0  0  0
  149.5297  141.0232  154.7362 C   0  0  0  0  0  0  0  0  0  0  0  0
  149.6998  139.7248  154.2117 C   0  0  0  0  0  0  0  0  0  0  0  0
  150.8414  138.9844  154.5691 C   0  0  0  0  0  0  0  0  0  0  0  0
  151.7724  139.5762  155.4420 C   0  0  0  0  0  0  0  0  0  0  0  0
  151.6225  140.8167  155.9510 N   0  0  0  0  0  0  0  0  0  0  0  0
  150.5258  141.5373  155.6095 C   0  0  0  0  0  0  0  0  0  0  0  0
  150.3991  142.8269  156.1554 N   0  0  0  0  0  0  0  0  0  0  0  0
  151.2755  143.2804  157.2262 C   0  0  0  0  0  0  0  0  0  0  0  0
  150.7549  142.8368  158.6064 C   0  0  1  0  0  0  0  0  0  0  0  0
  150.9247  141.3256  158.8544 C   0  0  0  0  0  0  0  0  0  0  0  0
  152.3150  140.9411  159.0682 N   0  0  0  0  0  0  0  0  0  0  0  0
  152.4303  139.5058  159.3225 C   0  0  0  0  0  0  0  0  0  0  0  0
  153.8876  139.0582  159.5155 C   0  0  0  0  0  0  0  0  0  0  0  0
  154.5413  139.8522  160.6551 C   0  0  0  0  0  0  0  0  0  0  0  0
  154.3702  141.3598  160.4126 C   0  0  0  0  0  0  0  0  0  0  0  0
  152.8890  141.7189  160.1697 C   0  0  1  0  0  0  0  0  0  0  0  0
  152.7381  143.2319  159.9159 C   0  0  0  0  0  0  0  0  0  0  0  0
  151.3730  143.5624  159.6712 O   0  0  0  0  0  0  0  0  0  0  0  0
  148.9669  139.2963  153.5431 H   0  0  0  0  0  0  0  0  0  0  0  0
  150.9989  137.9879  154.1841 H   0  0  0  0  0  0  0  0  0  0  0  0
  152.6608  139.0396  155.7404 H   0  0  0  0  0  0  0  0  0  0  0  0
  149.8040  143.5050  155.7012 H   0  0  0  0  0  0  0  0  0  0  0  0
  152.2659  142.8553  157.0602 H   0  0  0  0  0  0  0  0  0  0  0  0
  151.3891  144.3635  157.1816 H   0  0  0  0  0  0  0  0  0  0  0  0
  149.6882  143.0608  158.6463 H   0  0  0  0  0  0  0  0  0  0  0  0
  150.3341  141.0461  159.7282 H   0  0  0  0  0  0  0  0  0  0  0  0
  150.5096  140.7681  158.0136 H   0  0  0  0  0  0  0  0  0  0  0  0
  151.8506  139.2390  160.2076 H   0  0  0  0  0  0  0  0  0  0  0  0
  151.9955  138.9506  158.4907 H   0  0  0  0  0  0  0  0  0  0  0  0
  153.9280  137.9900  159.7298 H   0  0  0  0  0  0  0  0  0  0  0  0
  154.4441  139.2130  158.5902 H   0  0  0  0  0  0  0  0  0  0  0  0
  154.0781  139.5793  161.6040 H   0  0  0  0  0  0  0  0  0  0  0  0
  155.5983  139.5983  160.7368 H   0  0  0  0  0  0  0  0  0  0  0  0
  154.7584  141.9158  161.2666 H   0  0  0  0  0  0  0  0  0  0  0  0
  154.9681  141.6583  159.5502 H   0  0  0  0  0  0  0  0  0  0  0  0
  152.3367  141.4837  161.0814 H   0  0  0  0  0  0  0  0  0  0  0  0
  153.0767  143.7955  160.7855 H   0  0  0  0  0  0  0  0  0  0  0  0
  153.3588  143.5526  159.0788 H   0  0  0  0  0  0  0  0  0  0  0  0
  1  2  3  0  0  0  0
  2  3  1  0  0  0  0
  3  8  1  0  0  0  0
  3  4  2  0  0  0  0
  4  5  1  0  0  0  0
  4 21  1  0  0  0  0
  5  6  2  0  0  0  0
  5 22  1  0  0  0  0
  6  7  1  0  0  0  0
  6 23  1  0  0  0  0
  7  8  2  0  0  0  0
  8  9  1  0  0  0  0
  9 10  1  0  0  0  0
  9 24  1  0  0  0  0
 10 11  1  0  0  0  0
 10 25  1  0  0  0  0
 10 26  1  0  0  0  0
 11 20  1  0  0  0  0
 11 12  1  0  0  0  0
 11 27  1  0  0  0  0
 12 13  1  0  0  0  0
 12 28  1  0  0  0  0
 12 29  1  0  0  0  0
 13 18  1  0  0  0  0
 13 14  1  0  0  0  0
 14 15  1  0  0  0  0
 14 30  1  0  0  0  0
 14 31  1  0  0  0  0
 15 16  1  0  0  0  0
 15 32  1  0  0  0  0
 15 33  1  0  0  0  0
 16 17  1  0  0  0  0
 16 34  1  0  0  0  0
 16 35  1  0  0  0  0
 17 18  1  0  0  0  0
 17 36  1  0  0  0  0
 17 37  1  0  0  0  0
 18 19  1  0  0  0  0
 18 38  1  0  0  0  0
 19 20  1  0  0  0  0
 19 39  1  0  0  0  0
 19 40  1  0  0  0  0
M  END
> <s_m_source_file>
AV-unprocessed.smi

> <i_m_source_file_index>
2439

> <i_lp_mmshare_version>
43012

> <i_f3d_flags>
0

> <s_epik_input>
TiNDYzFbY0hdW2NIXVtjSF1uYzFbTkhdW0NIMl1bQ0BIXShbQ0gyXTIpT1tDSDJdW0NAQEhdKE4yMylbQ0gyXVtDSDJdW0NIMl1bQ0gyXTM=

> <s_epik_cmdline>
J2VwaWtfcHl0aG9uJywgJy1waCcsICc3LjAnLCAnLXRuJywgJzgnLCAnLW1hJywgJzIwMCcsICctbWV0YWxfYmluZGluZycsICctaW1hZScsICc8aW5maWxlLm1hZT4nLCAnLW9tYWUnLCAnPG91dGZpbGUubWFlPic=

> <r_epik_Ionization_Penalty>
1.22355

> <r_epik_Ionization_Penalty_Charging>
0

> <r_epik_Ionization_Penalty_Neutral>
1.22355

> <r_epik_State_Penalty>
1.29103

> <r_epik_Charging_Adjusted_Penalty>
1.29103

> <i_epik_Tot_Q>
0

> <i_epik_Tot_abs_Q>
0

> <r_epik_Metal_State_Penalty>
1.29103

> <b_epik_Metal_Only>
0

> <s_lp_Force_Field>
OPLS_2005

> <r_lp_Energy>
40.6054

> <b_lp_Chiralities_Consistent>
1

> <s_lp_Variant>
AV-unprocessed.smi:2439-10

> <Gold.Version>
5.8.1

> <Gold.Id.Protein>
6NUR|6NUR_protein|mol2

> <Gold.PLP.Fitness>
43.3132

> <Gold.PLP.PLP>
-40.9036

> <Gold.PLP.part.hbond>
-1.1679

> <Gold.PLP.part.metal>
0.0000

> <Gold.PLP.part.buried>
-3.2957

> <Gold.PLP.part.nonpolar>
-35.9370

> <Gold.PLP.part.repulsive>
0.3169

> <Gold.PLP.ligand.clash>
0.0000

> <Gold.PLP.ligand.torsion>
0.2985

> <Gold.PLP.Chemscore.Hbond>
1.0000

> <Gold.PLP.Chemscore.CHOScore>
0.0000

> <Gold.PLP.Chemscore.Metal>
0.0000

> <Gold.Chemscore.Hbonds>
donor molecule, donor type, donor heavy atom, donor atom, acceptor molecule, acceptor atom, score
      L1  H     9    24       P1  8028  0.98

> <Gold.PLP.Chemscore.Internal.Correction>
0.0065

> <Gold.Rescore>
     Score         DG    S(hbond)    S(metal)    S(lipo)     H(rot)  DE(clash)    DE(int)     intcor
     17.43     -17.91       0.94        0.00     106.86       1.25       0.14       0.34       ----

> <Gold.Chemscore.Fitness>
17.4318

> <Gold.Chemscore.DG>
-17.9139

> <Gold.Chemscore.ZeroCoef>
-5.4800

> <Gold.Chemscore.Hbond>
0.9365

> <Gold.Chemscore.Metal>
0.0000

> <Gold.Chemscore.Lipo>
106.8567

> <Gold.Chemscore.Internal_Hbond>
0.0000

> <Gold.Chemscore.DEClash>
0.1407

> <Gold.Chemscore.DEInternal>
0.3413

> <Gold.Chemscore.Rot>
1.2485

> <Gold.Chemscore.Internal.Correction>
   9.000000E+99

> <Gold.Chemscore.Hbonds>
donor molecule, donor type, donor heavy atom, donor atom, acceptor molecule, acceptor atom, score
      L1  H     9    24       P1  8028  0.89

> <Gold.Chemscore.Hbond.Weighted>
-3.1277

> <Gold.Chemscore.Metal.Weighted>
-0.0000

> <Gold.Chemscore.Lipo.Weighted>
-12.5022

> <Gold.Chemscore.Internal_Hbond.Weighted>
0.0000

> <Gold.Chemscore.DEClash.Weighted>
0.1407

> <Gold.Chemscore.DEInternal.Weighted>
0.3413

> <Gold.Chemscore.Rot.Weighted>
3.1961

> <Gold.Chemscore.Internal.Correction.Weighted>
   9.000000E+99

> <Gold.Protein.RotatedTorsions>
[ 6907 6896 6895 6894 ] final   54.38 input  -60.11 | X-H torsion
[ 7974 7965 7964 7962 ] final -176.87 input  175.53 | X-H torsion
[ 8008 7997 7996 7995 ] final  -13.82 input   59.86 | X-H torsion
[ 10167 10162 10161 10158 ] final  125.40 input  -65.29 | X-H torsion
[ 10718 10713 10712 10709 ] final  166.44 input   66.30 | X-H torsion
[ 10763 10752 10751 10750 ] final  -41.18 input  -60.55 | X-H torsion
[ 11005 11000 10999 10996 ] final  171.61 input  -57.11 | X-H torsion

> <Gold.Protein.ActiveResidues>
 VAL166  LYS551  ARG553  GLY616  TRP617  ASP618  TYR619  PRO620  LYS621  CYS622 
 ASP623  PHE694  ASN695  SER759  ASP760  ASP761  ALA762  ILE779  LEU786  VAL792 
 PHE793  MET794  SER795  GLU796  ALA797  LYS798  CYS799  TRP800  GLU811  SER814 

> <Gold.Protein.RotatedAtoms>
  152.3433  134.7106  160.0257 H   0  0  0  0  0  0  0  0  0  0  0  0  # atno 6907 bound_to 6896
  151.7484  133.3320  159.3393 H   0  0  0  0  0  0  0  0  0  0  0  0  # atno 6908 bound_to 6896
  150.7493  134.6148  159.6149 H   0  0  0  0  0  0  0  0  0  0  0  0  # atno 6909 bound_to 6896
  144.7127  140.1105  143.6411 H   0  0  0  0  0  0  0  0  0  0  0  0  # atno 7974 bound_to 7965
  154.5261  140.2239  155.8888 H   0  0  0  0  0  0  0  0  0  0  0  0  # atno 8008 bound_to 7997
  156.1714  140.3121  155.8945 H   0  0  0  0  0  0  0  0  0  0  0  0  # atno 8009 bound_to 7997
  155.3549  140.0458  157.3037 H   0  0  0  0  0  0  0  0  0  0  0  0  # atno 8010 bound_to 7997
  139.5688  144.6927  151.3836 H   0  0  0  0  0  0  0  0  0  0  0  0  # atno 10167 bound_to 10162
  157.0658  131.0352  151.2630 H   0  0  0  0  0  0  0  0  0  0  0  0  # atno 10718 bound_to 10713
  153.9582  135.6742  153.4745 H   0  0  0  0  0  0  0  0  0  0  0  0  # atno 10763 bound_to 10752
  153.0851  135.4903  154.8577 H   0  0  0  0  0  0  0  0  0  0  0  0  # atno 10764 bound_to 10752
  154.7287  135.3133  154.8887 H   0  0  0  0  0  0  0  0  0  0  0  0  # atno 10765 bound_to 10752
  140.3208  134.7439  157.4062 H   0  0  0  0  0  0  0  0  0  0  0  0  # atno 11005 bound_to 11000
  145.9459  139.2700  143.1241 LP  0  0  0  0  0  0  0  0  0  0  0  0  # atno 17320 bound_to 7965
  145.9375  140.9004  143.0325 LP  0  0  0  0  0  0  0  0  0  0  0  0  # atno 17321 bound_to 7965
  140.6972  143.7720  150.7345 LP  0  0  0  0  0  0  0  0  0  0  0  0  # atno 17342 bound_to 10162
  140.1220  143.4603  152.2307 LP  0  0  0  0  0  0  0  0  0  0  0  0  # atno 17343 bound_to 10162
  157.4918  130.7827  149.7515 LP  0  0  0  0  0  0  0  0  0  0  0  0  # atno 17370 bound_to 10713
  155.9965  130.3905  150.2777 LP  0  0  0  0  0  0  0  0  0  0  0  0  # atno 17371 bound_to 10713
  140.0943  134.5558  155.8413 LP  0  0  0  0  0  0  0  0  0  0  0  0  # atno 17394 bound_to 11000
  141.2087  133.6676  156.6388 LP  0  0  0  0  0  0  0  0  0  0  0  0  # atno 17395 bound_to 11000

$$$$
