AV-unprocessed.smi:2881|AV-procd|sdf|11059|dock5
  -GOLD-   2272015533D 1   1.00000     0.00000
 Structure written by MMmdl.
 40 42  0  0  0  0  0  0  0  0  1 V2000
  153.5500  137.5960  156.9537 C   0  0  0  0  0  0  0  0  0  0  0  0
  152.6087  138.5006  156.2334 C   0  0  0  0  0  0  0  0  0  0  0  0
  151.6529  139.3618  156.6930 C   0  0  0  0  0  0  0  0  0  0  0  0
  151.0897  139.9291  155.5114 C   0  0  0  0  0  0  0  0  0  0  0  0
  149.9815  140.9421  155.4093 C   0  0  0  0  0  0  0  0  0  0  0  0
  149.7817  141.6308  156.7592 C   0  0  0  0  0  0  0  0  0  0  0  0
  148.6708  141.6384  157.2895 O   0  0  0  0  0  0  0  0  0  0  0  0
  150.8659  142.2064  157.3020 N   0  0  0  0  0  0  0  0  0  0  0  0
  150.8864  142.9751  158.5468 C   0  0  2  0  0  0  0  0  0  0  0  0
  151.2822  144.4390  158.2566 C   0  0  1  0  0  0  0  0  0  0  0  0
  150.9219  145.3100  159.4739 C   0  0  0  0  0  0  0  0  0  0  0  0
  151.9719  144.8787  160.5156 C   0  0  0  0  0  0  0  0  0  0  0  0
  152.7955  143.8201  159.7552 C   0  0  2  0  0  0  0  0  0  0  0  0
  152.8031  144.3973  158.3454 C   0  0  0  0  0  0  0  0  0  0  0  0
  151.9528  142.5306  159.5945 C   0  0  2  0  0  0  0  0  0  0  0  0
  152.7989  141.2899  159.2288 C   0  0  0  0  0  0  0  0  0  0  0  0
  153.6678  140.9547  160.2908 O   0  0  0  0  0  0  0  0  0  0  0  0
  151.6574  139.4615  154.4076 N   0  0  0  0  0  0  0  0  0  0  0  0
  152.5789  138.5912  154.8606 N   0  0  0  0  0  0  0  0  0  0  0  0
  153.1728  138.0721  154.2297 H   0  0  0  0  0  0  0  0  0  0  0  0
  153.4852  137.7452  158.0317 H   0  0  0  0  0  0  0  0  0  0  0  0
  154.5798  137.7842  156.6495 H   0  0  0  0  0  0  0  0  0  0  0  0
  153.3191  136.5511  156.7443 H   0  0  0  0  0  0  0  0  0  0  0  0
  151.3882  139.5559  157.7219 H   0  0  0  0  0  0  0  0  0  0  0  0
  150.2225  141.6925  154.6557 H   0  0  0  0  0  0  0  0  0  0  0  0
  149.0486  140.4739  155.0910 H   0  0  0  0  0  0  0  0  0  0  0  0
  151.7357  142.1467  156.7923 H   0  0  0  0  0  0  0  0  0  0  0  0
  149.8878  142.9485  158.9877 H   0  0  0  0  0  0  0  0  0  0  0  0
  150.8857  144.8292  157.3182 H   0  0  0  0  0  0  0  0  0  0  0  0
  151.0299  146.3694  159.2385 H   0  0  0  0  0  0  0  0  0  0  0  0
  149.9001  145.1463  159.8177 H   0  0  0  0  0  0  0  0  0  0  0  0
  152.5973  145.7256  160.8004 H   0  0  0  0  0  0  0  0  0  0  0  0
  151.5190  144.4802  161.4241 H   0  0  0  0  0  0  0  0  0  0  0  0
  153.7834  143.6586  160.1876 H   0  0  0  0  0  0  0  0  0  0  0  0
  153.2647  143.7412  157.6060 H   0  0  0  0  0  0  0  0  0  0  0  0
  153.2672  145.3831  158.2833 H   0  0  0  0  0  0  0  0  0  0  0  0
  151.4459  142.3080  160.5350 H   0  0  0  0  0  0  0  0  0  0  0  0
  152.1563  140.4285  159.0474 H   0  0  0  0  0  0  0  0  0  0  0  0
  153.3859  141.4560  158.3256 H   0  0  0  0  0  0  0  0  0  0  0  0
  154.5004  141.3765  160.1422 H   0  0  0  0  0  0  0  0  0  0  0  0
  1  2  1  0  0  0  0
  1 21  1  0  0  0  0
  1 22  1  0  0  0  0
  1 23  1  0  0  0  0
  2 19  1  0  0  0  0
  2  3  2  0  0  0  0
  3  4  1  0  0  0  0
  3 24  1  0  0  0  0
  4  5  1  0  0  0  0
  4 18  2  0  0  0  0
  5  6  1  0  0  0  0
  5 25  1  0  0  0  0
  5 26  1  0  0  0  0
  6  7  2  0  0  0  0
  6  8  1  0  0  0  0
  8  9  1  0  0  0  0
  8 27  1  0  0  0  0
  9 15  1  0  0  0  0
  9 10  1  0  0  0  0
  9 28  1  0  0  0  0
 10 14  1  0  0  0  0
 10 11  1  0  0  0  0
 10 29  1  0  0  0  0
 11 12  1  0  0  0  0
 11 30  1  0  0  0  0
 11 31  1  0  0  0  0
 12 13  1  0  0  0  0
 12 32  1  0  0  0  0
 12 33  1  0  0  0  0
 13 14  1  0  0  0  0
 13 15  1  0  0  0  0
 13 34  1  0  0  0  0
 14 35  1  0  0  0  0
 14 36  1  0  0  0  0
 15 16  1  0  0  0  0
 15 37  1  0  0  0  0
 16 17  1  0  0  0  0
 16 38  1  0  0  0  0
 16 39  1  0  0  0  0
 17 40  1  0  0  0  0
 18 19  1  0  0  0  0
 19 20  1  0  0  0  0
M  END
> <s_m_source_file>
AV-unprocessed.smi

> <i_m_source_file_index>
2881

> <i_lp_mmshare_version>
43012

> <i_f3d_flags>
0

> <s_epik_input>
W0NIM11jMVtjSF1jKG5bbkhdMSlbQ0gyXUMoPU8pW05IXVtDQEhdKFtDQEBIXTIzKVtDQEhdKFtDSDJdW09IXSlbQ0BASF0oW0NIMl0zKVtDSDJdW0NIMl0y

> <s_epik_cmdline>
J2VwaWtfcHl0aG9uJywgJy1waCcsICc3LjAnLCAnLXRuJywgJzgnLCAnLW1hJywgJzIwMCcsICctbWV0YWxfYmluZGluZycsICctaW1hZScsICc8aW5maWxlLm1hZT4nLCAnLW9tYWUnLCAnPG91dGZpbGUubWFlPic=

> <r_lp_tautomer_probability>
0.5

> <r_epik_Ionization_Penalty>
9.4349e-05

> <r_epik_Ionization_Penalty_Charging>
0

> <r_epik_Ionization_Penalty_Neutral>
9.4349e-05

> <r_epik_State_Penalty>
0.41068

> <r_epik_Charging_Adjusted_Penalty>
0.41068

> <i_epik_Tot_Q>
0

> <i_epik_Tot_abs_Q>
0

> <r_epik_Metal_State_Penalty>
0.4107

> <b_epik_Metal_Only>
0

> <s_lp_Force_Field>
OPLS_2005

> <r_lp_Energy>
48.9716

> <b_lp_Chiralities_Consistent>
1

> <s_lp_Variant>
AV-unprocessed.smi:2881-5

> <Gold.Version>
5.8.1

> <Gold.Id.Protein>
6NUR|6NUR_protein|mol2

> <Gold.PLP.Fitness>
42.1176

> <Gold.PLP.PLP>
-39.7082

> <Gold.PLP.part.hbond>
-1.0000

> <Gold.PLP.part.metal>
0.0000

> <Gold.PLP.part.buried>
-5.8481

> <Gold.PLP.part.nonpolar>
-34.6493

> <Gold.PLP.part.repulsive>
0.4641

> <Gold.PLP.ligand.clash>
0.0000

> <Gold.PLP.ligand.torsion>
0.3026

> <Gold.PLP.Chemscore.Hbond>
1.0000

> <Gold.PLP.Chemscore.CHOScore>
0.0000

> <Gold.PLP.Chemscore.Metal>
0.0000

> <Gold.Chemscore.Hbonds>
donor molecule, donor type, donor heavy atom, donor atom, acceptor molecule, acceptor atom, score
      P1  H  7989  7998       L1    18  1.00

> <Gold.PLP.Chemscore.Internal.Correction>
0.0146

> <Gold.Rescore>
     Score         DG    S(hbond)    S(metal)    S(lipo)     H(rot)  DE(clash)    DE(int)     intcor
     16.24     -16.63       0.97        0.00     117.37       2.28       0.01       0.38       ----

> <Gold.Chemscore.Fitness>
16.2385

> <Gold.Chemscore.DG>
-16.6315

> <Gold.Chemscore.ZeroCoef>
-5.4800

> <Gold.Chemscore.Hbond>
0.9714

> <Gold.Chemscore.Metal>
0.0000

> <Gold.Chemscore.Lipo>
117.3703

> <Gold.Chemscore.Internal_Hbond>
0.0000

> <Gold.Chemscore.DEClash>
0.0115

> <Gold.Chemscore.DEInternal>
0.3814

> <Gold.Chemscore.Rot>
2.2755

> <Gold.Chemscore.Internal.Correction>
   9.000000E+99

> <Gold.Chemscore.Hbonds>
donor molecule, donor type, donor heavy atom, donor atom, acceptor molecule, acceptor atom, score
      P1  H  7989  7998       L1    18  0.25

> <Gold.Chemscore.Hbond.Weighted>
-3.2443

> <Gold.Chemscore.Metal.Weighted>
-0.0000

> <Gold.Chemscore.Lipo.Weighted>
-13.7323

> <Gold.Chemscore.Internal_Hbond.Weighted>
0.0000

> <Gold.Chemscore.DEClash.Weighted>
0.0115

> <Gold.Chemscore.DEInternal.Weighted>
0.3814

> <Gold.Chemscore.Rot.Weighted>
5.8252

> <Gold.Chemscore.Internal.Correction.Weighted>
   9.000000E+99

> <Gold.Protein.RotatedTorsions>
[ 6907 6896 6895 6894 ] final  154.93 input  -60.11 | X-H torsion
[ 7974 7965 7964 7962 ] final -119.75 input  175.53 | X-H torsion
[ 8008 7997 7996 7995 ] final  112.34 input   59.86 | X-H torsion
[ 10167 10162 10161 10158 ] final  179.61 input  -65.29 | X-H torsion
[ 10718 10713 10712 10709 ] final   61.93 input   66.30 | X-H torsion
[ 10763 10752 10751 10750 ] final  146.77 input  -60.55 | X-H torsion
[ 11005 11000 10999 10996 ] final   13.66 input  -57.11 | X-H torsion

> <Gold.Protein.ActiveResidues>
 VAL166  LYS551  ARG553  GLY616  TRP617  ASP618  TYR619  PRO620  LYS621  CYS622 
 ASP623  PHE694  ASN695  SER759  ASP760  ASP761  ALA762  ILE779  LEU786  VAL792 
 PHE793  MET794  SER795  GLU796  ALA797  LYS798  CYS799  TRP800  GLU811  SER814 

> <Gold.Protein.RotatedAtoms>
  152.0514  133.4020  159.4378 H   0  0  0  0  0  0  0  0  0  0  0  0  # atno 6907 bound_to 6896
  150.6870  134.3304  159.4834 H   0  0  0  0  0  0  0  0  0  0  0  0  # atno 6908 bound_to 6896
  152.1114  134.9271  160.0617 H   0  0  0  0  0  0  0  0  0  0  0  0  # atno 6909 bound_to 6896
  145.0591  140.8276  143.4163 H   0  0  0  0  0  0  0  0  0  0  0  0  # atno 7974 bound_to 7965
  156.2186  140.3001  155.9897 H   0  0  0  0  0  0  0  0  0  0  0  0  # atno 8008 bound_to 7997
  155.2542  140.0427  157.3007 H   0  0  0  0  0  0  0  0  0  0  0  0  # atno 8009 bound_to 7997
  154.5805  140.2374  155.8069 H   0  0  0  0  0  0  0  0  0  0  0  0  # atno 8010 bound_to 7997
  139.5344  144.2541  152.0761 H   0  0  0  0  0  0  0  0  0  0  0  0  # atno 10167 bound_to 10162
  157.5864  130.9022  149.9523 H   0  0  0  0  0  0  0  0  0  0  0  0  # atno 10718 bound_to 10713
  154.0273  135.2901  155.3373 H   0  0  0  0  0  0  0  0  0  0  0  0  # atno 10763 bound_to 10752
  154.7010  135.5188  153.8529 H   0  0  0  0  0  0  0  0  0  0  0  0  # atno 10764 bound_to 10752
  153.0655  135.6629  154.0489 H   0  0  0  0  0  0  0  0  0  0  0  0  # atno 10765 bound_to 10752
  140.4783  134.0961  155.7746 H   0  0  0  0  0  0  0  0  0  0  0  0  # atno 11005 bound_to 11000
  145.1432  139.2559  143.5479 LP  0  0  0  0  0  0  0  0  0  0  0  0  # atno 17320 bound_to 7965
  146.3523  140.1114  142.8604 LP  0  0  0  0  0  0  0  0  0  0  0  0  # atno 17321 bound_to 7965
  140.2009  144.4659  150.6432 LP  0  0  0  0  0  0  0  0  0  0  0  0  # atno 17342 bound_to 10162
  140.6541  143.2233  151.6008 LP  0  0  0  0  0  0  0  0  0  0  0  0  # atno 17343 bound_to 10162
  156.0914  130.3663  150.0389 LP  0  0  0  0  0  0  0  0  0  0  0  0  # atno 17370 bound_to 10713
  156.8519  130.9462  151.3625 LP  0  0  0  0  0  0  0  0  0  0  0  0  # atno 17371 bound_to 10713
  141.1544  133.8910  157.2016 LP  0  0  0  0  0  0  0  0  0  0  0  0  # atno 17394 bound_to 11000
  139.9842  135.0088  156.9823 LP  0  0  0  0  0  0  0  0  0  0  0  0  # atno 17395 bound_to 11000

$$$$
