AV-unprocessed.smi:54|AV-procd|sdf|530|dock3
  -GOLD-   2262016403D 1   1.00000     0.00000
 Structure written by MMmdl.
 44 46  0  0  0  0  0  0  0  0  1 V2000
  151.6681  138.5293  154.8815 C   0  0  0  0  0  0  0  0  0  0  0  0
  151.4613  137.7734  156.2038 C   0  0  0  0  0  0  0  0  0  0  0  0
  152.6873  137.9080  157.1216 C   0  0  0  0  0  0  0  0  0  0  0  0
  151.1430  136.2978  155.9363 C   0  0  0  0  0  0  0  0  0  0  0  0
  151.8250  135.3864  156.4062 O   0  0  0  0  0  0  0  0  0  0  0  0
  149.9919  136.0546  155.0857 N   0  0  0  0  0  0  0  0  0  0  0  0
  149.5002  134.8570  154.6921 C   0  0  0  0  0  0  0  0  0  0  0  0
  148.5212  134.7293  153.8071 N   0  0  0  0  0  0  0  0  0  0  0  0
  148.1682  133.4369  153.5351 C   0  0  0  0  0  0  0  0  0  0  0  0
  148.7236  132.2986  154.0805 C   0  0  0  0  0  0  0  0  0  0  0  0
  148.0984  131.1674  153.5678 N   0  0  0  0  0  0  0  0  0  0  0  0
  147.2042  131.6442  152.7469 C   0  0  0  0  0  0  0  0  0  0  0  0
  147.1813  133.0174  152.6699 N   0  0  0  0  0  0  0  0  0  0  0  0
  146.3057  133.9107  151.8454 C   0  0  1  0  0  0  0  0  0  0  0  0
  146.0987  133.2966  150.6065 O   0  0  0  0  0  0  0  0  0  0  0  0
  144.7544  132.8440  150.5201 C   0  0  2  0  0  0  0  0  0  0  0  0
  144.3432  132.6315  149.0521 C   0  0  0  0  0  0  0  0  0  0  0  0
  143.0285  132.1280  148.9356 O   0  0  0  0  0  0  0  0  0  0  0  0
  143.9751  133.8881  151.3209 C   0  0  1  0  0  0  0  0  0  0  0  0
  142.6912  133.4422  151.7161 O   0  0  0  0  0  0  0  0  0  0  0  0
  144.9167  134.1416  152.4948 C   0  0  1  0  0  0  0  0  0  0  0  0
  144.6486  133.2792  153.5920 O   0  0  0  0  0  0  0  0  0  0  0  0
  149.7903  132.4202  155.0315 C   0  0  0  0  0  0  0  0  0  0  0  0
  150.4015  131.5247  155.6102 O   0  0  0  0  0  0  0  0  0  0  0  0
  150.1233  133.7576  155.2830 N   0  0  0  0  0  0  0  0  0  0  0  0
  146.8855  134.8251  151.7139 H   0  0  0  0  0  0  0  0  0  0  0  0
  144.7080  131.8837  151.0374 H   0  0  0  0  0  0  0  0  0  0  0  0
  143.8720  134.8098  150.7476 H   0  0  0  0  0  0  0  0  0  0  0  0
  144.8468  135.1720  152.8455 H   0  0  0  0  0  0  0  0  0  0  0  0
  150.7977  138.4357  154.2306 H   0  0  0  0  0  0  0  0  0  0  0  0
  152.5347  138.1540  154.3356 H   0  0  0  0  0  0  0  0  0  0  0  0
  151.8275  139.5928  155.0616 H   0  0  0  0  0  0  0  0  0  0  0  0
  150.6073  138.2180  156.7170 H   0  0  0  0  0  0  0  0  0  0  0  0
  152.5467  137.3620  158.0554 H   0  0  0  0  0  0  0  0  0  0  0  0
  152.8686  138.9522  157.3783 H   0  0  0  0  0  0  0  0  0  0  0  0
  153.5904  137.5253  156.6442 H   0  0  0  0  0  0  0  0  0  0  0  0
  149.5284  136.8756  154.7253 H   0  0  0  0  0  0  0  0  0  0  0  0
  146.5420  131.0061  152.1802 H   0  0  0  0  0  0  0  0  0  0  0  0
  144.4289  133.5626  148.4915 H   0  0  0  0  0  0  0  0  0  0  0  0
  145.0167  131.9139  148.5835 H   0  0  0  0  0  0  0  0  0  0  0  0
  142.4217  132.8143  149.1677 H   0  0  0  0  0  0  0  0  0  0  0  0
  142.0754  133.6771  151.0385 H   0  0  0  0  0  0  0  0  0  0  0  0
  143.7275  133.0676  153.5836 H   0  0  0  0  0  0  0  0  0  0  0  0
  150.8676  133.9190  155.9456 H   0  0  0  0  0  0  0  0  0  0  0  0
  1  2  1  0  0  0  0
  1 30  1  0  0  0  0
  1 31  1  0  0  0  0
  1 32  1  0  0  0  0
  2  3  1  0  0  0  0
  2  4  1  0  0  0  0
  2 33  1  0  0  0  0
  3 34  1  0  0  0  0
  3 35  1  0  0  0  0
  3 36  1  0  0  0  0
  4  5  2  0  0  0  0
  4  6  1  0  0  0  0
  6 37  1  0  0  0  0
  6  7  1  0  0  0  0
  7 25  1  0  0  0  0
  7  8  2  0  0  0  0
  8  9  1  0  0  0  0
  9 13  1  0  0  0  0
  9 10  2  0  0  0  0
 10 11  1  0  0  0  0
 10 23  1  0  0  0  0
 11 12  2  0  0  0  0
 12 13  1  0  0  0  0
 12 38  1  0  0  0  0
 13 14  1  0  0  0  0
 14 26  1  0  0  0  0
 14 21  1  0  0  0  0
 14 15  1  0  0  0  0
 15 16  1  0  0  0  0
 16 27  1  0  0  0  0
 16 17  1  0  0  0  0
 16 19  1  0  0  0  0
 17 18  1  0  0  0  0
 17 39  1  0  0  0  0
 17 40  1  0  0  0  0
 18 41  1  0  0  0  0
 19 28  1  0  0  0  0
 19 20  1  0  0  0  0
 19 21  1  0  0  0  0
 20 42  1  0  0  0  0
 21 29  1  0  0  0  0
 21 22  1  0  0  0  0
 22 43  1  0  0  0  0
 23 24  2  0  0  0  0
 23 25  1  0  0  0  0
 25 44  1  0  0  0  0
M  END
> <s_m_source_file>
AV-unprocessed.smi

> <i_m_source_file_index>
54

> <i_lp_mmshare_version>
43012

> <i_f3d_flags>
0

> <s_epik_input>
W0NIM11bQ0hdKFtDSDNdKUMoPU8pW05IXWMobjEpW25IXWMoPU8pYyhjMTIpbltjSF1uMltDQEBIXTNPW0NASF0oW0NIMl1bT0hdKVtDQEBIXShbT0hdKVtDQEhdM1tPSF0=

> <s_epik_cmdline>
J2VwaWtfcHl0aG9uJywgJy1waCcsICc3LjAnLCAnLXRuJywgJzgnLCAnLW1hJywgJzIwMCcsICctbWV0YWxfYmluZGluZycsICctaW1hZScsICc8aW5maWxlLm1hZT4nLCAnLW9tYWUnLCAnPG91dGZpbGUubWFlPic=

> <r_lp_tautomer_probability>
0.85571

> <r_epik_Ionization_Penalty>
0.0316551

> <r_epik_Ionization_Penalty_Charging>
0.0316043

> <r_epik_Ionization_Penalty_Neutral>
5.07097e-05

> <r_epik_State_Penalty>
3.15494e-07

> <r_epik_Charging_Adjusted_Penalty>
0.0316047

> <i_epik_Tot_Q>
0

> <i_epik_Tot_abs_Q>
0

> <r_epik_Metal_State_Penalty>
0.421206

> <b_epik_Metal_Only>
0

> <s_epik_Chemistry_Notes>
This compound contains an acetal/aminal-like group ( X-CH(R)-Y where X, Y are N, S, or O) that may be acid/base labile, releasing an aldehyde.

> <s_lp_Force_Field>
OPLS_2005

> <r_lp_Energy>
47.6187

> <b_lp_Chiralities_Consistent>
1

> <s_lp_Variant>
AV-unprocessed.smi:54-2

> <Gold.Version>
5.8.1

> <Gold.Id.Protein>
6NUR|6NUR_protein|mol2

> <Gold.PLP.Fitness>
47.7654

> <Gold.PLP.PLP>
-35.4042

> <Gold.PLP.part.hbond>
-6.0000

> <Gold.PLP.part.metal>
0.0000

> <Gold.PLP.part.buried>
-6.9148

> <Gold.PLP.part.nonpolar>
-26.2993

> <Gold.PLP.part.repulsive>
4.4769

> <Gold.PLP.ligand.clash>
0.0000

> <Gold.PLP.ligand.torsion>
0.6575

> <Gold.PLP.Chemscore.Hbond>
4.5505

> <Gold.PLP.Chemscore.CHOScore>
0.0000

> <Gold.PLP.Chemscore.Metal>
0.0000

> <Gold.Chemscore.Hbonds>
donor molecule, donor type, donor heavy atom, donor atom, acceptor molecule, acceptor atom, score
      L1  H    18    41       P1 10186  0.67
      L1  H    20    42       P1 10186  1.00
      L1  H    22    43       P1 10957  0.55
      P1  H 10752 10764       L1     5  1.00
      P1  H 10785 10796       L1    18  1.00

> <Gold.PLP.Chemscore.Internal.Correction>
0.0247

> <Gold.Rescore>
     Score         DG    S(hbond)    S(metal)    S(lipo)     H(rot)  DE(clash)    DE(int)     intcor
      9.57     -12.29       3.29        0.00      52.79       4.05       1.57       1.15       ----

> <Gold.Chemscore.Fitness>
9.5729

> <Gold.Chemscore.DG>
-12.2939

> <Gold.Chemscore.ZeroCoef>
-5.4800

> <Gold.Chemscore.Hbond>
3.2945

> <Gold.Chemscore.Metal>
0.0000

> <Gold.Chemscore.Lipo>
52.7915

> <Gold.Chemscore.Internal_Hbond>
0.0000

> <Gold.Chemscore.DEClash>
1.5706

> <Gold.Chemscore.DEInternal>
1.1504

> <Gold.Chemscore.Rot>
4.0493

> <Gold.Chemscore.Internal.Correction>
   9.000000E+99

> <Gold.Chemscore.Hbonds>
donor molecule, donor type, donor heavy atom, donor atom, acceptor molecule, acceptor atom, score
      L1  H    18    41       P1 10186  0.67
      L1  H    20    42       P1 10186  0.49
      L1  H    22    43       P1 10957  0.49
      P1  H 10752 10764       L1     5  0.34
      P1  H 10785 10796       L1    18  0.56

> <Gold.Chemscore.Hbond.Weighted>
-11.0035

> <Gold.Chemscore.Metal.Weighted>
-0.0000

> <Gold.Chemscore.Lipo.Weighted>
-6.1766

> <Gold.Chemscore.Internal_Hbond.Weighted>
0.0000

> <Gold.Chemscore.DEClash.Weighted>
1.5706

> <Gold.Chemscore.DEInternal.Weighted>
1.1504

> <Gold.Chemscore.Rot.Weighted>
10.3662

> <Gold.Chemscore.Internal.Correction.Weighted>
   9.000000E+99

> <Gold.Protein.RotatedTorsions>
[ 6907 6896 6895 6894 ] final  121.28 input  -60.11 | X-H torsion
[ 7974 7965 7964 7962 ] final  -17.50 input  175.53 | X-H torsion
[ 8008 7997 7996 7995 ] final  -10.37 input   59.86 | X-H torsion
[ 10167 10162 10161 10158 ] final -141.48 input  -65.29 | X-H torsion
[ 10718 10713 10712 10709 ] final   27.90 input   66.30 | X-H torsion
[ 10763 10752 10751 10750 ] final  -12.51 input  -60.55 | X-H torsion
[ 11005 11000 10999 10996 ] final  127.31 input  -57.11 | X-H torsion

> <Gold.Protein.ActiveResidues>
 VAL166  LYS551  ARG553  GLY616  TRP617  ASP618  TYR619  PRO620  LYS621  CYS622 
 ASP623  PHE694  ASN695  SER759  ASP760  ASP761  ALA762  ILE779  LEU786  VAL792 
 PHE793  MET794  SER795  GLU796  ALA797  LYS798  CYS799  TRP800  GLU811  SER814 

> <Gold.Protein.RotatedAtoms>
  152.4334  133.7317  159.6590 H   0  0  0  0  0  0  0  0  0  0  0  0  # atno 6907 bound_to 6896
  150.8215  133.8234  159.3143 H   0  0  0  0  0  0  0  0  0  0  0  0  # atno 6908 bound_to 6896
  151.5915  135.1055  160.0091 H   0  0  0  0  0  0  0  0  0  0  0  0  # atno 6909 bound_to 6896
  146.1938  140.3789  142.8448 H   0  0  0  0  0  0  0  0  0  0  0  0  # atno 7974 bound_to 7965
  154.5561  140.2330  155.8408 H   0  0  0  0  0  0  0  0  0  0  0  0  # atno 8008 bound_to 7997
  156.1989  140.3057  155.9445 H   0  0  0  0  0  0  0  0  0  0  0  0  # atno 8009 bound_to 7997
  155.2977  140.0429  157.3018 H   0  0  0  0  0  0  0  0  0  0  0  0  # atno 8010 bound_to 7997
  139.8181  143.7611  152.2665 H   0  0  0  0  0  0  0  0  0  0  0  0  # atno 10167 bound_to 10162
  157.2264  130.7003  149.6293 H   0  0  0  0  0  0  0  0  0  0  0  0  # atno 10718 bound_to 10713
  153.4996  135.7017  153.5839 H   0  0  0  0  0  0  0  0  0  0  0  0  # atno 10763 bound_to 10752
  153.3977  135.3880  155.1966 H   0  0  0  0  0  0  0  0  0  0  0  0  # atno 10764 bound_to 10752
  154.8711  135.3873  154.4465 H   0  0  0  0  0  0  0  0  0  0  0  0  # atno 10765 bound_to 10752
  139.9501  134.9623  156.8836 H   0  0  0  0  0  0  0  0  0  0  0  0  # atno 11005 bound_to 11000
  144.8538  140.7041  143.6151 LP  0  0  0  0  0  0  0  0  0  0  0  0  # atno 17320 bound_to 7965
  145.3710  139.1658  143.4332 LP  0  0  0  0  0  0  0  0  0  0  0  0  # atno 17321 bound_to 7965
  139.7781  144.7454  151.0128 LP  0  0  0  0  0  0  0  0  0  0  0  0  # atno 17342 bound_to 10162
  140.7815  143.4572  151.0329 LP  0  0  0  0  0  0  0  0  0  0  0  0  # atno 17343 bound_to 10162
  155.9678  130.4503  150.5692 LP  0  0  0  0  0  0  0  0  0  0  0  0  # atno 17370 bound_to 10713
  157.3523  131.0735  151.1703 LP  0  0  0  0  0  0  0  0  0  0  0  0  # atno 17371 bound_to 10713
  140.5740  134.0416  155.7440 LP  0  0  0  0  0  0  0  0  0  0  0  0  # atno 17394 bound_to 11000
  141.1161  133.9537  157.2819 LP  0  0  0  0  0  0  0  0  0  0  0  0  # atno 17395 bound_to 11000

$$$$
