#       Name:                AV-unprocessed.smi:2858
#       Creating user name   scv26
#       Creation time:       Fri Mar 27 15:45:40 2020


#       File generated by GOLD software.
#

@<TRIPOS>MOLECULE
AV-unprocessed.smi:2858
    45    46     1
SMALL
NO_CHARGES


@<TRIPOS>ATOM
      1 ****        -4.0057   5.4501  -1.5233 O.2            1 S1                 0.0000
      2 ****        -3.5256   4.5035  -0.9053 C.2            1 S1                 0.0000
      3 ****        -2.0409   4.1527  -1.0876 C.3            1 S1                 0.0000
      4 ****        -1.6769   2.7974  -0.5991 N.4            1 S1                 1.0000
      5 ****        -0.2180   2.5413  -0.6936 C.3            1 S1                 0.0000
      6 ****         0.1103   1.0411  -0.7747 C.3            1 S1                 0.0000
      7 ****         1.6173   0.7819  -0.9392 C.3            1 S1                 0.0000
      8 ****         1.9166  -0.6446  -0.9967 N.am           1 S1                 0.0000
      9 ****         1.9640  -1.4601   0.0672 C.2            1 S1                 0.0000
     10 ****         1.7459  -1.0809   1.2184 O.2            1 S1                 0.0000
     11 ****         2.2704  -2.7188  -0.2939 N.am           1 S1                 0.0000
     12 ****         2.4041  -3.8621   0.5387 C.ar           1 S1                 0.0000
     13 ****         2.7304  -5.0602  -0.1364 C.ar           1 S1                 0.0000
     14 ****         2.8838  -6.2508   0.6004 C.ar           1 S1                 0.0000
     15 ****         2.7088  -6.2121   1.9951 C.ar           1 S1                 0.0000
     16 ****         2.3853  -4.9782   2.5888 C.ar           1 S1                 0.0000
     17 ****         2.2361  -3.8363   1.8847 N.ar           1 S1                 0.0000
     18 ****        -2.2426   2.5271   0.7449 C.3            1 S1                 0.0000
     19 ****        -3.7782   2.6158   0.7023 C.3            1 S1                 0.0000
     20 ****        -4.2634   3.7612  -0.0638 N.am           1 S1                 0.0000
     21 ****        -1.7869   4.2367  -2.1452 H              1 S1                 0.0000
     22 ****        -1.4508   4.9007  -0.5558 H              1 S1                 0.0000
     23 ****         0.1690   3.0200  -1.5944 H              1 S1                 0.0000
     24 ****         0.2956   3.0075   0.1487 H              1 S1                 0.0000
     25 ****        -0.2424   0.5331   0.1222 H              1 S1                 0.0000
     26 ****        -0.4273   0.5951  -1.6127 H              1 S1                 0.0000
     27 ****         1.9766   1.2412  -1.8605 H              1 S1                 0.0000
     28 ****         2.1762   1.2438  -0.1234 H              1 S1                 0.0000
     29 ****         2.1094  -1.0354  -1.9075 H              1 S1                 0.0000
     30 ****         2.4241  -2.8796  -1.2783 H              1 S1                 0.0000
     31 ****         2.8623  -5.0722  -1.2086 H              1 S1                 0.0000
     32 ****         3.1324  -7.1768   0.1034 H              1 S1                 0.0000
     33 ****         2.8194  -7.1038   2.5942 H              1 S1                 0.0000
     34 ****         2.2428  -4.9051   3.6568 H              1 S1                 0.0000
     35 ****        -1.9521   1.5423   1.1090 H              1 S1                 0.0000
     36 ****        -1.8437   3.2550   1.4535 H              1 S1                 0.0000
     37 ****        -4.1837   1.7154   0.2394 H              1 S1                 0.0000
     38 ****        -4.1842   2.6581   1.7132 H              1 S1                 0.0000
     39 ****        -5.2371   4.0060   0.0492 H              1 S1                 0.0000
     40 ****        -2.1225   2.1485  -1.2319 H              1 S1                 0.0000
     41 ****        -4.9704   5.6858  -1.4064 LP             1 S1                 0.0000
     42 ****        -3.4318   5.9852  -2.1433 LP             1 S1                 0.0000
     43 ****         1.5203  -0.1228   1.3950 LP             1 S1                 0.0000
     44 ****         1.7944  -1.7310   1.9767 LP             1 S1                 0.0000
     45 ****         2.0046  -2.9817   2.3496 LP             1 S1                 0.0000
@<TRIPOS>BOND
    1    1    2 2     
    2    2   20 am    
    3    2    3 1     
    4    3    4 1     
    5    3   21 1     
    6    3   22 1     
    7    4    5 1     
    8    4   18 1     
    9    4   40 1     
   10    5    6 1     
   11    5   23 1     
   12    5   24 1     
   13    6    7 1     
   14    6   25 1     
   15    6   26 1     
   16    7    8 1     
   17    7   27 1     
   18    7   28 1     
   19    8    9 am    
   20    8   29 1     
   21    9   10 2     
   22    9   11 am    
   23   11   12 1     
   24   11   30 1     
   25   12   17 ar    
   26   12   13 ar    
   27   13   14 ar    
   28   13   31 1     
   29   14   15 ar    
   30   14   32 1     
   31   15   16 ar    
   32   15   33 1     
   33   16   17 ar    
   34   16   34 1     
   35   18   19 1     
   36   18   35 1     
   37   18   36 1     
   38   19   20 1     
   39   19   37 1     
   40   19   38 1     
   41   20   39 1     
   42    1   41 1     
   43    1   42 1     
   44   10   43 1     
   45   10   44 1     
   46   17   45 1     
@<TRIPOS>SUBSTRUCTURE
      1 S1             1
@<TRIPOS>SET
LONE_PAIRS      STATIC     ATOMS    <user>   **** ""
5 41 42 43 44 45
DONOR_HYDROGENS      STATIC     ATOMS    <user>   **** ""
4 40 29 30 39
ATOM$BLUE        STATIC     ATOMS    COLORGROUP SYSTEM
5 41 42 43 44 45
ATOM$RED        STATIC     ATOMS    COLORGROUP SYSTEM
4 40 29 30 39
