AV-unprocessed.smi:363|AV-procd|sdf|2424|dock6
  -GOLD-   2262022363D 1   1.00000     0.00000
 Structure written by MMmdl.
 39 40  0  0  0  0  0  0  0  0  1 V2000
  145.9039  137.6369  152.2746 C   0  0  0  0  0  0  0  0  0  0  0  0
  146.7369  138.3014  153.3637 C   0  0  0  0  0  0  0  0  0  0  0  0
  147.0843  139.6931  153.1943 C   0  0  0  0  0  0  0  0  0  0  0  0
  147.8523  140.3316  154.0913 C   0  0  0  0  0  0  0  0  0  0  0  0
  148.2193  141.7991  153.8963 C   0  0  0  0  0  0  0  0  0  0  0  0
  148.3298  139.6519  155.2458 N   0  0  0  0  0  0  0  0  0  0  0  0
  149.1817  140.3743  156.2192 C   0  0  0  0  0  0  0  0  0  0  0  0
  150.5981  139.7616  156.3414 C   0  0  1  0  0  0  0  0  0  0  0  0
  151.2876  139.9366  155.1201 O   0  0  0  0  0  0  0  0  0  0  0  0
  151.3684  140.3980  157.4890 C   0  0  0  0  0  0  0  0  0  0  0  0
  151.3353  141.7965  157.6845 C   0  0  0  0  0  0  0  0  0  0  0  0
  152.0405  142.3815  158.7540 C   0  0  0  0  0  0  0  0  0  0  0  0
  152.7816  141.5716  159.6360 C   0  0  0  0  0  0  0  0  0  0  0  0
  153.6449  142.2884  160.9467 Cl  0  0  0  0  0  0  0  0  0  0  0  0
  152.8165  140.1763  159.4473 C   0  0  0  0  0  0  0  0  0  0  0  0
  152.1121  139.5911  158.3770 C   0  0  0  0  0  0  0  0  0  0  0  0
  148.0183  138.3405  155.5007 C   0  0  0  0  0  0  0  0  0  0  0  0
  148.3980  137.8024  156.5458 O   0  0  0  0  0  0  0  0  0  0  0  0
  147.1996  137.6512  154.4653 C   0  0  0  0  0  0  0  0  0  0  0  0
  146.8892  136.2282  154.7071 C   0  0  0  0  0  0  0  0  0  0  0  0
  147.2898  135.3856  153.7449 N   0  0  0  0  0  0  0  0  0  0  0  0
  146.2421  135.8029  155.6628 O   0  0  0  0  0  0  0  0  0  0  0  0
  145.7997  138.2880  151.4063 H   0  0  0  0  0  0  0  0  0  0  0  0
  144.9022  137.4127  152.6418 H   0  0  0  0  0  0  0  0  0  0  0  0
  146.3690  136.7112  151.9340 H   0  0  0  0  0  0  0  0  0  0  0  0
  146.7262  140.2265  152.3255 H   0  0  0  0  0  0  0  0  0  0  0  0
  147.6165  142.2446  153.1044 H   0  0  0  0  0  0  0  0  0  0  0  0
  149.2645  141.8961  153.6019 H   0  0  0  0  0  0  0  0  0  0  0  0
  148.0466  142.3938  154.7912 H   0  0  0  0  0  0  0  0  0  0  0  0
  149.2466  141.4438  156.0091 H   0  0  0  0  0  0  0  0  0  0  0  0
  148.6930  140.3623  157.1924 H   0  0  0  0  0  0  0  0  0  0  0  0
  150.5301  138.6882  156.5216 H   0  0  0  0  0  0  0  0  0  0  0  0
  151.8822  139.2113  155.0045 H   0  0  0  0  0  0  0  0  0  0  0  0
  150.7658  142.4242  157.0149 H   0  0  0  0  0  0  0  0  0  0  0  0
  152.0102  143.4517  158.8971 H   0  0  0  0  0  0  0  0  0  0  0  0
  153.3822  139.5525  160.1237 H   0  0  0  0  0  0  0  0  0  0  0  0
  152.1445  138.5196  158.2432 H   0  0  0  0  0  0  0  0  0  0  0  0
  147.0994  134.3974  153.8279 H   0  0  0  0  0  0  0  0  0  0  0  0
  147.7665  135.7451  152.9307 H   0  0  0  0  0  0  0  0  0  0  0  0
  1  2  1  0  0  0  0
  1 23  1  0  0  0  0
  1 24  1  0  0  0  0
  1 25  1  0  0  0  0
  2 19  2  0  0  0  0
  2  3  1  0  0  0  0
  3  4  2  0  0  0  0
  3 26  1  0  0  0  0
  4  5  1  0  0  0  0
  4  6  1  0  0  0  0
  5 27  1  0  0  0  0
  5 28  1  0  0  0  0
  5 29  1  0  0  0  0
  6  7  1  0  0  0  0
  6 17  1  0  0  0  0
  7  8  1  0  0  0  0
  7 30  1  0  0  0  0
  7 31  1  0  0  0  0
  8  9  1  0  0  0  0
  8 10  1  0  0  0  0
  8 32  1  0  0  0  0
  9 33  1  0  0  0  0
 10 16  1  0  0  0  0
 10 11  2  0  0  0  0
 11 12  1  0  0  0  0
 11 34  1  0  0  0  0
 12 13  2  0  0  0  0
 12 35  1  0  0  0  0
 13 14  1  0  0  0  0
 13 15  1  0  0  0  0
 15 16  2  0  0  0  0
 15 36  1  0  0  0  0
 16 37  1  0  0  0  0
 17 18  2  0  0  0  0
 17 19  1  0  0  0  0
 19 20  1  0  0  0  0
 20 21  1  0  0  0  0
 20 22  2  0  0  0  0
 21 38  1  0  0  0  0
 21 39  1  0  0  0  0
M  END
> <s_m_source_file>
AV-unprocessed.smi

> <i_m_source_file_index>
363

> <i_lp_mmshare_version>
43012

> <i_f3d_flags>
0

> <s_epik_input>
W0NIM11jMVtjSF1jKFtDSDNdKW4oYyg9TyljMUMoPU8pW05IMl0pW0NIMl1bQ0BIXShbT0hdKWMyW2NIXVtjSF1jKENsKVtjSF1bY0hdMg==

> <s_epik_cmdline>
J2VwaWtfcHl0aG9uJywgJy1waCcsICc3LjAnLCAnLXRuJywgJzgnLCAnLW1hJywgJzIwMCcsICctbWV0YWxfYmluZGluZycsICctaW1hZScsICc8aW5maWxlLm1hZT4nLCAnLW9tYWUnLCAnPG91dGZpbGUubWFlPic=

> <r_lp_tautomer_probability>
1

> <r_epik_Ionization_Penalty>
3.91973e-07

> <r_epik_Ionization_Penalty_Charging>
1.35363e-07

> <r_epik_Ionization_Penalty_Neutral>
2.5661e-07

> <r_epik_State_Penalty>
-0

> <r_epik_Charging_Adjusted_Penalty>
1.35363e-07

> <i_epik_Tot_Q>
0

> <i_epik_Tot_abs_Q>
0

> <r_epik_Metal_State_Penalty>
-0

> <b_epik_Metal_Only>
0

> <s_lp_Force_Field>
OPLS_2005

> <r_lp_Energy>
39.726

> <b_lp_Chiralities_Consistent>
1

> <s_lp_Variant>
AV-unprocessed.smi:363-2

> <Gold.Version>
5.8.1

> <Gold.Id.Protein>
6NUR|6NUR_protein|mol2

> <Gold.PLP.Fitness>
34.4132

> <Gold.PLP.PLP>
-31.3290

> <Gold.PLP.part.hbond>
-2.0000

> <Gold.PLP.part.metal>
0.0000

> <Gold.PLP.part.buried>
-3.8982

> <Gold.PLP.part.nonpolar>
-25.6245

> <Gold.PLP.part.repulsive>
0.0126

> <Gold.PLP.ligand.clash>
0.0000

> <Gold.PLP.ligand.torsion>
1.6021

> <Gold.PLP.Chemscore.Hbond>
2.0000

> <Gold.PLP.Chemscore.CHOScore>
0.0000

> <Gold.PLP.Chemscore.Metal>
0.0000

> <Gold.Chemscore.Hbonds>
donor molecule, donor type, donor heavy atom, donor atom, acceptor molecule, acceptor atom, score
      L1  H    21    39       P1  7948  1.00
      P1  H  7989  7998       L1     9  0.95

> <Gold.PLP.Chemscore.Internal.Correction>
0.2885

> <Gold.Rescore>
     Score         DG    S(hbond)    S(metal)    S(lipo)     H(rot)  DE(clash)    DE(int)     intcor
     14.69     -18.09       1.82        0.00      98.48       1.95       0.42       2.98       ----

> <Gold.Chemscore.Fitness>
14.6878

> <Gold.Chemscore.DG>
-18.0881

> <Gold.Chemscore.ZeroCoef>
-5.4800

> <Gold.Chemscore.Hbond>
1.8192

> <Gold.Chemscore.Metal>
0.0000

> <Gold.Chemscore.Lipo>
98.4848

> <Gold.Chemscore.Internal_Hbond>
0.0000

> <Gold.Chemscore.DEClash>
0.4191

> <Gold.Chemscore.DEInternal>
2.9812

> <Gold.Chemscore.Rot>
1.9495

> <Gold.Chemscore.Internal.Correction>
   9.000000E+99

> <Gold.Chemscore.Hbonds>
donor molecule, donor type, donor heavy atom, donor atom, acceptor molecule, acceptor atom, score
      L1  H    21    39       P1  7948  1.00
      P1  H  7989  7998       L1     9  0.21

> <Gold.Chemscore.Hbond.Weighted>
-6.0762

> <Gold.Chemscore.Metal.Weighted>
-0.0000

> <Gold.Chemscore.Lipo.Weighted>
-11.5227

> <Gold.Chemscore.Internal_Hbond.Weighted>
0.0000

> <Gold.Chemscore.DEClash.Weighted>
0.4191

> <Gold.Chemscore.DEInternal.Weighted>
2.9812

> <Gold.Chemscore.Rot.Weighted>
4.9908

> <Gold.Chemscore.Internal.Correction.Weighted>
   9.000000E+99

> <Gold.Protein.RotatedTorsions>
[ 6907 6896 6895 6894 ] final   16.79 input  -60.11 | X-H torsion
[ 7974 7965 7964 7962 ] final   31.01 input  175.53 | X-H torsion
[ 8008 7997 7996 7995 ] final  160.41 input   59.86 | X-H torsion
[ 10167 10162 10161 10158 ] final -168.93 input  -65.29 | X-H torsion
[ 10718 10713 10712 10709 ] final   26.21 input   66.30 | X-H torsion
[ 10763 10752 10751 10750 ] final -142.41 input  -60.55 | X-H torsion
[ 11005 11000 10999 10996 ] final   -7.98 input  -57.11 | X-H torsion

> <Gold.Protein.ActiveResidues>
 VAL166  LYS551  ARG553  GLY616  TRP617  ASP618  TYR619  PRO620  LYS621  CYS622 
 ASP623  PHE694  ASN695  SER759  ASP760  ASP761  ALA762  ILE779  LEU786  VAL792 
 PHE793  MET794  SER795  GLU796  ALA797  LYS798  CYS799  TRP800  GLU811  SER814 

> <Gold.Protein.RotatedAtoms>
  151.8394  135.0595  160.0446 H   0  0  0  0  0  0  0  0  0  0  0  0  # atno 6907 bound_to 6896
  152.2820  133.5475  159.5512 H   0  0  0  0  0  0  0  0  0  0  0  0  # atno 6908 bound_to 6896
  150.7193  134.0466  159.3826 H   0  0  0  0  0  0  0  0  0  0  0  0  # atno 6909 bound_to 6896
  146.1577  139.6713  142.9055 H   0  0  0  0  0  0  0  0  0  0  0  0  # atno 7974 bound_to 7965
  156.2174  140.1805  156.7556 H   0  0  0  0  0  0  0  0  0  0  0  0  # atno 8008 bound_to 7997
  154.5813  140.0666  156.9136 H   0  0  0  0  0  0  0  0  0  0  0  0  # atno 8009 bound_to 7997
  155.2498  140.3328  155.4286 H   0  0  0  0  0  0  0  0  0  0  0  0  # atno 8010 bound_to 7997
  139.5954  144.1122  152.1683 H   0  0  0  0  0  0  0  0  0  0  0  0  # atno 10167 bound_to 10162
  157.2037  130.6902  149.6199 H   0  0  0  0  0  0  0  0  0  0  0  0  # atno 10718 bound_to 10713
  154.8510  135.3497  154.6023 H   0  0  0  0  0  0  0  0  0  0  0  0  # atno 10763 bound_to 10752
  153.6632  135.6988  153.5175 H   0  0  0  0  0  0  0  0  0  0  0  0  # atno 10764 bound_to 10752
  153.2801  135.4266  155.1028 H   0  0  0  0  0  0  0  0  0  0  0  0  # atno 10765 bound_to 10752
  140.7186  133.8847  155.8804 H   0  0  0  0  0  0  0  0  0  0  0  0  # atno 11005 bound_to 11000
  145.4667  141.0435  143.2721 LP  0  0  0  0  0  0  0  0  0  0  0  0  # atno 17320 bound_to 7965
  144.7985  139.6187  143.7082 LP  0  0  0  0  0  0  0  0  0  0  0  0  # atno 17321 bound_to 7965
  140.0706  144.5782  150.7194 LP  0  0  0  0  0  0  0  0  0  0  0  0  # atno 17342 bound_to 10162
  140.7208  143.2587  151.4285 LP  0  0  0  0  0  0  0  0  0  0  0  0  # atno 17343 bound_to 10162
  155.9697  130.4574  150.5961 LP  0  0  0  0  0  0  0  0  0  0  0  0  # atno 17370 bound_to 10713
  157.3741  131.0770  151.1533 LP  0  0  0  0  0  0  0  0  0  0  0  0  # atno 17371 bound_to 10713
  141.0023  134.1134  157.4305 LP  0  0  0  0  0  0  0  0  0  0  0  0  # atno 17394 bound_to 11000
  139.8853  135.0071  156.6429 LP  0  0  0  0  0  0  0  0  0  0  0  0  # atno 17395 bound_to 11000

$$$$
