#       Name:                AV-unprocessed.smi:833
#       Creating user name   scv26
#       Creation time:       Fri Mar 27 01:33:40 2020


#       File generated by GOLD software.
#

@<TRIPOS>MOLECULE
AV-unprocessed.smi:833
    45    46     1
SMALL
NO_CHARGES


@<TRIPOS>ATOM
      1 ****        -3.3959   4.3359   0.8181 C.3            1 S1                 0.0000
      2 ****        -2.4349   3.2874   0.2416 C.3            1 S1                 0.0000
      3 ****        -2.5011   3.4020  -1.1651 O.3            1 S1                 0.0000
      4 ****        -0.9812   3.5208   0.7012 C.3            1 S1                 0.0000
      5 ****        -0.2078   2.2839   0.7135 N.am           1 S1                 0.0000
      6 ****         0.4057   1.7469  -0.3496 C.2            1 S1                 0.0000
      7 ****         0.3826   2.2468  -1.4741 O.2            1 S1                 0.0000
      8 ****         1.0187   0.5964  -0.0266 N.am           1 S1                 0.0000
      9 ****         1.7193  -0.2928  -0.8892 C.ar           1 S1                 0.0000
     10 ****         2.4917   0.1889  -1.9742 C.ar           1 S1                 0.0000
     11 ****         3.2243  -0.7198  -2.7569 C.ar           1 S1                 0.0000
     12 ****         3.1724  -2.0814  -2.4166 C.ar           1 S1                 0.0000
     13 ****         2.4533  -2.5545  -1.3791 N.ar           1 S1                 0.0000
     14 ****         1.7290  -1.6924  -0.6234 C.ar           1 S1                 0.0000
     15 ****         0.9814  -2.2490   0.4401 N.3            1 S1                 0.0000
     16 ****        -0.4524  -1.9764   0.4897 C.3            1 S1                 0.0000
     17 ****        -1.1190  -3.2514   1.0170 C.3            1 S1                 0.0000
     18 ****         0.0131  -3.9821   1.7322 C.3            1 S1                 0.0000
     19 ****         1.2247  -3.6192   0.8785 C.3            1 S1                 0.0000
     20 ****        -3.4185   4.2893   1.9071 H              1 S1                 0.0000
     21 ****        -4.4143   4.1748   0.4625 H              1 S1                 0.0000
     22 ****        -3.0994   5.3464   0.5344 H              1 S1                 0.0000
     23 ****        -2.7758   2.2941   0.5373 H              1 S1                 0.0000
     24 ****        -1.8795   2.7986  -1.5444 H              1 S1                 0.0000
     25 ****        -0.4884   4.2968   0.1120 H              1 S1                 0.0000
     26 ****        -0.9808   3.8806   1.7305 H              1 S1                 0.0000
     27 ****        -0.1368   1.8018   1.5975 H              1 S1                 0.0000
     28 ****         0.8711   0.2600   0.9137 H              1 S1                 0.0000
     29 ****         2.5523   1.2419  -2.2037 H              1 S1                 0.0000
     30 ****         3.8221  -0.3789  -3.5891 H              1 S1                 0.0000
     31 ****         3.7273  -2.8105  -2.9882 H              1 S1                 0.0000
     32 ****        -0.6295  -1.1531   1.1820 H              1 S1                 0.0000
     33 ****        -0.8519  -1.6920  -0.4848 H              1 S1                 0.0000
     34 ****        -1.9716  -3.0471   1.6651 H              1 S1                 0.0000
     35 ****        -1.4710  -3.8546   0.1790 H              1 S1                 0.0000
     36 ****         0.1340  -3.5858   2.7413 H              1 S1                 0.0000
     37 ****        -0.1493  -5.0577   1.8053 H              1 S1                 0.0000
     38 ****         1.2809  -4.2952   0.0244 H              1 S1                 0.0000
     39 ****         2.1556  -3.6979   1.4406 H              1 S1                 0.0000
     40 ****        -2.2741   4.3367  -1.4386 LP             1 S1                 0.0000
     41 ****        -3.4237   3.1777  -1.4789 LP             1 S1                 0.0000
     42 ****        -0.1138   3.1004  -1.6317 LP             1 S1                 0.0000
     43 ****         0.8602   1.7992  -2.2301 LP             1 S1                 0.0000
     44 ****         2.4540  -3.5322  -1.1687 LP             1 S1                 0.0000
     45 ****         1.4429  -1.6709   1.1130 LP             1 S1                 0.0000
@<TRIPOS>BOND
    1    1    2 1     
    2    1   20 1     
    3    1   21 1     
    4    1   22 1     
    5    2    3 1     
    6    2    4 1     
    7    2   23 1     
    8    3   24 1     
    9    4    5 1     
   10    4   25 1     
   11    4   26 1     
   12    5    6 am    
   13    5   27 1     
   14    6    7 2     
   15    6    8 am    
   16    8    9 1     
   17    8   28 1     
   18    9   14 ar    
   19    9   10 ar    
   20   10   11 ar    
   21   10   29 1     
   22   11   12 ar    
   23   11   30 1     
   24   12   13 ar    
   25   12   31 1     
   26   13   14 ar    
   27   14   15 1     
   28   15   19 1     
   29   15   16 1     
   30   16   17 1     
   31   16   32 1     
   32   16   33 1     
   33   17   18 1     
   34   17   34 1     
   35   17   35 1     
   36   18   19 1     
   37   18   36 1     
   38   18   37 1     
   39   19   38 1     
   40   19   39 1     
   41    3   40 1     
   42    3   41 1     
   43    7   42 1     
   44    7   43 1     
   45   13   44 1     
   46   15   45 1     
@<TRIPOS>SUBSTRUCTURE
      1 S1             1
@<TRIPOS>SET
LONE_PAIRS      STATIC     ATOMS    <user>   **** ""
6 40 41 42 43 44 45
DONOR_HYDROGENS      STATIC     ATOMS    <user>   **** ""
3 24 27 28
ATOM$BLUE        STATIC     ATOMS    COLORGROUP SYSTEM
6 40 41 42 43 44 45
ATOM$RED        STATIC     ATOMS    COLORGROUP SYSTEM
3 24 27 28
