AV-unprocessed.smi:1947|AV-procd|sdf|7865|dock6
  -GOLD-   2272010 13D 1   1.00000     0.00000
 Structure written by MMmdl.
 39 40  0  0  0  0  0  0  0  0  1 V2000
  154.0028  140.9994  159.6986 C   0  0  0  0  0  0  0  0  0  0  0  0
  153.0730  141.8767  158.8428 C   0  0  2  0  0  0  0  0  0  0  0  0
  152.4491  143.0018  159.6929 C   0  0  0  0  0  0  0  0  0  0  0  0
  151.5063  143.8871  158.8635 C   0  0  0  0  0  0  0  0  0  0  0  0
  150.4103  143.0481  158.1909 C   0  0  0  0  0  0  0  0  0  0  0  0
  151.0210  141.9310  157.3317 C   0  0  0  0  0  0  0  0  0  0  0  0
  151.9714  141.0387  158.1561 C   0  0  1  0  0  0  0  0  0  0  0  0
  152.6124  140.1058  157.2962 O   0  0  0  0  0  0  0  0  0  0  0  0
  151.8522  138.9393  157.0176 C   0  0  0  0  0  0  0  0  0  0  0  0
  151.7211  138.7918  155.4942 C   0  0  0  0  0  0  0  0  0  0  0  0
  150.9903  137.5815  155.1323 N   0  0  0  0  0  0  0  0  0  0  0  0
  151.2231  136.3594  155.6306 C   0  0  0  0  0  0  0  0  0  0  0  0
  152.0612  136.1307  156.5026 O   0  0  0  0  0  0  0  0  0  0  0  0
  150.4345  135.4413  155.0495 N   0  0  0  0  0  0  0  0  0  0  0  0
  150.4147  134.0421  155.2738 C   0  0  0  0  0  0  0  0  0  0  0  0
  151.2291  133.5443  156.2117 N   0  0  0  0  0  0  0  0  0  0  0  0
  151.1051  132.1651  156.3301 N   0  0  0  0  0  0  0  0  0  0  0  0
  150.2013  131.6764  155.4753 C   0  0  0  0  0  0  0  0  0  0  0  0
  149.4110  132.8519  154.4399 S   0  0  0  0  0  0  0  0  0  0  0  0
  153.4513  140.4916  160.4904 H   0  0  0  0  0  0  0  0  0  0  0  0
  154.7839  141.5978  160.1684 H   0  0  0  0  0  0  0  0  0  0  0  0
  154.4959  140.2358  159.0963 H   0  0  0  0  0  0  0  0  0  0  0  0
  153.6798  142.3428  158.0647 H   0  0  0  0  0  0  0  0  0  0  0  0
  151.8972  142.5688  160.5286 H   0  0  0  0  0  0  0  0  0  0  0  0
  153.2356  143.6180  160.1304 H   0  0  0  0  0  0  0  0  0  0  0  0
  151.0539  144.6477  159.5001 H   0  0  0  0  0  0  0  0  0  0  0  0
  152.0784  144.4200  158.1029 H   0  0  0  0  0  0  0  0  0  0  0  0
  149.7627  142.6120  158.9526 H   0  0  0  0  0  0  0  0  0  0  0  0
  149.7776  143.6878  157.5749 H   0  0  0  0  0  0  0  0  0  0  0  0
  150.2208  141.3341  156.8943 H   0  0  0  0  0  0  0  0  0  0  0  0
  151.5673  142.3734  156.4975 H   0  0  0  0  0  0  0  0  0  0  0  0
  151.4054  140.5181  158.9312 H   0  0  0  0  0  0  0  0  0  0  0  0
  152.3360  138.0566  157.4385 H   0  0  0  0  0  0  0  0  0  0  0  0
  150.8633  139.0139  157.4701 H   0  0  0  0  0  0  0  0  0  0  0  0
  151.2266  139.6666  155.0693 H   0  0  0  0  0  0  0  0  0  0  0  0
  152.7113  138.7422  155.0411 H   0  0  0  0  0  0  0  0  0  0  0  0
  150.2824  137.6780  154.4191 H   0  0  0  0  0  0  0  0  0  0  0  0
  149.7870  135.7785  154.3526 H   0  0  0  0  0  0  0  0  0  0  0  0
  149.9986  130.6158  155.4549 H   0  0  0  0  0  0  0  0  0  0  0  0
  1  2  1  0  0  0  0
  1 20  1  0  0  0  0
  1 21  1  0  0  0  0
  1 22  1  0  0  0  0
  2  7  1  0  0  0  0
  2  3  1  0  0  0  0
  2 23  1  0  0  0  0
  3  4  1  0  0  0  0
  3 24  1  0  0  0  0
  3 25  1  0  0  0  0
  4  5  1  0  0  0  0
  4 26  1  0  0  0  0
  4 27  1  0  0  0  0
  5  6  1  0  0  0  0
  5 28  1  0  0  0  0
  5 29  1  0  0  0  0
  6  7  1  0  0  0  0
  6 30  1  0  0  0  0
  6 31  1  0  0  0  0
  7  8  1  0  0  0  0
  7 32  1  0  0  0  0
  8  9  1  0  0  0  0
  9 10  1  0  0  0  0
  9 33  1  0  0  0  0
  9 34  1  0  0  0  0
 10 11  1  0  0  0  0
 10 35  1  0  0  0  0
 10 36  1  0  0  0  0
 11 12  1  0  0  0  0
 11 37  1  0  0  0  0
 12 13  2  0  0  0  0
 12 14  1  0  0  0  0
 14 15  1  0  0  0  0
 14 38  1  0  0  0  0
 15 19  1  0  0  0  0
 15 16  2  0  0  0  0
 16 17  1  0  0  0  0
 17 18  2  0  0  0  0
 18 19  1  0  0  0  0
 18 39  1  0  0  0  0
M  END
> <s_m_source_file>
AV-unprocessed.smi

> <i_m_source_file_index>
1947

> <i_lp_mmshare_version>
43012

> <i_f3d_flags>
0

> <s_epik_input>
W0NIM11bQ0BASF0xW0NIMl1bQ0gyXVtDSDJdW0NIMl1bQ0BIXTFPW0NIMl1bQ0gyXVtOSF1DKD1PKVtOSF1jMm5uW2NIXXMy

> <s_epik_cmdline>
J2VwaWtfcHl0aG9uJywgJy1waCcsICc3LjAnLCAnLXRuJywgJzgnLCAnLW1hJywgJzIwMCcsICctbWV0YWxfYmluZGluZycsICctaW1hZScsICc8aW5maWxlLm1hZT4nLCAnLW9tYWUnLCAnPG91dGZpbGUubWFlPic=

> <r_lp_tautomer_probability>
1

> <r_epik_Ionization_Penalty>
0.00220897

> <r_epik_Ionization_Penalty_Charging>
0

> <r_epik_Ionization_Penalty_Neutral>
0.00220897

> <r_epik_State_Penalty>
-0

> <r_epik_Charging_Adjusted_Penalty>
0

> <i_epik_Tot_Q>
0

> <i_epik_Tot_abs_Q>
0

> <r_epik_Metal_State_Penalty>
0.345002

> <b_epik_Metal_Only>
0

> <s_lp_Force_Field>
OPLS_2005

> <r_lp_Energy>
7.38762

> <b_lp_Chiralities_Consistent>
1

> <s_lp_Variant>
AV-unprocessed.smi:1947-1

> <Gold.Version>
5.8.1

> <Gold.Id.Protein>
6NUR|6NUR_protein|mol2

> <Gold.PLP.Fitness>
43.0788

> <Gold.PLP.PLP>
-35.6474

> <Gold.PLP.part.hbond>
-3.7229

> <Gold.PLP.part.metal>
0.0000

> <Gold.PLP.part.buried>
-3.1614

> <Gold.PLP.part.nonpolar>
-28.8117

> <Gold.PLP.part.repulsive>
0.2108

> <Gold.PLP.ligand.clash>
0.0000

> <Gold.PLP.ligand.torsion>
0.6936

> <Gold.PLP.Chemscore.Hbond>
2.9357

> <Gold.PLP.Chemscore.CHOScore>
0.0000

> <Gold.PLP.Chemscore.Metal>
0.0000

> <Gold.Chemscore.Hbonds>
donor molecule, donor type, donor heavy atom, donor atom, acceptor molecule, acceptor atom, score
      P1  H  7997  8009       L1     8  1.00
      P1  H 10752 10764       L1    13  0.65

> <Gold.PLP.Chemscore.Internal.Correction>
0.0114

> <Gold.Rescore>
     Score         DG    S(hbond)    S(metal)    S(lipo)     H(rot)  DE(clash)    DE(int)     intcor
     14.27     -17.73       2.15        0.00      85.70       1.94       0.20       3.26       ----

> <Gold.Chemscore.Fitness>
14.2698

> <Gold.Chemscore.DG>
-17.7333

> <Gold.Chemscore.ZeroCoef>
-5.4800

> <Gold.Chemscore.Hbond>
2.1523

> <Gold.Chemscore.Metal>
0.0000

> <Gold.Chemscore.Lipo>
85.7014

> <Gold.Chemscore.Internal_Hbond>
0.0000

> <Gold.Chemscore.DEClash>
0.2025

> <Gold.Chemscore.DEInternal>
3.2610

> <Gold.Chemscore.Rot>
1.9385

> <Gold.Chemscore.Internal.Correction>
   9.000000E+99

> <Gold.Chemscore.Hbonds>
donor molecule, donor type, donor heavy atom, donor atom, acceptor molecule, acceptor atom, score
      P1  H  7997  8009       L1     8  0.92
      P1  H 10752 10764       L1    13  0.06

> <Gold.Chemscore.Hbond.Weighted>
-7.1888

> <Gold.Chemscore.Metal.Weighted>
-0.0000

> <Gold.Chemscore.Lipo.Weighted>
-10.0271

> <Gold.Chemscore.Internal_Hbond.Weighted>
0.0000

> <Gold.Chemscore.DEClash.Weighted>
0.2025

> <Gold.Chemscore.DEInternal.Weighted>
3.2610

> <Gold.Chemscore.Rot.Weighted>
4.9625

> <Gold.Chemscore.Internal.Correction.Weighted>
   9.000000E+99

> <Gold.Protein.RotatedTorsions>
[ 6907 6896 6895 6894 ] final   38.63 input  -60.11 | X-H torsion
[ 7974 7965 7964 7962 ] final -108.91 input  175.53 | X-H torsion
[ 8008 7997 7996 7995 ] final  172.79 input   59.86 | X-H torsion
[ 10167 10162 10161 10158 ] final  -51.37 input  -65.29 | X-H torsion
[ 10718 10713 10712 10709 ] final -172.36 input   66.30 | X-H torsion
[ 10763 10752 10751 10750 ] final  -14.48 input  -60.55 | X-H torsion
[ 11005 11000 10999 10996 ] final -144.84 input  -57.11 | X-H torsion

> <Gold.Protein.ActiveResidues>
 VAL166  LYS551  ARG553  GLY616  TRP617  ASP618  TYR619  PRO620  LYS621  CYS622 
 ASP623  PHE694  ASN695  SER759  ASP760  ASP761  ALA762  ILE779  LEU786  VAL792 
 PHE793  MET794  SER795  GLU796  ALA797  LYS798  CYS799  TRP800  GLU811  SER814 

> <Gold.Protein.RotatedAtoms>
  152.1590  134.8927  160.0542 H   0  0  0  0  0  0  0  0  0  0  0  0  # atno 6907 bound_to 6896
  151.9930  133.3793  159.4160 H   0  0  0  0  0  0  0  0  0  0  0  0  # atno 6908 bound_to 6896
  150.6885  134.3838  159.5090 H   0  0  0  0  0  0  0  0  0  0  0  0  # atno 6909 bound_to 6896
  145.1871  140.8998  143.3446 H   0  0  0  0  0  0  0  0  0  0  0  0  # atno 7974 bound_to 7965
  156.1140  140.1477  156.9299 H   0  0  0  0  0  0  0  0  0  0  0  0  # atno 8008 bound_to 7997
  154.4787  140.0886  156.7367 H   0  0  0  0  0  0  0  0  0  0  0  0  # atno 8009 bound_to 7997
  155.4547  140.3436  155.4307 H   0  0  0  0  0  0  0  0  0  0  0  0  # atno 8010 bound_to 7997
  140.6592  143.2622  151.4493 H   0  0  0  0  0  0  0  0  0  0  0  0  # atno 10167 bound_to 10162
  156.7545  130.9390  151.3116 H   0  0  0  0  0  0  0  0  0  0  0  0  # atno 10718 bound_to 10713
  153.5289  135.7015  153.5693 H   0  0  0  0  0  0  0  0  0  0  0  0  # atno 10763 bound_to 10752
  153.3710  135.3945  155.1788 H   0  0  0  0  0  0  0  0  0  0  0  0  # atno 10764 bound_to 10752
  154.8687  135.3812  154.4784 H   0  0  0  0  0  0  0  0  0  0  0  0  # atno 10765 bound_to 10752
  140.7984  134.2886  157.4988 H   0  0  0  0  0  0  0  0  0  0  0  0  # atno 11005 bound_to 11000
  145.0078  139.3538  143.6135 LP  0  0  0  0  0  0  0  0  0  0  0  0  # atno 17320 bound_to 7965
  146.3443  139.9328  142.8751 LP  0  0  0  0  0  0  0  0  0  0  0  0  # atno 17321 bound_to 7965
  139.5821  144.1686  152.1982 LP  0  0  0  0  0  0  0  0  0  0  0  0  # atno 17342 bound_to 10162
  140.1014  144.5536  150.6986 LP  0  0  0  0  0  0  0  0  0  0  0  0  # atno 17343 bound_to 10162
  157.6762  130.9097  150.0157 LP  0  0  0  0  0  0  0  0  0  0  0  0  # atno 17370 bound_to 10713
  156.1380  130.3642  149.9627 LP  0  0  0  0  0  0  0  0  0  0  0  0  # atno 17371 bound_to 10713
  139.8724  134.9415  156.3799 LP  0  0  0  0  0  0  0  0  0  0  0  0  # atno 17394 bound_to 11000
  140.9320  133.7573  156.0036 LP  0  0  0  0  0  0  0  0  0  0  0  0  # atno 17395 bound_to 11000

$$$$
