AV-unprocessed.smi:3041|AV-procd|sdf|11598|dock5
  -GOLD-   2272016573D 1   1.00000     0.00000
 Structure written by MMmdl.
 38 39  0  0  0  0  0  0  0  0  1 V2000
  143.5830  132.8025  148.4147 C   0  0  0  0  0  0  0  0  0  0  0  0
  144.1831  132.7543  149.7305 N   0  0  0  0  0  0  0  0  0  0  0  0
  145.5192  132.7191  150.0656 C   0  0  0  0  0  0  0  0  0  0  0  0
  145.5991  132.6831  151.4294 C   0  0  0  0  0  0  0  0  0  0  0  0
  146.8260  132.6528  152.3017 C   0  0  0  0  0  0  0  0  0  0  0  0
  146.7281  133.6017  153.5105 C   0  0  0  0  0  0  0  0  0  0  0  0
  147.8891  134.4821  153.6185 N   0  0  0  0  0  0  0  0  0  0  0  0
  148.6822  134.5958  154.6938 C   0  0  0  0  0  0  0  0  0  0  0  0
  148.5332  133.9516  155.7323 O   0  0  0  0  0  0  0  0  0  0  0  0
  149.6505  135.5015  154.4999 N   0  0  0  0  0  0  0  0  0  0  0  0
  150.6824  135.8580  155.4680 C   0  0  0  0  0  0  0  0  0  0  0  0
  150.8110  137.3848  155.5963 C   0  0  1  0  0  0  0  0  0  0  0  0
  152.1082  137.8659  156.2174 C   0  0  0  0  0  0  0  0  0  0  0  0
  152.1499  139.3237  155.7689 C   0  0  0  0  0  0  0  0  0  0  0  0
  151.4801  139.3654  154.5119 O   0  0  0  0  0  0  0  0  0  0  0  0
  150.8378  138.1199  154.2570 C   0  0  0  0  0  0  0  0  0  0  0  0
  144.2355  132.6948  151.8403 C   0  0  0  0  0  0  0  0  0  0  0  0
  143.3916  132.7359  150.8224 N   0  0  0  0  0  0  0  0  0  0  0  0
  144.3445  133.0172  147.6645 H   0  0  0  0  0  0  0  0  0  0  0  0
  142.8234  133.5843  148.3801 H   0  0  0  0  0  0  0  0  0  0  0  0
  143.1199  131.8420  148.1868 H   0  0  0  0  0  0  0  0  0  0  0  0
  146.2955  132.7296  149.3149 H   0  0  0  0  0  0  0  0  0  0  0  0
  147.0033  131.6406  152.6665 H   0  0  0  0  0  0  0  0  0  0  0  0
  147.7123  132.9106  151.7208 H   0  0  0  0  0  0  0  0  0  0  0  0
  145.8046  134.1812  153.4592 H   0  0  0  0  0  0  0  0  0  0  0  0
  146.6656  133.0157  154.4276 H   0  0  0  0  0  0  0  0  0  0  0  0
  148.0975  135.0557  152.8144 H   0  0  0  0  0  0  0  0  0  0  0  0
  149.6810  135.9780  153.6105 H   0  0  0  0  0  0  0  0  0  0  0  0
  150.4186  135.4163  156.4296 H   0  0  0  0  0  0  0  0  0  0  0  0
  151.6506  135.4388  155.1892 H   0  0  0  0  0  0  0  0  0  0  0  0
  149.9764  137.7708  156.1844 H   0  0  0  0  0  0  0  0  0  0  0  0
  152.1343  137.7564  157.3020 H   0  0  0  0  0  0  0  0  0  0  0  0
  152.9562  137.3225  155.7978 H   0  0  0  0  0  0  0  0  0  0  0  0
  151.6051  139.9543  156.4726 H   0  0  0  0  0  0  0  0  0  0  0  0
  153.1681  139.7050  155.6909 H   0  0  0  0  0  0  0  0  0  0  0  0
  151.4325  137.5709  153.5256 H   0  0  0  0  0  0  0  0  0  0  0  0
  149.8406  138.2642  153.8407 H   0  0  0  0  0  0  0  0  0  0  0  0
  143.8371  132.6798  152.8440 H   0  0  0  0  0  0  0  0  0  0  0  0
  1  2  1  0  0  0  0
  1 19  1  0  0  0  0
  1 20  1  0  0  0  0
  1 21  1  0  0  0  0
  2 18  1  0  0  0  0
  2  3  1  0  0  0  0
  3  4  2  0  0  0  0
  3 22  1  0  0  0  0
  4  5  1  0  0  0  0
  4 17  1  0  0  0  0
  5  6  1  0  0  0  0
  5 23  1  0  0  0  0
  5 24  1  0  0  0  0
  6  7  1  0  0  0  0
  6 25  1  0  0  0  0
  6 26  1  0  0  0  0
  7  8  1  0  0  0  0
  7 27  1  0  0  0  0
  8  9  2  0  0  0  0
  8 10  1  0  0  0  0
 10 11  1  0  0  0  0
 10 28  1  0  0  0  0
 11 12  1  0  0  0  0
 11 29  1  0  0  0  0
 11 30  1  0  0  0  0
 12 16  1  0  0  0  0
 12 13  1  0  0  0  0
 12 31  1  0  0  0  0
 13 14  1  0  0  0  0
 13 32  1  0  0  0  0
 13 33  1  0  0  0  0
 14 15  1  0  0  0  0
 14 34  1  0  0  0  0
 14 35  1  0  0  0  0
 15 16  1  0  0  0  0
 16 36  1  0  0  0  0
 16 37  1  0  0  0  0
 17 18  2  0  0  0  0
 17 38  1  0  0  0  0
M  END
> <s_m_source_file>
AV-unprocessed.smi

> <i_m_source_file_index>
3041

> <i_lp_mmshare_version>
43012

> <i_f3d_flags>
0

> <s_epik_input>
W0NIM11uMVtjSF1jKFtjSF1uMSlbQ0gyXVtDSDJdW05IXUMoPU8pW05IXVtDSDJdW0NAQEhdMltDSDJdW0NIMl1PW0NIMl0y

> <s_epik_cmdline>
J2VwaWtfcHl0aG9uJywgJy1waCcsICc3LjAnLCAnLXRuJywgJzgnLCAnLW1hJywgJzIwMCcsICctbWV0YWxfYmluZGluZycsICctaW1hZScsICc8aW5maWxlLm1hZT4nLCAnLW9tYWUnLCAnPG91dGZpbGUubWFlPic=

> <r_lp_tautomer_probability>
1

> <r_epik_Ionization_Penalty>
0.000557811

> <r_epik_Ionization_Penalty_Charging>
0

> <r_epik_Ionization_Penalty_Neutral>
0.000557811

> <r_epik_State_Penalty>
-0

> <r_epik_Charging_Adjusted_Penalty>
0

> <i_epik_Tot_Q>
0

> <i_epik_Tot_abs_Q>
0

> <r_epik_Metal_State_Penalty>
-0

> <b_epik_Metal_Only>
0

> <s_lp_Force_Field>
OPLS_2005

> <r_lp_Energy>
14.3495

> <b_lp_Chiralities_Consistent>
1

> <s_lp_Variant>
AV-unprocessed.smi:3041-2

> <Gold.Version>
5.8.1

> <Gold.Id.Protein>
6NUR|6NUR_protein|mol2

> <Gold.PLP.Fitness>
42.5821

> <Gold.PLP.PLP>
-32.8307

> <Gold.PLP.part.hbond>
-3.0000

> <Gold.PLP.part.metal>
0.0000

> <Gold.PLP.part.buried>
-4.2433

> <Gold.PLP.part.nonpolar>
-25.5794

> <Gold.PLP.part.repulsive>
0.3929

> <Gold.PLP.ligand.clash>
0.0000

> <Gold.PLP.ligand.torsion>
0.7845

> <Gold.PLP.Chemscore.Hbond>
2.9920

> <Gold.PLP.Chemscore.CHOScore>
0.7776

> <Gold.PLP.Chemscore.Metal>
0.0000

> <Gold.Chemscore.Hbonds>
donor molecule, donor type, donor heavy atom, donor atom, acceptor molecule, acceptor atom, score
      L1  H     7    27       P1  7948  1.00
      L1  H    10    28       P1  7948  0.94
      P1  H  7989  7998       L1    15  1.00
      L1  C    17    38       P1 10957  0.85

> <Gold.PLP.Chemscore.Internal.Correction>
0.0116

> <Gold.Rescore>
     Score         DG    S(hbond)    S(metal)    S(lipo)     H(rot)  DE(clash)    DE(int)     intcor
     17.54     -18.14       2.61        0.00      74.37       1.85       0.00       0.60       ----

> <Gold.Chemscore.Fitness>
17.5419

> <Gold.Chemscore.DG>
-18.1411

> <Gold.Chemscore.ZeroCoef>
-5.4800

> <Gold.Chemscore.Hbond>
2.6058

> <Gold.Chemscore.Metal>
0.0000

> <Gold.Chemscore.Lipo>
74.3677

> <Gold.Chemscore.Internal_Hbond>
0.0000

> <Gold.Chemscore.DEClash>
0.0009

> <Gold.Chemscore.DEInternal>
0.5983

> <Gold.Chemscore.Rot>
1.8528

> <Gold.Chemscore.Internal.Correction>
   9.000000E+99

> <Gold.Chemscore.Hbonds>
donor molecule, donor type, donor heavy atom, donor atom, acceptor molecule, acceptor atom, score
      L1  H     7    27       P1  7948  0.94
      L1  H    10    28       P1  7948  0.20
      P1  H  7989  7998       L1    15  0.96

> <Gold.Chemscore.Hbond.Weighted>
-8.7033

> <Gold.Chemscore.Metal.Weighted>
-0.0000

> <Gold.Chemscore.Lipo.Weighted>
-8.7010

> <Gold.Chemscore.Internal_Hbond.Weighted>
0.0000

> <Gold.Chemscore.DEClash.Weighted>
0.0009

> <Gold.Chemscore.DEInternal.Weighted>
0.5983

> <Gold.Chemscore.Rot.Weighted>
4.7433

> <Gold.Chemscore.Internal.Correction.Weighted>
   9.000000E+99

> <Gold.Protein.RotatedTorsions>
[ 6907 6896 6895 6894 ] final  172.10 input  -60.11 | X-H torsion
[ 7974 7965 7964 7962 ] final   44.77 input  175.53 | X-H torsion
[ 8008 7997 7996 7995 ] final   96.94 input   59.86 | X-H torsion
[ 10167 10162 10161 10158 ] final   17.70 input  -65.29 | X-H torsion
[ 10718 10713 10712 10709 ] final   63.04 input   66.30 | X-H torsion
[ 10763 10752 10751 10750 ] final    1.58 input  -60.55 | X-H torsion
[ 11005 11000 10999 10996 ] final   73.36 input  -57.11 | X-H torsion

> <Gold.Protein.ActiveResidues>
 VAL166  LYS551  ARG553  GLY616  TRP617  ASP618  TYR619  PRO620  LYS621  CYS622 
 ASP623  PHE694  ASN695  SER759  ASP760  ASP761  ALA762  ILE779  LEU786  VAL792 
 PHE793  MET794  SER795  GLU796  ALA797  LYS798  CYS799  TRP800  GLU811  SER814 

> <Gold.Protein.RotatedAtoms>
  151.7896  133.3358  159.3494 H   0  0  0  0  0  0  0  0  0  0  0  0  # atno 6907 bound_to 6896
  150.7397  134.5855  159.5970 H   0  0  0  0  0  0  0  0  0  0  0  0  # atno 6908 bound_to 6896
  152.3219  134.7370  160.0363 H   0  0  0  0  0  0  0  0  0  0  0  0  # atno 6909 bound_to 6896
  146.0539  139.5038  142.9700 H   0  0  0  0  0  0  0  0  0  0  0  0  # atno 7974 bound_to 7965
  156.0849  140.3265  155.7741 H   0  0  0  0  0  0  0  0  0  0  0  0  # atno 8008 bound_to 7997
  155.5092  140.0575  157.2943 H   0  0  0  0  0  0  0  0  0  0  0  0  # atno 8009 bound_to 7997
  154.4603  140.1963  156.0279 H   0  0  0  0  0  0  0  0  0  0  0  0  # atno 8010 bound_to 7997
  140.5707  143.9166  150.6711 H   0  0  0  0  0  0  0  0  0  0  0  0  # atno 10167 bound_to 10162
  157.5943  130.9083  149.9665 H   0  0  0  0  0  0  0  0  0  0  0  0  # atno 10718 bound_to 10713
  153.3063  135.6959  153.7157 H   0  0  0  0  0  0  0  0  0  0  0  0  # atno 10763 bound_to 10752
  153.6052  135.3455  155.2960 H   0  0  0  0  0  0  0  0  0  0  0  0  # atno 10764 bound_to 10752
  154.8564  135.4350  154.2188 H   0  0  0  0  0  0  0  0  0  0  0  0  # atno 10765 bound_to 10752
  139.9444  134.7340  156.1018 H   0  0  0  0  0  0  0  0  0  0  0  0  # atno 11005 bound_to 11000
  145.6676  141.0225  143.1675 LP  0  0  0  0  0  0  0  0  0  0  0  0  # atno 17320 bound_to 7965
  144.7137  139.8273  143.7406 LP  0  0  0  0  0  0  0  0  0  0  0  0  # atno 17321 bound_to 7965
  140.2641  143.3503  152.1297 LP  0  0  0  0  0  0  0  0  0  0  0  0  # atno 17342 bound_to 10162
  139.5116  144.6903  151.5777 LP  0  0  0  0  0  0  0  0  0  0  0  0  # atno 17343 bound_to 10162
  156.1003  130.3656  150.0230 LP  0  0  0  0  0  0  0  0  0  0  0  0  # atno 17370 bound_to 10713
  156.8347  130.9404  151.3635 LP  0  0  0  0  0  0  0  0  0  0  0  0  # atno 17371 bound_to 10713
  141.1089  133.6650  156.2931 LP  0  0  0  0  0  0  0  0  0  0  0  0  # atno 17394 bound_to 11000
  140.5872  134.5687  157.5492 LP  0  0  0  0  0  0  0  0  0  0  0  0  # atno 17395 bound_to 11000

$$$$
