#       Name:                AV-unprocessed.smi:2119
#       Creating user name   scv26
#       Creation time:       Fri Mar 27 11:37:29 2020


#       File generated by GOLD software.
#

@<TRIPOS>MOLECULE
AV-unprocessed.smi:2119
    55    57     1
SMALL
NO_CHARGES


@<TRIPOS>ATOM
      1 ****        -1.3915   0.8276   1.8727 O.2            1 S1                 0.0000
      2 ****        -1.6711   1.2649   0.7568 C.2            1 S1                 0.0000
      3 ****        -1.5551   0.5453  -0.3680 N.am           1 S1                 0.0000
      4 ****        -1.0864  -0.8366  -0.4374 C.3            1 S1                 0.0000
      5 ****         0.4578  -0.9850  -0.2582 C.3            1 S1                 0.0000
      6 ****         1.1800  -0.0361  -1.2750 C.3            1 S1                 0.0000
      7 ****         0.8223  -0.2471  -2.7412 C.3            1 S1                 0.0000
      8 ****         1.9830   0.4080  -3.4985 C.3            1 S1                 0.0000
      9 ****         2.9439   0.7665  -2.5105 O.3            1 S1                 0.0000
     10 ****         2.7062  -0.0220  -1.3568 C.3            1 S1                 0.0000
     11 ****         0.9623  -2.3821  -0.2895 N.3            1 S1                 0.0000
     12 ****         2.1369  -2.5579   0.5749 C.3            1 S1                 0.0000
     13 ****         2.7319  -3.9715   0.4691 C.3            1 S1                 0.0000
     14 ****         1.7406  -4.9255   0.8296 O.3            1 S1                 0.0000
     15 ****         0.5748  -4.8291   0.0206 C.3            1 S1                 0.0000
     16 ****        -0.0088  -3.4069   0.1084 C.3            1 S1                 0.0000
     17 ****        -2.1058   2.5088   0.4924 N.am           1 S1                 0.0000
     18 ****        -2.3664   3.5720   1.3990 C.ar           1 S1                 0.0000
     19 ****        -2.5932   3.4043   2.7869 C.ar           1 S1                 0.0000
     20 ****        -2.8585   4.5413   3.5745 C.ar           1 S1                 0.0000
     21 ****        -2.8950   5.8014   2.9467 C.ar           1 S1                 0.0000
     22 ****        -2.6932   5.9747   1.6236 N.ar           1 S1                 0.0000
     23 ****        -2.4393   4.8802   0.8751 C.ar           1 S1                 0.0000
     24 ****        -1.8023   0.9851  -1.2424 H              1 S1                 0.0000
     25 ****        -1.6269  -1.3943   0.3285 H              1 S1                 0.0000
     26 ****        -1.4024  -1.2491  -1.3959 H              1 S1                 0.0000
     27 ****         0.6686  -0.5917   0.7374 H              1 S1                 0.0000
     28 ****         0.9042   0.9887  -1.0221 H              1 S1                 0.0000
     29 ****         0.7796  -1.3115  -2.9767 H              1 S1                 0.0000
     30 ****        -0.1395   0.1939  -3.0041 H              1 S1                 0.0000
     31 ****         2.4225  -0.2883  -4.2137 H              1 S1                 0.0000
     32 ****         1.6653   1.2982  -4.0418 H              1 S1                 0.0000
     33 ****         3.1813   0.4027  -0.4722 H              1 S1                 0.0000
     34 ****         3.1198  -1.0119  -1.5516 H              1 S1                 0.0000
     35 ****         2.9172  -1.8353   0.3621 H              1 S1                 0.0000
     36 ****         1.8533  -2.3756   1.6129 H              1 S1                 0.0000
     37 ****         3.0916  -4.1669  -0.5423 H              1 S1                 0.0000
     38 ****         3.5849  -4.0754   1.1398 H              1 S1                 0.0000
     39 ****         0.8208  -5.0804  -1.0124 H              1 S1                 0.0000
     40 ****        -0.1571  -5.5609   0.3623 H              1 S1                 0.0000
     41 ****        -0.3565  -3.2185   1.1254 H              1 S1                 0.0000
     42 ****        -0.8829  -3.3759  -0.5414 H              1 S1                 0.0000
     43 ****        -2.2180   2.7396  -0.4840 H              1 S1                 0.0000
     44 ****        -2.5831   2.4352   3.2600 H              1 S1                 0.0000
     45 ****        -3.0347   4.4486   4.6360 H              1 S1                 0.0000
     46 ****        -3.0973   6.6930   3.5216 H              1 S1                 0.0000
     47 ****        -2.2849   5.0569  -0.1795 H              1 S1                 0.0000
     48 ****        -1.0584  -0.1099   1.9733 LP             1 S1                 0.0000
     49 ****        -1.4974   1.4098   2.6788 LP             1 S1                 0.0000
     50 ****         2.8508   1.7359  -2.2834 LP             1 S1                 0.0000
     51 ****         3.8661   0.5922  -2.8559 LP             1 S1                 0.0000
     52 ****         1.1838  -2.5159  -1.2555 LP             1 S1                 0.0000
     53 ****         1.4824  -4.7752   1.7839 LP             1 S1                 0.0000
     54 ****         2.1262  -5.8427   0.7291 LP             1 S1                 0.0000
     55 ****        -2.7305   6.8847   1.2108 LP             1 S1                 0.0000
@<TRIPOS>BOND
    1    1    2 2     
    2    2    3 am    
    3    2   17 am    
    4    3    4 1     
    5    3   24 1     
    6    4    5 1     
    7    4   25 1     
    8    4   26 1     
    9    5    6 1     
   10    5   11 1     
   11    5   27 1     
   12    6   10 1     
   13    6    7 1     
   14    6   28 1     
   15    7    8 1     
   16    7   29 1     
   17    7   30 1     
   18    8    9 1     
   19    8   31 1     
   20    8   32 1     
   21    9   10 1     
   22   10   33 1     
   23   10   34 1     
   24   11   16 1     
   25   11   12 1     
   26   12   13 1     
   27   12   35 1     
   28   12   36 1     
   29   13   14 1     
   30   13   37 1     
   31   13   38 1     
   32   14   15 1     
   33   15   16 1     
   34   15   39 1     
   35   15   40 1     
   36   16   41 1     
   37   16   42 1     
   38   17   18 1     
   39   17   43 1     
   40   18   23 ar    
   41   18   19 ar    
   42   19   20 ar    
   43   19   44 1     
   44   20   21 ar    
   45   20   45 1     
   46   21   22 ar    
   47   21   46 1     
   48   22   23 ar    
   49   23   47 1     
   50    1   48 1     
   51    1   49 1     
   52    9   50 1     
   53    9   51 1     
   54   11   52 1     
   55   14   53 1     
   56   14   54 1     
   57   22   55 1     
@<TRIPOS>SUBSTRUCTURE
      1 S1             1
@<TRIPOS>SET
LONE_PAIRS      STATIC     ATOMS    <user>   **** ""
8 48 49 50 51 52 53 54 55
DONOR_HYDROGENS      STATIC     ATOMS    <user>   **** ""
2 24 43
ATOM$BLUE        STATIC     ATOMS    COLORGROUP SYSTEM
8 48 49 50 51 52 53 54 55
ATOM$RED        STATIC     ATOMS    COLORGROUP SYSTEM
2 24 43
