#       Name:                AV-unprocessed.smi:3206
#       Creating user name   scv26
#       Creation time:       Fri Mar 27 18:09:16 2020


#       File generated by GOLD software.
#

@<TRIPOS>MOLECULE
AV-unprocessed.smi:3206
    44    45     1
SMALL
NO_CHARGES


@<TRIPOS>ATOM
      1 ****        -5.1042   2.2098   0.9642 C.3            1 S1                 0.0000
      2 ****        -3.5695   2.1991   0.9159 C.3            1 S1                 0.0000
      3 ****        -3.0477   2.3983  -0.5192 C.3            1 S1                 0.0000
      4 ****        -1.5111   2.3801  -0.5699 C.3            1 S1                 0.0000
      5 ****        -0.9351   1.0788   0.0222 C.3            1 S1                 0.0000
      6 ****         0.6035   1.0811  -0.0386 C.3            1 S1                 0.0000
      7 ****         1.1625  -0.2432   0.2973 N.4            1 S1                 1.0000
      8 ****         2.6380  -0.3021   0.2653 C.3            1 S1                 0.0000
      9 ****         3.1578  -1.7093   0.5975 C.3            1 S1                 0.0000
     10 ****         2.7386  -2.7458  -0.4006 C.2            1 S1                 0.0000
     11 ****         1.5807  -3.3970  -0.3596 N.2            1 S1                 0.0000
     12 ****         1.6985  -4.1765  -1.4739 C.2            1 S1                 0.0000
     13 ****         2.8221  -4.0251  -2.1702 N.2            1 S1                 0.0000
     14 ****         3.4876  -3.0871  -1.4580 N.pl3          1 S1                 0.0000
     15 ****         4.7910  -2.6206  -1.8907 C.3            1 S1                 0.0000
     16 ****        -1.4586   0.8845   1.4615 C.3            1 S1                 0.0000
     17 ****        -2.9950   0.9024   1.5160 C.3            1 S1                 0.0000
     18 ****        -5.5255   1.3940   0.3758 H              1 S1                 0.0000
     19 ****        -5.5036   3.1450   0.5706 H              1 S1                 0.0000
     20 ****        -5.4655   2.1033   1.9872 H              1 S1                 0.0000
     21 ****        -3.2167   3.0357   1.5212 H              1 S1                 0.0000
     22 ****        -3.4417   1.6143  -1.1675 H              1 S1                 0.0000
     23 ****        -3.4145   3.3434  -0.9214 H              1 S1                 0.0000
     24 ****        -1.1827   2.4979  -1.6033 H              1 S1                 0.0000
     25 ****        -1.1199   3.2394  -0.0233 H              1 S1                 0.0000
     26 ****        -1.2962   0.2503  -0.5898 H              1 S1                 0.0000
     27 ****         0.9337   1.3456  -1.0442 H              1 S1                 0.0000
     28 ****         1.0086   1.8344   0.6386 H              1 S1                 0.0000
     29 ****         0.8509  -0.4974   1.2239 H              1 S1                 0.0000
     30 ****         2.9949   0.0041  -0.7192 H              1 S1                 0.0000
     31 ****         3.0345   0.4133   0.9865 H              1 S1                 0.0000
     32 ****         4.2461  -1.6936   0.6620 H              1 S1                 0.0000
     33 ****         2.8041  -2.0126   1.5838 H              1 S1                 0.0000
     34 ****         0.9311  -4.8705  -1.7836 H              1 S1                 0.0000
     35 ****         4.7863  -1.5332  -1.9682 H              1 S1                 0.0000
     36 ****         5.0457  -3.0411  -2.8646 H              1 S1                 0.0000
     37 ****         5.5474  -2.9244  -1.1669 H              1 S1                 0.0000
     38 ****        -1.0990  -0.0594   1.8721 H              1 S1                 0.0000
     39 ****        -1.0648   1.6707   2.1072 H              1 S1                 0.0000
     40 ****        -3.3245   0.7928   2.5498 H              1 S1                 0.0000
     41 ****        -3.3872   0.0397   0.9753 H              1 S1                 0.0000
     42 ****         0.8004  -0.9206  -0.3592 H              1 S1                 0.0000
     43 ****         0.8333  -3.3336   0.3017 LP             1 S1                 0.0000
     44 ****         3.1041  -4.4888  -3.0101 LP             1 S1                 0.0000
@<TRIPOS>BOND
    1    1    2 1     
    2    1   18 1     
    3    1   19 1     
    4    1   20 1     
    5    2   17 1     
    6    2    3 1     
    7    2   21 1     
    8    3    4 1     
    9    3   22 1     
   10    3   23 1     
   11    4    5 1     
   12    4   24 1     
   13    4   25 1     
   14    5    6 1     
   15    5   16 1     
   16    5   26 1     
   17    6    7 1     
   18    6   27 1     
   19    6   28 1     
   20    7    8 1     
   21    7   29 1     
   22    7   42 1     
   23    8    9 1     
   24    8   30 1     
   25    8   31 1     
   26    9   10 1     
   27    9   32 1     
   28    9   33 1     
   29   10   14 1     
   30   10   11 2     
   31   11   12 1     
   32   12   13 2     
   33   12   34 1     
   34   13   14 1     
   35   14   15 1     
   36   15   35 1     
   37   15   36 1     
   38   15   37 1     
   39   16   17 1     
   40   16   38 1     
   41   16   39 1     
   42   17   40 1     
   43   17   41 1     
   44   11   43 1     
   45   13   44 1     
@<TRIPOS>SUBSTRUCTURE
      1 S1             1
@<TRIPOS>SET
LONE_PAIRS      STATIC     ATOMS    <user>   **** ""
2 43 44
DONOR_HYDROGENS      STATIC     ATOMS    <user>   **** ""
2 29 42
ATOM$BLUE        STATIC     ATOMS    COLORGROUP SYSTEM
2 43 44
ATOM$RED        STATIC     ATOMS    COLORGROUP SYSTEM
2 29 42
