AV-unprocessed.smi:1573|AV-procd|sdf|6334|dock10
  -GOLD-   22720 6543D 1   1.00000     0.00000
 Structure written by MMmdl.
 41 41  0  0  0  0  0  0  0  0  1 V2000
  147.9361  145.3530  161.2856 C   0  0  0  0  0  0  0  0  0  0  0  0
  146.6248  145.0881  160.5334 C   0  0  0  0  0  0  0  0  0  0  0  0
  146.8535  144.3240  159.3132 N   0  0  0  0  0  0  0  0  0  0  0  0
  146.5415  143.0300  159.1433 C   0  0  0  0  0  0  0  0  0  0  0  0
  146.0369  142.3355  160.0275 O   0  0  0  0  0  0  0  0  0  0  0  0
  146.8621  142.4304  157.7648 C   0  0  1  0  0  0  0  0  0  0  0  0
  145.9599  143.1137  156.7239 C   0  0  0  0  0  0  0  0  0  0  0  0
  148.2509  142.7000  157.4006 N   0  0  0  0  0  0  0  0  0  0  0  0
  149.3216  142.0387  157.8692 C   0  0  0  0  0  0  0  0  0  0  0  0
  149.2481  141.1085  158.6720 O   0  0  0  0  0  0  0  0  0  0  0  0
  150.6839  142.4984  157.3510 C   0  0  0  0  0  0  0  0  0  0  0  0
  151.7795  141.7393  158.0562 C   0  0  0  0  0  0  0  0  0  0  0  0
  152.2663  140.4326  157.7552 C   0  0  0  0  0  0  0  0  0  0  0  0
  151.8090  139.4940  156.6751 C   0  0  0  0  0  0  0  0  0  0  0  0
  153.2346  140.0543  158.5730 N   0  0  0  0  0  0  0  0  0  0  0  0
  153.4012  141.0942  159.4145 N   0  0  0  0  0  0  0  0  0  0  0  0
  154.4053  141.0121  160.4572 C   0  0  0  0  0  0  0  0  0  0  0  0
  152.5326  142.1301  159.1311 C   0  0  0  0  0  0  0  0  0  0  0  0
  152.5139  143.3946  159.9277 C   0  0  0  0  0  0  0  0  0  0  0  0
  147.7476  145.8930  162.2137 H   0  0  0  0  0  0  0  0  0  0  0  0
  148.6235  145.9526  160.6880 H   0  0  0  0  0  0  0  0  0  0  0  0
  148.4395  144.4197  161.5404 H   0  0  0  0  0  0  0  0  0  0  0  0
  145.9456  144.5192  161.1687 H   0  0  0  0  0  0  0  0  0  0  0  0
  146.1210  146.0285  160.3039 H   0  0  0  0  0  0  0  0  0  0  0  0
  147.2663  144.8183  158.5353 H   0  0  0  0  0  0  0  0  0  0  0  0
  146.6755  141.3545  157.7633 H   0  0  0  0  0  0  0  0  0  0  0  0
  144.9045  142.9453  156.9424 H   0  0  0  0  0  0  0  0  0  0  0  0
  146.1508  142.7179  155.7257 H   0  0  0  0  0  0  0  0  0  0  0  0
  146.1249  144.1920  156.6866 H   0  0  0  0  0  0  0  0  0  0  0  0
  148.4105  143.4541  156.7486 H   0  0  0  0  0  0  0  0  0  0  0  0
  150.7218  142.3481  156.2717 H   0  0  0  0  0  0  0  0  0  0  0  0
  150.7809  143.5736  157.5053 H   0  0  0  0  0  0  0  0  0  0  0  0
  150.8755  139.0056  156.9545 H   0  0  0  0  0  0  0  0  0  0  0  0
  152.5461  138.7143  156.4797 H   0  0  0  0  0  0  0  0  0  0  0  0
  151.6386  140.0259  155.7391 H   0  0  0  0  0  0  0  0  0  0  0  0
  155.0671  141.8764  160.3984 H   0  0  0  0  0  0  0  0  0  0  0  0
  155.0015  140.1050  160.3480 H   0  0  0  0  0  0  0  0  0  0  0  0
  153.9190  141.0002  161.4329 H   0  0  0  0  0  0  0  0  0  0  0  0
  151.6764  144.0305  159.6408 H   0  0  0  0  0  0  0  0  0  0  0  0
  153.4329  143.9609  159.7758 H   0  0  0  0  0  0  0  0  0  0  0  0
  152.4181  143.1821  160.9928 H   0  0  0  0  0  0  0  0  0  0  0  0
  1  2  1  0  0  0  0
  1 20  1  0  0  0  0
  1 21  1  0  0  0  0
  1 22  1  0  0  0  0
  2  3  1  0  0  0  0
  2 23  1  0  0  0  0
  2 24  1  0  0  0  0
  3  4  1  0  0  0  0
  3 25  1  0  0  0  0
  4  5  2  0  0  0  0
  4  6  1  0  0  0  0
  6  7  1  0  0  0  0
  6  8  1  0  0  0  0
  6 26  1  0  0  0  0
  7 27  1  0  0  0  0
  7 28  1  0  0  0  0
  7 29  1  0  0  0  0
  8  9  1  0  0  0  0
  8 30  1  0  0  0  0
  9 10  2  0  0  0  0
  9 11  1  0  0  0  0
 11 12  1  0  0  0  0
 11 31  1  0  0  0  0
 11 32  1  0  0  0  0
 12 18  2  0  0  0  0
 12 13  1  0  0  0  0
 13 14  1  0  0  0  0
 13 15  2  0  0  0  0
 14 33  1  0  0  0  0
 14 34  1  0  0  0  0
 14 35  1  0  0  0  0
 15 16  1  0  0  0  0
 16 17  1  0  0  0  0
 16 18  1  0  0  0  0
 17 36  1  0  0  0  0
 17 37  1  0  0  0  0
 17 38  1  0  0  0  0
 18 19  1  0  0  0  0
 19 39  1  0  0  0  0
 19 40  1  0  0  0  0
 19 41  1  0  0  0  0
M  END
> <s_m_source_file>
AV-unprocessed.smi

> <i_m_source_file_index>
1573

> <i_lp_mmshare_version>
43012

> <i_f3d_flags>
0

> <s_epik_input>
W0NIM11bQ0gyXVtOSF1DKD1PKVtDQEhdKFtDSDNdKVtOSF1DKD1PKVtDSDJdYzFjKFtDSDNdKW5uKFtDSDNdKWMxW0NIM10=

> <s_epik_cmdline>
J2VwaWtfcHl0aG9uJywgJy1waCcsICc3LjAnLCAnLXRuJywgJzgnLCAnLW1hJywgJzIwMCcsICctbWV0YWxfYmluZGluZycsICctaW1hZScsICc8aW5maWxlLm1hZT4nLCAnLW9tYWUnLCAnPG91dGZpbGUubWFlPic=

> <r_lp_tautomer_probability>
1

> <r_epik_Ionization_Penalty>
0.00278414

> <r_epik_Ionization_Penalty_Charging>
0

> <r_epik_Ionization_Penalty_Neutral>
0.00278414

> <r_epik_State_Penalty>
0.00194489

> <r_epik_Charging_Adjusted_Penalty>
0.00194489

> <i_epik_Tot_Q>
0

> <i_epik_Tot_abs_Q>
0

> <r_epik_Metal_State_Penalty>
-0

> <b_epik_Metal_Only>
0

> <s_lp_Force_Field>
OPLS_2005

> <r_lp_Energy>
-3.15373

> <b_lp_Chiralities_Consistent>
1

> <s_lp_Variant>
AV-unprocessed.smi:1573-2

> <Gold.Version>
5.8.1

> <Gold.Id.Protein>
6NUR|6NUR_protein|mol2

> <Gold.PLP.Fitness>
44.8633

> <Gold.PLP.PLP>
-34.5839

> <Gold.PLP.part.hbond>
-5.7549

> <Gold.PLP.part.metal>
0.0000

> <Gold.PLP.part.buried>
-2.5442

> <Gold.PLP.part.nonpolar>
-26.1332

> <Gold.PLP.part.repulsive>
0.1179

> <Gold.PLP.ligand.clash>
0.0000

> <Gold.PLP.ligand.torsion>
0.7405

> <Gold.PLP.Chemscore.Hbond>
3.9120

> <Gold.PLP.Chemscore.CHOScore>
0.0000

> <Gold.PLP.Chemscore.Metal>
0.0000

> <Gold.Chemscore.Hbonds>
donor molecule, donor type, donor heavy atom, donor atom, acceptor molecule, acceptor atom, score
      L1  H     3    25       P1  8029  1.00
      L1  H     8    30       P1  8028  1.00
      P1  H  6934  6946       L1     5  1.00
      P1  H  7997  8009       L1    15  0.75

> <Gold.PLP.Chemscore.Internal.Correction>
0.0245

> <Gold.Rescore>
     Score         DG    S(hbond)    S(metal)    S(lipo)     H(rot)  DE(clash)    DE(int)     intcor
     17.41     -18.18       2.63        0.00      75.19       1.91       0.11       0.65       ----

> <Gold.Chemscore.Fitness>
17.4123

> <Gold.Chemscore.DG>
-18.1780

> <Gold.Chemscore.ZeroCoef>
-5.4800

> <Gold.Chemscore.Hbond>
2.6320

> <Gold.Chemscore.Metal>
0.0000

> <Gold.Chemscore.Lipo>
75.1854

> <Gold.Chemscore.Internal_Hbond>
0.0000

> <Gold.Chemscore.DEClash>
0.1115

> <Gold.Chemscore.DEInternal>
0.6542

> <Gold.Chemscore.Rot>
1.9100

> <Gold.Chemscore.Internal.Correction>
   9.000000E+99

> <Gold.Chemscore.Hbonds>
donor molecule, donor type, donor heavy atom, donor atom, acceptor molecule, acceptor atom, score
      L1  H     3    25       P1  8029  1.00
      L1  H     8    30       P1  8028  0.26
      P1  H  6934  6946       L1     5  0.99
      P1  H  7997  8009       L1    15  0.11

> <Gold.Chemscore.Hbond.Weighted>
-8.7909

> <Gold.Chemscore.Metal.Weighted>
-0.0000

> <Gold.Chemscore.Lipo.Weighted>
-8.7967

> <Gold.Chemscore.Internal_Hbond.Weighted>
0.0000

> <Gold.Chemscore.DEClash.Weighted>
0.1115

> <Gold.Chemscore.DEInternal.Weighted>
0.6542

> <Gold.Chemscore.Rot.Weighted>
4.8896

> <Gold.Chemscore.Internal.Correction.Weighted>
   9.000000E+99

> <Gold.Protein.RotatedTorsions>
[ 6907 6896 6895 6894 ] final -152.07 input  -60.11 | X-H torsion
[ 7974 7965 7964 7962 ] final   33.88 input  175.53 | X-H torsion
[ 8008 7997 7996 7995 ] final  136.19 input   59.86 | X-H torsion
[ 10167 10162 10161 10158 ] final -119.67 input  -65.29 | X-H torsion
[ 10718 10713 10712 10709 ] final  -91.26 input   66.30 | X-H torsion
[ 10763 10752 10751 10750 ] final  119.07 input  -60.55 | X-H torsion
[ 11005 11000 10999 10996 ] final   67.43 input  -57.11 | X-H torsion

> <Gold.Protein.ActiveResidues>
 VAL166  LYS551  ARG553  GLY616  TRP617  ASP618  TYR619  PRO620  LYS621  CYS622 
 ASP623  PHE694  ASN695  SER759  ASP760  ASP761  ALA762  ILE779  LEU786  VAL792 
 PHE793  MET794  SER795  GLU796  ALA797  LYS798  CYS799  TRP800  GLU811  SER814 

> <Gold.Protein.RotatedAtoms>
  151.2223  133.4495  159.2600 H   0  0  0  0  0  0  0  0  0  0  0  0  # atno 6907 bound_to 6896
  151.0873  134.9895  159.8395 H   0  0  0  0  0  0  0  0  0  0  0  0  # atno 6908 bound_to 6896
  152.5431  134.2159  159.8821 H   0  0  0  0  0  0  0  0  0  0  0  0  # atno 6909 bound_to 6896
  146.1391  139.6340  142.9175 H   0  0  0  0  0  0  0  0  0  0  0  0  # atno 7974 bound_to 7965
  156.3004  140.2451  156.3704 H   0  0  0  0  0  0  0  0  0  0  0  0  # atno 8008 bound_to 7997
  154.8794  140.0413  157.1792 H   0  0  0  0  0  0  0  0  0  0  0  0  # atno 8009 bound_to 7997
  154.8712  140.2935  155.5484 H   0  0  0  0  0  0  0  0  0  0  0  0  # atno 8010 bound_to 7997
  140.0441  143.5124  152.2115 H   0  0  0  0  0  0  0  0  0  0  0  0  # atno 10167 bound_to 10162
  155.9992  130.4941  150.5447 H   0  0  0  0  0  0  0  0  0  0  0  0  # atno 10718 bound_to 10713
  153.5774  135.3490  155.2861 H   0  0  0  0  0  0  0  0  0  0  0  0  # atno 10763 bound_to 10752
  154.8673  135.4174  154.2658 H   0  0  0  0  0  0  0  0  0  0  0  0  # atno 10764 bound_to 10752
  153.3437  135.7051  153.6916 H   0  0  0  0  0  0  0  0  0  0  0  0  # atno 10765 bound_to 10752
  139.9771  134.6804  156.0333 H   0  0  0  0  0  0  0  0  0  0  0  0  # atno 11005 bound_to 11000
  145.5089  141.0436  143.2499 LP  0  0  0  0  0  0  0  0  0  0  0  0  # atno 17320 bound_to 7965
  144.7772  139.6605  143.7170 LP  0  0  0  0  0  0  0  0  0  0  0  0  # atno 17321 bound_to 7965
  139.5994  144.7578  151.3207 LP  0  0  0  0  0  0  0  0  0  0  0  0  # atno 17342 bound_to 10162
  140.7246  143.7039  150.7823 LP  0  0  0  0  0  0  0  0  0  0  0  0  # atno 17343 bound_to 10162
  157.3378  131.0711  151.1811 LP  0  0  0  0  0  0  0  0  0  0  0  0  # atno 17370 bound_to 10713
  157.2670  130.6686  149.6001 LP  0  0  0  0  0  0  0  0  0  0  0  0  # atno 17371 bound_to 10713
  141.1447  133.6558  156.3833 LP  0  0  0  0  0  0  0  0  0  0  0  0  # atno 17394 bound_to 11000
  140.5172  134.6339  157.5305 LP  0  0  0  0  0  0  0  0  0  0  0  0  # atno 17395 bound_to 11000

$$$$
