#       Name:                AV-unprocessed.smi:527
#       Creating user name   scv26
#       Creation time:       Thu Mar 26 23:30:21 2020


#       File generated by GOLD software.
#

@<TRIPOS>MOLECULE
AV-unprocessed.smi:527
    47    48     1
SMALL
NO_CHARGES


@<TRIPOS>ATOM
      1 ****        -4.0428  -2.0248  -2.8300 C.3            1 S1                 0.0000
      2 ****        -3.6270  -1.2609  -1.5590 C.3            1 S1                 0.0000
      3 ****        -4.1536  -2.0066  -0.3163 C.3            1 S1                 0.0000
      4 ****        -3.7981  -1.2743   0.9819 C.3            1 S1                 0.0000
      5 ****        -2.2833  -1.0807   1.0938 C.3            1 S1                 0.0000
      6 ****        -1.7230  -0.3222  -0.1252 C.3            1 S1                 0.0000
      7 ****        -0.2718  -0.1979   0.0070 N.am           1 S1                 0.0000
      8 ****         0.3676   0.7577   0.6976 C.2            1 S1                 0.0000
      9 ****        -0.2152   1.6420   1.3289 O.2            1 S1                 0.0000
     10 ****         1.7033   0.6122   0.5986 N.am           1 S1                 0.0000
     11 ****         2.6588   1.3856   1.1537 C.2            1 S1                 0.0000
     12 ****         2.4435   2.3699   1.8659 O.2            1 S1                 0.0000
     13 ****         4.0968   0.9573   0.8310 C.3            1 S1                 0.0000
     14 ****         5.0972   1.7413   1.5355 N.pl3          1 S1                 0.0000
     15 ****         5.7033   2.9139   1.1016 C.2            1 S1                 0.0000
     16 ****         6.5744   3.2972   2.0964 C.2            1 S1                 0.0000
     17 ****         6.5227   2.3808   3.1440 N.2            1 S1                 0.0000
     18 ****         5.6255   1.4902   2.7416 C.2            1 S1                 0.0000
     19 ****        -2.0927  -1.0220  -1.4618 C.3            1 S1                 0.0000
     20 ****        -1.5546  -0.2248  -2.6707 C.3            1 S1                 0.0000
     21 ****        -3.5200  -2.9783  -2.9101 H              1 S1                 0.0000
     22 ****        -3.8409  -1.4527  -3.7348 H              1 S1                 0.0000
     23 ****        -5.1126  -2.2352  -2.8264 H              1 S1                 0.0000
     24 ****        -4.1180  -0.2870  -1.5888 H              1 S1                 0.0000
     25 ****        -5.2366  -2.1187  -0.3790 H              1 S1                 0.0000
     26 ****        -3.7416  -3.0164  -0.2887 H              1 S1                 0.0000
     27 ****        -4.2981  -0.3053   1.0091 H              1 S1                 0.0000
     28 ****        -4.1649  -1.8377   1.8402 H              1 S1                 0.0000
     29 ****        -2.0559  -0.5394   2.0130 H              1 S1                 0.0000
     30 ****        -1.7978  -2.0539   1.1805 H              1 S1                 0.0000
     31 ****        -2.1629   0.6773  -0.1407 H              1 S1                 0.0000
     32 ****         0.2848  -0.8860  -0.4784 H              1 S1                 0.0000
     33 ****         2.0278  -0.1631   0.0400 H              1 S1                 0.0000
     34 ****         4.2320  -0.0941   1.0891 H              1 S1                 0.0000
     35 ****         4.2711   1.0519  -0.2415 H              1 S1                 0.0000
     36 ****         5.4683   3.3680   0.1501 H              1 S1                 0.0000
     37 ****         7.2279   4.1559   2.1392 H              1 S1                 0.0000
     38 ****         5.3454   0.6350   3.3391 H              1 S1                 0.0000
     39 ****        -1.6050  -1.9983  -1.4708 H              1 S1                 0.0000
     40 ****        -2.0397   0.7486  -2.7483 H              1 S1                 0.0000
     41 ****        -1.7134  -0.7535  -3.6095 H              1 S1                 0.0000
     42 ****        -0.4811  -0.0518  -2.5997 H              1 S1                 0.0000
     43 ****        -1.2147   1.6705   1.3428 LP             1 S1                 0.0000
     44 ****         0.3116   2.3307   1.8271 LP             1 S1                 0.0000
     45 ****         1.5035   2.6447   2.0683 LP             1 S1                 0.0000
     46 ****         3.2090   2.8929   2.2408 LP             1 S1                 0.0000
     47 ****         7.0407   2.3916   3.9994 LP             1 S1                 0.0000
@<TRIPOS>BOND
    1    1    2 1     
    2    1   21 1     
    3    1   22 1     
    4    1   23 1     
    5    2   19 1     
    6    2    3 1     
    7    2   24 1     
    8    3    4 1     
    9    3   25 1     
   10    3   26 1     
   11    4    5 1     
   12    4   27 1     
   13    4   28 1     
   14    5    6 1     
   15    5   29 1     
   16    5   30 1     
   17    6    7 1     
   18    6   19 1     
   19    6   31 1     
   20    7    8 1     
   21    7   32 1     
   22    8    9 2     
   23    8   10 1     
   24   10   11 1     
   25   10   33 1     
   26   11   12 2     
   27   11   13 1     
   28   13   14 1     
   29   13   34 1     
   30   13   35 1     
   31   14   18 1     
   32   14   15 1     
   33   15   16 2     
   34   15   36 1     
   35   16   17 1     
   36   16   37 1     
   37   17   18 2     
   38   18   38 1     
   39   19   20 1     
   40   19   39 1     
   41   20   40 1     
   42   20   41 1     
   43   20   42 1     
   44    9   43 1     
   45    9   44 1     
   46   12   45 1     
   47   12   46 1     
   48   17   47 1     
@<TRIPOS>SUBSTRUCTURE
      1 S1             1
@<TRIPOS>SET
LONE_PAIRS      STATIC     ATOMS    <user>   **** ""
5 43 44 45 46 47
DONOR_HYDROGENS      STATIC     ATOMS    <user>   **** ""
2 32 33
ATOM$BLUE        STATIC     ATOMS    COLORGROUP SYSTEM
5 43 44 45 46 47
ATOM$RED        STATIC     ATOMS    COLORGROUP SYSTEM
2 32 33
