AV-unprocessed.smi:1|AV-procd|sdf|5|dock8
  -GOLD-   2262015 93D 1   1.00000     0.00000
 Structure written by MMmdl.
 57 62  0  0  0  0  0  0  0  0  1 V2000
  148.0744  131.0183  153.9319 O   0  0  0  0  0  0  0  0  0  0  0  0
  148.8340  130.0510  153.8677 C   0  0  0  0  0  0  0  0  0  0  0  0
  150.1019  130.0155  154.5752 N   0  0  0  0  0  0  0  0  0  0  0  0
  150.6067  130.9317  155.4345 C   0  0  0  0  0  0  0  0  0  0  0  0
  151.3682  130.5862  156.5057 N   0  0  0  0  0  0  0  0  0  0  0  0
  151.8430  131.5281  157.3255 C   0  0  0  0  0  0  0  0  0  0  0  0
  151.6780  132.8506  157.2591 N   0  0  0  0  0  0  0  0  0  0  0  0
  150.9177  133.2082  156.1846 C   0  0  0  0  0  0  0  0  0  0  0  0
  150.3505  132.3134  155.2342 C   0  0  0  0  0  0  0  0  0  0  0  0
  149.6408  133.0291  154.2795 N   0  0  0  0  0  0  0  0  0  0  0  0
  149.7844  134.2738  154.6468 C   0  0  0  0  0  0  0  0  0  0  0  0
  150.5333  134.4731  155.7859 N   0  0  0  0  0  0  0  0  0  0  0  0
  150.8686  135.7790  156.4311 C   0  0  2  0  0  0  0  0  0  0  0  0
  150.4807  135.7454  157.7730 O   0  0  0  0  0  0  0  0  0  0  0  0
  149.4936  136.7397  158.0370 C   0  0  1  0  0  0  0  0  0  0  0  0
  149.6110  137.2682  159.4711 C   0  0  0  0  0  0  0  0  0  0  0  0
  148.8293  136.4526  160.3278 O   0  0  0  0  0  0  0  0  0  0  0  0
  147.4972  136.6346  160.4035 C   0  0  0  0  0  0  0  0  0  0  0  0
  146.9149  137.6160  159.9370 O   0  0  0  0  0  0  0  0  0  0  0  0
  146.7995  135.5206  161.1081 C   0  0  0  0  0  0  0  0  0  0  0  0
  145.4121  135.6235  161.3641 C   0  0  0  0  0  0  0  0  0  0  0  0
  144.7259  134.5864  162.0256 C   0  0  0  0  0  0  0  0  0  0  0  0
  145.4188  133.4340  162.4399 C   0  0  0  0  0  0  0  0  0  0  0  0
  146.7992  133.3201  162.1928 C   0  0  0  0  0  0  0  0  0  0  0  0
  147.4872  134.3560  161.5307 C   0  0  0  0  0  0  0  0  0  0  0  0
  149.7196  137.7921  156.9536 C   0  0  1  0  0  0  0  0  0  0  0  0
  150.7912  138.6594  157.2868 O   0  0  0  0  0  0  0  0  0  0  0  0
  151.7245  138.8895  155.9205 S   0  0  0  0  0  0  0  0  0  0  0  0
  151.3899  140.2017  155.3471 O   0  0  0  0  0  0  0  0  0  0  0  0
  153.1046  138.4885  156.2335 O   0  0  0  0  0  0  0  0  0  0  0  0
  151.0393  137.7082  154.9565 O   0  0  0  0  0  0  0  0  0  0  0  0
  150.1443  136.9486  155.7493 C   0  0  1  0  0  0  0  0  0  0  0  0
  148.5390  128.8737  152.9844 C   0  0  0  0  0  0  0  0  0  0  0  0
  147.5657  128.9809  151.9655 C   0  0  0  0  0  0  0  0  0  0  0  0
  147.2698  127.8766  151.1428 C   0  0  0  0  0  0  0  0  0  0  0  0
  147.9396  126.6538  151.3362 C   0  0  0  0  0  0  0  0  0  0  0  0
  148.9022  126.5343  152.3561 C   0  0  0  0  0  0  0  0  0  0  0  0
  149.1986  127.6378  153.1801 C   0  0  0  0  0  0  0  0  0  0  0  0
  150.6710  129.1961  154.4199 H   0  0  0  0  0  0  0  0  0  0  0  0
  152.4396  131.1711  158.1518 H   0  0  0  0  0  0  0  0  0  0  0  0
  149.3415  135.0881  154.0919 H   0  0  0  0  0  0  0  0  0  0  0  0
  151.9557  135.8485  156.3735 H   0  0  0  0  0  0  0  0  0  0  0  0
  148.5053  136.3050  157.8894 H   0  0  0  0  0  0  0  0  0  0  0  0
  150.6524  137.2823  159.7955 H   0  0  0  0  0  0  0  0  0  0  0  0
  149.2356  138.2915  159.5177 H   0  0  0  0  0  0  0  0  0  0  0  0
  144.8585  136.4987  161.0548 H   0  0  0  0  0  0  0  0  0  0  0  0
  143.6664  134.6759  162.2149 H   0  0  0  0  0  0  0  0  0  0  0  0
  144.8924  132.6389  162.9469 H   0  0  0  0  0  0  0  0  0  0  0  0
  147.3327  132.4364  162.5109 H   0  0  0  0  0  0  0  0  0  0  0  0
  148.5466  134.2361  161.3569 H   0  0  0  0  0  0  0  0  0  0  0  0
  148.8270  138.3861  156.7543 H   0  0  0  0  0  0  0  0  0  0  0  0
  149.2813  136.6024  155.1797 H   0  0  0  0  0  0  0  0  0  0  0  0
  147.0418  129.9122  151.8049 H   0  0  0  0  0  0  0  0  0  0  0  0
  146.5276  127.9681  150.3636 H   0  0  0  0  0  0  0  0  0  0  0  0
  147.7119  125.8071  150.7054 H   0  0  0  0  0  0  0  0  0  0  0  0
  149.4120  125.5943  152.5088 H   0  0  0  0  0  0  0  0  0  0  0  0
  149.9337  127.5211  153.9632 H   0  0  0  0  0  0  0  0  0  0  0  0
  1  2  2  0  0  0  0
  2  3  1  0  0  0  0
  2 33  1  0  0  0  0
  3  4  1  0  0  0  0
  3 39  1  0  0  0  0
  4  9  1  0  0  0  0
  4  5  2  0  0  0  0
  5  6  1  0  0  0  0
  6  7  2  0  0  0  0
  6 40  1  0  0  0  0
  7  8  1  0  0  0  0
  8 12  1  0  0  0  0
  8  9  2  0  0  0  0
  9 10  1  0  0  0  0
 10 11  2  0  0  0  0
 11 12  1  0  0  0  0
 11 41  1  0  0  0  0
 12 13  1  0  0  0  0
 13 32  1  0  0  0  0
 13 14  1  0  0  0  0
 13 42  1  0  0  0  0
 14 15  1  0  0  0  0
 15 16  1  0  0  0  0
 15 26  1  0  0  0  0
 15 43  1  0  0  0  0
 16 17  1  0  0  0  0
 16 44  1  0  0  0  0
 16 45  1  0  0  0  0
 17 18  1  0  0  0  0
 18 19  2  0  0  0  0
 18 20  1  0  0  0  0
 20 25  1  0  0  0  0
 20 21  2  0  0  0  0
 21 22  1  0  0  0  0
 21 46  1  0  0  0  0
 22 23  2  0  0  0  0
 22 47  1  0  0  0  0
 23 24  1  0  0  0  0
 23 48  1  0  0  0  0
 24 25  2  0  0  0  0
 24 49  1  0  0  0  0
 25 50  1  0  0  0  0
 26 32  1  0  0  0  0
 26 27  1  0  0  0  0
 26 51  1  0  0  0  0
 27 28  1  0  0  0  0
 28 29  2  0  0  0  0
 28 30  2  0  0  0  0
 28 31  1  0  0  0  0
 31 32  1  0  0  0  0
 32 52  1  0  0  0  0
 33 38  1  0  0  0  0
 33 34  2  0  0  0  0
 34 35  1  0  0  0  0
 34 53  1  0  0  0  0
 35 36  2  0  0  0  0
 35 54  1  0  0  0  0
 36 37  1  0  0  0  0
 36 55  1  0  0  0  0
 37 38  2  0  0  0  0
 37 56  1  0  0  0  0
 38 57  1  0  0  0  0
M  END
> <s_m_source_file>
AV-unprocessed.smi

> <i_m_source_file_index>
1

> <i_lp_mmshare_version>
43012

> <i_f3d_flags>
0

> <s_epik_input>
W2NIXTFbY0hdW2NIXVtjSF1bY0hdYzFDKD1PKVtOSF1jKG5bY0hdbjIpYyhjMjMpbltjSF1uM1tDQEBIXShbQ0BIXShbQ0BIXTQ1KU9TKE81KSg9Tyk9TylPW0NASF00W0NIMl1PQyg9TyljNltjSF1bY0hdW2NIXVtjSF1bY0hdNg==

> <s_epik_cmdline>
J2VwaWtfcHl0aG9uJywgJy1waCcsICc3LjAnLCAnLXRuJywgJzgnLCAnLW1hJywgJzIwMCcsICctbWV0YWxfYmluZGluZycsICctaW1hZScsICc8aW5maWxlLm1hZT4nLCAnLW9tYWUnLCAnPG91dGZpbGUubWFlPic=

> <r_lp_tautomer_probability>
1

> <r_epik_Ionization_Penalty>
0.00195722

> <r_epik_Ionization_Penalty_Charging>
0

> <r_epik_Ionization_Penalty_Neutral>
0.00195722

> <r_epik_State_Penalty>
0.00633741

> <r_epik_Charging_Adjusted_Penalty>
0.00633741

> <i_epik_Tot_Q>
0

> <i_epik_Tot_abs_Q>
0

> <r_epik_Metal_State_Penalty>
0.341185

> <b_epik_Metal_Only>
0

> <s_epik_Chemistry_Notes>
This compound has an ester and may undergo hydrolysis at high or low pH. This compound contains an acetal/aminal-like group ( X-CH(R)-Y where X, Y are N, S, or O) that may be acid/base labile, releasing an aldehyde.

> <s_lp_Force_Field>
OPLS_2005

> <r_lp_Energy>
45.5474

> <b_lp_Chiralities_Consistent>
1

> <s_lp_Variant>
AV-unprocessed.smi:1-5

> <Gold.Version>
5.8.1

> <Gold.Id.Protein>
6NUR|6NUR_protein|mol2

> <Gold.PLP.Fitness>
70.3015

> <Gold.PLP.PLP>
-55.9617

> <Gold.PLP.part.hbond>
-5.3518

> <Gold.PLP.part.metal>
0.0000

> <Gold.PLP.part.buried>
-7.2117

> <Gold.PLP.part.nonpolar>
-45.8763

> <Gold.PLP.part.repulsive>
0.3377

> <Gold.PLP.ligand.clash>
0.0000

> <Gold.PLP.ligand.torsion>
1.0171

> <Gold.PLP.Chemscore.Hbond>
4.3999

> <Gold.PLP.Chemscore.CHOScore>
1.0000

> <Gold.PLP.Chemscore.Metal>
0.0000

> <Gold.Chemscore.Hbonds>
donor molecule, donor type, donor heavy atom, donor atom, acceptor molecule, acceptor atom, score
      P1  H  6896  6908       L1     7  0.89
      P1  H  6896  6909       L1    14  0.47
      P1  H  6934  6947       L1    19  1.00
      P1  H  7989  7998       L1    29  1.00
      P1  H  7997  8009       L1    30  0.99
      L1  C    11    41       P1  7948  1.00

> <Gold.PLP.Chemscore.Internal.Correction>
0.1742

> <Gold.Rescore>
     Score         DG    S(hbond)    S(metal)    S(lipo)     H(rot)  DE(clash)    DE(int)     intcor
     19.25     -22.80       3.18        0.00     104.01       2.13       0.14       3.42       ----

> <Gold.Chemscore.Fitness>
19.2495

> <Gold.Chemscore.DG>
-22.8040

> <Gold.Chemscore.ZeroCoef>
-5.4800

> <Gold.Chemscore.Hbond>
3.1786

> <Gold.Chemscore.Metal>
0.0000

> <Gold.Chemscore.Lipo>
104.0070

> <Gold.Chemscore.Internal_Hbond>
0.0000

> <Gold.Chemscore.DEClash>
0.1374

> <Gold.Chemscore.DEInternal>
3.4171

> <Gold.Chemscore.Rot>
2.1333

> <Gold.Chemscore.Internal.Correction>
   9.000000E+99

> <Gold.Chemscore.Hbonds>
donor molecule, donor type, donor heavy atom, donor atom, acceptor molecule, acceptor atom, score
      P1  H  6896  6908       L1     7  0.24
      P1  H  6896  6909       L1    14  0.24
      P1  H  6934  6947       L1    19  0.80
      P1  H  7989  7998       L1    29  0.92
      P1  H  7997  8009       L1    30  0.72

> <Gold.Chemscore.Hbond.Weighted>
-10.6166

> <Gold.Chemscore.Metal.Weighted>
-0.0000

> <Gold.Chemscore.Lipo.Weighted>
-12.1688

> <Gold.Chemscore.Internal_Hbond.Weighted>
0.0000

> <Gold.Chemscore.DEClash.Weighted>
0.1374

> <Gold.Chemscore.DEInternal.Weighted>
3.4171

> <Gold.Chemscore.Rot.Weighted>
5.4614

> <Gold.Chemscore.Internal.Correction.Weighted>
   9.000000E+99

> <Gold.Protein.RotatedTorsions>
[ 6907 6896 6895 6894 ] final   65.29 input  -60.11 | X-H torsion
[ 7974 7965 7964 7962 ] final  134.36 input  175.53 | X-H torsion
[ 8008 7997 7996 7995 ] final -163.68 input   59.86 | X-H torsion
[ 10167 10162 10161 10158 ] final  153.47 input  -65.29 | X-H torsion
[ 10718 10713 10712 10709 ] final  -13.43 input   66.30 | X-H torsion
[ 10763 10752 10751 10750 ] final  -88.70 input  -60.55 | X-H torsion
[ 11005 11000 10999 10996 ] final  -35.56 input  -57.11 | X-H torsion

> <Gold.Protein.ActiveResidues>
 VAL166  LYS551  ARG553  GLY616  TRP617  ASP618  TYR619  PRO620  LYS621  CYS622 
 ASP623  PHE694  ASN695  SER759  ASP760  ASP761  ALA762  ILE779  LEU786  VAL792 
 PHE793  MET794  SER795  GLU796  ALA797  LYS798  CYS799  TRP800  GLU811  SER814 

> <Gold.Protein.RotatedAtoms>
  152.4396  134.5617  159.9895 H   0  0  0  0  0  0  0  0  0  0  0  0  # atno 6907 bound_to 6896
  151.5718  133.3383  159.2999 H   0  0  0  0  0  0  0  0  0  0  0  0  # atno 6908 bound_to 6896
  150.8300  134.7583  159.6909 H   0  0  0  0  0  0  0  0  0  0  0  0  # atno 6909 bound_to 6896
  144.9772  139.4543  143.5404 H   0  0  0  0  0  0  0  0  0  0  0  0  # atno 7974 bound_to 7965
  155.8248  140.0925  157.1827 H   0  0  0  0  0  0  0  0  0  0  0  0  # atno 8008 bound_to 7997
  154.3979  140.1430  156.3604 H   0  0  0  0  0  0  0  0  0  0  0  0  # atno 8009 bound_to 7997
  155.8228  140.3445  155.5527 H   0  0  0  0  0  0  0  0  0  0  0  0  # atno 8010 bound_to 7997
  139.4827  144.5270  151.7784 H   0  0  0  0  0  0  0  0  0  0  0  0  # atno 10167 bound_to 10162
  156.6304  130.4900  149.6131 H   0  0  0  0  0  0  0  0  0  0  0  0  # atno 10718 bound_to 10713
  154.6474  135.5367  153.7860 H   0  0  0  0  0  0  0  0  0  0  0  0  # atno 10763 bound_to 10752
  153.0367  135.6474  154.1069 H   0  0  0  0  0  0  0  0  0  0  0  0  # atno 10764 bound_to 10752
  154.0989  135.2934  155.3236 H   0  0  0  0  0  0  0  0  0  0  0  0  # atno 10765 bound_to 10752
  140.9806  133.7059  156.1677 H   0  0  0  0  0  0  0  0  0  0  0  0  # atno 11005 bound_to 11000
  146.3398  139.9021  142.8793 LP  0  0  0  0  0  0  0  0  0  0  0  0  # atno 17320 bound_to 7965
  145.2474  141.0031  143.3901 LP  0  0  0  0  0  0  0  0  0  0  0  0  # atno 17321 bound_to 7965
  140.4792  144.1475  150.5930 LP  0  0  0  0  0  0  0  0  0  0  0  0  # atno 17342 bound_to 10162
  140.4297  143.2574  151.9611 LP  0  0  0  0  0  0  0  0  0  0  0  0  # atno 17343 bound_to 10162
  156.2239  130.6754  151.1396 LP  0  0  0  0  0  0  0  0  0  0  0  0  # atno 17370 bound_to 10713
  157.7201  131.0686  150.6169 LP  0  0  0  0  0  0  0  0  0  0  0  0  # atno 17371 bound_to 10713
  140.7193  134.4376  157.5576 LP  0  0  0  0  0  0  0  0  0  0  0  0  # atno 17394 bound_to 11000
  139.8948  134.8697  156.2159 LP  0  0  0  0  0  0  0  0  0  0  0  0  # atno 17395 bound_to 11000

$$$$
