AV-unprocessed.smi:2441|AV-procd|sdf|9622|dock8
  -GOLD-   2272013253D 1   1.00000     0.00000
 Structure written by MMmdl.
 40 41  0  0  0  0  0  0  0  0  1 V2000
  153.0387  140.9177  159.1995 C   0  0  0  0  0  0  0  0  0  0  0  0
  152.3055  142.1348  159.7908 C   0  0  1  0  0  0  0  0  0  0  0  0
  153.0080  142.6132  161.0780 C   0  0  0  0  0  0  0  0  0  0  0  0
  152.3038  143.8282  161.7001 C   0  0  0  0  0  0  0  0  0  0  0  0
  152.1963  144.9787  160.6907 C   0  0  0  0  0  0  0  0  0  0  0  0
  151.4791  144.5209  159.4129 C   0  0  0  0  0  0  0  0  0  0  0  0
  152.1705  143.2992  158.7765 C   0  0  2  0  0  0  0  0  0  0  0  0
  151.3997  142.8806  157.6061 N   0  0  0  0  0  0  0  0  0  0  0  0
  150.1427  142.4134  157.6147 C   0  0  0  0  0  0  0  0  0  0  0  0
  149.4706  142.2899  158.6381 O   0  0  0  0  0  0  0  0  0  0  0  0
  149.7461  142.0928  156.3691 N   0  0  0  0  0  0  0  0  0  0  0  0
  148.5056  141.6007  155.9270 C   0  0  0  0  0  0  0  0  0  0  0  0
  147.3641  141.6226  156.6600 C   0  0  0  0  0  0  0  0  0  0  0  0
  146.1284  141.1066  156.1232 C   0  0  0  0  0  0  0  0  0  0  0  0
  146.1331  140.6154  154.8765 C   0  0  0  0  0  0  0  0  0  0  0  0
  147.2983  140.5927  154.0936 N   0  0  0  0  0  0  0  0  0  0  0  0
  147.1511  140.0246  152.7507 C   0  0  0  0  0  0  0  0  0  0  0  0
  148.4986  141.0620  154.5520 C   0  0  0  0  0  0  0  0  0  0  0  0
  149.5127  141.0318  153.8509 O   0  0  0  0  0  0  0  0  0  0  0  0
  154.0417  141.1860  158.8667 H   0  0  0  0  0  0  0  0  0  0  0  0
  152.5055  140.5007  158.3451 H   0  0  0  0  0  0  0  0  0  0  0  0
  153.1360  140.1222  159.9386 H   0  0  0  0  0  0  0  0  0  0  0  0
  151.3014  141.8088  160.0671 H   0  0  0  0  0  0  0  0  0  0  0  0
  153.0420  141.8029  161.8069 H   0  0  0  0  0  0  0  0  0  0  0  0
  154.0447  142.8703  160.8565 H   0  0  0  0  0  0  0  0  0  0  0  0
  151.3069  143.5415  162.0374 H   0  0  0  0  0  0  0  0  0  0  0  0
  152.8470  144.1598  162.5852 H   0  0  0  0  0  0  0  0  0  0  0  0
  151.6613  145.8170  161.1376 H   0  0  0  0  0  0  0  0  0  0  0  0
  153.1932  145.3442  160.4411 H   0  0  0  0  0  0  0  0  0  0  0  0
  150.4426  144.2769  159.6509 H   0  0  0  0  0  0  0  0  0  0  0  0
  151.4454  145.3444  158.6983 H   0  0  0  0  0  0  0  0  0  0  0  0
  153.1749  143.6051  158.4770 H   0  0  0  0  0  0  0  0  0  0  0  0
  151.8692  142.9449  156.7149 H   0  0  0  0  0  0  0  0  0  0  0  0
  150.4418  142.1821  155.6427 H   0  0  0  0  0  0  0  0  0  0  0  0
  147.3328  142.0384  157.6540 H   0  0  0  0  0  0  0  0  0  0  0  0
  145.2228  141.1159  156.7119 H   0  0  0  0  0  0  0  0  0  0  0  0
  145.2535  140.2089  154.3978 H   0  0  0  0  0  0  0  0  0  0  0  0
  148.0430  140.1043  152.1285 H   0  0  0  0  0  0  0  0  0  0  0  0
  146.3441  140.5285  152.2173 H   0  0  0  0  0  0  0  0  0  0  0  0
  146.8955  138.9667  152.8218 H   0  0  0  0  0  0  0  0  0  0  0  0
  1  2  1  0  0  0  0
  1 20  1  0  0  0  0
  1 21  1  0  0  0  0
  1 22  1  0  0  0  0
  2  7  1  0  0  0  0
  2  3  1  0  0  0  0
  2 23  1  0  0  0  0
  3  4  1  0  0  0  0
  3 24  1  0  0  0  0
  3 25  1  0  0  0  0
  4  5  1  0  0  0  0
  4 26  1  0  0  0  0
  4 27  1  0  0  0  0
  5  6  1  0  0  0  0
  5 28  1  0  0  0  0
  5 29  1  0  0  0  0
  6  7  1  0  0  0  0
  6 30  1  0  0  0  0
  6 31  1  0  0  0  0
  7  8  1  0  0  0  0
  7 32  1  0  0  0  0
  8  9  1  0  0  0  0
  8 33  1  0  0  0  0
  9 10  2  0  0  0  0
  9 11  1  0  0  0  0
 11 12  1  0  0  0  0
 11 34  1  0  0  0  0
 12 18  1  0  0  0  0
 12 13  2  0  0  0  0
 13 14  1  0  0  0  0
 13 35  1  0  0  0  0
 14 15  2  0  0  0  0
 14 36  1  0  0  0  0
 15 16  1  0  0  0  0
 15 37  1  0  0  0  0
 16 17  1  0  0  0  0
 16 18  1  0  0  0  0
 17 38  1  0  0  0  0
 17 39  1  0  0  0  0
 17 40  1  0  0  0  0
 18 19  2  0  0  0  0
M  END
> <s_m_source_file>
AV-unprocessed.smi

> <i_m_source_file_index>
2441

> <i_lp_mmshare_version>
43012

> <i_f3d_flags>
0

> <s_epik_input>
W0NIM11bQ0BASF0xW0NIMl1bQ0gyXVtDSDJdW0NIMl1bQ0BIXTFbTkhdQyg9TylbTkhdYzJbY0hdW2NIXVtjSF1uKFtDSDNdKWMyPU8=

> <s_epik_cmdline>
J2VwaWtfcHl0aG9uJywgJy1waCcsICc3LjAnLCAnLXRuJywgJzgnLCAnLW1hJywgJzIwMCcsICctbWV0YWxfYmluZGluZycsICctaW1hZScsICc8aW5maWxlLm1hZT4nLCAnLW9tYWUnLCAnPG91dGZpbGUubWFlPic=

> <r_lp_tautomer_probability>
1

> <r_epik_Ionization_Penalty>
2.64999e-05

> <r_epik_Ionization_Penalty_Charging>
5.09663e-06

> <r_epik_Ionization_Penalty_Neutral>
2.14032e-05

> <r_epik_State_Penalty>
-0

> <r_epik_Charging_Adjusted_Penalty>
5.09663e-06

> <i_epik_Tot_Q>
0

> <i_epik_Tot_abs_Q>
0

> <r_epik_Metal_State_Penalty>
-0

> <b_epik_Metal_Only>
0

> <s_lp_Force_Field>
OPLS_2005

> <r_lp_Energy>
23.8871

> <b_lp_Chiralities_Consistent>
1

> <s_lp_Variant>
AV-unprocessed.smi:2441-4

> <Gold.Version>
5.8.1

> <Gold.Id.Protein>
6NUR|6NUR_protein|mol2

> <Gold.PLP.Fitness>
44.2288

> <Gold.PLP.PLP>
-37.8591

> <Gold.PLP.part.hbond>
-3.4011

> <Gold.PLP.part.metal>
0.0000

> <Gold.PLP.part.buried>
-2.5564

> <Gold.PLP.part.nonpolar>
-32.9084

> <Gold.PLP.part.repulsive>
1.9952

> <Gold.PLP.ligand.clash>
0.0000

> <Gold.PLP.ligand.torsion>
0.0537

> <Gold.PLP.Chemscore.Hbond>
1.1577

> <Gold.PLP.Chemscore.CHOScore>
1.0000

> <Gold.PLP.Chemscore.Metal>
0.0000

> <Gold.Chemscore.Hbonds>
donor molecule, donor type, donor heavy atom, donor atom, acceptor molecule, acceptor atom, score
      P1  H  7989  7998       L1    19  0.28
      P1  H  8011  8017       L1    19  0.83
      L1  C    15    37       P1 10175  1.00

> <Gold.PLP.Chemscore.Internal.Correction>
0.0041

> <Gold.Rescore>
     Score         DG    S(hbond)    S(metal)    S(lipo)     H(rot)  DE(clash)    DE(int)     intcor
     14.06     -18.74       1.21        0.00     100.60       1.00       2.74       1.93       ----

> <Gold.Chemscore.Fitness>
14.0643

> <Gold.Chemscore.DG>
-18.7424

> <Gold.Chemscore.ZeroCoef>
-5.4800

> <Gold.Chemscore.Hbond>
1.2134

> <Gold.Chemscore.Metal>
0.0000

> <Gold.Chemscore.Lipo>
100.5961

> <Gold.Chemscore.Internal_Hbond>
0.0000

> <Gold.Chemscore.DEClash>
2.7432

> <Gold.Chemscore.DEInternal>
1.9348

> <Gold.Chemscore.Rot>
1.0000

> <Gold.Chemscore.Internal.Correction>
   9.000000E+99

> <Gold.Chemscore.Hbonds>
donor molecule, donor type, donor heavy atom, donor atom, acceptor molecule, acceptor atom, score
      P1  H  7989  7998       L1    19  0.29
      P1  H  8011  8017       L1    19  0.77

> <Gold.Chemscore.Hbond.Weighted>
-4.0526

> <Gold.Chemscore.Metal.Weighted>
-0.0000

> <Gold.Chemscore.Lipo.Weighted>
-11.7697

> <Gold.Chemscore.Internal_Hbond.Weighted>
0.0000

> <Gold.Chemscore.DEClash.Weighted>
2.7432

> <Gold.Chemscore.DEInternal.Weighted>
1.9348

> <Gold.Chemscore.Rot.Weighted>
2.5600

> <Gold.Chemscore.Internal.Correction.Weighted>
   9.000000E+99

> <Gold.Protein.RotatedTorsions>
[ 6907 6896 6895 6894 ] final  -90.94 input  -60.11 | X-H torsion
[ 7974 7965 7964 7962 ] final   95.53 input  175.53 | X-H torsion
[ 8008 7997 7996 7995 ] final   -6.47 input   59.86 | X-H torsion
[ 10167 10162 10161 10158 ] final  123.10 input  -65.29 | X-H torsion
[ 10718 10713 10712 10709 ] final  -12.87 input   66.30 | X-H torsion
[ 10763 10752 10751 10750 ] final -108.61 input  -60.55 | X-H torsion
[ 11005 11000 10999 10996 ] final   65.34 input  -57.11 | X-H torsion

> <Gold.Protein.ActiveResidues>
 VAL166  LYS551  ARG553  GLY616  TRP617  ASP618  TYR619  PRO620  LYS621  CYS622 
 ASP623  PHE694  ASN695  SER759  ASP760  ASP761  ALA762  ILE779  LEU786  VAL792 
 PHE793  MET794  SER795  GLU796  ALA797  LYS798  CYS799  TRP800  GLU811  SER814 

> <Gold.Protein.RotatedAtoms>
  150.6887  134.2354  159.4450 H   0  0  0  0  0  0  0  0  0  0  0  0  # atno 6907 bound_to 6896
  152.0302  134.9770  160.0581 H   0  0  0  0  0  0  0  0  0  0  0  0  # atno 6908 bound_to 6896
  152.1312  133.4374  159.4759 H   0  0  0  0  0  0  0  0  0  0  0  0  # atno 6909 bound_to 6896
  145.4509  139.2293  143.3040 H   0  0  0  0  0  0  0  0  0  0  0  0  # atno 7974 bound_to 7965
  154.5934  140.2432  155.7889 H   0  0  0  0  0  0  0  0  0  0  0  0  # atno 8008 bound_to 7997
  156.2263  140.2981  156.0029 H   0  0  0  0  0  0  0  0  0  0  0  0  # atno 8009 bound_to 7997
  155.2334  140.0404  157.2956 H   0  0  0  0  0  0  0  0  0  0  0  0  # atno 8010 bound_to 7997
  139.5819  144.6990  151.3506 H   0  0  0  0  0  0  0  0  0  0  0  0  # atno 10167 bound_to 10162
  156.6384  130.4921  149.6104 H   0  0  0  0  0  0  0  0  0  0  0  0  # atno 10718 bound_to 10713
  154.8146  135.4631  154.0607 H   0  0  0  0  0  0  0  0  0  0  0  0  # atno 10763 bound_to 10752
  153.2011  135.6869  153.8237 H   0  0  0  0  0  0  0  0  0  0  0  0  # atno 10764 bound_to 10752
  153.7721  135.3268  155.3330 H   0  0  0  0  0  0  0  0  0  0  0  0  # atno 10765 bound_to 10752
  139.9900  134.6606  156.0107 H   0  0  0  0  0  0  0  0  0  0  0  0  # atno 11005 bound_to 11000
  146.2505  140.5268  142.8895 LP  0  0  0  0  0  0  0  0  0  0  0  0  # atno 17320 bound_to 7965
  144.8062  140.6304  143.6445 LP  0  0  0  0  0  0  0  0  0  0  0  0  # atno 17321 bound_to 7965
  140.7096  143.7424  150.7543 LP  0  0  0  0  0  0  0  0  0  0  0  0  # atno 17342 bound_to 10162
  140.0959  143.4834  152.2453 LP  0  0  0  0  0  0  0  0  0  0  0  0  # atno 17343 bound_to 10162
  156.2179  130.6719  151.1337 LP  0  0  0  0  0  0  0  0  0  0  0  0  # atno 17370 bound_to 10713
  157.7178  131.0699  150.6256 LP  0  0  0  0  0  0  0  0  0  0  0  0  # atno 17371 bound_to 10713
  141.1558  133.6543  156.4157 LP  0  0  0  0  0  0  0  0  0  0  0  0  # atno 17394 bound_to 11000
  140.4926  134.6561  157.5217 LP  0  0  0  0  0  0  0  0  0  0  0  0  # atno 17395 bound_to 11000

$$$$
