AV-unprocessed.smi:558|AV-procd|sdf|2922|dock10
  -GOLD-   2262023413D 1   1.00000     0.00000
 Structure written by MMmdl.
 36 37  0  0  0  0  0  0  0  0  1 V2000
  151.0207  141.4246  157.3465 C   0  0  0  0  0  0  0  0  0  0  0  0
  151.7041  141.9321  158.5818 C   0  0  0  0  0  0  0  0  0  0  0  0
  151.3897  143.0858  159.3527 C   0  0  0  0  0  0  0  0  0  0  0  0
  152.3178  143.0858  160.3553 C   0  0  0  0  0  0  0  0  0  0  0  0
  152.5128  144.0459  161.4828 C   0  0  0  0  0  0  0  0  0  0  0  0
  153.1233  141.9773  160.1572 N   0  0  0  0  0  0  0  0  0  0  0  0
  154.2734  141.5222  160.9271 C   0  0  0  0  0  0  0  0  0  0  0  0
  154.6225  140.0638  160.6153 C   0  0  0  0  0  0  0  0  0  0  0  0
  154.9259  139.7354  159.4689 O   0  0  0  0  0  0  0  0  0  0  0  0
  154.5766  139.2027  161.6428 N   0  0  0  0  0  0  0  0  0  0  0  0
  154.9629  137.7996  161.5880 C   0  0  0  0  0  0  0  0  0  0  0  0
  154.3619  137.0342  162.7783 C   0  0  2  0  0  0  0  0  0  0  0  0
  154.6352  137.6573  164.1342 C   0  0  0  0  0  0  0  0  0  0  0  0
  154.3708  136.4874  165.0770 C   0  0  0  0  0  0  0  0  0  0  0  0
  154.7017  135.3103  164.3439 O   0  0  0  0  0  0  0  0  0  0  0  0
  154.9400  135.6342  162.9772 C   0  0  0  0  0  0  0  0  0  0  0  0
  152.7412  141.2725  159.0695 N   0  0  0  0  0  0  0  0  0  0  0  0
  150.0964  141.9700  157.1556 H   0  0  0  0  0  0  0  0  0  0  0  0
  150.7687  140.3678  157.4406 H   0  0  0  0  0  0  0  0  0  0  0  0
  151.6602  141.5392  156.4709 H   0  0  0  0  0  0  0  0  0  0  0  0
  150.6013  143.8063  159.1922 H   0  0  0  0  0  0  0  0  0  0  0  0
  151.7937  144.8632  161.4264 H   0  0  0  0  0  0  0  0  0  0  0  0
  153.5124  144.4793  161.4585 H   0  0  0  0  0  0  0  0  0  0  0  0
  152.3795  143.5490  162.4440 H   0  0  0  0  0  0  0  0  0  0  0  0
  155.1323  142.1581  160.7126 H   0  0  0  0  0  0  0  0  0  0  0  0
  154.0536  141.6346  161.9901 H   0  0  0  0  0  0  0  0  0  0  0  0
  154.3070  139.5630  162.5464 H   0  0  0  0  0  0  0  0  0  0  0  0
  154.6098  137.3731  160.6484 H   0  0  0  0  0  0  0  0  0  0  0  0
  156.0499  137.7004  161.5950 H   0  0  0  0  0  0  0  0  0  0  0  0
  153.2818  136.9475  162.6466 H   0  0  0  0  0  0  0  0  0  0  0  0
  155.6785  137.9682  164.2070 H   0  0  0  0  0  0  0  0  0  0  0  0
  154.0068  138.5232  164.3466 H   0  0  0  0  0  0  0  0  0  0  0  0
  154.9479  136.5584  165.9993 H   0  0  0  0  0  0  0  0  0  0  0  0
  153.3138  136.4441  165.3418 H   0  0  0  0  0  0  0  0  0  0  0  0
  154.4921  134.8979  162.3094 H   0  0  0  0  0  0  0  0  0  0  0  0
  156.0176  135.6321  162.8074 H   0  0  0  0  0  0  0  0  0  0  0  0
  1  2  1  0  0  0  0
  1 18  1  0  0  0  0
  1 19  1  0  0  0  0
  1 20  1  0  0  0  0
  2 17  2  0  0  0  0
  2  3  1  0  0  0  0
  3  4  2  0  0  0  0
  3 21  1  0  0  0  0
  4  5  1  0  0  0  0
  4  6  1  0  0  0  0
  5 22  1  0  0  0  0
  5 23  1  0  0  0  0
  5 24  1  0  0  0  0
  6  7  1  0  0  0  0
  6 17  1  0  0  0  0
  7  8  1  0  0  0  0
  7 25  1  0  0  0  0
  7 26  1  0  0  0  0
  8  9  2  0  0  0  0
  8 10  1  0  0  0  0
 10 11  1  0  0  0  0
 10 27  1  0  0  0  0
 11 12  1  0  0  0  0
 11 28  1  0  0  0  0
 11 29  1  0  0  0  0
 12 16  1  0  0  0  0
 12 13  1  0  0  0  0
 12 30  1  0  0  0  0
 13 14  1  0  0  0  0
 13 31  1  0  0  0  0
 13 32  1  0  0  0  0
 14 15  1  0  0  0  0
 14 33  1  0  0  0  0
 14 34  1  0  0  0  0
 15 16  1  0  0  0  0
 16 35  1  0  0  0  0
 16 36  1  0  0  0  0
M  END
> <s_m_source_file>
AV-unprocessed.smi

> <i_m_source_file_index>
558

> <i_lp_mmshare_version>
43012

> <i_f3d_flags>
0

> <s_epik_input>
W0NIM11jMVtjSF1jKFtDSDNdKW4objEpW0NIMl1DKD1PKVtOSF1bQ0gyXVtDQEBIXTJbQ0gyXVtDSDJdT1tDSDJdMg==

> <s_epik_cmdline>
J2VwaWtfcHl0aG9uJywgJy1waCcsICc3LjAnLCAnLXRuJywgJzgnLCAnLW1hJywgJzIwMCcsICctbWV0YWxfYmluZGluZycsICctaW1hZScsICc8aW5maWxlLm1hZT4nLCAnLW9tYWUnLCAnPG91dGZpbGUubWFlPic=

> <r_lp_tautomer_probability>
1

> <r_epik_Ionization_Penalty>
0.000376629

> <r_epik_Ionization_Penalty_Charging>
0

> <r_epik_Ionization_Penalty_Neutral>
0.000376629

> <r_epik_State_Penalty>
-0

> <r_epik_Charging_Adjusted_Penalty>
0

> <i_epik_Tot_Q>
0

> <i_epik_Tot_abs_Q>
0

> <r_epik_Metal_State_Penalty>
-0

> <b_epik_Metal_Only>
0

> <s_lp_Force_Field>
OPLS_2005

> <r_lp_Energy>
17.1643

> <b_lp_Chiralities_Consistent>
1

> <s_lp_Variant>
AV-unprocessed.smi:558-1

> <Gold.Version>
5.8.1

> <Gold.Id.Protein>
6NUR|6NUR_protein|mol2

> <Gold.PLP.Fitness>
40.7203

> <Gold.PLP.PLP>
-38.5128

> <Gold.PLP.part.hbond>
-1.0000

> <Gold.PLP.part.metal>
0.0000

> <Gold.PLP.part.buried>
-4.3043

> <Gold.PLP.part.nonpolar>
-33.0378

> <Gold.PLP.part.repulsive>
0.0326

> <Gold.PLP.ligand.clash>
0.0000

> <Gold.PLP.ligand.torsion>
0.4014

> <Gold.PLP.Chemscore.Hbond>
1.0000

> <Gold.PLP.Chemscore.CHOScore>
0.0000

> <Gold.PLP.Chemscore.Metal>
0.0000

> <Gold.Chemscore.Hbonds>
donor molecule, donor type, donor heavy atom, donor atom, acceptor molecule, acceptor atom, score
      P1  H  7997  8009       L1     9  0.60

> <Gold.PLP.Chemscore.Internal.Correction>
0.0104

> <Gold.Rescore>
     Score         DG    S(hbond)    S(metal)    S(lipo)     H(rot)  DE(clash)    DE(int)     intcor
     14.36     -16.26       0.99        0.00      97.50       1.54       0.12       1.78       ----

> <Gold.Chemscore.Fitness>
14.3560

> <Gold.Chemscore.DG>
-16.2595

> <Gold.Chemscore.ZeroCoef>
-5.4800

> <Gold.Chemscore.Hbond>
0.9914

> <Gold.Chemscore.Metal>
0.0000

> <Gold.Chemscore.Lipo>
97.4975

> <Gold.Chemscore.Internal_Hbond>
0.0000

> <Gold.Chemscore.DEClash>
0.1249

> <Gold.Chemscore.DEInternal>
1.7786

> <Gold.Chemscore.Rot>
1.5387

> <Gold.Chemscore.Internal.Correction>
   9.000000E+99

> <Gold.Chemscore.Hbonds>
donor molecule, donor type, donor heavy atom, donor atom, acceptor molecule, acceptor atom, score
      P1  H  7997  8009       L1     9  0.58

> <Gold.Chemscore.Hbond.Weighted>
-3.3114

> <Gold.Chemscore.Metal.Weighted>
-0.0000

> <Gold.Chemscore.Lipo.Weighted>
-11.4072

> <Gold.Chemscore.Internal_Hbond.Weighted>
0.0000

> <Gold.Chemscore.DEClash.Weighted>
0.1249

> <Gold.Chemscore.DEInternal.Weighted>
1.7786

> <Gold.Chemscore.Rot.Weighted>
3.9392

> <Gold.Chemscore.Internal.Correction.Weighted>
   9.000000E+99

> <Gold.Protein.RotatedTorsions>
[ 6907 6896 6895 6894 ] final   60.36 input  -60.11 | X-H torsion
[ 7974 7965 7964 7962 ] final   17.66 input  175.53 | X-H torsion
[ 8008 7997 7996 7995 ] final  128.82 input   59.86 | X-H torsion
[ 10167 10162 10161 10158 ] final  134.95 input  -65.29 | X-H torsion
[ 10718 10713 10712 10709 ] final   10.22 input   66.30 | X-H torsion
[ 10763 10752 10751 10750 ] final  -81.38 input  -60.55 | X-H torsion
[ 11005 11000 10999 10996 ] final   12.68 input  -57.11 | X-H torsion

> <Gold.Protein.ActiveResidues>
 VAL166  LYS551  ARG553  GLY616  TRP617  ASP618  TYR619  PRO620  LYS621  CYS622 
 ASP623  PHE694  ASN695  SER759  ASP760  ASP761  ALA762  ILE779  LEU786  VAL792 
 PHE793  MET794  SER795  GLU796  ALA797  LYS798  CYS799  TRP800  GLU811  SER814 

> <Gold.Protein.RotatedAtoms>
  152.3996  134.6309  160.0075 H   0  0  0  0  0  0  0  0  0  0  0  0  # atno 6907 bound_to 6896
  151.6518  133.3315  159.3161 H   0  0  0  0  0  0  0  0  0  0  0  0  # atno 6908 bound_to 6896
  150.7898  134.6955  159.6565 H   0  0  0  0  0  0  0  0  0  0  0  0  # atno 6909 bound_to 6896
  146.2211  139.8570  142.8612 H   0  0  0  0  0  0  0  0  0  0  0  0  # atno 7974 bound_to 7965
  156.2923  140.2635  156.2497 H   0  0  0  0  0  0  0  0  0  0  0  0  # atno 8008 bound_to 7997
  154.9894  140.0389  157.2331 H   0  0  0  0  0  0  0  0  0  0  0  0  # atno 8009 bound_to 7997
  154.7699  140.2776  155.6151 H   0  0  0  0  0  0  0  0  0  0  0  0  # atno 8010 bound_to 7997
  139.5236  144.6542  151.5213 H   0  0  0  0  0  0  0  0  0  0  0  0  # atno 10167 bound_to 10162
  156.9778  130.5994  149.5674 H   0  0  0  0  0  0  0  0  0  0  0  0  # atno 10718 bound_to 10713
  154.5629  135.5628  153.7023 H   0  0  0  0  0  0  0  0  0  0  0  0  # atno 10763 bound_to 10752
  153.0023  135.6278  154.2220 H   0  0  0  0  0  0  0  0  0  0  0  0  # atno 10764 bound_to 10752
  154.2158  135.2871  155.2922 H   0  0  0  0  0  0  0  0  0  0  0  0  # atno 10765 bound_to 10752
  140.4892  134.0857  155.7767 H   0  0  0  0  0  0  0  0  0  0  0  0  # atno 11005 bound_to 11000
  145.2743  141.0119  143.3753 LP  0  0  0  0  0  0  0  0  0  0  0  0  # atno 17320 bound_to 7965
  144.9199  139.4425  143.6546 LP  0  0  0  0  0  0  0  0  0  0  0  0  # atno 17321 bound_to 7965
  140.6360  143.8983  150.6648 LP  0  0  0  0  0  0  0  0  0  0  0  0  # atno 17342 bound_to 10162
  140.2303  143.3741  152.1571 LP  0  0  0  0  0  0  0  0  0  0  0  0  # atno 17343 bound_to 10162
  156.0256  130.5350  150.8398 LP  0  0  0  0  0  0  0  0  0  0  0  0  # atno 17370 bound_to 10713
  157.5547  131.0944  150.9645 LP  0  0  0  0  0  0  0  0  0  0  0  0  # atno 17371 bound_to 10713
  141.1492  133.8999  157.2139 LP  0  0  0  0  0  0  0  0  0  0  0  0  # atno 17394 bound_to 11000
  139.9779  135.0108  156.9677 LP  0  0  0  0  0  0  0  0  0  0  0  0  # atno 17395 bound_to 11000

$$$$
