AV-unprocessed.smi:1717|AV-procd|sdf|6920|dock9
  -GOLD-   22720 8123D 1   1.00000     0.00000
 Structure written by MMmdl.
 40 41  0  0  0  0  0  0  0  0  3 V2000
  147.1288  136.4507  162.1599 C   0  0  0  0  0  0  0  0  0  0  0  0
  147.7207  137.0683  160.9791 N   0  5  0  0  0  0  0  0  0  0  0  0
  148.3761  136.3678  160.0152 C   0  0  0  0  0  0  0  0  0  0  0  0
  149.2015  136.7349  159.1720 O   0  0  0  0  0  0  0  0  0  0  0  0
  147.9975  134.8831  160.0563 C   0  0  0  0  0  0  0  0  0  0  0  0
  147.2508  134.5140  158.8280 N   0  3  2  0  0  0  0  0  0  0  0  0
  146.7970  133.1004  158.8467 C   0  0  0  0  0  0  0  0  0  0  0  0
  145.9001  132.7888  157.6368 C   0  0  0  0  0  0  0  0  0  0  0  0
  146.6171  133.1070  156.3148 C   0  0  1  0  0  0  0  0  0  0  0  0
  145.7088  132.8907  155.1923 N   0  0  0  0  0  0  0  0  0  0  0  0
  146.0408  133.0038  153.8982 C   0  0  0  0  0  0  0  0  0  0  0  0
  147.1704  133.3001  153.5092 O   0  0  0  0  0  0  0  0  0  0  0  0
  144.9887  132.7579  153.1007 N   0  0  0  0  0  0  0  0  0  0  0  0
  144.9652  132.7711  151.6835 C   0  0  0  0  0  0  0  0  0  0  0  0
  143.8944  133.1002  150.8012 C   0  0  0  0  0  0  0  0  0  0  0  0
  144.2682  132.9952  149.5336 N   0  0  0  0  0  0  0  0  0  0  0  0
  145.5610  132.6048  149.5976 N   0  0  0  0  0  0  0  0  0  0  0  0
  146.0248  132.4567  150.8860 C   0  0  0  0  0  0  0  0  0  0  0  0
  147.1167  134.5629  156.3368 C   0  0  0  0  0  0  0  0  0  0  0  0
  147.9858  134.8354  157.5750 C   0  0  0  0  0  0  0  0  0  0  0  0
  146.1066  132.4461  148.7624 H   0  0  0  0  0  0  0  0  0  0  0  0
  146.7133  137.1936  162.8407 H   0  0  0  0  0  0  0  0  0  0  0  0
  147.8523  135.8742  162.7368 H   0  0  0  0  0  0  0  0  0  0  0  0
  146.3132  135.7725  161.9074 H   0  0  0  0  0  0  0  0  0  0  0  0
  148.8597  134.2267  160.1940 H   0  0  0  0  0  0  0  0  0  0  0  0
  147.3646  134.7443  160.9339 H   0  0  0  0  0  0  0  0  0  0  0  0
  147.6646  132.4388  158.8550 H   0  0  0  0  0  0  0  0  0  0  0  0
  146.2391  132.9045  159.7633 H   0  0  0  0  0  0  0  0  0  0  0  0
  145.6045  131.7390  157.6592 H   0  0  0  0  0  0  0  0  0  0  0  0
  144.9800  133.3707  157.7111 H   0  0  0  0  0  0  0  0  0  0  0  0
  147.4739  132.4367  156.2202 H   0  0  0  0  0  0  0  0  0  0  0  0
  144.7566  132.6424  155.4179 H   0  0  0  0  0  0  0  0  0  0  0  0
  144.1139  132.5351  153.5527 H   0  0  0  0  0  0  0  0  0  0  0  0
  142.8825  133.4058  151.0218 H   0  0  0  0  0  0  0  0  0  0  0  0
  147.0356  132.1506  151.1132 H   0  0  0  0  0  0  0  0  0  0  0  0
  147.6899  134.7790  155.4342 H   0  0  0  0  0  0  0  0  0  0  0  0
  146.2675  135.2478  156.3349 H   0  0  0  0  0  0  0  0  0  0  0  0
  148.2871  135.8830  157.5702 H   0  0  0  0  0  0  0  0  0  0  0  0
  148.9019  134.2446  157.5273 H   0  0  0  0  0  0  0  0  0  0  0  0
  146.4162  135.0834  158.8342 H   0  0  0  0  0  0  0  0  0  0  0  0
  1  2  1  0  0  0  0
  1 22  1  0  0  0  0
  1 23  1  0  0  0  0
  1 24  1  0  0  0  0
  2  3  1  0  0  0  0
  3  4  2  0  0  0  0
  3  5  1  0  0  0  0
  5  6  1  0  0  0  0
  5 25  1  0  0  0  0
  5 26  1  0  0  0  0
  6 20  1  0  0  0  0
  6  7  1  0  0  0  0
  6 40  1  0  0  0  0
  7  8  1  0  0  0  0
  7 27  1  0  0  0  0
  7 28  1  0  0  0  0
  8  9  1  0  0  0  0
  8 29  1  0  0  0  0
  8 30  1  0  0  0  0
  9 10  1  0  0  0  0
  9 19  1  0  0  0  0
  9 31  1  0  0  0  0
 10 11  1  0  0  0  0
 10 32  1  0  0  0  0
 11 12  2  0  0  0  0
 11 13  1  0  0  0  0
 13 14  1  0  0  0  0
 13 33  1  0  0  0  0
 14 18  2  0  0  0  0
 14 15  1  0  0  0  0
 15 16  2  0  0  0  0
 15 34  1  0  0  0  0
 16 17  1  0  0  0  0
 17 21  1  0  0  0  0
 17 18  1  0  0  0  0
 18 35  1  0  0  0  0
 19 20  1  0  0  0  0
 19 36  1  0  0  0  0
 19 37  1  0  0  0  0
 20 38  1  0  0  0  0
 20 39  1  0  0  0  0
M  CHG  1   2  -1
M  CHG  1   6   1
M  END
> <s_m_source_file>
AV-unprocessed.smi

> <i_m_source_file_index>
1717

> <i_lp_mmshare_version>
43012

> <i_f3d_flags>
0

> <s_epik_input>
W0NIM11bTkhdQyg9TylbQ0gyXU4xW0NIMl1bQ0gyXVtDSF0oW0NIMl1bQ0gyXTEpW05IXUMoPU8pW05IXWMyW2NIXW5bbkhdW2NIXTI=

> <s_epik_cmdline>
J2VwaWtfcHl0aG9uJywgJy1waCcsICc3LjAnLCAnLXRuJywgJzgnLCAnLW1hJywgJzIwMCcsICctbWV0YWxfYmluZGluZycsICctaW1hZScsICc8aW5maWxlLm1hZT4nLCAnLW9tYWUnLCAnPG91dGZpbGUubWFlPic=

> <r_lp_tautomer_probability>
0.5

> <r_epik_Ionization_Penalty>
6.1395

> <r_epik_Ionization_Penalty_Charging>
6.13946

> <r_epik_Ionization_Penalty_Neutral>
4.21226e-05

> <r_epik_State_Penalty>
6.9595

> <r_epik_Charging_Adjusted_Penalty>
13.099

> <i_epik_Tot_Q>
0

> <i_epik_Tot_abs_Q>
2

> <r_epik_Metal_State_Penalty>
2.89141

> <b_epik_Metal_Only>
1

> <s_lp_Force_Field>
OPLS_2005

> <r_lp_Energy>
12.4493

> <b_lp_Chiralities_Consistent>
1

> <s_lp_Variant>
AV-unprocessed.smi:1717-4

> <Gold.Version>
5.8.1

> <Gold.Id.Protein>
6NUR|6NUR_protein|mol2

> <Gold.PLP.Fitness>
42.2384

> <Gold.PLP.PLP>
-21.9945

> <Gold.PLP.part.hbond>
-4.3151

> <Gold.PLP.part.metal>
0.0000

> <Gold.PLP.part.buried>
-5.4338

> <Gold.PLP.part.nonpolar>
-13.2129

> <Gold.PLP.part.repulsive>
0.5163

> <Gold.PLP.ligand.clash>
0.0000

> <Gold.PLP.ligand.torsion>
0.3539

> <Gold.PLP.Chemscore.Hbond>
5.0598

> <Gold.PLP.Chemscore.CHOScore>
1.9106

> <Gold.PLP.Chemscore.Metal>
0.0000

> <Gold.Chemscore.Hbonds>
donor molecule, donor type, donor heavy atom, donor atom, acceptor molecule, acceptor atom, score
      L1  H    10    32       P1 10957  0.24
      L1  H    13    33       P1 10957  0.98
      P1  H  6931  6943       L1     2  1.70
      P1  H  6934  6947       L1     2  1.79
      L1  C    15    34       P1 10186  0.86
      L1  C    18    35       P1 10747  1.00

> <Gold.PLP.Chemscore.Internal.Correction>
0.0406

> <Gold.Rescore>
     Score         DG    S(hbond)    S(metal)    S(lipo)     H(rot)  DE(clash)    DE(int)     intcor
     12.15     -15.11       2.84        0.00      39.69       1.75       0.07       2.90       ----

> <Gold.Chemscore.Fitness>
12.1491

> <Gold.Chemscore.DG>
-15.1140

> <Gold.Chemscore.ZeroCoef>
-5.4800

> <Gold.Chemscore.Hbond>
2.8390

> <Gold.Chemscore.Metal>
0.0000

> <Gold.Chemscore.Lipo>
39.6889

> <Gold.Chemscore.Internal_Hbond>
0.0000

> <Gold.Chemscore.DEClash>
0.0679

> <Gold.Chemscore.DEInternal>
2.8970

> <Gold.Chemscore.Rot>
1.7546

> <Gold.Chemscore.Internal.Correction>
   9.000000E+99

> <Gold.Chemscore.Hbonds>
donor molecule, donor type, donor heavy atom, donor atom, acceptor molecule, acceptor atom, score
      L1  H    10    32       P1 10957  0.23
      L1  H    13    33       P1 10957  0.32
      P1  H  6931  6943       L1     2  0.11
      P1  H  6934  6947       L1     2  0.58

> <Gold.Chemscore.Hbond.Weighted>
-9.4821

> <Gold.Chemscore.Metal.Weighted>
-0.0000

> <Gold.Chemscore.Lipo.Weighted>
-4.6436

> <Gold.Chemscore.Internal_Hbond.Weighted>
0.0000

> <Gold.Chemscore.DEClash.Weighted>
0.0679

> <Gold.Chemscore.DEInternal.Weighted>
2.8970

> <Gold.Chemscore.Rot.Weighted>
4.4917

> <Gold.Chemscore.Internal.Correction.Weighted>
   9.000000E+99

> <Gold.Protein.RotatedTorsions>
[ 6907 6896 6895 6894 ] final -146.85 input  -60.11 | X-H torsion
[ 7974 7965 7964 7962 ] final   -4.28 input  175.53 | X-H torsion
[ 8008 7997 7996 7995 ] final   71.26 input   59.86 | X-H torsion
[ 10167 10162 10161 10158 ] final  127.47 input  -65.29 | X-H torsion
[ 10718 10713 10712 10709 ] final  127.07 input   66.30 | X-H torsion
[ 10763 10752 10751 10750 ] final   33.22 input  -60.55 | X-H torsion
[ 11005 11000 10999 10996 ] final  112.38 input  -57.11 | X-H torsion

> <Gold.Protein.ActiveResidues>
 VAL166  LYS551  ARG553  GLY616  TRP617  ASP618  TYR619  PRO620  LYS621  CYS622 
 ASP623  PHE694  ASN695  SER759  ASP760  ASP761  ALA762  ILE779  LEU786  VAL792 
 PHE793  MET794  SER795  GLU796  ALA797  LYS798  CYS799  TRP800  GLU811  SER814 

> <Gold.Protein.RotatedAtoms>
  151.1474  133.4930  159.2595 H   0  0  0  0  0  0  0  0  0  0  0  0  # atno 6907 bound_to 6896
  151.1590  135.0264  159.8712 H   0  0  0  0  0  0  0  0  0  0  0  0  # atno 6908 bound_to 6896
  152.5463  134.1350  159.8508 H   0  0  0  0  0  0  0  0  0  0  0  0  # atno 6909 bound_to 6896
  146.2375  140.1847  142.8332 H   0  0  0  0  0  0  0  0  0  0  0  0  # atno 7974 bound_to 7965
  155.7512  140.3488  155.5151 H   0  0  0  0  0  0  0  0  0  0  0  0  # atno 8008 bound_to 7997
  155.9002  140.1033  157.1376 H   0  0  0  0  0  0  0  0  0  0  0  0  # atno 8009 bound_to 7997
  154.4043  140.1287  156.4414 H   0  0  0  0  0  0  0  0  0  0  0  0  # atno 8010 bound_to 7997
  139.5577  144.6860  151.4135 H   0  0  0  0  0  0  0  0  0  0  0  0  # atno 10167 bound_to 10162
  157.5364  131.1097  150.8928 H   0  0  0  0  0  0  0  0  0  0  0  0  # atno 10718 bound_to 10713
  153.0223  135.6393  154.1477 H   0  0  0  0  0  0  0  0  0  0  0  0  # atno 10763 bound_to 10752
  154.1210  135.2846  155.3210 H   0  0  0  0  0  0  0  0  0  0  0  0  # atno 10764 bound_to 10752
  154.6264  135.5507  153.7693 H   0  0  0  0  0  0  0  0  0  0  0  0  # atno 10765 bound_to 10752
  139.8926  134.9528  156.6577 H   0  0  0  0  0  0  0  0  0  0  0  0  # atno 11005 bound_to 11000
  144.9906  140.8543  143.5342 LP  0  0  0  0  0  0  0  0  0  0  0  0  # atno 17320 bound_to 7965
  145.1853  139.2330  143.5271 LP  0  0  0  0  0  0  0  0  0  0  0  0  # atno 17321 bound_to 7965
  140.6852  143.7990  150.7176 LP  0  0  0  0  0  0  0  0  0  0  0  0  # atno 17342 bound_to 10162
  140.1456  143.4403  152.2165 LP  0  0  0  0  0  0  0  0  0  0  0  0  # atno 17343 bound_to 10162
  156.9494  130.5414  149.5282 LP  0  0  0  0  0  0  0  0  0  0  0  0  # atno 17370 bound_to 10713
  156.0462  130.5538  150.8886 LP  0  0  0  0  0  0  0  0  0  0  0  0  # atno 17371 bound_to 10713
  140.7471  133.8928  155.8320 LP  0  0  0  0  0  0  0  0  0  0  0  0  # atno 17394 bound_to 11000
  141.0031  134.1123  157.4298 LP  0  0  0  0  0  0  0  0  0  0  0  0  # atno 17395 bound_to 11000

$$$$
