#       Name:                AV-unprocessed.smi:82
#       Creating user name   scv26
#       Creation time:       Thu Mar 26 17:17:28 2020


#       File generated by GOLD software.
#

@<TRIPOS>MOLECULE
AV-unprocessed.smi:82
    68    71     1
SMALL
NO_CHARGES


@<TRIPOS>ATOM
      1 ****        -7.0646  -0.1317  -4.6625 C.3            1 S1                 0.0000
      2 ****        -5.9673   0.4567  -3.9858 O.3            1 S1                 0.0000
      3 ****        -4.7779   0.4352  -4.7574 C.3            1 S1                 0.0000
      4 ****        -3.6532   1.1077  -3.9563 C.3            1 S1                 0.0000
      5 ****        -3.3346   0.3756  -2.7029 N.4            1 S1                 1.0000
      6 ****        -2.5425  -0.8662  -2.9126 C.3            1 S1                 0.0000
      7 ****        -2.3868  -1.6466  -1.5951 C.3            1 S1                 0.0000
      8 ****        -1.8507  -0.7952  -0.5353 N.pl3          1 S1                 0.0000
      9 ****        -0.5077  -0.7543  -0.3234 C.ar           1 S1                 0.0000
     10 ****         0.3407  -1.1488  -1.3105 N.ar           1 S1                 0.0000
     11 ****         1.6632  -1.0968  -1.1300 C.ar           1 S1                 0.0000
     12 ****         2.3418  -0.6997  -0.0531 N.ar           1 S1                 0.0000
     13 ****         1.4999  -0.3214   0.9505 C.ar           1 S1                 0.0000
     14 ****         0.0766  -0.3114   0.8984 C.ar           1 S1                 0.0000
     15 ****        -0.4338   0.1409   2.1098 N.2            1 S1                 0.0000
     16 ****         0.6246   0.3971   2.8290 C.2            1 S1                 0.0000
     17 ****         1.8275   0.1184   2.2211 N.pl3          1 S1                 0.0000
     18 ****         3.1353   0.3328   2.7677 C.3            1 S1                 0.0000
     19 ****         4.2486  -0.7006   2.5813 C.3            1 S1                 0.0000
     20 ****         4.8270  -0.3188   3.9614 C.3            1 S1                 0.0000
     21 ****         5.3088  -1.5013   4.8181 C.3            1 S1                 0.0000
     22 ****         6.3905  -2.1712   4.2028 O.3            1 S1                 0.0000
     23 ****         5.9220   0.7667   3.9362 C.3            1 S1                 0.0000
     24 ****         6.0972   1.3514   5.2108 O.3            1 S1                 0.0000
     25 ****         3.4002   0.1907   4.2684 C.3            1 S1                 0.0000
     26 ****        -2.6029   0.4387  -0.3130 C.3            1 S1                 0.0000
     27 ****        -2.7867   1.2447  -1.6188 C.3            1 S1                 0.0000
     28 ****        -1.5006   1.9949  -2.0282 C.3            1 S1                 0.0000
     29 ****        -7.9494  -0.0968  -4.0270 H              1 S1                 0.0000
     30 ****        -6.8654  -1.1765  -4.9036 H              1 S1                 0.0000
     31 ****        -7.2921   0.4037  -5.5850 H              1 S1                 0.0000
     32 ****        -4.5170  -0.5862  -5.0352 H              1 S1                 0.0000
     33 ****        -4.9375   0.9862  -5.6854 H              1 S1                 0.0000
     34 ****        -2.7545   1.1986  -4.5681 H              1 S1                 0.0000
     35 ****        -3.9708   2.1240  -3.7187 H              1 S1                 0.0000
     36 ****        -3.0300  -1.5099  -3.6433 H              1 S1                 0.0000
     37 ****        -1.5650  -0.6161  -3.3261 H              1 S1                 0.0000
     38 ****        -3.3626  -2.0095  -1.2707 H              1 S1                 0.0000
     39 ****        -1.7712  -2.5353  -1.7406 H              1 S1                 0.0000
     40 ****         2.2636  -1.4210  -1.9673 H              1 S1                 0.0000
     41 ****         0.5542   0.7892   3.8334 H              1 S1                 0.0000
     42 ****         3.4544   1.3134   2.4104 H              1 S1                 0.0000
     43 ****         3.8651  -1.7223   2.5471 H              1 S1                 0.0000
     44 ****         4.9097  -0.5046   1.7366 H              1 S1                 0.0000
     45 ****         5.6117  -1.1797   5.8148 H              1 S1                 0.0000
     46 ****         4.5079  -2.2269   4.9627 H              1 S1                 0.0000
     47 ****         6.1037  -2.4936   3.3619 H              1 S1                 0.0000
     48 ****         6.8775   0.3624   3.6014 H              1 S1                 0.0000
     49 ****         5.6709   1.5642   3.2366 H              1 S1                 0.0000
     50 ****         6.7844   1.9976   5.1531 H              1 S1                 0.0000
     51 ****         3.3513   1.1284   4.8227 H              1 S1                 0.0000
     52 ****         2.7681  -0.5680   4.7336 H              1 S1                 0.0000
     53 ****        -3.5813   0.1588   0.0793 H              1 S1                 0.0000
     54 ****        -2.1483   1.0711   0.4478 H              1 S1                 0.0000
     55 ****        -3.5404   2.0051  -1.4102 H              1 S1                 0.0000
     56 ****        -1.1304   2.6028  -1.2024 H              1 S1                 0.0000
     57 ****        -1.6752   2.6702  -2.8655 H              1 S1                 0.0000
     58 ****        -0.6987   1.3160  -2.3149 H              1 S1                 0.0000
     59 ****        -4.2284   0.0656  -2.3482 H              1 S1                 0.0000
     60 ****        -5.8075  -0.0461  -3.1363 LP             1 S1                 0.0000
     61 ****        -6.1942   1.4071  -3.7729 LP             1 S1                 0.0000
     62 ****        -0.0286  -1.4805  -2.1786 LP             1 S1                 0.0000
     63 ****         3.3396  -0.6816   0.0103 LP             1 S1                 0.0000
     64 ****        -1.3934   0.2460   2.3707 LP             1 S1                 0.0000
     65 ****         6.6832  -2.9367   4.7758 LP             1 S1                 0.0000
     66 ****         7.1536  -1.5369   4.0787 LP             1 S1                 0.0000
     67 ****         6.3519   0.6466   5.8729 LP             1 S1                 0.0000
     68 ****         5.2462   1.7892   5.5008 LP             1 S1                 0.0000
@<TRIPOS>BOND
    1    1    2 1     
    2    1   29 1     
    3    1   30 1     
    4    1   31 1     
    5    2    3 1     
    6    3    4 1     
    7    3   32 1     
    8    3   33 1     
    9    4    5 1     
   10    4   34 1     
   11    4   35 1     
   12    5   27 1     
   13    5    6 1     
   14    5   59 1     
   15    6    7 1     
   16    6   36 1     
   17    6   37 1     
   18    7    8 1     
   19    7   38 1     
   20    7   39 1     
   21    8    9 1     
   22    8   26 1     
   23    9   14 ar    
   24    9   10 ar    
   25   10   11 ar    
   26   11   12 ar    
   27   11   40 1     
   28   12   13 ar    
   29   13   17 1     
   30   13   14 ar    
   31   14   15 1     
   32   15   16 2     
   33   16   17 1     
   34   16   41 1     
   35   17   18 1     
   36   18   25 1     
   37   18   19 1     
   38   18   42 1     
   39   19   20 1     
   40   19   43 1     
   41   19   44 1     
   42   20   21 1     
   43   20   23 1     
   44   20   25 1     
   45   21   22 1     
   46   21   45 1     
   47   21   46 1     
   48   22   47 1     
   49   23   24 1     
   50   23   48 1     
   51   23   49 1     
   52   24   50 1     
   53   25   51 1     
   54   25   52 1     
   55   26   27 1     
   56   26   53 1     
   57   26   54 1     
   58   27   28 1     
   59   27   55 1     
   60   28   56 1     
   61   28   57 1     
   62   28   58 1     
   63    2   60 1     
   64    2   61 1     
   65   10   62 1     
   66   12   63 1     
   67   15   64 1     
   68   22   65 1     
   69   22   66 1     
   70   24   67 1     
   71   24   68 1     
@<TRIPOS>SUBSTRUCTURE
      1 S1             1
@<TRIPOS>SET
LONE_PAIRS      STATIC     ATOMS    <user>   **** ""
9 60 61 62 63 64 65 66 67 68
DONOR_HYDROGENS      STATIC     ATOMS    <user>   **** ""
3 59 47 50
ATOM$BLUE        STATIC     ATOMS    COLORGROUP SYSTEM
9 60 61 62 63 64 65 66 67 68
ATOM$RED        STATIC     ATOMS    COLORGROUP SYSTEM
3 59 47 50
