AV-unprocessed.smi:147|AV-procd|sdf|1201|dock3
  -GOLD-   2262018363D 1   1.00000     0.00000
 Structure written by MMmdl.
 55 57  0  0  0  0  0  0  0  0  1 V2000
  147.8915  136.3017  163.4229 C   0  0  0  0  0  0  0  0  0  0  0  0
  146.7556  135.8599  162.4855 C   0  0  0  0  0  0  0  0  0  0  0  0
  146.7292  134.3313  162.3243 C   0  0  0  0  0  0  0  0  0  0  0  0
  146.8796  136.5442  161.1181 C   0  0  0  0  0  0  0  0  0  0  0  0
  147.9026  137.1643  160.8252 O   0  0  0  0  0  0  0  0  0  0  0  0
  145.8319  136.4212  160.2885 N   0  0  0  0  0  0  0  0  0  0  0  0
  145.7596  136.9792  158.9443 C   0  0  0  0  0  0  0  0  0  0  0  0
  144.2994  137.2061  158.5112 C   0  0  0  0  0  0  0  0  0  0  0  0
  144.1740  137.4540  157.0745 N   0  0  0  0  0  0  0  0  0  0  0  0
  143.4952  138.6729  156.6506 C   0  0  0  0  0  0  0  0  0  0  0  0
  144.3599  136.4435  156.1760 C   0  0  0  0  0  0  0  0  0  0  0  0
  144.9157  135.2789  156.6082 N   0  0  0  0  0  0  0  0  0  0  0  0
  145.1124  134.2580  155.7710 C   0  0  0  0  0  0  0  0  0  0  0  0
  144.8391  134.1855  154.4693 N   0  0  0  0  0  0  0  0  0  0  0  0
  144.2945  135.3494  154.0147 C   0  0  0  0  0  0  0  0  0  0  0  0
  144.0167  136.5143  154.7897 C   0  0  0  0  0  0  0  0  0  0  0  0
  143.4552  137.4876  153.9683 N   0  0  0  0  0  0  0  0  0  0  0  0
  143.3955  136.9303  152.7906 C   0  0  0  0  0  0  0  0  0  0  0  0
  143.9078  135.6562  152.7217 N   0  0  0  0  0  0  0  0  0  0  0  0
  143.9388  134.8044  151.5689 C   0  0  0  0  0  0  0  0  0  0  0  0
  143.5837  133.3198  151.6747 C   0  0  0  0  0  0  0  0  0  0  0  0
  144.6000  133.0026  150.5549 C   0  0  0  0  0  0  0  0  0  0  0  0
  145.4578  131.7466  150.7779 C   0  0  0  0  0  0  0  0  0  0  0  0
  146.4986  131.6614  149.8263 O   0  0  0  0  0  0  0  0  0  0  0  0
  144.0177  132.9719  149.1275 C   0  0  0  0  0  0  0  0  0  0  0  0
  143.2384  131.8126  148.9126 O   0  0  0  0  0  0  0  0  0  0  0  0
  145.2650  134.3354  150.9648 C   0  0  0  0  0  0  0  0  0  0  0  0
  147.9131  137.3862  163.5368 H   0  0  0  0  0  0  0  0  0  0  0  0
  148.8667  135.9861  163.0496 H   0  0  0  0  0  0  0  0  0  0  0  0
  147.7648  135.8719  164.4167 H   0  0  0  0  0  0  0  0  0  0  0  0
  145.8111  136.1656  162.9384 H   0  0  0  0  0  0  0  0  0  0  0  0
  145.9221  134.0160  161.6617 H   0  0  0  0  0  0  0  0  0  0  0  0
  146.5718  133.8416  163.2854 H   0  0  0  0  0  0  0  0  0  0  0  0
  147.6658  133.9543  161.9114 H   0  0  0  0  0  0  0  0  0  0  0  0
  145.0313  135.8955  160.6081 H   0  0  0  0  0  0  0  0  0  0  0  0
  146.3042  137.9236  158.9459 H   0  0  0  0  0  0  0  0  0  0  0  0
  146.2759  136.3255  158.2395 H   0  0  0  0  0  0  0  0  0  0  0  0
  143.7053  136.3244  158.7541 H   0  0  0  0  0  0  0  0  0  0  0  0
  143.8526  138.0208  159.0826 H   0  0  0  0  0  0  0  0  0  0  0  0
  144.1657  139.2996  156.0624 H   0  0  0  0  0  0  0  0  0  0  0  0
  143.1673  139.2575  157.5105 H   0  0  0  0  0  0  0  0  0  0  0  0
  142.6124  138.4420  156.0535 H   0  0  0  0  0  0  0  0  0  0  0  0
  145.5546  133.3739  156.2060 H   0  0  0  0  0  0  0  0  0  0  0  0
  142.9820  137.4418  151.9336 H   0  0  0  0  0  0  0  0  0  0  0  0
  143.3216  135.2952  150.8147 H   0  0  0  0  0  0  0  0  0  0  0  0
  143.8647  132.8944  152.6400 H   0  0  0  0  0  0  0  0  0  0  0  0
  142.5445  133.0898  151.4381 H   0  0  0  0  0  0  0  0  0  0  0  0
  145.9144  131.7611  151.7681 H   0  0  0  0  0  0  0  0  0  0  0  0
  144.8588  130.8369  150.7321 H   0  0  0  0  0  0  0  0  0  0  0  0
  147.2984  131.4368  150.2768 H   0  0  0  0  0  0  0  0  0  0  0  0
  143.3824  133.8380  148.9427 H   0  0  0  0  0  0  0  0  0  0  0  0
  144.8048  133.0097  148.3742 H   0  0  0  0  0  0  0  0  0  0  0  0
  142.3762  131.9599  149.2703 H   0  0  0  0  0  0  0  0  0  0  0  0
  145.6235  134.9435  150.1338 H   0  0  0  0  0  0  0  0  0  0  0  0
  146.0451  134.2051  151.7176 H   0  0  0  0  0  0  0  0  0  0  0  0
  1  2  1  0  0  0  0
  1 28  1  0  0  0  0
  1 29  1  0  0  0  0
  1 30  1  0  0  0  0
  2  3  1  0  0  0  0
  2  4  1  0  0  0  0
  2 31  1  0  0  0  0
  3 32  1  0  0  0  0
  3 33  1  0  0  0  0
  3 34  1  0  0  0  0
  4  5  2  0  0  0  0
  4  6  1  0  0  0  0
  6  7  1  0  0  0  0
  6 35  1  0  0  0  0
  7  8  1  0  0  0  0
  7 36  1  0  0  0  0
  7 37  1  0  0  0  0
  8  9  1  0  0  0  0
  8 38  1  0  0  0  0
  8 39  1  0  0  0  0
  9 10  1  0  0  0  0
  9 11  1  0  0  0  0
 10 40  1  0  0  0  0
 10 41  1  0  0  0  0
 10 42  1  0  0  0  0
 11 16  1  0  0  0  0
 11 12  2  0  0  0  0
 12 13  1  0  0  0  0
 13 14  2  0  0  0  0
 13 43  1  0  0  0  0
 14 15  1  0  0  0  0
 15 19  1  0  0  0  0
 15 16  2  0  0  0  0
 16 17  1  0  0  0  0
 17 18  2  0  0  0  0
 18 19  1  0  0  0  0
 18 44  1  0  0  0  0
 19 20  1  0  0  0  0
 20 27  1  0  0  0  0
 20 21  1  0  0  0  0
 20 45  1  0  0  0  0
 21 22  1  0  0  0  0
 21 46  1  0  0  0  0
 21 47  1  0  0  0  0
 22 23  1  0  0  0  0
 22 25  1  0  0  0  0
 22 27  1  0  0  0  0
 23 24  1  0  0  0  0
 23 48  1  0  0  0  0
 23 49  1  0  0  0  0
 24 50  1  0  0  0  0
 25 26  1  0  0  0  0
 25 51  1  0  0  0  0
 25 52  1  0  0  0  0
 26 53  1  0  0  0  0
 27 54  1  0  0  0  0
 27 55  1  0  0  0  0
M  END
> <s_m_source_file>
AV-unprocessed.smi

> <i_m_source_file_index>
147

> <i_lp_mmshare_version>
43012

> <i_f3d_flags>
0

> <s_epik_input>
W0NIM11bQ0hdKFtDSDNdKUMoPU8pW05IXVtDSDJdW0NIMl1OKFtDSDNdKWMobltjSF1uMSljKGMxMiluW2NIXW4yW0NIXShbQ0gyXTMpW0NIMl1DMyhbQ0gyXVtPSF0pW0NIMl1bT0hd

> <s_epik_cmdline>
J2VwaWtfcHl0aG9uJywgJy1waCcsICc3LjAnLCAnLXRuJywgJzgnLCAnLW1hJywgJzIwMCcsICctbWV0YWxfYmluZGluZycsICctaW1hZScsICc8aW5maWxlLm1hZT4nLCAnLW9tYWUnLCAnPG91dGZpbGUubWFlPic=

> <r_lp_tautomer_probability>
1

> <r_epik_Ionization_Penalty>
0.00124047

> <r_epik_Ionization_Penalty_Charging>
0

> <r_epik_Ionization_Penalty_Neutral>
0.00124047

> <r_epik_State_Penalty>
0.000682986

> <r_epik_Charging_Adjusted_Penalty>
0.000682986

> <i_epik_Tot_Q>
0

> <i_epik_Tot_abs_Q>
0

> <r_epik_Metal_State_Penalty>
-0

> <b_epik_Metal_Only>
0

> <s_lp_Force_Field>
OPLS_2005

> <r_lp_Energy>
28.5646

> <b_lp_Chiralities_Consistent>
1

> <s_lp_Variant>
AV-unprocessed.smi:147-1

> <Gold.Version>
5.8.1

> <Gold.Id.Protein>
6NUR|6NUR_protein|mol2

> <Gold.PLP.Fitness>
53.9463

> <Gold.PLP.PLP>
-40.6048

> <Gold.PLP.part.hbond>
-5.0000

> <Gold.PLP.part.metal>
0.0000

> <Gold.PLP.part.buried>
-7.8557

> <Gold.PLP.part.nonpolar>
-28.2630

> <Gold.PLP.part.repulsive>
0.3053

> <Gold.PLP.ligand.clash>
0.0000

> <Gold.PLP.ligand.torsion>
0.9389

> <Gold.PLP.Chemscore.Hbond>
3.8114

> <Gold.PLP.Chemscore.CHOScore>
1.0000

> <Gold.PLP.Chemscore.Metal>
0.0000

> <Gold.Chemscore.Hbonds>
donor molecule, donor type, donor heavy atom, donor atom, acceptor molecule, acceptor atom, score
      L1  H    24    50       P1 10747  1.00
      L1  H    26    53       P1 10952  0.22
      P1  H  6931  6943       L1     5  0.88
      P1  H  6934  6947       L1     5  0.80
      P1  H 10785 10796       L1    26  0.99
      L1  C    18    44       P1 10171  0.96

> <Gold.PLP.Chemscore.Internal.Correction>
0.7850

> <Gold.Rescore>
     Score         DG    S(hbond)    S(metal)    S(lipo)     H(rot)  DE(clash)    DE(int)     intcor
     11.83     -14.77       3.22        0.00      78.32       4.15       0.06       2.88       ----

> <Gold.Chemscore.Fitness>
11.8285

> <Gold.Chemscore.DG>
-14.7650

> <Gold.Chemscore.ZeroCoef>
-5.4800

> <Gold.Chemscore.Hbond>
3.2150

> <Gold.Chemscore.Metal>
0.0000

> <Gold.Chemscore.Lipo>
78.3205

> <Gold.Chemscore.Internal_Hbond>
0.0000

> <Gold.Chemscore.DEClash>
0.0580

> <Gold.Chemscore.DEInternal>
2.8785

> <Gold.Chemscore.Rot>
4.1472

> <Gold.Chemscore.Internal.Correction>
   9.000000E+99

> <Gold.Chemscore.Hbonds>
donor molecule, donor type, donor heavy atom, donor atom, acceptor molecule, acceptor atom, score
      L1  H    24    50       P1 10747  0.94
      L1  H    26    53       P1 10952  0.22
      P1  H  6931  6943       L1     5  0.86
      P1  H  6934  6947       L1     5  0.20
      P1  H 10785 10796       L1    26  0.24

> <Gold.Chemscore.Hbond.Weighted>
-10.7382

> <Gold.Chemscore.Metal.Weighted>
-0.0000

> <Gold.Chemscore.Lipo.Weighted>
-9.1635

> <Gold.Chemscore.Internal_Hbond.Weighted>
0.0000

> <Gold.Chemscore.DEClash.Weighted>
0.0580

> <Gold.Chemscore.DEInternal.Weighted>
2.8785

> <Gold.Chemscore.Rot.Weighted>
10.6167

> <Gold.Chemscore.Internal.Correction.Weighted>
   9.000000E+99

> <Gold.Protein.RotatedTorsions>
[ 6907 6896 6895 6894 ] final  150.05 input  -60.11 | X-H torsion
[ 7974 7965 7964 7962 ] final -119.27 input  175.53 | X-H torsion
[ 8008 7997 7996 7995 ] final   20.73 input   59.86 | X-H torsion
[ 10167 10162 10161 10158 ] final  -13.15 input  -65.29 | X-H torsion
[ 10718 10713 10712 10709 ] final -171.86 input   66.30 | X-H torsion
[ 10763 10752 10751 10750 ] final -168.49 input  -60.55 | X-H torsion
[ 11005 11000 10999 10996 ] final  108.20 input  -57.11 | X-H torsion

> <Gold.Protein.ActiveResidues>
 VAL166  LYS551  ARG553  GLY616  TRP617  ASP618  TYR619  PRO620  LYS621  CYS622 
 ASP623  PHE694  ASN695  SER759  ASP760  ASP761  ALA762  ILE779  LEU786  VAL792 
 PHE793  MET794  SER795  GLU796  ALA797  LYS798  CYS799  TRP800  GLU811  SER814 

> <Gold.Protein.RotatedAtoms>
  152.1197  133.4346  159.4669 H   0  0  0  0  0  0  0  0  0  0  0  0  # atno 6907 bound_to 6896
  150.6871  134.2549  159.4535 H   0  0  0  0  0  0  0  0  0  0  0  0  # atno 6908 bound_to 6896
  152.0425  134.9702  160.0624 H   0  0  0  0  0  0  0  0  0  0  0  0  # atno 6909 bound_to 6896
  145.0644  140.8314  143.4133 H   0  0  0  0  0  0  0  0  0  0  0  0  # atno 7974 bound_to 7965
  154.9400  140.3052  155.5125 H   0  0  0  0  0  0  0  0  0  0  0  0  # atno 8008 bound_to 7997
  156.2997  140.2338  156.4405 H   0  0  0  0  0  0  0  0  0  0  0  0  # atno 8009 bound_to 7997
  154.8155  140.0426  157.1362 H   0  0  0  0  0  0  0  0  0  0  0  0  # atno 8010 bound_to 7997
  140.7176  143.5457  150.9358 H   0  0  0  0  0  0  0  0  0  0  0  0  # atno 10167 bound_to 10162
  156.7470  130.9364  151.3113 H   0  0  0  0  0  0  0  0  0  0  0  0  # atno 10718 bound_to 10713
  154.6623  135.2926  154.9851 H   0  0  0  0  0  0  0  0  0  0  0  0  # atno 10763 bound_to 10752
  154.0907  135.6591  153.4856 H   0  0  0  0  0  0  0  0  0  0  0  0  # atno 10764 bound_to 10752
  153.0437  135.5219  154.7579 H   0  0  0  0  0  0  0  0  0  0  0  0  # atno 10765 bound_to 10752
  139.8840  134.9423  156.5937 H   0  0  0  0  0  0  0  0  0  0  0  0  # atno 11005 bound_to 11000
  145.1369  139.2597  143.5510 LP  0  0  0  0  0  0  0  0  0  0  0  0  # atno 17320 bound_to 7965
  146.3526  140.1035  142.8607 LP  0  0  0  0  0  0  0  0  0  0  0  0  # atno 17321 bound_to 7965
  139.9180  143.6639  152.3102 LP  0  0  0  0  0  0  0  0  0  0  0  0  # atno 17342 bound_to 10162
  139.7046  144.7630  151.1214 LP  0  0  0  0  0  0  0  0  0  0  0  0  # atno 17343 bound_to 10162
  157.6794  130.9125  150.0229 LP  0  0  0  0  0  0  0  0  0  0  0  0  # atno 17370 bound_to 10713
  156.1426  130.3642  149.9559 LP  0  0  0  0  0  0  0  0  0  0  0  0  # atno 17371 bound_to 10713
  140.7936  133.8562  155.8667 LP  0  0  0  0  0  0  0  0  0  0  0  0  # atno 17394 bound_to 11000
  140.9655  134.1600  157.4619 LP  0  0  0  0  0  0  0  0  0  0  0  0  # atno 17395 bound_to 11000

$$$$
