#       Name:                AV-unprocessed.smi:3225
#       Creating user name   scv26
#       Creation time:       Fri Mar 27 18:15:49 2020


#       File generated by GOLD software.
#

@<TRIPOS>MOLECULE
AV-unprocessed.smi:3225
    44    45     1
SMALL
NO_CHARGES


@<TRIPOS>ATOM
      1 ****        -2.5665  -1.7895  -1.4794 C.3            1 S1                 0.0000
      2 ****        -2.1448  -0.9892  -0.2362 C.3            1 S1                 0.0000
      3 ****        -2.6800  -1.5935   1.0781 C.3            1 S1                 0.0000
      4 ****        -4.1278  -1.7001   1.1054 N.pl3          1 S1                 0.0000
      5 ****        -4.9069  -2.8380   1.0756 C.2            1 S1                 0.0000
      6 ****        -6.2113  -2.4380   1.1279 C.2            1 S1                 0.0000
      7 ****        -6.1281  -1.0191   1.1963 C.2            1 S1                 0.0000
      8 ****        -4.8794  -0.5808   1.1846 N.2            1 S1                 0.0000
      9 ****        -0.6698  -0.8932  -0.1781 N.4            1 S1                 1.0000
     10 ****        -0.1372   0.4826  -0.2406 C.3            1 S1                 0.0000
     11 ****         1.3950   0.4860  -0.1732 C.3            1 S1                 0.0000
     12 ****         1.9785   1.9075  -0.2401 C.3            1 S1                 0.0000
     13 ****         3.4380   1.8961  -0.1806 N.am           1 S1                 0.0000
     14 ****         4.2322   2.1277  -1.3758 C.3            1 S1                 0.0000
     15 ****         5.6854   2.2138  -0.8855 C.3            1 S1                 0.0000
     16 ****         5.6656   1.7680   0.5809 C.3            1 S1                 0.0000
     17 ****         4.1851   1.6987   0.9119 C.2            1 S1                 0.0000
     18 ****         3.7640   1.4836   2.0476 O.2            1 S1                 0.0000
     19 ****        -3.6509  -1.8130  -1.5911 H              1 S1                 0.0000
     20 ****        -2.2148  -2.8203  -1.4265 H              1 S1                 0.0000
     21 ****        -2.1592  -1.3444  -2.3880 H              1 S1                 0.0000
     22 ****        -2.5599   0.0150  -0.3397 H              1 S1                 0.0000
     23 ****        -2.2595  -2.5879   1.2358 H              1 S1                 0.0000
     24 ****        -2.3682  -0.9852   1.9285 H              1 S1                 0.0000
     25 ****        -4.4745  -3.8261   1.0176 H              1 S1                 0.0000
     26 ****        -7.0914  -3.0640   1.1209 H              1 S1                 0.0000
     27 ****        -6.9319  -0.3000   1.2548 H              1 S1                 0.0000
     28 ****        -0.3572  -1.3176   0.6836 H              1 S1                 0.0000
     29 ****        -0.4702   0.9536  -1.1665 H              1 S1                 0.0000
     30 ****        -0.5481   1.0629   0.5869 H              1 S1                 0.0000
     31 ****         1.7157  -0.0021   0.7482 H              1 S1                 0.0000
     32 ****         1.7979  -0.1084  -0.9948 H              1 S1                 0.0000
     33 ****         1.6583   2.3976  -1.1604 H              1 S1                 0.0000
     34 ****         1.5899   2.5135   0.5800 H              1 S1                 0.0000
     35 ****         4.0987   1.2940  -2.0664 H              1 S1                 0.0000
     36 ****         3.9262   3.0441  -1.8822 H              1 S1                 0.0000
     37 ****         6.3475   1.5902  -1.4872 H              1 S1                 0.0000
     38 ****         6.0480   3.2398  -0.9589 H              1 S1                 0.0000
     39 ****         6.1143   0.7820   0.7051 H              1 S1                 0.0000
     40 ****         6.1833   2.4736   1.2314 H              1 S1                 0.0000
     41 ****        -0.2863  -1.4188  -0.9507 H              1 S1                 0.0000
     42 ****        -4.5632   0.3670   1.2253 LP             1 S1                 0.0000
     43 ****         2.7792   1.4440   2.2166 LP             1 S1                 0.0000
     44 ****         4.4065   1.3483   2.8019 LP             1 S1                 0.0000
@<TRIPOS>BOND
    1    1    2 1     
    2    1   19 1     
    3    1   20 1     
    4    1   21 1     
    5    2    3 1     
    6    2    9 1     
    7    2   22 1     
    8    3    4 1     
    9    3   23 1     
   10    3   24 1     
   11    4    8 1     
   12    4    5 1     
   13    5    6 2     
   14    5   25 1     
   15    6    7 1     
   16    6   26 1     
   17    7    8 2     
   18    7   27 1     
   19    9   10 1     
   20    9   28 1     
   21    9   41 1     
   22   10   11 1     
   23   10   29 1     
   24   10   30 1     
   25   11   12 1     
   26   11   31 1     
   27   11   32 1     
   28   12   13 1     
   29   12   33 1     
   30   12   34 1     
   31   13   17 am    
   32   13   14 1     
   33   14   15 1     
   34   14   35 1     
   35   14   36 1     
   36   15   16 1     
   37   15   37 1     
   38   15   38 1     
   39   16   17 1     
   40   16   39 1     
   41   16   40 1     
   42   17   18 2     
   43    8   42 1     
   44   18   43 1     
   45   18   44 1     
@<TRIPOS>SUBSTRUCTURE
      1 S1             1
@<TRIPOS>SET
LONE_PAIRS      STATIC     ATOMS    <user>   **** ""
3 42 43 44
DONOR_HYDROGENS      STATIC     ATOMS    <user>   **** ""
2 28 41
ATOM$BLUE        STATIC     ATOMS    COLORGROUP SYSTEM
3 42 43 44
ATOM$RED        STATIC     ATOMS    COLORGROUP SYSTEM
2 28 41
