AV-unprocessed.smi:1780|AV-procd|sdf|7184|dock3
  -GOLD-   22720 8423D 1   1.00000     0.00000
 Structure written by MMmdl.
 43 44  0  0  0  0  0  0  0  0  1 V2000
  143.6024  132.7104  148.0813 C   0  0  0  0  0  0  0  0  0  0  0  0
  143.5680  132.4687  149.5956 C   0  0  0  0  0  0  0  0  0  0  0  0
  144.7217  133.0432  150.2602 N   0  0  0  0  0  0  0  0  0  0  0  0
  144.7762  134.1757  151.0483 C   0  0  0  0  0  0  0  0  0  0  0  0
  146.0812  134.2934  151.4356 C   0  0  0  0  0  0  0  0  0  0  0  0
  146.6908  135.2743  152.2575 N   0  0  0  0  0  0  0  0  0  0  0  0
  146.0828  136.1193  153.1060 C   0  0  0  0  0  0  0  0  0  0  0  0
  144.8671  136.1878  153.2885 O   0  0  0  0  0  0  0  0  0  0  0  0
  146.9731  136.8921  153.7434 N   0  0  0  0  0  0  0  0  0  0  0  0
  146.6436  137.9046  154.7428 C   0  0  0  0  0  0  0  0  0  0  0  0
  147.2399  139.3093  154.4324 C   0  0  1  0  0  0  0  0  0  0  0  0
  146.1850  140.3920  154.7762 C   0  0  0  0  0  0  0  0  0  0  0  0
  148.5428  139.5477  155.0958 N   0  0  0  0  0  0  0  0  0  0  0  0
  149.6149  138.6970  154.5655 C   0  0  0  0  0  0  0  0  0  0  0  0
  150.9748  138.9635  155.2341 C   0  0  0  0  0  0  0  0  0  0  0  0
  151.3217  140.3335  155.0885 O   0  0  0  0  0  0  0  0  0  0  0  0
  150.3452  141.1939  155.6584 C   0  0  0  0  0  0  0  0  0  0  0  0
  148.9820  140.9440  154.9905 C   0  0  0  0  0  0  0  0  0  0  0  0
  146.7611  133.1970  150.8445 C   0  0  0  0  0  0  0  0  0  0  0  0
  145.9334  132.4473  150.1328 N   0  0  0  0  0  0  0  0  0  0  0  0
  142.7411  132.2512  147.5962 H   0  0  0  0  0  0  0  0  0  0  0  0
  144.5022  132.2855  147.6351 H   0  0  0  0  0  0  0  0  0  0  0  0
  143.5841  133.7761  147.8500 H   0  0  0  0  0  0  0  0  0  0  0  0
  142.6635  132.8977  150.0293 H   0  0  0  0  0  0  0  0  0  0  0  0
  143.5427  131.3985  149.8038 H   0  0  0  0  0  0  0  0  0  0  0  0
  143.9011  134.7739  151.2547 H   0  0  0  0  0  0  0  0  0  0  0  0
  147.6966  135.3344  152.1978 H   0  0  0  0  0  0  0  0  0  0  0  0
  147.9518  136.7674  153.5296 H   0  0  0  0  0  0  0  0  0  0  0  0
  145.5572  137.9705  154.8097 H   0  0  0  0  0  0  0  0  0  0  0  0
  146.9884  137.5186  155.7013 H   0  0  0  0  0  0  0  0  0  0  0  0
  147.4025  139.3589  153.3547 H   0  0  0  0  0  0  0  0  0  0  0  0
  145.2162  140.1898  154.3210 H   0  0  0  0  0  0  0  0  0  0  0  0
  146.4674  141.3765  154.4062 H   0  0  0  0  0  0  0  0  0  0  0  0
  146.0321  140.4664  155.8533 H   0  0  0  0  0  0  0  0  0  0  0  0
  149.3881  137.6449  154.7245 H   0  0  0  0  0  0  0  0  0  0  0  0
  149.7055  138.8439  153.4880 H   0  0  0  0  0  0  0  0  0  0  0  0
  150.9438  138.6979  156.2920 H   0  0  0  0  0  0  0  0  0  0  0  0
  151.7494  138.3501  154.7735 H   0  0  0  0  0  0  0  0  0  0  0  0
  150.2847  141.0274  156.7351 H   0  0  0  0  0  0  0  0  0  0  0  0
  150.6542  142.2289  155.5117 H   0  0  0  0  0  0  0  0  0  0  0  0
  149.0343  141.2372  153.9409 H   0  0  0  0  0  0  0  0  0  0  0  0
  148.2668  141.6096  155.4702 H   0  0  0  0  0  0  0  0  0  0  0  0
  147.8048  132.9256  150.9058 H   0  0  0  0  0  0  0  0  0  0  0  0
  1  2  1  0  0  0  0
  1 21  1  0  0  0  0
  1 22  1  0  0  0  0
  1 23  1  0  0  0  0
  2  3  1  0  0  0  0
  2 24  1  0  0  0  0
  2 25  1  0  0  0  0
  3 20  1  0  0  0  0
  3  4  1  0  0  0  0
  4  5  2  0  0  0  0
  4 26  1  0  0  0  0
  5  6  1  0  0  0  0
  5 19  1  0  0  0  0
  6  7  1  0  0  0  0
  6 27  1  0  0  0  0
  7  8  2  0  0  0  0
  7  9  1  0  0  0  0
  9 10  1  0  0  0  0
  9 28  1  0  0  0  0
 10 11  1  0  0  0  0
 10 29  1  0  0  0  0
 10 30  1  0  0  0  0
 11 12  1  0  0  0  0
 11 13  1  0  0  0  0
 11 31  1  0  0  0  0
 12 32  1  0  0  0  0
 12 33  1  0  0  0  0
 12 34  1  0  0  0  0
 13 18  1  0  0  0  0
 13 14  1  0  0  0  0
 14 15  1  0  0  0  0
 14 35  1  0  0  0  0
 14 36  1  0  0  0  0
 15 16  1  0  0  0  0
 15 37  1  0  0  0  0
 15 38  1  0  0  0  0
 16 17  1  0  0  0  0
 17 18  1  0  0  0  0
 17 39  1  0  0  0  0
 17 40  1  0  0  0  0
 18 41  1  0  0  0  0
 18 42  1  0  0  0  0
 19 20  2  0  0  0  0
 19 43  1  0  0  0  0
M  END
> <s_m_source_file>
AV-unprocessed.smi

> <i_m_source_file_index>
1780

> <i_lp_mmshare_version>
43012

> <i_f3d_flags>
0

> <s_epik_input>
W0NIM11bQ0gyXW4xW2NIXWMoW2NIXW4xKVtOSF1DKD1PKVtOSF1bQ0gyXVtDQEhdKFtDSDNdKU4yW0NIMl1bQ0gyXU9bQ0gyXVtDSDJdMg==

> <s_epik_cmdline>
J2VwaWtfcHl0aG9uJywgJy1waCcsICc3LjAnLCAnLXRuJywgJzgnLCAnLW1hJywgJzIwMCcsICctbWV0YWxfYmluZGluZycsICctaW1hZScsICc8aW5maWxlLm1hZT4nLCAnLW9tYWUnLCAnPG91dGZpbGUubWFlPic=

> <r_lp_tautomer_probability>
1

> <r_epik_Ionization_Penalty>
0.242902

> <r_epik_Ionization_Penalty_Charging>
0

> <r_epik_Ionization_Penalty_Neutral>
0.242902

> <r_epik_State_Penalty>
0.233765

> <r_epik_Charging_Adjusted_Penalty>
0.233765

> <i_epik_Tot_Q>
0

> <i_epik_Tot_abs_Q>
0

> <r_epik_Metal_State_Penalty>
0.233759

> <b_epik_Metal_Only>
0

> <s_lp_Force_Field>
OPLS_2005

> <r_lp_Energy>
31.4714

> <b_lp_Chiralities_Consistent>
1

> <s_lp_Variant>
AV-unprocessed.smi:1780-2

> <Gold.Version>
5.8.1

> <Gold.Id.Protein>
6NUR|6NUR_protein|mol2

> <Gold.PLP.Fitness>
41.3696

> <Gold.PLP.PLP>
-32.0269

> <Gold.PLP.part.hbond>
-2.7147

> <Gold.PLP.part.metal>
0.0000

> <Gold.PLP.part.buried>
-2.3093

> <Gold.PLP.part.nonpolar>
-27.4024

> <Gold.PLP.part.repulsive>
0.4048

> <Gold.PLP.ligand.clash>
0.0000

> <Gold.PLP.ligand.torsion>
0.8914

> <Gold.PLP.Chemscore.Hbond>
2.6873

> <Gold.PLP.Chemscore.CHOScore>
1.0000

> <Gold.PLP.Chemscore.Metal>
0.0000

> <Gold.Chemscore.Hbonds>
donor molecule, donor type, donor heavy atom, donor atom, acceptor molecule, acceptor atom, score
      L1  H     6    27       P1  7948  0.96
      L1  H     9    28       P1  7948  0.67
      P1  H  7989  7998       L1    16  1.00
      L1  C    19    43       P1 10747  1.00

> <Gold.PLP.Chemscore.Internal.Correction>
0.0635

> <Gold.Rescore>
     Score         DG    S(hbond)    S(metal)    S(lipo)     H(rot)  DE(clash)    DE(int)     intcor
     17.70     -19.88       2.70        0.00      81.22       1.61       0.29       1.89       ----

> <Gold.Chemscore.Fitness>
17.6971

> <Gold.Chemscore.DG>
-19.8806

> <Gold.Chemscore.ZeroCoef>
-5.4800

> <Gold.Chemscore.Hbond>
2.7017

> <Gold.Chemscore.Metal>
0.0000

> <Gold.Chemscore.Lipo>
81.2228

> <Gold.Chemscore.Internal_Hbond>
0.0000

> <Gold.Chemscore.DEClash>
0.2888

> <Gold.Chemscore.DEInternal>
1.8947

> <Gold.Chemscore.Rot>
1.6117

> <Gold.Chemscore.Internal.Correction>
   9.000000E+99

> <Gold.Chemscore.Hbonds>
donor molecule, donor type, donor heavy atom, donor atom, acceptor molecule, acceptor atom, score
      L1  H     6    27       P1  7948  0.87
      L1  H     9    28       P1  7948  0.64
      P1  H  7989  7998       L1    16  0.59

> <Gold.Chemscore.Hbond.Weighted>
-9.0236

> <Gold.Chemscore.Metal.Weighted>
-0.0000

> <Gold.Chemscore.Lipo.Weighted>
-9.5031

> <Gold.Chemscore.Internal_Hbond.Weighted>
0.0000

> <Gold.Chemscore.DEClash.Weighted>
0.2888

> <Gold.Chemscore.DEInternal.Weighted>
1.8947

> <Gold.Chemscore.Rot.Weighted>
4.1260

> <Gold.Chemscore.Internal.Correction.Weighted>
   9.000000E+99

> <Gold.Protein.RotatedTorsions>
[ 6907 6896 6895 6894 ] final  -41.34 input  -60.11 | X-H torsion
[ 7974 7965 7964 7962 ] final  -66.30 input  175.53 | X-H torsion
[ 8008 7997 7996 7995 ] final  102.17 input   59.86 | X-H torsion
[ 10167 10162 10161 10158 ] final -108.92 input  -65.29 | X-H torsion
[ 10718 10713 10712 10709 ] final -103.32 input   66.30 | X-H torsion
[ 10763 10752 10751 10750 ] final  -92.80 input  -60.55 | X-H torsion
[ 11005 11000 10999 10996 ] final  -96.21 input  -57.11 | X-H torsion

> <Gold.Protein.ActiveResidues>
 VAL166  LYS551  ARG553  GLY616  TRP617  ASP618  TYR619  PRO620  LYS621  CYS622 
 ASP623  PHE694  ASN695  SER759  ASP760  ASP761  ALA762  ILE779  LEU786  VAL792 
 PHE793  MET794  SER795  GLU796  ALA797  LYS798  CYS799  TRP800  GLU811  SER814 

> <Gold.Protein.RotatedAtoms>
  150.9679  134.9056  159.7769 H   0  0  0  0  0  0  0  0  0  0  0  0  # atno 6907 bound_to 6896
  152.5180  134.3582  159.9285 H   0  0  0  0  0  0  0  0  0  0  0  0  # atno 6908 bound_to 6896
  151.3592  133.3855  159.2722 H   0  0  0  0  0  0  0  0  0  0  0  0  # atno 6909 bound_to 6896
  145.7434  140.8942  143.0518 H   0  0  0  0  0  0  0  0  0  0  0  0  # atno 7974 bound_to 7965
  156.1368  140.3185  155.8433 H   0  0  0  0  0  0  0  0  0  0  0  0  # atno 8008 bound_to 7997
  155.4229  140.0513  157.3041 H   0  0  0  0  0  0  0  0  0  0  0  0  # atno 8009 bound_to 7997
  154.4943  140.2105  155.9492 H   0  0  0  0  0  0  0  0  0  0  0  0  # atno 8010 bound_to 7997
  140.1610  143.4120  152.1426 H   0  0  0  0  0  0  0  0  0  0  0  0  # atno 10167 bound_to 10162
  156.0261  130.5462  150.7236 H   0  0  0  0  0  0  0  0  0  0  0  0  # atno 10718 bound_to 10713
  154.6897  135.5218  153.8375 H   0  0  0  0  0  0  0  0  0  0  0  0  # atno 10763 bound_to 10752
  153.0623  135.6572  154.0444 H   0  0  0  0  0  0  0  0  0  0  0  0  # atno 10764 bound_to 10752
  154.0320  135.2984  155.3347 H   0  0  0  0  0  0  0  0  0  0  0  0  # atno 10765 bound_to 10752
  141.1418  133.8081  157.0540 H   0  0  0  0  0  0  0  0  0  0  0  0  # atno 11005 bound_to 11000
  144.6865  139.9492  143.7477 LP  0  0  0  0  0  0  0  0  0  0  0  0  # atno 17320 bound_to 7965
  146.0426  139.3435  143.0688 LP  0  0  0  0  0  0  0  0  0  0  0  0  # atno 17321 bound_to 7965
  139.5381  144.7230  151.4824 LP  0  0  0  0  0  0  0  0  0  0  0  0  # atno 17342 bound_to 10162
  140.6643  143.8431  150.6924 LP  0  0  0  0  0  0  0  0  0  0  0  0  # atno 17343 bound_to 10162
  157.4846  131.0905  151.0497 LP  0  0  0  0  0  0  0  0  0  0  0  0  # atno 17370 bound_to 10713
  157.0921  130.5946  149.5442 LP  0  0  0  0  0  0  0  0  0  0  0  0  # atno 17371 bound_to 10713
  140.0613  134.9753  157.1310 LP  0  0  0  0  0  0  0  0  0  0  0  0  # atno 17394 bound_to 11000
  140.3844  134.2252  155.7169 LP  0  0  0  0  0  0  0  0  0  0  0  0  # atno 17395 bound_to 11000

$$$$
