AV-unprocessed.smi:311|AV-procd|sdf|2300|dock2
  -GOLD-   2262022203D 1   1.00000     0.00000
 Structure written by MMmdl.
 44 46  0  0  0  0  0  0  0  0  2 V2000
  150.8500  130.5608  155.3509 C   0  0  0  0  0  0  0  0  0  0  0  0
  150.5603  131.9121  155.9392 C   0  0  0  0  0  0  0  0  0  0  0  0
  150.8056  132.1353  157.2193 N   0  0  0  0  0  0  0  0  0  0  0  0
  150.4312  133.4614  157.4560 O   0  0  0  0  0  0  0  0  0  0  0  0
  149.9720  133.9920  156.2945 C   0  0  0  0  0  0  0  0  0  0  0  0
  149.5108  135.4096  156.3440 C   0  0  0  0  0  0  0  0  0  0  0  0
  150.0259  133.0628  155.2916 C   0  0  0  0  0  0  0  0  0  0  0  0
  149.6174  133.2052  153.8473 C   0  0  0  0  0  0  0  0  0  0  0  0
  148.0932  133.2492  153.7364 C   0  0  0  0  0  0  0  0  0  0  0  0
  147.4124  132.3583  154.2432 O   0  0  0  0  0  0  0  0  0  0  0  0
  147.5709  134.2855  153.0610 N   0  0  0  0  0  0  0  0  0  0  0  0
  146.1455  134.5320  152.8557 C   0  0  1  0  0  0  0  0  0  0  0  0
  145.8600  135.9142  152.2380 C   0  0  0  0  0  0  0  0  0  0  0  0
  144.7466  135.6592  151.2167 C   0  0  0  0  0  0  0  0  0  0  0  0
  145.0470  134.3059  150.7356 N   0  3  2  0  0  0  0  0  0  0  0  0
  144.0418  133.6111  149.9059 C   0  0  0  0  0  0  0  0  0  0  0  0
  144.6634  132.2975  149.3832 C   0  0  0  0  0  0  0  0  0  0  0  0
  145.2627  131.4380  150.5197 C   0  0  0  0  0  0  0  0  0  0  0  0
  146.2065  132.2597  151.4245 C   0  0  0  0  0  0  0  0  0  0  0  0
  145.4630  133.5173  151.9084 C   0  0  1  0  0  0  0  0  0  0  0  0
  150.0079  130.2055  154.7567 H   0  0  0  0  0  0  0  0  0  0  0  0
  151.0451  129.8167  156.1241 H   0  0  0  0  0  0  0  0  0  0  0  0
  151.7231  130.5994  154.6993 H   0  0  0  0  0  0  0  0  0  0  0  0
  149.6951  135.9130  155.3950 H   0  0  0  0  0  0  0  0  0  0  0  0
  150.0327  135.9635  157.1246 H   0  0  0  0  0  0  0  0  0  0  0  0
  148.4417  135.4586  156.5507 H   0  0  0  0  0  0  0  0  0  0  0  0
  150.0283  134.1114  153.4009 H   0  0  0  0  0  0  0  0  0  0  0  0
  149.9958  132.3763  153.2477 H   0  0  0  0  0  0  0  0  0  0  0  0
  148.2119  134.9673  152.6812 H   0  0  0  0  0  0  0  0  0  0  0  0
  145.6380  134.4905  153.8217 H   0  0  0  0  0  0  0  0  0  0  0  0
  145.5781  136.6577  152.9843 H   0  0  0  0  0  0  0  0  0  0  0  0
  146.7444  136.2884  151.7195 H   0  0  0  0  0  0  0  0  0  0  0  0
  143.7694  135.6698  151.7026 H   0  0  0  0  0  0  0  0  0  0  0  0
  144.7406  136.3899  150.4072 H   0  0  0  0  0  0  0  0  0  0  0  0
  143.1426  133.4119  150.4908 H   0  0  0  0  0  0  0  0  0  0  0  0
  143.7509  134.2482  149.0698 H   0  0  0  0  0  0  0  0  0  0  0  0
  143.9168  131.7229  148.8340 H   0  0  0  0  0  0  0  0  0  0  0  0
  145.4512  132.5367  148.6679 H   0  0  0  0  0  0  0  0  0  0  0  0
  144.4521  131.0289  151.1242 H   0  0  0  0  0  0  0  0  0  0  0  0
  145.7945  130.5827  150.1016 H   0  0  0  0  0  0  0  0  0  0  0  0
  146.5256  131.6520  152.2717 H   0  0  0  0  0  0  0  0  0  0  0  0
  147.1062  132.5371  150.8734 H   0  0  0  0  0  0  0  0  0  0  0  0
  144.5551  133.1897  152.4197 H   0  0  0  0  0  0  0  0  0  0  0  0
  145.8718  134.4043  150.1608 H   0  0  0  0  0  0  0  0  0  0  0  0
  1  2  1  0  0  0  0
  1 21  1  0  0  0  0
  1 22  1  0  0  0  0
  1 23  1  0  0  0  0
  2  7  1  0  0  0  0
  2  3  2  0  0  0  0
  3  4  1  0  0  0  0
  4  5  1  0  0  0  0
  5  6  1  0  0  0  0
  5  7  2  0  0  0  0
  6 24  1  0  0  0  0
  6 25  1  0  0  0  0
  6 26  1  0  0  0  0
  7  8  1  0  0  0  0
  8  9  1  0  0  0  0
  8 27  1  0  0  0  0
  8 28  1  0  0  0  0
  9 10  2  0  0  0  0
  9 11  1  0  0  0  0
 11 12  1  0  0  0  0
 11 29  1  0  0  0  0
 12 20  1  0  0  0  0
 12 13  1  0  0  0  0
 12 30  1  0  0  0  0
 13 14  1  0  0  0  0
 13 31  1  0  0  0  0
 13 32  1  0  0  0  0
 14 15  1  0  0  0  0
 14 33  1  0  0  0  0
 14 34  1  0  0  0  0
 15 20  1  0  0  0  0
 15 16  1  0  0  0  0
 15 44  1  0  0  0  0
 16 17  1  0  0  0  0
 16 35  1  0  0  0  0
 16 36  1  0  0  0  0
 17 18  1  0  0  0  0
 17 37  1  0  0  0  0
 17 38  1  0  0  0  0
 18 19  1  0  0  0  0
 18 39  1  0  0  0  0
 18 40  1  0  0  0  0
 19 20  1  0  0  0  0
 19 41  1  0  0  0  0
 19 42  1  0  0  0  0
 20 43  1  0  0  0  0
M  CHG  1  15   1
M  END
> <s_m_source_file>
AV-unprocessed.smi

> <i_m_source_file_index>
311

> <i_lp_mmshare_version>
43012

> <i_f3d_flags>
0

> <s_epik_input>
W0NIM11jMW5vYyhbQ0gzXSljMVtDSDJdQyg9TylbTkhdW0NASF0oW0NIMl1bQ0gyXTIpW0NAQEhdKE4yMylbQ0gyXVtDSDJdW0NIMl1bQ0gyXTM=

> <s_epik_cmdline>
J2VwaWtfcHl0aG9uJywgJy1waCcsICc3LjAnLCAnLXRuJywgJzgnLCAnLW1hJywgJzIwMCcsICctbWV0YWxfYmluZGluZycsICctaW1hZScsICc8aW5maWxlLm1hZT4nLCAnLW9tYWUnLCAnPG91dGZpbGUubWFlPic=

> <r_epik_Ionization_Penalty>
0.00173669

> <r_epik_Ionization_Penalty_Charging>
0.0017366

> <r_epik_Ionization_Penalty_Neutral>
9.2145e-08

> <r_epik_State_Penalty>
0.00117499

> <r_epik_Charging_Adjusted_Penalty>
0.00291159

> <i_epik_Tot_Q>
1

> <i_epik_Tot_abs_Q>
1

> <r_epik_Metal_State_Penalty>
-0

> <b_epik_Metal_Only>
0

> <s_lp_Force_Field>
OPLS_2005

> <r_lp_Energy>
35.4626

> <b_lp_Chiralities_Consistent>
1

> <s_lp_Variant>
AV-unprocessed.smi:311-4

> <Gold.Version>
5.8.1

> <Gold.Id.Protein>
6NUR|6NUR_protein|mol2

> <Gold.PLP.Fitness>
37.9438

> <Gold.PLP.PLP>
-32.4809

> <Gold.PLP.part.hbond>
-2.1762

> <Gold.PLP.part.metal>
0.0000

> <Gold.PLP.part.buried>
-2.7963

> <Gold.PLP.part.nonpolar>
-27.1801

> <Gold.PLP.part.repulsive>
0.0810

> <Gold.PLP.ligand.clash>
0.0000

> <Gold.PLP.ligand.torsion>
0.2689

> <Gold.PLP.Chemscore.Hbond>
2.0000

> <Gold.PLP.Chemscore.CHOScore>
0.0000

> <Gold.PLP.Chemscore.Metal>
0.0000

> <Gold.Chemscore.Hbonds>
donor molecule, donor type, donor heavy atom, donor atom, acceptor molecule, acceptor atom, score
      L1  H    11    29       P1  7948  1.00
      P1  H  6896  6907       L1     4  0.98

> <Gold.PLP.Chemscore.Internal.Correction>
0.0006

> <Gold.Rescore>
     Score         DG    S(hbond)    S(metal)    S(lipo)     H(rot)  DE(clash)    DE(int)     intcor
     17.75     -18.20       1.79        0.00      87.37       1.36       0.14       0.31       ----

> <Gold.Chemscore.Fitness>
17.7483

> <Gold.Chemscore.DG>
-18.1983

> <Gold.Chemscore.ZeroCoef>
-5.4800

> <Gold.Chemscore.Hbond>
1.7870

> <Gold.Chemscore.Metal>
0.0000

> <Gold.Chemscore.Lipo>
87.3730

> <Gold.Chemscore.Internal_Hbond>
0.0000

> <Gold.Chemscore.DEClash>
0.1416

> <Gold.Chemscore.DEInternal>
0.3084

> <Gold.Chemscore.Rot>
1.3567

> <Gold.Chemscore.Internal.Correction>
   9.000000E+99

> <Gold.Chemscore.Hbonds>
donor molecule, donor type, donor heavy atom, donor atom, acceptor molecule, acceptor atom, score
      L1  H    11    29       P1  7948  0.78
      P1  H  6896  6907       L1     4  0.24

> <Gold.Chemscore.Hbond.Weighted>
-5.9687

> <Gold.Chemscore.Metal.Weighted>
-0.0000

> <Gold.Chemscore.Lipo.Weighted>
-10.2226

> <Gold.Chemscore.Internal_Hbond.Weighted>
0.0000

> <Gold.Chemscore.DEClash.Weighted>
0.1416

> <Gold.Chemscore.DEInternal.Weighted>
0.3084

> <Gold.Chemscore.Rot.Weighted>
3.4731

> <Gold.Chemscore.Internal.Correction.Weighted>
   9.000000E+99

> <Gold.Protein.RotatedTorsions>
[ 6907 6896 6895 6894 ] final -133.50 input  -60.11 | X-H torsion
[ 7974 7965 7964 7962 ] final -177.91 input  175.53 | X-H torsion
[ 8008 7997 7996 7995 ] final    5.85 input   59.86 | X-H torsion
[ 10167 10162 10161 10158 ] final   58.21 input  -65.29 | X-H torsion
[ 10718 10713 10712 10709 ] final  -65.86 input   66.30 | X-H torsion
[ 10763 10752 10751 10750 ] final   33.64 input  -60.55 | X-H torsion
[ 11005 11000 10999 10996 ] final  -67.22 input  -57.11 | X-H torsion

> <Gold.Protein.ActiveResidues>
 VAL166  LYS551  ARG553  GLY616  TRP617  ASP618  TYR619  PRO620  LYS621  CYS622 
 ASP623  PHE694  ASN695  SER759  ASP760  ASP761  ALA762  ILE779  LEU786  VAL792 
 PHE793  MET794  SER795  GLU796  ALA797  LYS798  CYS799  TRP800  GLU811  SER814 

> <Gold.Protein.RotatedAtoms>
  150.9747  133.6307  159.2731 H   0  0  0  0  0  0  0  0  0  0  0  0  # atno 6907 bound_to 6896
  151.3583  135.0898  159.9436 H   0  0  0  0  0  0  0  0  0  0  0  0  # atno 6908 bound_to 6896
  152.5195  133.9326  159.7642 H   0  0  0  0  0  0  0  0  0  0  0  0  # atno 6909 bound_to 6896
  144.7129  140.0949  143.6419 H   0  0  0  0  0  0  0  0  0  0  0  0  # atno 7974 bound_to 7965
  154.7335  140.2735  155.6435 H   0  0  0  0  0  0  0  0  0  0  0  0  # atno 8008 bound_to 7997
  156.2856  140.2711  156.1967 H   0  0  0  0  0  0  0  0  0  0  0  0  # atno 8009 bound_to 7997
  155.0351  140.0371  157.2478 H   0  0  0  0  0  0  0  0  0  0  0  0  # atno 8010 bound_to 7997
  140.1897  144.4098  150.6577 H   0  0  0  0  0  0  0  0  0  0  0  0  # atno 10167 bound_to 10162
  156.0645  130.4253  150.1624 H   0  0  0  0  0  0  0  0  0  0  0  0  # atno 10718 bound_to 10713
  153.0202  135.6381  154.1544 H   0  0  0  0  0  0  0  0  0  0  0  0  # atno 10763 bound_to 10752
  154.1279  135.2842  155.3194 H   0  0  0  0  0  0  0  0  0  0  0  0  # atno 10764 bound_to 10752
  154.6216  135.5523  153.7643 H   0  0  0  0  0  0  0  0  0  0  0  0  # atno 10765 bound_to 10752
  141.1502  133.6714  156.6259 H   0  0  0  0  0  0  0  0  0  0  0  0  # atno 11005 bound_to 11000
  145.9588  139.2786  143.1168 LP  0  0  0  0  0  0  0  0  0  0  0  0  # atno 17320 bound_to 7965
  145.9243  140.9093  143.0389 LP  0  0  0  0  0  0  0  0  0  0  0  0  # atno 17321 bound_to 7965
  140.6464  143.2214  151.6176 LP  0  0  0  0  0  0  0  0  0  0  0  0  # atno 17342 bound_to 10162
  139.5261  144.3055  152.1037 LP  0  0  0  0  0  0  0  0  0  0  0  0  # atno 17343 bound_to 10162
  156.9687  130.9828  151.3463 LP  0  0  0  0  0  0  0  0  0  0  0  0  # atno 17370 bound_to 10713
  157.5678  130.8289  149.8350 LP  0  0  0  0  0  0  0  0  0  0  0  0  # atno 17371 bound_to 10713
  140.3504  134.7773  157.4463 LP  0  0  0  0  0  0  0  0  0  0  0  0  # atno 17394 bound_to 11000
  140.0865  134.5659  155.8487 LP  0  0  0  0  0  0  0  0  0  0  0  0  # atno 17395 bound_to 11000

$$$$
