#       Name:                AV-unprocessed.smi:3301
#       Creating user name   scv26
#       Creation time:       Fri Mar 27 18:59:02 2020


#       File generated by GOLD software.
#

@<TRIPOS>MOLECULE
AV-unprocessed.smi:3301
    41    42     1
SMALL
NO_CHARGES


@<TRIPOS>ATOM
      1 ****        -3.2592  -2.6449   0.0245 C.3            1 S1                 0.0000
      2 ****        -2.4384  -1.3733  -0.2286 C.3            1 S1                 0.0000
      3 ****        -2.3584  -1.0472  -1.7357 C.3            1 S1                 0.0000
      4 ****        -1.7060   0.2220  -2.0027 N.pl3          1 S1                 0.0000
      5 ****        -0.4326   0.4172  -2.5210 C.2            1 S1                 0.0000
      6 ****        -0.2374   1.7782  -2.5832 C.2            1 S1                 0.0000
      7 ****        -1.3753   2.4365  -2.1229 N.2            1 S1                 0.0000
      8 ****        -2.2022   1.4503  -1.8002 C.2            1 S1                 0.0000
      9 ****        -1.1012  -1.5495   0.3376 N.am           1 S1                 0.0000
     10 ****        -0.3996  -0.6108   0.9923 C.2            1 S1                 0.0000
     11 ****        -0.8342   0.5166   1.2313 O.2            1 S1                 0.0000
     12 ****         1.0049  -1.0132   1.4554 C.3            1 S1                 0.0000
     13 ****         1.9616   0.0867   1.3350 N.am           1 S1                 0.0000
     14 ****         2.3380   0.8773   2.4952 C.3            1 S1                 0.0000
     15 ****         3.1223   2.0684   1.9264 C.3            1 S1                 0.0000
     16 ****         3.4603   1.6921   0.4796 C.3            1 S1                 0.0000
     17 ****         2.5674   0.4928   0.2121 C.2            1 S1                 0.0000
     18 ****         2.4419  -0.0112  -0.9031 O.2            1 S1                 0.0000
     19 ****        -4.2759  -2.5365  -0.3543 H              1 S1                 0.0000
     20 ****        -3.3282  -2.8624   1.0909 H              1 S1                 0.0000
     21 ****        -2.8128  -3.5112  -0.4649 H              1 S1                 0.0000
     22 ****        -2.9514  -0.5548   0.2797 H              1 S1                 0.0000
     23 ****        -1.8257  -1.8350  -2.2704 H              1 S1                 0.0000
     24 ****        -3.3605  -1.0029  -2.1638 H              1 S1                 0.0000
     25 ****         0.2169  -0.4048  -2.7836 H              1 S1                 0.0000
     26 ****         0.6275   2.3294  -2.9214 H              1 S1                 0.0000
     27 ****        -3.1894   1.6252  -1.3986 H              1 S1                 0.0000
     28 ****        -0.6644  -2.4487   0.1952 H              1 S1                 0.0000
     29 ****         0.9496  -1.3395   2.4947 H              1 S1                 0.0000
     30 ****         1.3609  -1.8694   0.8794 H              1 S1                 0.0000
     31 ****         1.4622   1.2019   3.0587 H              1 S1                 0.0000
     32 ****         2.9646   0.2739   3.1533 H              1 S1                 0.0000
     33 ****         2.5008   2.9649   1.9390 H              1 S1                 0.0000
     34 ****         4.0161   2.2809   2.5137 H              1 S1                 0.0000
     35 ****         3.2546   2.5053  -0.2172 H              1 S1                 0.0000
     36 ****         4.5050   1.3967   0.3778 H              1 S1                 0.0000
     37 ****        -1.5323   3.4215  -2.0522 LP             1 S1                 0.0000
     38 ****        -1.7542   0.7714   0.9332 LP             1 S1                 0.0000
     39 ****        -0.2672   1.1771   1.7234 LP             1 S1                 0.0000
     40 ****         1.8411  -0.8005  -1.0304 LP             1 S1                 0.0000
     41 ****         2.9406   0.3683  -1.6823 LP             1 S1                 0.0000
@<TRIPOS>BOND
    1    1    2 1     
    2    1   19 1     
    3    1   20 1     
    4    1   21 1     
    5    2    3 1     
    6    2    9 1     
    7    2   22 1     
    8    3    4 1     
    9    3   23 1     
   10    3   24 1     
   11    4    8 1     
   12    4    5 1     
   13    5    6 2     
   14    5   25 1     
   15    6    7 1     
   16    6   26 1     
   17    7    8 2     
   18    8   27 1     
   19    9   10 am    
   20    9   28 1     
   21   10   11 2     
   22   10   12 1     
   23   12   13 1     
   24   12   29 1     
   25   12   30 1     
   26   13   17 am    
   27   13   14 1     
   28   14   15 1     
   29   14   31 1     
   30   14   32 1     
   31   15   16 1     
   32   15   33 1     
   33   15   34 1     
   34   16   17 1     
   35   16   35 1     
   36   16   36 1     
   37   17   18 2     
   38    7   37 1     
   39   11   38 1     
   40   11   39 1     
   41   18   40 1     
   42   18   41 1     
@<TRIPOS>SUBSTRUCTURE
      1 S1             1
@<TRIPOS>SET
LONE_PAIRS      STATIC     ATOMS    <user>   **** ""
5 37 38 39 40 41
DONOR_HYDROGENS      STATIC     ATOMS    <user>   **** ""
1 28
ATOM$BLUE        STATIC     ATOMS    COLORGROUP SYSTEM
5 37 38 39 40 41
ATOM$RED        STATIC     ATOMS    COLORGROUP SYSTEM
1 28
