AV-unprocessed.smi:876|AV-procd|sdf|4022|dock6
  -GOLD-   22720 1513D 1   1.00000     0.00000
 Structure written by MMmdl.
 41 42  0  0  0  0  0  0  0  0  2 V2000
  151.9545  142.3160  158.2068 C   0  0  0  0  0  0  0  0  0  0  0  0
  151.2924  142.6767  156.9598 N   0  0  0  0  0  0  0  0  0  0  0  0
  151.2655  144.0658  156.5152 C   0  0  0  0  0  0  0  0  0  0  0  0
  150.7160  141.6708  156.1542 C   0  0  0  0  0  0  0  0  0  0  0  0
  151.2491  140.3629  156.0458 C   0  0  0  0  0  0  0  0  0  0  0  0
  150.6178  139.4104  155.2193 C   0  0  0  0  0  0  0  0  0  0  0  0
  149.4460  139.7681  154.5083 C   0  0  0  0  0  0  0  0  0  0  0  0
  148.7383  138.8962  153.6367 N   0  0  0  0  0  0  0  0  0  0  0  0
  147.4717  138.9909  153.1963 C   0  0  0  0  0  0  0  0  0  0  0  0
  146.6870  139.8982  153.4714 O   0  0  0  0  0  0  0  0  0  0  0  0
  147.1605  137.9650  152.3917 N   0  0  0  0  0  0  0  0  0  0  0  0
  145.8644  137.7735  151.7502 C   0  0  1  0  0  0  0  0  0  0  0  0
  145.8864  136.5551  150.8685 C   0  0  0  0  0  0  0  0  0  0  0  0
  144.9217  135.6878  151.1664 C   0  0  0  0  0  0  0  0  0  0  0  0
  144.0590  136.1444  152.3155 C   0  0  1  0  0  0  0  0  0  0  0  0
  143.9585  135.1015  153.4423 C   0  0  0  0  0  0  0  0  0  0  0  0
  143.3360  133.9228  152.9755 O   0  0  0  0  0  0  0  0  0  0  0  0
  144.7314  137.4665  152.7652 C   0  0  0  0  0  0  0  0  0  0  0  0
  148.9638  141.0854  154.6420 C   0  0  0  0  0  0  0  0  0  0  0  0
  149.6000  141.9660  155.4439 N   0  3  0  0  0  0  0  0  0  0  0  0
  145.6132  138.6382  151.1336 H   0  0  0  0  0  0  0  0  0  0  0  0
  143.0641  136.3587  151.9226 H   0  0  0  0  0  0  0  0  0  0  0  0
  152.7958  141.6493  158.0150 H   0  0  0  0  0  0  0  0  0  0  0  0
  151.2580  141.8155  158.8802 H   0  0  0  0  0  0  0  0  0  0  0  0
  152.3382  143.1972  158.7215 H   0  0  0  0  0  0  0  0  0  0  0  0
  150.2379  144.4084  156.3893 H   0  0  0  0  0  0  0  0  0  0  0  0
  151.7867  144.1733  155.5632 H   0  0  0  0  0  0  0  0  0  0  0  0
  151.7501  144.7237  157.2370 H   0  0  0  0  0  0  0  0  0  0  0  0
  152.1401  140.0713  156.5813 H   0  0  0  0  0  0  0  0  0  0  0  0
  151.0575  138.4284  155.1408 H   0  0  0  0  0  0  0  0  0  0  0  0
  149.2772  138.1282  153.2641 H   0  0  0  0  0  0  0  0  0  0  0  0
  147.8646  137.2643  152.2121 H   0  0  0  0  0  0  0  0  0  0  0  0
  146.6079  136.4315  150.0740 H   0  0  0  0  0  0  0  0  0  0  0  0
  144.7453  134.7554  150.6505 H   0  0  0  0  0  0  0  0  0  0  0  0
  144.9459  134.8550  153.8344 H   0  0  0  0  0  0  0  0  0  0  0  0
  143.3705  135.4967  154.2710 H   0  0  0  0  0  0  0  0  0  0  0  0
  143.3193  133.2928  153.6799 H   0  0  0  0  0  0  0  0  0  0  0  0
  145.1315  137.3652  153.7756 H   0  0  0  0  0  0  0  0  0  0  0  0
  144.0077  138.2817  152.7986 H   0  0  0  0  0  0  0  0  0  0  0  0
  148.0865  141.4629  154.1365 H   0  0  0  0  0  0  0  0  0  0  0  0
  149.2180  142.9089  155.5183 H   0  0  0  0  0  0  0  0  0  0  0  0
  1  2  1  0  0  0  0
  1 23  1  0  0  0  0
  1 24  1  0  0  0  0
  1 25  1  0  0  0  0
  2  3  1  0  0  0  0
  2  4  1  0  0  0  0
  3 26  1  0  0  0  0
  3 27  1  0  0  0  0
  3 28  1  0  0  0  0
  4 20  1  0  0  0  0
  4  5  2  0  0  0  0
  5  6  1  0  0  0  0
  5 29  1  0  0  0  0
  6  7  2  0  0  0  0
  6 30  1  0  0  0  0
  7  8  1  0  0  0  0
  7 19  1  0  0  0  0
  8  9  1  0  0  0  0
  8 31  1  0  0  0  0
  9 10  2  0  0  0  0
  9 11  1  0  0  0  0
 11 12  1  0  0  0  0
 11 32  1  0  0  0  0
 12 21  1  0  0  0  0
 12 18  1  0  0  0  0
 12 13  1  0  0  0  0
 13 14  2  0  0  0  0
 13 33  1  0  0  0  0
 14 15  1  0  0  0  0
 14 34  1  0  0  0  0
 15 22  1  0  0  0  0
 15 16  1  0  0  0  0
 15 18  1  0  0  0  0
 16 17  1  0  0  0  0
 16 35  1  0  0  0  0
 16 36  1  0  0  0  0
 17 37  1  0  0  0  0
 18 38  1  0  0  0  0
 18 39  1  0  0  0  0
 19 20  2  0  0  0  0
 19 40  1  0  0  0  0
 20 41  1  0  0  0  0
M  CHG  1  20   1
M  END
> <s_m_source_file>
AV-unprocessed.smi

> <i_m_source_file_index>
876

> <i_lp_mmshare_version>
43012

> <i_f3d_flags>
0

> <s_epik_input>
W0NIM11OKFtDSDNdKWMxW2NIXVtjSF1jKFtjSF1uMSlbTkhdQyg9TylbTkhdW0NAQEhdMltDSF09W0NIXVtDQEBIXShbQ0gyXTIpW0NIMl1bT0hd

> <s_epik_cmdline>
J2VwaWtfcHl0aG9uJywgJy1waCcsICc3LjAnLCAnLXRuJywgJzgnLCAnLW1hJywgJzIwMCcsICctbWV0YWxfYmluZGluZycsICctaW1hZScsICc8aW5maWxlLm1hZT4nLCAnLW9tYWUnLCAnPG91dGZpbGUubWFlPic=

> <r_lp_tautomer_probability>
0.999994

> <r_epik_Ionization_Penalty>
0.257994

> <r_epik_Ionization_Penalty_Charging>
0.257974

> <r_epik_Ionization_Penalty_Neutral>
1.95938e-05

> <r_epik_State_Penalty>
0.249586

> <r_epik_Charging_Adjusted_Penalty>
0.50756

> <i_epik_Tot_Q>
1

> <i_epik_Tot_abs_Q>
1

> <r_epik_Metal_State_Penalty>
0.538508

> <b_epik_Metal_Only>
0

> <s_lp_Force_Field>
OPLS_2005

> <r_lp_Energy>
25.8864

> <b_lp_Chiralities_Consistent>
1

> <s_lp_Variant>
AV-unprocessed.smi:876-4

> <Gold.Version>
5.8.1

> <Gold.Id.Protein>
6NUR|6NUR_protein|mol2

> <Gold.PLP.Fitness>
45.8637

> <Gold.PLP.PLP>
-34.6148

> <Gold.PLP.part.hbond>
-4.4816

> <Gold.PLP.part.metal>
0.0000

> <Gold.PLP.part.buried>
3.7196

> <Gold.PLP.part.nonpolar>
-34.3207

> <Gold.PLP.part.repulsive>
0.4934

> <Gold.PLP.ligand.clash>
0.0000

> <Gold.PLP.ligand.torsion>
0.5961

> <Gold.PLP.Chemscore.Hbond>
4.1406

> <Gold.PLP.Chemscore.CHOScore>
0.0000

> <Gold.PLP.Chemscore.Metal>
0.0000

> <Gold.Chemscore.Hbonds>
donor molecule, donor type, donor heavy atom, donor atom, acceptor molecule, acceptor atom, score
      L1  H     8    31       P1  7948  0.15
      L1  H    11    32       P1  7948  0.99
      L1  H    17    37       P1 10957  1.00
      L1  H    20    41       P1  8028  2.00

> <Gold.PLP.Chemscore.Internal.Correction>
0.0192

> <Gold.Rescore>
     Score         DG    S(hbond)    S(metal)    S(lipo)     H(rot)  DE(clash)    DE(int)     intcor
     16.80     -20.38       3.16        0.00      76.84       1.82       1.70       1.88       ----

> <Gold.Chemscore.Fitness>
16.8035

> <Gold.Chemscore.DG>
-20.3818

> <Gold.Chemscore.ZeroCoef>
-5.4800

> <Gold.Chemscore.Hbond>
3.1647

> <Gold.Chemscore.Metal>
0.0000

> <Gold.Chemscore.Lipo>
76.8378

> <Gold.Chemscore.Internal_Hbond>
0.0000

> <Gold.Chemscore.DEClash>
1.6997

> <Gold.Chemscore.DEInternal>
1.8786

> <Gold.Chemscore.Rot>
1.8197

> <Gold.Chemscore.Internal.Correction>
   9.000000E+99

> <Gold.Chemscore.Hbonds>
donor molecule, donor type, donor heavy atom, donor atom, acceptor molecule, acceptor atom, score
      L1  H     8    31       P1  7948  0.17
      L1  H    11    32       P1  7948  0.92
      L1  H    17    37       P1 10957  0.95
      L1  H    20    41       P1  8028  1.00

> <Gold.Chemscore.Hbond.Weighted>
-10.5703

> <Gold.Chemscore.Metal.Weighted>
-0.0000

> <Gold.Chemscore.Lipo.Weighted>
-8.9900

> <Gold.Chemscore.Internal_Hbond.Weighted>
0.0000

> <Gold.Chemscore.DEClash.Weighted>
1.6997

> <Gold.Chemscore.DEInternal.Weighted>
1.8786

> <Gold.Chemscore.Rot.Weighted>
4.6585

> <Gold.Chemscore.Internal.Correction.Weighted>
   9.000000E+99

> <Gold.Protein.RotatedTorsions>
[ 6907 6896 6895 6894 ] final  -25.91 input  -60.11 | X-H torsion
[ 7974 7965 7964 7962 ] final  162.76 input  175.53 | X-H torsion
[ 8008 7997 7996 7995 ] final  178.81 input   59.86 | X-H torsion
[ 10167 10162 10161 10158 ] final   27.89 input  -65.29 | X-H torsion
[ 10718 10713 10712 10709 ] final  -66.37 input   66.30 | X-H torsion
[ 10763 10752 10751 10750 ] final  118.82 input  -60.55 | X-H torsion
[ 11005 11000 10999 10996 ] final  107.71 input  -57.11 | X-H torsion

> <Gold.Protein.ActiveResidues>
 VAL166  LYS551  ARG553  GLY616  TRP617  ASP618  TYR619  PRO620  LYS621  CYS622 
 ASP623  PHE694  ASN695  SER759  ASP760  ASP761  ALA762  ILE779  LEU786  VAL792 
 PHE793  MET794  SER795  GLU796  ALA797  LYS798  CYS799  TRP800  GLU811  SER814 

> <Gold.Protein.RotatedAtoms>
  151.1684  135.0306  159.8740 H   0  0  0  0  0  0  0  0  0  0  0  0  # atno 6907 bound_to 6896
  152.5449  134.1199  159.8404 H   0  0  0  0  0  0  0  0  0  0  0  0  # atno 6908 bound_to 6896
  151.1302  133.4996  159.2632 H   0  0  0  0  0  0  0  0  0  0  0  0  # atno 6909 bound_to 6896
  144.7621  139.8086  143.6329 H   0  0  0  0  0  0  0  0  0  0  0  0  # atno 7974 bound_to 7965
  156.0505  140.1324  157.0056 H   0  0  0  0  0  0  0  0  0  0  0  0  # atno 8008 bound_to 7997
  154.4432  140.1012  156.6439 H   0  0  0  0  0  0  0  0  0  0  0  0  # atno 8009 bound_to 7997
  155.5531  140.3463  155.4475 H   0  0  0  0  0  0  0  0  0  0  0  0  # atno 8010 bound_to 7997
  140.4899  144.0483  150.6293 H   0  0  0  0  0  0  0  0  0  0  0  0  # atno 10167 bound_to 10162
  156.0616  130.4261  150.1698 H   0  0  0  0  0  0  0  0  0  0  0  0  # atno 10718 bound_to 10713
  153.5735  135.3497  155.2847 H   0  0  0  0  0  0  0  0  0  0  0  0  # atno 10763 bound_to 10752
  154.8678  135.4165  154.2699 H   0  0  0  0  0  0  0  0  0  0  0  0  # atno 10764 bound_to 10752
  153.3470  135.7053  153.6890 H   0  0  0  0  0  0  0  0  0  0  0  0  # atno 10765 bound_to 10752
  139.8832  134.9409  156.5862 H   0  0  0  0  0  0  0  0  0  0  0  0  # atno 11005 bound_to 11000
  146.1694  139.4839  142.9937 LP  0  0  0  0  0  0  0  0  0  0  0  0  # atno 17320 bound_to 7965
  145.6586  141.0246  143.1721 LP  0  0  0  0  0  0  0  0  0  0  0  0  # atno 17321 bound_to 7965
  140.3749  143.2834  152.0236 LP  0  0  0  0  0  0  0  0  0  0  0  0  # atno 17342 bound_to 10162
  139.4849  144.6201  151.7272 LP  0  0  0  0  0  0  0  0  0  0  0  0  # atno 17343 bound_to 10162
  156.9766  130.9851  151.3447 LP  0  0  0  0  0  0  0  0  0  0  0  0  # atno 17370 bound_to 10713
  157.5629  130.8258  149.8289 LP  0  0  0  0  0  0  0  0  0  0  0  0  # atno 17371 bound_to 10713
  140.7990  133.8520  155.8710 LP  0  0  0  0  0  0  0  0  0  0  0  0  # atno 17394 bound_to 11000
  140.9609  134.1656  157.4654 LP  0  0  0  0  0  0  0  0  0  0  0  0  # atno 17395 bound_to 11000

$$$$
