AV-unprocessed.smi:702|AV-procd|sdf|3419|dock2
  -GOLD-   22720 0403D 1   1.00000     0.00000
 Structure written by MMmdl.
 49 51  0  0  0  0  0  0  0  0  1 V2000
  145.3560  138.5120  154.1404 C   0  0  0  0  0  0  0  0  0  0  0  0
  146.6853  137.7725  154.3893 C   0  0  1  0  0  0  0  0  0  0  0  0
  146.8407  136.7360  153.3615 N   0  0  0  0  0  0  0  0  0  0  0  0
  145.8899  135.9061  152.9060 C   0  0  0  0  0  0  0  0  0  0  0  0
  144.7214  135.9268  153.2920 O   0  0  0  0  0  0  0  0  0  0  0  0
  146.3971  135.0482  152.0038 N   0  0  0  0  0  0  0  0  0  0  0  0
  145.7432  133.9925  151.3123 C   0  0  0  0  0  0  0  0  0  0  0  0
  146.5501  132.9955  150.7256 C   0  0  0  0  0  0  0  0  0  0  0  0
  145.9281  131.9448  150.0223 C   0  0  0  0  0  0  0  0  0  0  0  0
  144.5911  131.8438  149.8698 N   0  0  0  0  0  0  0  0  0  0  0  0
  143.8210  132.8063  150.4196 C   0  0  0  0  0  0  0  0  0  0  0  0
  144.3407  133.8984  151.1430 C   0  0  0  0  0  0  0  0  0  0  0  0
  147.9357  138.7281  154.4710 C   0  0  0  0  0  0  0  0  0  0  0  0
  149.2135  137.9506  154.4818 N   0  0  0  0  0  0  0  0  0  0  0  0
  149.2610  136.8210  155.4250 C   0  0  0  0  0  0  0  0  0  0  0  0
  150.5570  136.0047  155.2911 C   0  0  0  0  0  0  0  0  0  0  0  0
  151.6776  136.8558  155.4917 O   0  0  0  0  0  0  0  0  0  0  0  0
  151.7129  137.9275  154.5584 C   0  0  0  0  0  0  0  0  0  0  0  0
  150.4247  138.7619  154.6664 C   0  0  0  0  0  0  0  0  0  0  0  0
  147.8694  139.7590  153.2983 C   0  0  0  0  0  0  0  0  0  0  0  0
  147.4737  141.1107  153.8964 C   0  0  0  0  0  0  0  0  0  0  0  0
  148.0245  141.0677  155.3140 C   0  0  0  0  0  0  0  0  0  0  0  0
  147.7993  139.6193  155.7503 C   0  0  0  0  0  0  0  0  0  0  0  0
  145.1435  139.2340  154.9288 H   0  0  0  0  0  0  0  0  0  0  0  0
  144.5207  137.8114  154.1152 H   0  0  0  0  0  0  0  0  0  0  0  0
  145.3608  139.0497  153.1923 H   0  0  0  0  0  0  0  0  0  0  0  0
  146.5825  137.2558  155.3421 H   0  0  0  0  0  0  0  0  0  0  0  0
  147.7691  136.6311  152.9794 H   0  0  0  0  0  0  0  0  0  0  0  0
  147.3914  135.1151  151.8438 H   0  0  0  0  0  0  0  0  0  0  0  0
  147.6261  133.0268  150.8151 H   0  0  0  0  0  0  0  0  0  0  0  0
  146.5219  131.1651  149.5688 H   0  0  0  0  0  0  0  0  0  0  0  0
  142.7556  132.7068  150.2732 H   0  0  0  0  0  0  0  0  0  0  0  0
  143.6606  134.6373  151.5370 H   0  0  0  0  0  0  0  0  0  0  0  0
  149.1831  137.1713  156.4531 H   0  0  0  0  0  0  0  0  0  0  0  0
  148.4282  136.1391  155.2683 H   0  0  0  0  0  0  0  0  0  0  0  0
  150.5802  135.2070  156.0337 H   0  0  0  0  0  0  0  0  0  0  0  0
  150.6178  135.5314  154.3099 H   0  0  0  0  0  0  0  0  0  0  0  0
  152.5839  138.5498  154.7638 H   0  0  0  0  0  0  0  0  0  0  0  0
  151.8329  137.5348  153.5475 H   0  0  0  0  0  0  0  0  0  0  0  0
  150.4943  139.5431  153.9137 H   0  0  0  0  0  0  0  0  0  0  0  0
  150.4005  139.2599  155.6359 H   0  0  0  0  0  0  0  0  0  0  0  0
  148.8319  139.8797  152.8048 H   0  0  0  0  0  0  0  0  0  0  0  0
  147.1824  139.4603  152.5059 H   0  0  0  0  0  0  0  0  0  0  0  0
  147.8602  141.9528  153.3219 H   0  0  0  0  0  0  0  0  0  0  0  0
  146.3871  141.2003  153.9260 H   0  0  0  0  0  0  0  0  0  0  0  0
  149.0902  141.2978  155.3030 H   0  0  0  0  0  0  0  0  0  0  0  0
  147.5369  141.7853  155.9745 H   0  0  0  0  0  0  0  0  0  0  0  0
  146.8024  139.5664  156.1854 H   0  0  0  0  0  0  0  0  0  0  0  0
  148.4613  139.3231  156.5638 H   0  0  0  0  0  0  0  0  0  0  0  0
  1  2  1  0  0  0  0
  1 24  1  0  0  0  0
  1 25  1  0  0  0  0
  1 26  1  0  0  0  0
  2  3  1  0  0  0  0
  2 13  1  0  0  0  0
  2 27  1  0  0  0  0
  3  4  1  0  0  0  0
  3 28  1  0  0  0  0
  4  5  2  0  0  0  0
  4  6  1  0  0  0  0
  6  7  1  0  0  0  0
  6 29  1  0  0  0  0
  7 12  1  0  0  0  0
  7  8  2  0  0  0  0
  8  9  1  0  0  0  0
  8 30  1  0  0  0  0
  9 10  2  0  0  0  0
  9 31  1  0  0  0  0
 10 11  1  0  0  0  0
 11 12  2  0  0  0  0
 11 32  1  0  0  0  0
 12 33  1  0  0  0  0
 13 23  1  0  0  0  0
 13 14  1  0  0  0  0
 13 20  1  0  0  0  0
 14 19  1  0  0  0  0
 14 15  1  0  0  0  0
 15 16  1  0  0  0  0
 15 34  1  0  0  0  0
 15 35  1  0  0  0  0
 16 17  1  0  0  0  0
 16 36  1  0  0  0  0
 16 37  1  0  0  0  0
 17 18  1  0  0  0  0
 18 19  1  0  0  0  0
 18 38  1  0  0  0  0
 18 39  1  0  0  0  0
 19 40  1  0  0  0  0
 19 41  1  0  0  0  0
 20 21  1  0  0  0  0
 20 42  1  0  0  0  0
 20 43  1  0  0  0  0
 21 22  1  0  0  0  0
 21 44  1  0  0  0  0
 21 45  1  0  0  0  0
 22 23  1  0  0  0  0
 22 46  1  0  0  0  0
 22 47  1  0  0  0  0
 23 48  1  0  0  0  0
 23 49  1  0  0  0  0
M  END
> <s_m_source_file>
AV-unprocessed.smi

> <i_m_source_file_index>
702

> <i_lp_mmshare_version>
43012

> <i_f3d_flags>
0

> <s_epik_input>
W0NIMl0xW0NIMl1PW0NIMl1bQ0gyXU4xQzIoW0NIMl1bQ0gyXVtDSDJdW0NIMl0yKVtDQEhdKFtDSDNdKVtOSF1DKD1PKVtOSF1jM1tjSF1bY0hdbltjSF1bY0hdMw==

> <s_epik_cmdline>
J2VwaWtfcHl0aG9uJywgJy1waCcsICc3LjAnLCAnLXRuJywgJzgnLCAnLW1hJywgJzIwMCcsICctbWV0YWxfYmluZGluZycsICctaW1hZScsICc8aW5maWxlLm1hZT4nLCAnLW9tYWUnLCAnPG91dGZpbGUubWFlPic=

> <r_epik_Ionization_Penalty>
0.626636

> <r_epik_Ionization_Penalty_Charging>
0

> <r_epik_Ionization_Penalty_Neutral>
0.626636

> <r_epik_State_Penalty>
0.629018

> <r_epik_Charging_Adjusted_Penalty>
0.629018

> <i_epik_Tot_Q>
0

> <i_epik_Tot_abs_Q>
0

> <r_epik_Metal_State_Penalty>
0.606459

> <b_epik_Metal_Only>
0

> <s_lp_Force_Field>
OPLS_2005

> <r_lp_Energy>
67.1263

> <b_lp_Chiralities_Consistent>
1

> <s_lp_Variant>
AV-unprocessed.smi:702-4

> <Gold.Version>
5.8.1

> <Gold.Id.Protein>
6NUR|6NUR_protein|mol2

> <Gold.PLP.Fitness>
45.0238

> <Gold.PLP.PLP>
-33.1019

> <Gold.PLP.part.hbond>
-3.5593

> <Gold.PLP.part.metal>
0.0000

> <Gold.PLP.part.buried>
-2.9657

> <Gold.PLP.part.nonpolar>
-28.3015

> <Gold.PLP.part.repulsive>
0.9153

> <Gold.PLP.ligand.clash>
0.0000

> <Gold.PLP.ligand.torsion>
0.6040

> <Gold.PLP.Chemscore.Hbond>
2.7420

> <Gold.PLP.Chemscore.CHOScore>
1.5921

> <Gold.PLP.Chemscore.Metal>
0.0000

> <Gold.Chemscore.Hbonds>
donor molecule, donor type, donor heavy atom, donor atom, acceptor molecule, acceptor atom, score
      L1  H     3    28       P1  7948  1.00
      L1  H     6    29       P1  7948  0.98
      P1  H 10752 10765       L1    17  0.80
      L1  C     9    31       P1 10747  0.78
      L1  C    11    32       P1 10186  0.95

> <Gold.PLP.Chemscore.Internal.Correction>
0.1277

> <Gold.Rescore>
     Score         DG    S(hbond)    S(metal)    S(lipo)     H(rot)  DE(clash)    DE(int)     intcor
     14.78     -19.74       2.06        0.00      94.07       1.41       1.91       3.05       ----

> <Gold.Chemscore.Fitness>
14.7833

> <Gold.Chemscore.DG>
-19.7405

> <Gold.Chemscore.ZeroCoef>
-5.4800

> <Gold.Chemscore.Hbond>
2.0559

> <Gold.Chemscore.Metal>
0.0000

> <Gold.Chemscore.Lipo>
94.0707

> <Gold.Chemscore.Internal_Hbond>
0.0000

> <Gold.Chemscore.DEClash>
1.9073

> <Gold.Chemscore.DEInternal>
3.0499

> <Gold.Chemscore.Rot>
1.4111

> <Gold.Chemscore.Internal.Correction>
   9.000000E+99

> <Gold.Chemscore.Hbonds>
donor molecule, donor type, donor heavy atom, donor atom, acceptor molecule, acceptor atom, score
      L1  H     3    28       P1  7948  0.99
      L1  H     6    29       P1  7948  0.85
      P1  H 10752 10765       L1    17  0.07
      P1  H 10785 10796       L1    10  0.02

> <Gold.Chemscore.Hbond.Weighted>
-6.8666

> <Gold.Chemscore.Metal.Weighted>
-0.0000

> <Gold.Chemscore.Lipo.Weighted>
-11.0063

> <Gold.Chemscore.Internal_Hbond.Weighted>
0.0000

> <Gold.Chemscore.DEClash.Weighted>
1.9073

> <Gold.Chemscore.DEInternal.Weighted>
3.0499

> <Gold.Chemscore.Rot.Weighted>
3.6123

> <Gold.Chemscore.Internal.Correction.Weighted>
   9.000000E+99

> <Gold.Protein.RotatedTorsions>
[ 6907 6896 6895 6894 ] final  -17.51 input  -60.11 | X-H torsion
[ 7974 7965 7964 7962 ] final -139.73 input  175.53 | X-H torsion
[ 8008 7997 7996 7995 ] final   58.55 input   59.86 | X-H torsion
[ 10167 10162 10161 10158 ] final   25.81 input  -65.29 | X-H torsion
[ 10718 10713 10712 10709 ] final  140.72 input   66.30 | X-H torsion
[ 10763 10752 10751 10750 ] final -160.00 input  -60.55 | X-H torsion
[ 11005 11000 10999 10996 ] final -116.63 input  -57.11 | X-H torsion

> <Gold.Protein.ActiveResidues>
 VAL166  LYS551  ARG553  GLY616  TRP617  ASP618  TYR619  PRO620  LYS621  CYS622 
 ASP623  PHE694  ASN695  SER759  ASP760  ASP761  ALA762  ILE779  LEU786  VAL792 
 PHE793  MET794  SER795  GLU796  ALA797  LYS798  CYS799  TRP800  GLU811  SER814 

> <Gold.Protein.RotatedAtoms>
  151.2922  135.0745  159.9207 H   0  0  0  0  0  0  0  0  0  0  0  0  # atno 6907 bound_to 6896
  152.5314  133.9920  159.7865 H   0  0  0  0  0  0  0  0  0  0  0  0  # atno 6908 bound_to 6896
  151.0192  133.5841  159.2704 H   0  0  0  0  0  0  0  0  0  0  0  0  # atno 6909 bound_to 6896
  144.8654  140.6284  143.5301 H   0  0  0  0  0  0  0  0  0  0  0  0  # atno 7974 bound_to 7965
  155.5518  140.3486  155.4470 H   0  0  0  0  0  0  0  0  0  0  0  0  # atno 8008 bound_to 7997
  156.0577  140.1333  157.0003 H   0  0  0  0  0  0  0  0  0  0  0  0  # atno 8009 bound_to 7997
  154.4464  140.0991  156.6456 H   0  0  0  0  0  0  0  0  0  0  0  0  # atno 8010 bound_to 7997
  140.5075  144.0214  150.6358 H   0  0  0  0  0  0  0  0  0  0  0  0  # atno 10167 bound_to 10162
  157.4001  131.1015  151.0560 H   0  0  0  0  0  0  0  0  0  0  0  0  # atno 10718 bound_to 10713
  154.7427  135.3072  154.8699 H   0  0  0  0  0  0  0  0  0  0  0  0  # atno 10763 bound_to 10752
  153.9509  135.6764  153.4748 H   0  0  0  0  0  0  0  0  0  0  0  0  # atno 10764 bound_to 10752
  153.1025  135.4905  154.8818 H   0  0  0  0  0  0  0  0  0  0  0  0  # atno 10765 bound_to 10752
  141.0409  133.9838  157.2996 H   0  0  0  0  0  0  0  0  0  0  0  0  # atno 11005 bound_to 11000
  145.4232  139.1560  143.4062 LP  0  0  0  0  0  0  0  0  0  0  0  0  # atno 17320 bound_to 7965
  146.2891  140.4344  142.8746 LP  0  0  0  0  0  0  0  0  0  0  0  0  # atno 17321 bound_to 7965
  140.3527  143.2953  152.0469 LP  0  0  0  0  0  0  0  0  0  0  0  0  # atno 17342 bound_to 10162
  139.4887  144.6361  151.6972 LP  0  0  0  0  0  0  0  0  0  0  0  0  # atno 17343 bound_to 10162
  157.1562  130.6205  149.5597 LP  0  0  0  0  0  0  0  0  0  0  0  0  # atno 17370 bound_to 10713
  155.9821  130.4832  150.6863 LP  0  0  0  0  0  0  0  0  0  0  0  0  # atno 17371 bound_to 10713
  139.9275  135.0201  156.8285 LP  0  0  0  0  0  0  0  0  0  0  0  0  # atno 17394 bound_to 11000
  140.6237  133.9970  155.7630 LP  0  0  0  0  0  0  0  0  0  0  0  0  # atno 17395 bound_to 11000

$$$$
