#       Name:                AV-unprocessed.smi:2336
#       Creating user name   scv26
#       Creation time:       Fri Mar 27 12:55:18 2020


#       File generated by GOLD software.
#

@<TRIPOS>MOLECULE
AV-unprocessed.smi:2336
    54    55     1
SMALL
NO_CHARGES


@<TRIPOS>ATOM
      1 ****        -2.1385  -0.9071  -0.5556 C.3            1 S1                 0.0000
      2 ****        -1.4874  -0.5783   0.8008 C.3            1 S1                 0.0000
      3 ****        -2.0537   0.7245   1.3973 C.3            1 S1                 0.0000
      4 ****         0.0840  -0.6510   0.7887 C.3            1 S1                 0.0000
      5 ****         0.6877   0.1024  -0.4395 C.3            1 S1                 0.0000
      6 ****         0.2771   1.4992  -0.5179 N.am           1 S1                 0.0000
      7 ****        -0.0131   2.1661  -1.6436 C.2            1 S1                 0.0000
      8 ****         0.0721   1.6740  -2.7684 O.2            1 S1                 0.0000
      9 ****        -0.3909   3.4265  -1.3699 N.am           1 S1                 0.0000
     10 ****        -0.8429   4.4405  -2.2583 C.ar           1 S1                 0.0000
     11 ****        -1.3254   4.1975  -3.5675 C.ar           1 S1                 0.0000
     12 ****        -1.7667   5.2920  -4.3381 C.ar           1 S1                 0.0000
     13 ****        -1.7620   6.5663  -3.8929 N.ar           1 S1                 0.0000
     14 ****        -1.3119   6.7930  -2.6408 C.ar           1 S1                 0.0000
     15 ****        -0.8488   5.7710  -1.7880 C.ar           1 S1                 0.0000
     16 ****        -0.4156   6.0676  -0.5387 F              1 S1                 0.0000
     17 ****         0.5849  -2.0444   0.9399 N.3            1 S1                 0.0000
     18 ****         0.3086  -2.5984   2.2805 C.3            1 S1                 0.0000
     19 ****         0.7922  -4.0518   2.4301 C.3            1 S1                 0.0000
     20 ****         2.2280  -4.1580   2.2041 N.3            1 S1                 0.0000
     21 ****         2.6945  -5.5275   2.3569 C.3            1 S1                 0.0000
     22 ****         2.5234  -3.6350   0.8761 C.3            1 S1                 0.0000
     23 ****         2.0349  -2.1827   0.7183 C.3            1 S1                 0.0000
     24 ****        -1.9584  -0.1308  -1.2986 H              1 S1                 0.0000
     25 ****        -3.2192  -1.0086  -0.4527 H              1 S1                 0.0000
     26 ****        -1.7591  -1.8480  -0.9548 H              1 S1                 0.0000
     27 ****        -1.8754  -1.3362   1.4725 H              1 S1                 0.0000
     28 ****        -1.9481   1.5781   0.7310 H              1 S1                 0.0000
     29 ****        -1.5680   0.9705   2.3418 H              1 S1                 0.0000
     30 ****        -3.1197   0.6193   1.6005 H              1 S1                 0.0000
     31 ****         0.4315  -0.1030   1.6659 H              1 S1                 0.0000
     32 ****         1.7732   0.1546  -0.3696 H              1 S1                 0.0000
     33 ****         0.4634  -0.4362  -1.3617 H              1 S1                 0.0000
     34 ****         0.1863   1.9904   0.3593 H              1 S1                 0.0000
     35 ****        -0.3249   3.7069  -0.4022 H              1 S1                 0.0000
     36 ****        -1.3798   3.2059  -3.9889 H              1 S1                 0.0000
     37 ****        -2.1413   5.1379  -5.3392 H              1 S1                 0.0000
     38 ****        -1.3240   7.8199  -2.3069 H              1 S1                 0.0000
     39 ****         0.7844  -1.9792   3.0426 H              1 S1                 0.0000
     40 ****        -0.7522  -2.6013   2.5115 H              1 S1                 0.0000
     41 ****         0.5507  -4.4096   3.4315 H              1 S1                 0.0000
     42 ****         0.2518  -4.6923   1.7310 H              1 S1                 0.0000
     43 ****         3.7722  -5.5872   2.2024 H              1 S1                 0.0000
     44 ****         2.2106  -6.1918   1.6396 H              1 S1                 0.0000
     45 ****         2.4819  -5.8982   3.3601 H              1 S1                 0.0000
     46 ****         3.5984  -3.6745   0.6967 H              1 S1                 0.0000
     47 ****         2.0573  -4.2620   0.1141 H              1 S1                 0.0000
     48 ****         2.2950  -1.8842  -0.2961 H              1 S1                 0.0000
     49 ****         2.5845  -1.5292   1.3977 H              1 S1                 0.0000
     50 ****         0.3717   0.7263  -2.8782 LP             1 S1                 0.0000
     51 ****        -0.1584   2.2219  -3.5726 LP             1 S1                 0.0000
     52 ****        -2.0813   7.3171  -4.4713 LP             1 S1                 0.0000
     53 ****         0.0884  -2.5479   0.2328 LP             1 S1                 0.0000
     54 ****         2.7157  -3.6198   2.8915 LP             1 S1                 0.0000
@<TRIPOS>BOND
    1    1    2 1     
    2    1   24 1     
    3    1   25 1     
    4    1   26 1     
    5    2    3 1     
    6    2    4 1     
    7    2   27 1     
    8    3   28 1     
    9    3   29 1     
   10    3   30 1     
   11    4    5 1     
   12    4   17 1     
   13    4   31 1     
   14    5    6 1     
   15    5   32 1     
   16    5   33 1     
   17    6    7 am    
   18    6   34 1     
   19    7    8 2     
   20    7    9 am    
   21    9   10 1     
   22    9   35 1     
   23   10   15 ar    
   24   10   11 ar    
   25   11   12 ar    
   26   11   36 1     
   27   12   13 ar    
   28   12   37 1     
   29   13   14 ar    
   30   14   15 ar    
   31   14   38 1     
   32   15   16 1     
   33   17   23 1     
   34   17   18 1     
   35   18   19 1     
   36   18   39 1     
   37   18   40 1     
   38   19   20 1     
   39   19   41 1     
   40   19   42 1     
   41   20   21 1     
   42   20   22 1     
   43   21   43 1     
   44   21   44 1     
   45   21   45 1     
   46   22   23 1     
   47   22   46 1     
   48   22   47 1     
   49   23   48 1     
   50   23   49 1     
   51    8   50 1     
   52    8   51 1     
   53   13   52 1     
   54   17   53 1     
   55   20   54 1     
@<TRIPOS>SUBSTRUCTURE
      1 S1             1
@<TRIPOS>SET
LONE_PAIRS      STATIC     ATOMS    <user>   **** ""
5 50 51 52 53 54
DONOR_HYDROGENS      STATIC     ATOMS    <user>   **** ""
2 34 35
ATOM$BLUE        STATIC     ATOMS    COLORGROUP SYSTEM
5 50 51 52 53 54
ATOM$RED        STATIC     ATOMS    COLORGROUP SYSTEM
2 34 35
