AV-unprocessed.smi:2978|AV-procd|sdf|11369|dock4
  -GOLD-   2272016283D 1   1.00000     0.00000
 Structure written by MMmdl.
 32 33  0  0  0  0  0  0  0  0  1 V2000
  154.2746  140.1750  157.0310 O   0  0  0  0  0  0  0  0  0  0  0  0
  153.1122  140.2685  156.6337 C   0  0  0  0  0  0  0  0  0  0  0  0
  152.7365  139.8641  155.2005 C   0  0  0  0  0  0  0  0  0  0  0  0
  151.2852  139.8341  154.9667 N   0  0  0  0  0  0  0  0  0  0  0  0
  150.6197  140.9668  155.4021 N   0  0  0  0  0  0  0  0  0  0  0  0
  149.3455  141.0576  155.2341 C   0  0  0  0  0  0  0  0  0  0  0  0
  148.5745  140.0083  154.6049 C   0  0  0  0  0  0  0  0  0  0  0  0
  146.8667  140.1869  154.4066 Cl  0  0  0  0  0  0  0  0  0  0  0  0
  149.2353  138.8993  154.1877 C   0  0  0  0  0  0  0  0  0  0  0  0
  148.3807  137.6005  153.4280 Cl  0  0  0  0  0  0  0  0  0  0  0  0
  150.6878  138.7604  154.3631 C   0  0  0  0  0  0  0  0  0  0  0  0
  151.3233  137.7696  154.0007 O   0  0  0  0  0  0  0  0  0  0  0  0
  152.1111  140.7324  157.3963 N   0  0  0  0  0  0  0  0  0  0  0  0
  152.2406  141.1457  158.7885 C   0  0  0  0  0  0  0  0  0  0  0  0
  151.2758  142.2948  159.1245 C   0  0  1  0  0  0  0  0  0  0  0  0
  151.8141  143.2693  160.1662 C   0  0  0  0  0  0  0  0  0  0  0  0
  150.9540  144.4936  159.9255 C   0  0  0  0  0  0  0  0  0  0  0  0
  150.6213  144.4083  158.4327 C   0  0  0  0  0  0  0  0  0  0  0  0
  151.0752  143.1309  157.9939 O   0  0  0  0  0  0  0  0  0  0  0  0
  153.2111  140.5445  154.4906 H   0  0  0  0  0  0  0  0  0  0  0  0
  153.1729  138.8836  155.0021 H   0  0  0  0  0  0  0  0  0  0  0  0
  148.7799  141.9314  155.5580 H   0  0  0  0  0  0  0  0  0  0  0  0
  151.1869  140.7777  156.9923 H   0  0  0  0  0  0  0  0  0  0  0  0
  152.0588  140.2943  159.4463 H   0  0  0  0  0  0  0  0  0  0  0  0
  153.2709  141.4570  158.9623 H   0  0  0  0  0  0  0  0  0  0  0  0
  150.3097  141.9080  159.4546 H   0  0  0  0  0  0  0  0  0  0  0  0
  151.7381  142.8884  161.1852 H   0  0  0  0  0  0  0  0  0  0  0  0
  152.8606  143.5036  159.9647 H   0  0  0  0  0  0  0  0  0  0  0  0
  150.0383  144.4275  160.5142 H   0  0  0  0  0  0  0  0  0  0  0  0
  151.4616  145.4207  160.1936 H   0  0  0  0  0  0  0  0  0  0  0  0
  149.5481  144.5048  158.2648 H   0  0  0  0  0  0  0  0  0  0  0  0
  151.1250  145.1879  157.8608 H   0  0  0  0  0  0  0  0  0  0  0  0
  1  2  2  0  0  0  0
  2  3  1  0  0  0  0
  2 13  1  0  0  0  0
  3  4  1  0  0  0  0
  3 20  1  0  0  0  0
  3 21  1  0  0  0  0
  4 11  1  0  0  0  0
  4  5  1  0  0  0  0
  5  6  2  0  0  0  0
  6  7  1  0  0  0  0
  6 22  1  0  0  0  0
  7  8  1  0  0  0  0
  7  9  2  0  0  0  0
  9 10  1  0  0  0  0
  9 11  1  0  0  0  0
 11 12  2  0  0  0  0
 13 14  1  0  0  0  0
 13 23  1  0  0  0  0
 14 15  1  0  0  0  0
 14 24  1  0  0  0  0
 14 25  1  0  0  0  0
 15 19  1  0  0  0  0
 15 16  1  0  0  0  0
 15 26  1  0  0  0  0
 16 17  1  0  0  0  0
 16 27  1  0  0  0  0
 16 28  1  0  0  0  0
 17 18  1  0  0  0  0
 17 29  1  0  0  0  0
 17 30  1  0  0  0  0
 18 19  1  0  0  0  0
 18 31  1  0  0  0  0
 18 32  1  0  0  0  0
M  END
> <s_m_source_file>
AV-unprocessed.smi

> <i_m_source_file_index>
2978

> <i_lp_mmshare_version>
43012

> <i_f3d_flags>
0

> <s_epik_input>
TzFbQ0gyXVtDSDJdW0NIMl1bQ0BIXTFbQ0gyXVtOSF1DKD1PKVtDSDJdbjJuW2NIXWMoQ2wpYyhDbCljMj1P

> <s_epik_cmdline>
J2VwaWtfcHl0aG9uJywgJy1waCcsICc3LjAnLCAnLXRuJywgJzgnLCAnLW1hJywgJzIwMCcsICctbWV0YWxfYmluZGluZycsICctaW1hZScsICc8aW5maWxlLm1hZT4nLCAnLW9tYWUnLCAnPG91dGZpbGUubWFlPic=

> <r_lp_tautomer_probability>
1

> <r_epik_Ionization_Penalty>
2.68881e-08

> <r_epik_Ionization_Penalty_Charging>
2.90862e-11

> <r_epik_Ionization_Penalty_Neutral>
2.6859e-08

> <r_epik_State_Penalty>
-0

> <r_epik_Charging_Adjusted_Penalty>
2.90862e-11

> <i_epik_Tot_Q>
0

> <i_epik_Tot_abs_Q>
0

> <r_epik_Metal_State_Penalty>
-0

> <b_epik_Metal_Only>
0

> <s_lp_Force_Field>
OPLS_2005

> <r_lp_Energy>
30.853

> <b_lp_Chiralities_Consistent>
1

> <s_lp_Variant>
AV-unprocessed.smi:2978-2

> <Gold.Version>
5.8.1

> <Gold.Id.Protein>
6NUR|6NUR_protein|mol2

> <Gold.PLP.Fitness>
44.2579

> <Gold.PLP.PLP>
-39.7622

> <Gold.PLP.part.hbond>
-2.0000

> <Gold.PLP.part.metal>
0.0000

> <Gold.PLP.part.buried>
-0.6328

> <Gold.PLP.part.nonpolar>
-36.9583

> <Gold.PLP.part.repulsive>
0.4095

> <Gold.PLP.ligand.clash>
0.0000

> <Gold.PLP.ligand.torsion>
0.7659

> <Gold.PLP.Chemscore.Hbond>
1.0000

> <Gold.PLP.Chemscore.CHOScore>
1.0000

> <Gold.PLP.Chemscore.Metal>
0.0000

> <Gold.Chemscore.Hbonds>
donor molecule, donor type, donor heavy atom, donor atom, acceptor molecule, acceptor atom, score
      L1  C     6    22       P1  8028  0.36

> <Gold.PLP.Chemscore.Internal.Correction>
0.0275

> <Gold.Rescore>
     Score         DG    S(hbond)    S(metal)    S(lipo)     H(rot)  DE(clash)    DE(int)     intcor
     10.58     -11.66       0.00        0.00      92.92       1.83       0.27       0.81       ----

> <Gold.Chemscore.Fitness>
10.5799

> <Gold.Chemscore.DG>
-11.6635

> <Gold.Chemscore.ZeroCoef>
-5.4800

> <Gold.Chemscore.Hbond>
0.0004

> <Gold.Chemscore.Metal>
0.0000

> <Gold.Chemscore.Lipo>
92.9237

> <Gold.Chemscore.Internal_Hbond>
0.0000

> <Gold.Chemscore.DEClash>
0.2747

> <Gold.Chemscore.DEInternal>
0.8088

> <Gold.Chemscore.Rot>
1.8320

> <Gold.Chemscore.Internal.Correction>
   9.000000E+99

> <Gold.Chemscore.Hbond.Weighted>
-0.0014

> <Gold.Chemscore.Metal.Weighted>
-0.0000

> <Gold.Chemscore.Lipo.Weighted>
-10.8721

> <Gold.Chemscore.Internal_Hbond.Weighted>
0.0000

> <Gold.Chemscore.DEClash.Weighted>
0.2747

> <Gold.Chemscore.DEInternal.Weighted>
0.8088

> <Gold.Chemscore.Rot.Weighted>
4.6900

> <Gold.Chemscore.Internal.Correction.Weighted>
   9.000000E+99

> <Gold.Protein.RotatedTorsions>
[ 6907 6896 6895 6894 ] final  -56.60 input  -60.11 | X-H torsion
[ 7974 7965 7964 7962 ] final -104.02 input  175.53 | X-H torsion
[ 8008 7997 7996 7995 ] final   20.52 input   59.86 | X-H torsion
[ 10167 10162 10161 10158 ] final  -82.40 input  -65.29 | X-H torsion
[ 10718 10713 10712 10709 ] final   84.74 input   66.30 | X-H torsion
[ 10763 10752 10751 10750 ] final -157.45 input  -60.55 | X-H torsion
[ 11005 11000 10999 10996 ] final   99.21 input  -57.11 | X-H torsion

> <Gold.Protein.ActiveResidues>
 VAL166  LYS551  ARG553  GLY616  TRP617  ASP618  TYR619  PRO620  LYS621  CYS622 
 ASP623  PHE694  ASN695  SER759  ASP760  ASP761  ALA762  ILE779  LEU786  VAL792 
 PHE793  MET794  SER795  GLU796  ALA797  LYS798  CYS799  TRP800  GLU811  SER814 

> <Gold.Protein.RotatedAtoms>
  150.8154  134.7333  159.6725 H   0  0  0  0  0  0  0  0  0  0  0  0  # atno 6907 bound_to 6896
  152.4273  134.5841  159.9966 H   0  0  0  0  0  0  0  0  0  0  0  0  # atno 6908 bound_to 6896
  151.6039  133.3316  159.3089 H   0  0  0  0  0  0  0  0  0  0  0  0  # atno 6909 bound_to 6896
  145.2485  140.9230  143.3109 H   0  0  0  0  0  0  0  0  0  0  0  0  # atno 7974 bound_to 7965
  154.9368  140.3048  155.5140 H   0  0  0  0  0  0  0  0  0  0  0  0  # atno 8008 bound_to 7997
  156.2999  140.2343  156.4370 H   0  0  0  0  0  0  0  0  0  0  0  0  # atno 8009 bound_to 7997
  154.8184  140.0424  157.1381 H   0  0  0  0  0  0  0  0  0  0  0  0  # atno 8010 bound_to 7997
  140.4323  143.2544  151.8742 H   0  0  0  0  0  0  0  0  0  0  0  0  # atno 10167 bound_to 10162
  157.6903  131.0146  150.2718 H   0  0  0  0  0  0  0  0  0  0  0  0  # atno 10718 bound_to 10713
  154.7635  135.3124  154.8332 H   0  0  0  0  0  0  0  0  0  0  0  0  # atno 10763 bound_to 10752
  153.9086  135.6808  153.4756 H   0  0  0  0  0  0  0  0  0  0  0  0  # atno 10764 bound_to 10752
  153.1238  135.4810  154.9171 H   0  0  0  0  0  0  0  0  0  0  0  0  # atno 10765 bound_to 10752
  139.8771  134.9085  156.4571 H   0  0  0  0  0  0  0  0  0  0  0  0  # atno 11005 bound_to 11000
  144.9524  139.4068  143.6396 LP  0  0  0  0  0  0  0  0  0  0  0  0  # atno 17320 bound_to 7965
  146.3309  139.8538  142.8868 LP  0  0  0  0  0  0  0  0  0  0  0  0  # atno 17321 bound_to 7965
  139.4785  144.5321  151.8651 LP  0  0  0  0  0  0  0  0  0  0  0  0  # atno 17342 bound_to 10162
  140.4413  144.1982  150.5891 LP  0  0  0  0  0  0  0  0  0  0  0  0  # atno 17343 bound_to 10162
  156.3280  130.3796  149.7516 LP  0  0  0  0  0  0  0  0  0  0  0  0  # atno 17370 bound_to 10713
  156.5065  130.8153  151.3153 LP  0  0  0  0  0  0  0  0  0  0  0  0  # atno 17371 bound_to 10713
  140.8890  133.7862  155.9551 LP  0  0  0  0  0  0  0  0  0  0  0  0  # atno 17394 bound_to 11000
  140.8773  134.2653  157.5161 LP  0  0  0  0  0  0  0  0  0  0  0  0  # atno 17395 bound_to 11000

$$$$
