AV-unprocessed.smi:2168|AV-procd|sdf|8821|dock10
  -GOLD-   2272012 13D 1   1.00000     0.00000
 Structure written by MMmdl.
 46 47  0  0  0  0  0  0  0  0  3 V2000
  151.3785  143.7451  158.4834 C   0  0  0  0  0  0  0  0  0  0  0  0
  151.0922  142.2482  158.2810 C   0  0  0  0  0  0  0  0  0  0  0  0
  152.0897  141.3747  158.9319 N   0  0  0  0  0  0  0  0  0  0  0  0
  152.4464  141.6936  160.3292 C   0  0  0  0  0  0  0  0  0  0  0  0
  153.9194  141.4038  160.6554 C   0  0  0  0  0  0  0  0  0  0  0  0
  152.4900  139.8208  158.2541 S   0  0  0  0  0  0  0  0  0  0  0  0
  153.9599  139.7351  158.2546 O   0  0  0  0  0  0  0  0  0  0  0  0
  151.7428  138.8228  159.0369 O   0  0  0  0  0  0  0  0  0  0  0  0
  151.8609  140.0692  156.7818 N   0  5  0  0  0  0  0  0  0  0  0  0
  152.4576  139.4111  155.6377 C   0  0  0  0  0  0  0  0  0  0  0  0
  151.8047  138.0609  155.3894 C   0  0  0  0  0  0  0  0  0  0  0  0
  152.0657  136.9613  156.2373 C   0  0  0  0  0  0  0  0  0  0  0  0
  151.4294  135.7265  155.9919 C   0  0  0  0  0  0  0  0  0  0  0  0
  150.5349  135.5944  154.8992 C   0  0  0  0  0  0  0  0  0  0  0  0
  149.8435  134.4019  154.5867 N   0  0  0  0  0  0  0  0  0  0  0  0
  150.3370  133.5874  153.4793 C   0  0  0  0  0  0  0  0  0  0  0  0
  149.6755  132.1989  153.4892 C   0  0  0  0  0  0  0  0  0  0  0  0
  148.2601  132.3405  153.4956 O   0  0  0  0  0  0  0  0  0  0  0  0
  147.8056  133.0112  154.6648 C   0  0  0  0  0  0  0  0  0  0  0  0
  148.3857  134.4347  154.7049 C   0  0  0  0  0  0  0  0  0  0  0  0
  150.3212  136.6808  154.1170 N   0  3  0  0  0  0  0  0  0  0  0  0
  150.9067  137.8823  154.3155 C   0  0  0  0  0  0  0  0  0  0  0  0
  150.6631  144.3495  157.9261 H   0  0  0  0  0  0  0  0  0  0  0  0
  152.3764  144.0198  158.1443 H   0  0  0  0  0  0  0  0  0  0  0  0
  151.2931  144.0298  159.5319 H   0  0  0  0  0  0  0  0  0  0  0  0
  150.1066  142.0104  158.6815 H   0  0  0  0  0  0  0  0  0  0  0  0
  151.0470  142.0213  157.2155 H   0  0  0  0  0  0  0  0  0  0  0  0
  152.2315  142.7429  160.5289 H   0  0  0  0  0  0  0  0  0  0  0  0
  151.8025  141.1205  160.9969 H   0  0  0  0  0  0  0  0  0  0  0  0
  154.1506  141.7122  161.6749 H   0  0  0  0  0  0  0  0  0  0  0  0
  154.5929  141.9432  159.9901 H   0  0  0  0  0  0  0  0  0  0  0  0
  154.1470  140.3408  160.5808 H   0  0  0  0  0  0  0  0  0  0  0  0
  152.3610  140.0076  154.7298 H   0  0  0  0  0  0  0  0  0  0  0  0
  153.5276  139.2520  155.7742 H   0  0  0  0  0  0  0  0  0  0  0  0
  152.7409  137.0487  157.0779 H   0  0  0  0  0  0  0  0  0  0  0  0
  151.6482  134.9016  156.6520 H   0  0  0  0  0  0  0  0  0  0  0  0
  150.1297  134.0972  152.5376 H   0  0  0  0  0  0  0  0  0  0  0  0
  151.4165  133.4549  153.5539 H   0  0  0  0  0  0  0  0  0  0  0  0
  149.9725  131.6361  152.6043 H   0  0  0  0  0  0  0  0  0  0  0  0
  149.9980  131.6203  154.3565 H   0  0  0  0  0  0  0  0  0  0  0  0
  146.7166  133.0508  154.6508 H   0  0  0  0  0  0  0  0  0  0  0  0
  148.0913  132.4490  155.5555 H   0  0  0  0  0  0  0  0  0  0  0  0
  148.0679  134.9115  155.6320 H   0  0  0  0  0  0  0  0  0  0  0  0
  147.9797  135.0270  153.8840 H   0  0  0  0  0  0  0  0  0  0  0  0
  150.6273  138.6557  153.6130 H   0  0  0  0  0  0  0  0  0  0  0  0
  149.6724  136.5908  153.3355 H   0  0  0  0  0  0  0  0  0  0  0  0
  1  2  1  0  0  0  0
  1 23  1  0  0  0  0
  1 24  1  0  0  0  0
  1 25  1  0  0  0  0
  2  3  1  0  0  0  0
  2 26  1  0  0  0  0
  2 27  1  0  0  0  0
  3  4  1  0  0  0  0
  3  6  1  0  0  0  0
  4  5  1  0  0  0  0
  4 28  1  0  0  0  0
  4 29  1  0  0  0  0
  5 30  1  0  0  0  0
  5 31  1  0  0  0  0
  5 32  1  0  0  0  0
  6  7  2  0  0  0  0
  6  8  2  0  0  0  0
  6  9  1  0  0  0  0
  9 10  1  0  0  0  0
 10 11  1  0  0  0  0
 10 33  1  0  0  0  0
 10 34  1  0  0  0  0
 11 22  1  0  0  0  0
 11 12  2  0  0  0  0
 12 13  1  0  0  0  0
 12 35  1  0  0  0  0
 13 14  2  0  0  0  0
 13 36  1  0  0  0  0
 14 15  1  0  0  0  0
 14 21  1  0  0  0  0
 15 20  1  0  0  0  0
 15 16  1  0  0  0  0
 16 17  1  0  0  0  0
 16 37  1  0  0  0  0
 16 38  1  0  0  0  0
 17 18  1  0  0  0  0
 17 39  1  0  0  0  0
 17 40  1  0  0  0  0
 18 19  1  0  0  0  0
 19 20  1  0  0  0  0
 19 41  1  0  0  0  0
 19 42  1  0  0  0  0
 20 43  1  0  0  0  0
 20 44  1  0  0  0  0
 21 22  2  0  0  0  0
 21 46  1  0  0  0  0
 22 45  1  0  0  0  0
M  CHG  1   9  -1
M  CHG  1  21   1
M  END
> <s_m_source_file>
AV-unprocessed.smi

> <i_m_source_file_index>
2168

> <i_lp_mmshare_version>
43012

> <i_f3d_flags>
0

> <s_epik_input>
W0NIM11bQ0gyXU4oW0NIMl1bQ0gzXSlTKD1PKSg9TylbTkhdW0NIMl1jMVtjSF1bY0hdYyhuW2NIXTEpTjJbQ0gyXVtDSDJdT1tDSDJdW0NIMl0y

> <s_epik_cmdline>
J2VwaWtfcHl0aG9uJywgJy1waCcsICc3LjAnLCAnLXRuJywgJzgnLCAnLW1hJywgJzIwMCcsICctbWV0YWxfYmluZGluZycsICctaW1hZScsICc8aW5maWxlLm1hZT4nLCAnLW9tYWUnLCAnPG91dGZpbGUubWFlPic=

> <r_lp_tautomer_probability>
0.999994

> <r_epik_Ionization_Penalty>
2.67026

> <r_epik_Ionization_Penalty_Charging>
2.67026

> <r_epik_Ionization_Penalty_Neutral>
4.07977e-08

> <r_epik_State_Penalty>
4.05768

> <r_epik_Charging_Adjusted_Penalty>
6.72795

> <i_epik_Tot_Q>
0

> <i_epik_Tot_abs_Q>
2

> <r_epik_Metal_State_Penalty>
2.91237

> <b_epik_Metal_Only>
1

> <s_lp_Force_Field>
OPLS_2005

> <r_lp_Energy>
13.0843

> <b_lp_Chiralities_Consistent>
1

> <s_lp_Variant>
AV-unprocessed.smi:2168-4

> <Gold.Version>
5.8.1

> <Gold.Id.Protein>
6NUR|6NUR_protein|mol2

> <Gold.PLP.Fitness>
44.1734

> <Gold.PLP.PLP>
-37.1639

> <Gold.PLP.part.hbond>
-2.9248

> <Gold.PLP.part.metal>
0.0000

> <Gold.PLP.part.buried>
-3.7974

> <Gold.PLP.part.nonpolar>
-31.3579

> <Gold.PLP.part.repulsive>
0.2497

> <Gold.PLP.ligand.clash>
0.0000

> <Gold.PLP.ligand.torsion>
2.8865

> <Gold.PLP.Chemscore.Hbond>
2.9760

> <Gold.PLP.Chemscore.CHOScore>
0.0000

> <Gold.PLP.Chemscore.Metal>
0.0000

> <Gold.Chemscore.Hbonds>
donor molecule, donor type, donor heavy atom, donor atom, acceptor molecule, acceptor atom, score
      L1  H    21    46       P1  7948  2.00
      P1  H  7997  8008       L1     7  0.74

> <Gold.PLP.Chemscore.Internal.Correction>
3.8545

> <Gold.Rescore>
     Score         DG    S(hbond)    S(metal)    S(lipo)     H(rot)  DE(clash)    DE(int)     intcor
     12.94     -16.90       1.86        0.00      82.20       1.72       0.00       3.97       ----

> <Gold.Chemscore.Fitness>
12.9375

> <Gold.Chemscore.DG>
-16.9026

> <Gold.Chemscore.ZeroCoef>
-5.4800

> <Gold.Chemscore.Hbond>
1.8556

> <Gold.Chemscore.Metal>
0.0000

> <Gold.Chemscore.Lipo>
82.1994

> <Gold.Chemscore.Internal_Hbond>
0.0000

> <Gold.Chemscore.DEClash>
0.0000

> <Gold.Chemscore.DEInternal>
3.9651

> <Gold.Chemscore.Rot>
1.7159

> <Gold.Chemscore.Internal.Correction>
   9.000000E+99

> <Gold.Chemscore.Hbonds>
donor molecule, donor type, donor heavy atom, donor atom, acceptor molecule, acceptor atom, score
      L1  H    21    46       P1  7948  0.45
      P1  H  7997  8008       L1     7  0.71

> <Gold.Chemscore.Hbond.Weighted>
-6.1978

> <Gold.Chemscore.Metal.Weighted>
-0.0000

> <Gold.Chemscore.Lipo.Weighted>
-9.6173

> <Gold.Chemscore.Internal_Hbond.Weighted>
0.0000

> <Gold.Chemscore.DEClash.Weighted>
0.0000

> <Gold.Chemscore.DEInternal.Weighted>
3.9651

> <Gold.Chemscore.Rot.Weighted>
4.3926

> <Gold.Chemscore.Internal.Correction.Weighted>
   9.000000E+99

> <Gold.Protein.RotatedTorsions>
[ 6907 6896 6895 6894 ] final   40.85 input  -60.11 | X-H torsion
[ 7974 7965 7964 7962 ] final  149.83 input  175.53 | X-H torsion
[ 8008 7997 7996 7995 ] final -116.40 input   59.86 | X-H torsion
[ 10167 10162 10161 10158 ] final  127.04 input  -65.29 | X-H torsion
[ 10718 10713 10712 10709 ] final  -40.26 input   66.30 | X-H torsion
[ 10763 10752 10751 10750 ] final -120.04 input  -60.55 | X-H torsion
[ 11005 11000 10999 10996 ] final   77.72 input  -57.11 | X-H torsion

> <Gold.Protein.ActiveResidues>
 VAL166  LYS551  ARG553  GLY616  TRP617  ASP618  TYR619  PRO620  LYS621  CYS622 
 ASP623  PHE694  ASN695  SER759  ASP760  ASP761  ALA762  ILE779  LEU786  VAL792 
 PHE793  MET794  SER795  GLU796  ALA797  LYS798  CYS799  TRP800  GLU811  SER814 

> <Gold.Protein.RotatedAtoms>
  152.1878  134.8698  160.0520 H   0  0  0  0  0  0  0  0  0  0  0  0  # atno 6907 bound_to 6896
  151.9598  133.3687  159.4039 H   0  0  0  0  0  0  0  0  0  0  0  0  # atno 6908 bound_to 6896
  150.6929  134.4176  159.5234 H   0  0  0  0  0  0  0  0  0  0  0  0  # atno 6909 bound_to 6896
  144.8409  139.6330  143.6017 H   0  0  0  0  0  0  0  0  0  0  0  0  # atno 7974 bound_to 7965
  155.0673  140.0393  157.2597 H   0  0  0  0  0  0  0  0  0  0  0  0  # atno 8008 bound_to 7997
  154.7011  140.2673  155.6694 H   0  0  0  0  0  0  0  0  0  0  0  0  # atno 8009 bound_to 7997
  156.2760  140.2740  156.1622 H   0  0  0  0  0  0  0  0  0  0  0  0  # atno 8010 bound_to 7997
  139.5599  144.6875  151.4072 H   0  0  0  0  0  0  0  0  0  0  0  0  # atno 10167 bound_to 10162
  156.2833  130.4219  149.8314 H   0  0  0  0  0  0  0  0  0  0  0  0  # atno 10718 bound_to 10713
  154.8633  135.4217  154.2395 H   0  0  0  0  0  0  0  0  0  0  0  0  # atno 10763 bound_to 10752
  153.3363  135.6991  153.6910 H   0  0  0  0  0  0  0  0  0  0  0  0  # atno 10764 bound_to 10752
  153.5906  135.3555  155.2882 H   0  0  0  0  0  0  0  0  0  0  0  0  # atno 10765 bound_to 10752
  139.9242  134.7706  156.1558 H   0  0  0  0  0  0  0  0  0  0  0  0  # atno 11005 bound_to 11000
  146.2701  139.6616  142.9301 LP  0  0  0  0  0  0  0  0  0  0  0  0  # atno 17320 bound_to 7965
  145.4696  141.0435  143.2706 LP  0  0  0  0  0  0  0  0  0  0  0  0  # atno 17321 bound_to 7965
  140.6878  143.7934  150.7211 LP  0  0  0  0  0  0  0  0  0  0  0  0  # atno 17342 bound_to 10162
  140.1406  143.4444  152.2196 LP  0  0  0  0  0  0  0  0  0  0  0  0  # atno 17343 bound_to 10162
  156.5754  130.8443  151.3368 LP  0  0  0  0  0  0  0  0  0  0  0  0  # atno 17370 bound_to 10713
  157.7321  130.9710  150.1911 LP  0  0  0  0  0  0  0  0  0  0  0  0  # atno 17371 bound_to 10713
  141.0788  133.6763  156.2292 LP  0  0  0  0  0  0  0  0  0  0  0  0  # atno 17394 bound_to 11000
  140.6383  134.5192  157.5567 LP  0  0  0  0  0  0  0  0  0  0  0  0  # atno 17395 bound_to 11000

$$$$
