AV-unprocessed.smi:2460|AV-procd|sdf|9715|dock8
  -GOLD-   2272013353D 1   1.00000     0.00000
 Structure written by MMmdl.
 46 48  0  0  0  0  0  0  0  0  1 V2000
  139.1597  141.1631  156.7361 C   0  0  0  0  0  0  0  0  0  0  0  0
  139.1261  140.6462  155.2877 C   0  0  0  0  0  0  0  0  0  0  0  0
  138.0854  141.4092  154.4540 C   0  0  0  0  0  0  0  0  0  0  0  0
  140.5163  140.6636  154.6398 C   0  0  0  0  0  0  0  0  0  0  0  0
  141.0688  139.2913  154.9706 C   0  0  2  0  0  0  0  0  0  0  0  0
  142.1034  138.8835  154.0221 N   0  0  0  0  0  0  0  0  0  0  0  0
  142.5597  137.6330  153.8701 C   0  0  0  0  0  0  0  0  0  0  0  0
  142.1767  136.6816  154.5502 O   0  0  0  0  0  0  0  0  0  0  0  0
  143.4573  137.5625  152.8731 N   0  0  0  0  0  0  0  0  0  0  0  0
  144.1276  136.4119  152.3800 C   0  0  0  0  0  0  0  0  0  0  0  0
  143.7133  135.1363  152.8171 C   0  0  0  0  0  0  0  0  0  0  0  0
  144.3047  134.0035  152.3811 N   0  0  0  0  0  0  0  0  0  0  0  0
  145.3081  134.1440  151.5103 C   0  0  0  0  0  0  0  0  0  0  0  0
  145.9431  132.8854  151.0066 C   0  0  0  0  0  0  0  0  0  0  0  0
  145.1826  131.9441  150.0949 C   0  0  0  0  0  0  0  0  0  0  0  0
  145.4837  131.5315  151.5087 C   0  0  0  0  0  0  0  0  0  0  0  0
  145.7664  135.2914  151.0024 N   0  0  0  0  0  0  0  0  0  0  0  0
  145.1824  136.4298  151.4345 C   0  0  0  0  0  0  0  0  0  0  0  0
  139.8041  138.4054  154.9334 C   0  0  0  0  0  0  0  0  0  0  0  0
  139.4322  137.8857  153.5283 C   0  0  0  0  0  0  0  0  0  0  0  0
  139.8731  137.2464  155.9402 C   0  0  0  0  0  0  0  0  0  0  0  0
  138.7454  139.2721  155.3379 O   0  0  0  0  0  0  0  0  0  0  0  0
  139.4545  142.2120  156.7747 H   0  0  0  0  0  0  0  0  0  0  0  0
  139.8641  140.5978  157.3467 H   0  0  0  0  0  0  0  0  0  0  0  0
  138.1794  141.0771  157.2056 H   0  0  0  0  0  0  0  0  0  0  0  0
  138.3480  142.4635  154.3648 H   0  0  0  0  0  0  0  0  0  0  0  0
  137.0961  141.3493  154.9086 H   0  0  0  0  0  0  0  0  0  0  0  0
  138.0087  140.9992  153.4465 H   0  0  0  0  0  0  0  0  0  0  0  0
  140.4286  140.7795  153.5584 H   0  0  0  0  0  0  0  0  0  0  0  0
  141.1494  141.4735  155.0036 H   0  0  0  0  0  0  0  0  0  0  0  0
  141.4743  139.3267  155.9839 H   0  0  0  0  0  0  0  0  0  0  0  0
  142.4734  139.6021  153.4175 H   0  0  0  0  0  0  0  0  0  0  0  0
  143.6190  138.4149  152.3570 H   0  0  0  0  0  0  0  0  0  0  0  0
  142.9064  135.0208  153.5258 H   0  0  0  0  0  0  0  0  0  0  0  0
  147.0065  133.0244  150.8209 H   0  0  0  0  0  0  0  0  0  0  0  0
  144.1502  132.1913  149.8552 H   0  0  0  0  0  0  0  0  0  0  0  0
  145.7420  131.4576  149.2987 H   0  0  0  0  0  0  0  0  0  0  0  0
  146.2439  130.7680  151.6594 H   0  0  0  0  0  0  0  0  0  0  0  0
  144.6512  131.5039  152.2093 H   0  0  0  0  0  0  0  0  0  0  0  0
  145.5593  137.3415  150.9979 H   0  0  0  0  0  0  0  0  0  0  0  0
  140.1664  137.1705  153.1565 H   0  0  0  0  0  0  0  0  0  0  0  0
  139.3609  138.6973  152.8041 H   0  0  0  0  0  0  0  0  0  0  0  0
  138.4668  137.3793  153.5436 H   0  0  0  0  0  0  0  0  0  0  0  0
  140.6645  136.5430  155.6813 H   0  0  0  0  0  0  0  0  0  0  0  0
  138.9349  136.6919  155.9673 H   0  0  0  0  0  0  0  0  0  0  0  0
  140.0683  137.6103  156.9492 H   0  0  0  0  0  0  0  0  0  0  0  0
  1  2  1  0  0  0  0
  1 23  1  0  0  0  0
  1 24  1  0  0  0  0
  1 25  1  0  0  0  0
  2 22  1  0  0  0  0
  2  3  1  0  0  0  0
  2  4  1  0  0  0  0
  3 26  1  0  0  0  0
  3 27  1  0  0  0  0
  3 28  1  0  0  0  0
  4  5  1  0  0  0  0
  4 29  1  0  0  0  0
  4 30  1  0  0  0  0
  5  6  1  0  0  0  0
  5 19  1  0  0  0  0
  5 31  1  0  0  0  0
  6  7  1  0  0  0  0
  6 32  1  0  0  0  0
  7  8  2  0  0  0  0
  7  9  1  0  0  0  0
  9 10  1  0  0  0  0
  9 33  1  0  0  0  0
 10 18  1  0  0  0  0
 10 11  2  0  0  0  0
 11 12  1  0  0  0  0
 11 34  1  0  0  0  0
 12 13  2  0  0  0  0
 13 14  1  0  0  0  0
 13 17  1  0  0  0  0
 14 16  1  0  0  0  0
 14 15  1  0  0  0  0
 14 35  1  0  0  0  0
 15 16  1  0  0  0  0
 15 36  1  0  0  0  0
 15 37  1  0  0  0  0
 16 38  1  0  0  0  0
 16 39  1  0  0  0  0
 17 18  2  0  0  0  0
 18 40  1  0  0  0  0
 19 20  1  0  0  0  0
 19 21  1  0  0  0  0
 19 22  1  0  0  0  0
 20 41  1  0  0  0  0
 20 42  1  0  0  0  0
 20 43  1  0  0  0  0
 21 44  1  0  0  0  0
 21 45  1  0  0  0  0
 21 46  1  0  0  0  0
M  END
> <s_m_source_file>
AV-unprocessed.smi

> <i_m_source_file_index>
2460

> <i_lp_mmshare_version>
43012

> <i_f3d_flags>
0

> <s_epik_input>
W0NIM11DMShbQ0gzXSlbQ0gyXVtDQEhdKEMoTzEpKFtDSDNdKVtDSDNdKVtOSF1DKD1PKVtOSF1jMltjSF1uYyhuW2NIXTIpW0NIXTNbQ0gyXVtDSDJdMw==

> <s_epik_cmdline>
J2VwaWtfcHl0aG9uJywgJy1waCcsICc3LjAnLCAnLXRuJywgJzgnLCAnLW1hJywgJzIwMCcsICctbWV0YWxfYmluZGluZycsICctaW1hZScsICc8aW5maWxlLm1hZT4nLCAnLW9tYWUnLCAnPG91dGZpbGUubWFlPic=

> <r_lp_tautomer_probability>
1

> <r_epik_Ionization_Penalty>
2.38399e-05

> <r_epik_Ionization_Penalty_Charging>
0

> <r_epik_Ionization_Penalty_Neutral>
2.38399e-05

> <r_epik_State_Penalty>
-0

> <r_epik_Charging_Adjusted_Penalty>
0

> <i_epik_Tot_Q>
0

> <i_epik_Tot_abs_Q>
0

> <r_epik_Metal_State_Penalty>
-0

> <b_epik_Metal_Only>
0

> <s_lp_Force_Field>
OPLS_2005

> <r_lp_Energy>
17.9428

> <b_lp_Chiralities_Consistent>
1

> <s_lp_Variant>
AV-unprocessed.smi:2460-2

> <Gold.Version>
5.8.1

> <Gold.Id.Protein>
6NUR|6NUR_protein|mol2

> <Gold.PLP.Fitness>
40.9002

> <Gold.PLP.PLP>
-34.1652

> <Gold.PLP.part.hbond>
-2.8521

> <Gold.PLP.part.metal>
0.0000

> <Gold.PLP.part.buried>
-4.9207

> <Gold.PLP.part.nonpolar>
-26.4288

> <Gold.PLP.part.repulsive>
0.4754

> <Gold.PLP.ligand.clash>
0.0345

> <Gold.PLP.ligand.torsion>
0.2678

> <Gold.PLP.Chemscore.Hbond>
1.9600

> <Gold.PLP.Chemscore.CHOScore>
0.4319

> <Gold.PLP.Chemscore.Metal>
0.0000

> <Gold.Chemscore.Hbonds>
donor molecule, donor type, donor heavy atom, donor atom, acceptor molecule, acceptor atom, score
      L1  H     6    32       P1 10175  1.00
      L1  H     9    33       P1 10175  0.91
      L1  C    18    40       P1 10171  0.67

> <Gold.PLP.Chemscore.Internal.Correction>
0.1292

> <Gold.Rescore>
     Score         DG    S(hbond)    S(metal)    S(lipo)     H(rot)  DE(clash)    DE(int)     intcor
     14.83     -19.20       1.86        0.00      90.03       1.18       0.33       4.04       ----

> <Gold.Chemscore.Fitness>
14.8311

> <Gold.Chemscore.DG>
-19.1990

> <Gold.Chemscore.ZeroCoef>
-5.4800

> <Gold.Chemscore.Hbond>
1.8570

> <Gold.Chemscore.Metal>
0.0000

> <Gold.Chemscore.Lipo>
90.0300

> <Gold.Chemscore.Internal_Hbond>
0.0000

> <Gold.Chemscore.DEClash>
0.3312

> <Gold.Chemscore.DEInternal>
4.0368

> <Gold.Chemscore.Rot>
1.1785

> <Gold.Chemscore.Internal.Correction>
   9.000000E+99

> <Gold.Chemscore.Hbonds>
donor molecule, donor type, donor heavy atom, donor atom, acceptor molecule, acceptor atom, score
      L1  H     6    32       P1 10175  0.99
      L1  H     9    33       P1 10175  0.83

> <Gold.Chemscore.Hbond.Weighted>
-6.2024

> <Gold.Chemscore.Metal.Weighted>
-0.0000

> <Gold.Chemscore.Lipo.Weighted>
-10.5335

> <Gold.Chemscore.Internal_Hbond.Weighted>
0.0000

> <Gold.Chemscore.DEClash.Weighted>
0.3312

> <Gold.Chemscore.DEInternal.Weighted>
4.0368

> <Gold.Chemscore.Rot.Weighted>
3.0169

> <Gold.Chemscore.Internal.Correction.Weighted>
   9.000000E+99

> <Gold.Protein.RotatedTorsions>
[ 6907 6896 6895 6894 ] final  -56.31 input  -60.11 | X-H torsion
[ 7974 7965 7964 7962 ] final -154.77 input  175.53 | X-H torsion
[ 8008 7997 7996 7995 ] final   76.12 input   59.86 | X-H torsion
[ 10167 10162 10161 10158 ] final   89.04 input  -65.29 | X-H torsion
[ 10718 10713 10712 10709 ] final -132.12 input   66.30 | X-H torsion
[ 10763 10752 10751 10750 ] final  -18.73 input  -60.55 | X-H torsion
[ 11005 11000 10999 10996 ] final    6.54 input  -57.11 | X-H torsion

> <Gold.Protein.ActiveResidues>
 VAL166  LYS551  ARG553  GLY616  TRP617  ASP618  TYR619  PRO620  LYS621  CYS622 
 ASP623  PHE694  ASN695  SER759  ASP760  ASP761  ALA762  ILE779  LEU786  VAL792 
 PHE793  MET794  SER795  GLU796  ALA797  LYS798  CYS799  TRP800  GLU811  SER814 

> <Gold.Protein.RotatedAtoms>
  150.8178  134.7369  159.6745 H   0  0  0  0  0  0  0  0  0  0  0  0  # atno 6907 bound_to 6896
  152.4296  134.5800  159.9955 H   0  0  0  0  0  0  0  0  0  0  0  0  # atno 6908 bound_to 6896
  151.5992  133.3321  159.3080 H   0  0  0  0  0  0  0  0  0  0  0  0  # atno 6909 bound_to 6896
  144.7673  140.4342  143.5933 H   0  0  0  0  0  0  0  0  0  0  0  0  # atno 7974 bound_to 7965
  155.8228  140.3469  155.5524 H   0  0  0  0  0  0  0  0  0  0  0  0  # atno 8008 bound_to 7997
  155.8324  140.0929  157.1804 H   0  0  0  0  0  0  0  0  0  0  0  0  # atno 8009 bound_to 7997
  154.4004  140.1409  156.3618 H   0  0  0  0  0  0  0  0  0  0  0  0  # atno 8010 bound_to 7997
  139.8612  144.6543  150.9056 H   0  0  0  0  0  0  0  0  0  0  0  0  # atno 10167 bound_to 10162
  156.2313  130.7039  151.0861 H   0  0  0  0  0  0  0  0  0  0  0  0  # atno 10718 bound_to 10713
  153.5938  135.7001  153.5412 H   0  0  0  0  0  0  0  0  0  0  0  0  # atno 10763 bound_to 10752
  153.3155  135.4089  155.1372 H   0  0  0  0  0  0  0  0  0  0  0  0  # atno 10764 bound_to 10752
  154.8595  135.3682  154.5471 H   0  0  0  0  0  0  0  0  0  0  0  0  # atno 10765 bound_to 10752
  140.5583  134.0217  155.7962 H   0  0  0  0  0  0  0  0  0  0  0  0  # atno 11005 bound_to 11000
  145.6431  139.1553  143.2904 LP  0  0  0  0  0  0  0  0  0  0  0  0  # atno 17320 bound_to 7965
  146.1791  140.6526  142.9197 LP  0  0  0  0  0  0  0  0  0  0  0  0  # atno 17321 bound_to 7965
  140.7774  143.3742  151.1593 LP  0  0  0  0  0  0  0  0  0  0  0  0  # atno 17342 bound_to 10162
  139.7372  143.8981  152.3038 LP  0  0  0  0  0  0  0  0  0  0  0  0  # atno 17343 bound_to 10162
  157.7134  131.0722  150.6416 LP  0  0  0  0  0  0  0  0  0  0  0  0  # atno 17370 bound_to 10713
  156.6484  130.4478  149.5728 LP  0  0  0  0  0  0  0  0  0  0  0  0  # atno 17371 bound_to 10713
  141.1130  133.9586  157.2875 LP  0  0  0  0  0  0  0  0  0  0  0  0  # atno 17394 bound_to 11000
  139.9420  135.0189  156.8738 LP  0  0  0  0  0  0  0  0  0  0  0  0  # atno 17395 bound_to 11000

$$$$
