AV-unprocessed.smi:1165|AV-procd|sdf|4933|dock10
  -GOLD-   22720 3513D 1   1.00000     0.00000
 Structure written by MMmdl.
 40 41  0  0  0  0  0  0  0  0  2 V2000
  149.3736  135.1916  155.7143 C   0  0  0  0  0  0  0  0  0  0  0  0
  150.3831  135.3298  156.8687 C   0  0  1  0  0  0  0  0  0  0  0  0
  151.5526  136.2764  156.5385 C   0  0  0  0  0  0  0  0  0  0  0  0
  151.1296  137.6837  156.5929 N   0  0  0  0  0  0  0  0  0  0  0  0
  152.1786  138.8749  155.8751 S   0  0  0  0  0  0  0  0  0  0  0  0
  153.1635  138.1048  155.1001 O   0  0  0  0  0  0  0  0  0  0  0  0
  151.3155  139.8105  155.1336 O   0  0  0  0  0  0  0  0  0  0  0  0
  152.8123  139.5041  157.2374 N   0  5  0  0  0  0  0  0  0  0  0  0
  152.1915  140.6408  157.9106 C   0  0  0  0  0  0  0  0  0  0  0  0
  153.1000  141.1530  159.0488 C   0  0  0  0  0  0  0  0  0  0  0  0
  152.7645  142.5551  159.5468 C   0  0  0  0  0  0  0  0  0  0  0  0
  152.6715  142.8329  160.9281 C   0  0  0  0  0  0  0  0  0  0  0  0
  152.3531  144.1412  161.3398 C   0  0  0  0  0  0  0  0  0  0  0  0
  152.1355  145.1204  160.3507 C   0  0  0  0  0  0  0  0  0  0  0  0
  152.2121  144.8683  159.0264 N   0  0  0  0  0  0  0  0  0  0  0  0
  152.5208  143.6113  158.6405 C   0  0  0  0  0  0  0  0  0  0  0  0
  150.4480  138.0245  157.8535 C   0  0  0  0  0  0  0  0  0  0  0  0
  149.2851  137.0546  158.1217 C   0  0  2  0  0  0  0  0  0  0  0  0
  148.6429  137.2980  159.4922 C   0  0  0  0  0  0  0  0  0  0  0  0
  149.7557  135.7113  158.0910 O   0  0  0  0  0  0  0  0  0  0  0  0
  149.8513  134.7588  154.8350 H   0  0  0  0  0  0  0  0  0  0  0  0
  148.9575  136.1525  155.4123 H   0  0  0  0  0  0  0  0  0  0  0  0
  148.5465  134.5393  155.9947 H   0  0  0  0  0  0  0  0  0  0  0  0
  150.7996  134.3371  157.0419 H   0  0  0  0  0  0  0  0  0  0  0  0
  152.3651  136.1321  157.2514 H   0  0  0  0  0  0  0  0  0  0  0  0
  151.9514  136.0393  155.5527 H   0  0  0  0  0  0  0  0  0  0  0  0
  151.9875  141.4623  157.2235 H   0  0  0  0  0  0  0  0  0  0  0  0
  151.2264  140.3628  158.3355 H   0  0  0  0  0  0  0  0  0  0  0  0
  153.0285  140.4685  159.8947 H   0  0  0  0  0  0  0  0  0  0  0  0
  154.1440  141.1251  158.7335 H   0  0  0  0  0  0  0  0  0  0  0  0
  152.8477  142.0576  161.6594 H   0  0  0  0  0  0  0  0  0  0  0  0
  152.2808  144.3882  162.3885 H   0  0  0  0  0  0  0  0  0  0  0  0
  151.8907  146.1342  160.6311 H   0  0  0  0  0  0  0  0  0  0  0  0
  152.5760  143.4429  157.5749 H   0  0  0  0  0  0  0  0  0  0  0  0
  151.1749  137.9852  158.6658 H   0  0  0  0  0  0  0  0  0  0  0  0
  150.0711  139.0461  157.8174 H   0  0  0  0  0  0  0  0  0  0  0  0
  148.5155  137.1929  157.3620 H   0  0  0  0  0  0  0  0  0  0  0  0
  148.2537  138.3137  159.5679 H   0  0  0  0  0  0  0  0  0  0  0  0
  149.3641  137.1551  160.2972 H   0  0  0  0  0  0  0  0  0  0  0  0
  147.8136  136.6111  159.6615 H   0  0  0  0  0  0  0  0  0  0  0  0
  1  2  1  0  0  0  0
  1 21  1  0  0  0  0
  1 22  1  0  0  0  0
  1 23  1  0  0  0  0
  2 20  1  0  0  0  0
  2  3  1  0  0  0  0
  2 24  1  0  0  0  0
  3  4  1  0  0  0  0
  3 25  1  0  0  0  0
  3 26  1  0  0  0  0
  4  5  1  0  0  0  0
  4 17  1  0  0  0  0
  5  6  2  0  0  0  0
  5  7  2  0  0  0  0
  5  8  1  0  0  0  0
  8  9  1  0  0  0  0
  9 10  1  0  0  0  0
  9 27  1  0  0  0  0
  9 28  1  0  0  0  0
 10 11  1  0  0  0  0
 10 29  1  0  0  0  0
 10 30  1  0  0  0  0
 11 16  1  0  0  0  0
 11 12  2  0  0  0  0
 12 13  1  0  0  0  0
 12 31  1  0  0  0  0
 13 14  2  0  0  0  0
 13 32  1  0  0  0  0
 14 15  1  0  0  0  0
 14 33  1  0  0  0  0
 15 16  2  0  0  0  0
 16 34  1  0  0  0  0
 17 18  1  0  0  0  0
 17 35  1  0  0  0  0
 17 36  1  0  0  0  0
 18 19  1  0  0  0  0
 18 20  1  0  0  0  0
 18 37  1  0  0  0  0
 19 38  1  0  0  0  0
 19 39  1  0  0  0  0
 19 40  1  0  0  0  0
M  CHG  1   8  -1
M  END
> <s_m_source_file>
AV-unprocessed.smi

> <i_m_source_file_index>
1165

> <i_lp_mmshare_version>
43012

> <i_f3d_flags>
0

> <s_epik_input>
W0NIM11bQ0BASF0xW0NIMl1OKFtDSDJdW0NASF0oTzEpW0NIM10pUyg9TykoPU8pW05IXVtDSDJdW0NIMl1jMltjSF1bY0hdW2NIXW5bY0hdMg==

> <s_epik_cmdline>
J2VwaWtfcHl0aG9uJywgJy1waCcsICc3LjAnLCAnLXRuJywgJzgnLCAnLW1hJywgJzIwMCcsICctbWV0YWxfYmluZGluZycsICctaW1hZScsICc8aW5maWxlLm1hZT4nLCAnLW9tYWUnLCAnPG91dGZpbGUubWFlPic=

> <r_epik_Ionization_Penalty>
1.23471

> <r_epik_Ionization_Penalty_Charging>
1.20871

> <r_epik_Ionization_Penalty_Neutral>
0.025996

> <r_epik_State_Penalty>
1.46261

> <r_epik_Charging_Adjusted_Penalty>
2.67132

> <i_epik_Tot_Q>
-1

> <i_epik_Tot_abs_Q>
1

> <r_epik_Metal_State_Penalty>
0.521406

> <b_epik_Metal_Only>
0

> <s_lp_Force_Field>
OPLS_2005

> <r_lp_Energy>
6.37225

> <b_lp_Chiralities_Consistent>
1

> <s_lp_Variant>
AV-unprocessed.smi:1165-6

> <Gold.Version>
5.8.1

> <Gold.Id.Protein>
6NUR|6NUR_protein|mol2

> <Gold.PLP.Fitness>
49.5389

> <Gold.PLP.PLP>
-39.0527

> <Gold.PLP.part.hbond>
-3.8117

> <Gold.PLP.part.metal>
0.0000

> <Gold.PLP.part.buried>
-6.8604

> <Gold.PLP.part.nonpolar>
-29.2141

> <Gold.PLP.part.repulsive>
0.0963

> <Gold.PLP.ligand.clash>
0.0000

> <Gold.PLP.ligand.torsion>
1.5179

> <Gold.PLP.Chemscore.Hbond>
3.9760

> <Gold.PLP.Chemscore.CHOScore>
0.0000

> <Gold.PLP.Chemscore.Metal>
0.0000

> <Gold.Chemscore.Hbonds>
donor molecule, donor type, donor heavy atom, donor atom, acceptor molecule, acceptor atom, score
      P1  H  6896  6909       L1    20  0.94
      P1  H  7989  7998       L1     7  1.00
      P1  H  7997  8009       L1     8  2.00

> <Gold.PLP.Chemscore.Internal.Correction>
1.5940

> <Gold.Rescore>
     Score         DG    S(hbond)    S(metal)    S(lipo)     H(rot)  DE(clash)    DE(int)     intcor
     19.55     -21.36       2.42        0.00      98.89       1.47       0.26       1.55       ----

> <Gold.Chemscore.Fitness>
19.5526

> <Gold.Chemscore.DG>
-21.3618

> <Gold.Chemscore.ZeroCoef>
-5.4800

> <Gold.Chemscore.Hbond>
2.4201

> <Gold.Chemscore.Metal>
0.0000

> <Gold.Chemscore.Lipo>
98.8886

> <Gold.Chemscore.Internal_Hbond>
0.0000

> <Gold.Chemscore.DEClash>
0.2568

> <Gold.Chemscore.DEInternal>
1.5524

> <Gold.Chemscore.Rot>
1.4731

> <Gold.Chemscore.Internal.Correction>
   9.000000E+99

> <Gold.Chemscore.Hbonds>
donor molecule, donor type, donor heavy atom, donor atom, acceptor molecule, acceptor atom, score
      P1  H  6896  6909       L1    20  0.43
      P1  H  7989  7998       L1     7  0.98
      P1  H  7997  8009       L1     8  0.22

> <Gold.Chemscore.Hbond.Weighted>
-8.0830

> <Gold.Chemscore.Metal.Weighted>
-0.0000

> <Gold.Chemscore.Lipo.Weighted>
-11.5700

> <Gold.Chemscore.Internal_Hbond.Weighted>
0.0000

> <Gold.Chemscore.DEClash.Weighted>
0.2568

> <Gold.Chemscore.DEInternal.Weighted>
1.5524

> <Gold.Chemscore.Rot.Weighted>
3.7712

> <Gold.Chemscore.Internal.Correction.Weighted>
   9.000000E+99

> <Gold.Protein.RotatedTorsions>
[ 6907 6896 6895 6894 ] final   49.62 input  -60.11 | X-H torsion
[ 7974 7965 7964 7962 ] final   10.92 input  175.53 | X-H torsion
[ 8008 7997 7996 7995 ] final  172.56 input   59.86 | X-H torsion
[ 10167 10162 10161 10158 ] final  148.25 input  -65.29 | X-H torsion
[ 10718 10713 10712 10709 ] final  -21.90 input   66.30 | X-H torsion
[ 10763 10752 10751 10750 ] final   48.33 input  -60.55 | X-H torsion
[ 11005 11000 10999 10996 ] final   26.21 input  -57.11 | X-H torsion

> <Gold.Protein.ActiveResidues>
 VAL166  LYS551  ARG553  GLY616  TRP617  ASP618  TYR619  PRO620  LYS621  CYS622 
 ASP623  PHE694  ASN695  SER759  ASP760  ASP761  ALA762  ILE779  LEU786  VAL792 
 PHE793  MET794  SER795  GLU796  ALA797  LYS798  CYS799  TRP800  GLU811  SER814 

> <Gold.Protein.RotatedAtoms>
  152.2927  134.7702  160.0374 H   0  0  0  0  0  0  0  0  0  0  0  0  # atno 6907 bound_to 6896
  151.8243  133.3394  159.3602 H   0  0  0  0  0  0  0  0  0  0  0  0  # atno 6908 bound_to 6896
  150.7237  134.5473  159.5821 H   0  0  0  0  0  0  0  0  0  0  0  0  # atno 6909 bound_to 6896
  146.2380  139.9563  142.8464 H   0  0  0  0  0  0  0  0  0  0  0  0  # atno 7974 bound_to 7965
  156.1163  140.1483  156.9268 H   0  0  0  0  0  0  0  0  0  0  0  0  # atno 8008 bound_to 7997
  154.4803  140.0881  156.7403 H   0  0  0  0  0  0  0  0  0  0  0  0  # atno 8009 bound_to 7997
  155.4508  140.3434  155.4303 H   0  0  0  0  0  0  0  0  0  0  0  0  # atno 8010 bound_to 7997
  139.4877  144.5694  151.7084 H   0  0  0  0  0  0  0  0  0  0  0  0  # atno 10167 bound_to 10162
  156.5118  130.4612  149.6644 H   0  0  0  0  0  0  0  0  0  0  0  0  # atno 10718 bound_to 10713
  152.9793  135.5947  154.3909 H   0  0  0  0  0  0  0  0  0  0  0  0  # atno 10763 bound_to 10752
  154.3564  135.2767  155.2346 H   0  0  0  0  0  0  0  0  0  0  0  0  # atno 10764 bound_to 10752
  154.4362  135.6024  153.6155 H   0  0  0  0  0  0  0  0  0  0  0  0  # atno 10765 bound_to 10752
  140.3395  134.2349  155.7692 H   0  0  0  0  0  0  0  0  0  0  0  0  # atno 11005 bound_to 11000
  145.1814  140.9769  143.4264 LP  0  0  0  0  0  0  0  0  0  0  0  0  # atno 17320 bound_to 7965
  144.9939  139.3663  143.6201 LP  0  0  0  0  0  0  0  0  0  0  0  0  # atno 17321 bound_to 7965
  140.5278  144.0778  150.6043 LP  0  0  0  0  0  0  0  0  0  0  0  0  # atno 17342 bound_to 10162
  140.3758  143.2829  152.0227 LP  0  0  0  0  0  0  0  0  0  0  0  0  # atno 17343 bound_to 10162
  156.3233  130.7292  151.2208 LP  0  0  0  0  0  0  0  0  0  0  0  0  # atno 17370 bound_to 10713
  157.7449  131.0450  150.4820 LP  0  0  0  0  0  0  0  0  0  0  0  0  # atno 17371 bound_to 10713
  141.2042  133.7891  157.0298 LP  0  0  0  0  0  0  0  0  0  0  0  0  # atno 17394 bound_to 11000
  140.0793  134.9657  157.1598 LP  0  0  0  0  0  0  0  0  0  0  0  0  # atno 17395 bound_to 11000

$$$$
