AV-unprocessed.smi:2426|AV-procd|sdf|9577|dock6
  -GOLD-   2272013213D 1   1.00000     0.00000
 Structure written by MMmdl.
 36 37  0  0  0  0  0  0  0  0  1 V2000
  151.9648  136.8848  156.8447 C   0  0  0  0  0  0  0  0  0  0  0  0
  152.1620  135.4839  156.9990 O   0  0  0  0  0  0  0  0  0  0  0  0
  151.1701  134.6340  156.5558 C   0  0  0  0  0  0  0  0  0  0  0  0
  150.3575  135.0263  155.4721 C   0  0  0  0  0  0  0  0  0  0  0  0
  149.3556  134.1252  155.0475 C   0  0  0  0  0  0  0  0  0  0  0  0
  148.5611  134.5572  153.9527 N   0  0  0  0  0  0  0  0  0  0  0  0
  147.2750  134.2614  153.6946 C   0  0  0  0  0  0  0  0  0  0  0  0
  146.5539  133.5525  154.3974 O   0  0  0  0  0  0  0  0  0  0  0  0
  146.8659  134.8355  152.5531 N   0  0  0  0  0  0  0  0  0  0  0  0
  145.5387  134.6984  151.9578 C   0  0  1  0  0  0  0  0  0  0  0  0
  145.3648  135.7604  150.8631 C   0  0  0  0  0  0  0  0  0  0  0  0
  145.3522  133.2793  151.4166 C   0  0  0  0  0  0  0  0  0  0  0  0
  146.1976  132.7912  150.2301 C   0  0  0  0  0  0  0  0  0  0  0  0
  144.9919  131.9674  149.7691 C   0  0  0  0  0  0  0  0  0  0  0  0
  144.1136  132.9256  150.5778 C   0  0  0  0  0  0  0  0  0  0  0  0
  149.2039  132.9353  155.6799 N   0  0  0  0  0  0  0  0  0  0  0  0
  150.0230  132.6578  156.6958 C   0  0  0  0  0  0  0  0  0  0  0  0
  150.9956  133.4381  157.1686 N   0  0  0  0  0  0  0  0  0  0  0  0
  152.8266  137.4172  157.2466 H   0  0  0  0  0  0  0  0  0  0  0  0
  151.0825  137.2262  157.3882 H   0  0  0  0  0  0  0  0  0  0  0  0
  151.8664  137.1598  155.7934 H   0  0  0  0  0  0  0  0  0  0  0  0
  150.5031  135.9815  154.9888 H   0  0  0  0  0  0  0  0  0  0  0  0
  149.0295  135.1485  153.2824 H   0  0  0  0  0  0  0  0  0  0  0  0
  147.5295  135.4013  152.0448 H   0  0  0  0  0  0  0  0  0  0  0  0
  144.7807  134.8952  152.7180 H   0  0  0  0  0  0  0  0  0  0  0  0
  144.3696  135.7086  150.4206 H   0  0  0  0  0  0  0  0  0  0  0  0
  146.0923  135.6283  150.0613 H   0  0  0  0  0  0  0  0  0  0  0  0
  145.4910  136.7656  151.2666 H   0  0  0  0  0  0  0  0  0  0  0  0
  145.4426  132.5472  152.2226 H   0  0  0  0  0  0  0  0  0  0  0  0
  146.4518  133.5912  149.5329 H   0  0  0  0  0  0  0  0  0  0  0  0
  147.0746  132.2046  150.5054 H   0  0  0  0  0  0  0  0  0  0  0  0
  144.8130  131.9802  148.6937 H   0  0  0  0  0  0  0  0  0  0  0  0
  144.9926  130.9525  150.1702 H   0  0  0  0  0  0  0  0  0  0  0  0
  143.3065  132.4499  151.1353 H   0  0  0  0  0  0  0  0  0  0  0  0
  143.7500  133.7648  149.9825 H   0  0  0  0  0  0  0  0  0  0  0  0
  149.8845  131.7050  157.1848 H   0  0  0  0  0  0  0  0  0  0  0  0
  1  2  1  0  0  0  0
  1 19  1  0  0  0  0
  1 20  1  0  0  0  0
  1 21  1  0  0  0  0
  2  3  1  0  0  0  0
  3 18  1  0  0  0  0
  3  4  2  0  0  0  0
  4  5  1  0  0  0  0
  4 22  1  0  0  0  0
  5  6  1  0  0  0  0
  5 16  2  0  0  0  0
  6  7  1  0  0  0  0
  6 23  1  0  0  0  0
  7  8  2  0  0  0  0
  7  9  1  0  0  0  0
  9 10  1  0  0  0  0
  9 24  1  0  0  0  0
 10 11  1  0  0  0  0
 10 12  1  0  0  0  0
 10 25  1  0  0  0  0
 11 26  1  0  0  0  0
 11 27  1  0  0  0  0
 11 28  1  0  0  0  0
 12 15  1  0  0  0  0
 12 13  1  0  0  0  0
 12 29  1  0  0  0  0
 13 14  1  0  0  0  0
 13 30  1  0  0  0  0
 13 31  1  0  0  0  0
 14 15  1  0  0  0  0
 14 32  1  0  0  0  0
 14 33  1  0  0  0  0
 15 34  1  0  0  0  0
 15 35  1  0  0  0  0
 16 17  1  0  0  0  0
 17 18  2  0  0  0  0
 17 36  1  0  0  0  0
M  END
> <s_m_source_file>
AV-unprocessed.smi

> <i_m_source_file_index>
2426

> <i_lp_mmshare_version>
43012

> <i_f3d_flags>
0

> <s_epik_input>
W0NIM11PYzFbY0hdYyhuW2NIXW4xKVtOSF1DKD1PKVtOSF1bQ0BIXShbQ0gzXSlbQ0hdMltDSDJdW0NIMl1bQ0gyXTI=

> <s_epik_cmdline>
J2VwaWtfcHl0aG9uJywgJy1waCcsICc3LjAnLCAnLXRuJywgJzgnLCAnLW1hJywgJzIwMCcsICctbWV0YWxfYmluZGluZycsICctaW1hZScsICc8aW5maWxlLm1hZT4nLCAnLW9tYWUnLCAnPG91dGZpbGUubWFlPic=

> <r_lp_tautomer_probability>
1

> <r_epik_Ionization_Penalty>
2.84534e-05

> <r_epik_Ionization_Penalty_Charging>
0

> <r_epik_Ionization_Penalty_Neutral>
2.84534e-05

> <r_epik_State_Penalty>
-0

> <r_epik_Charging_Adjusted_Penalty>
0

> <i_epik_Tot_Q>
0

> <i_epik_Tot_abs_Q>
0

> <r_epik_Metal_State_Penalty>
-0

> <b_epik_Metal_Only>
0

> <s_lp_Force_Field>
OPLS_2005

> <r_lp_Energy>
11.0753

> <b_lp_Chiralities_Consistent>
1

> <s_lp_Variant>
AV-unprocessed.smi:2426-2

> <Gold.Version>
5.8.1

> <Gold.Id.Protein>
6NUR|6NUR_protein|mol2

> <Gold.PLP.Fitness>
38.2017

> <Gold.PLP.PLP>
-29.5622

> <Gold.PLP.part.hbond>
-4.0000

> <Gold.PLP.part.metal>
0.0000

> <Gold.PLP.part.buried>
-5.0400

> <Gold.PLP.part.nonpolar>
-21.2072

> <Gold.PLP.part.repulsive>
0.0612

> <Gold.PLP.ligand.clash>
0.0000

> <Gold.PLP.ligand.torsion>
0.7583

> <Gold.PLP.Chemscore.Hbond>
3.3467

> <Gold.PLP.Chemscore.CHOScore>
0.0000

> <Gold.PLP.Chemscore.Metal>
0.0000

> <Gold.Chemscore.Hbonds>
donor molecule, donor type, donor heavy atom, donor atom, acceptor molecule, acceptor atom, score
      L1  H     6    23       P1  7948  1.00
      L1  H     9    24       P1  7948  1.00
      P1  H  6896  6907       L1    18  0.69
      P1  H 10752 10764       L1     2  0.47

> <Gold.PLP.Chemscore.Internal.Correction>
0.1160

> <Gold.Rescore>
     Score         DG    S(hbond)    S(metal)    S(lipo)     H(rot)  DE(clash)    DE(int)     intcor
     14.44     -15.91       2.41        0.00      55.16       1.60       0.00       1.47       ----

> <Gold.Chemscore.Fitness>
14.4404

> <Gold.Chemscore.DG>
-15.9095

> <Gold.Chemscore.ZeroCoef>
-5.4800

> <Gold.Chemscore.Hbond>
2.4144

> <Gold.Chemscore.Metal>
0.0000

> <Gold.Chemscore.Lipo>
55.1614

> <Gold.Chemscore.Internal_Hbond>
0.0000

> <Gold.Chemscore.DEClash>
0.0015

> <Gold.Chemscore.DEInternal>
1.4676

> <Gold.Chemscore.Rot>
1.5971

> <Gold.Chemscore.Internal.Correction>
   9.000000E+99

> <Gold.Chemscore.Hbonds>
donor molecule, donor type, donor heavy atom, donor atom, acceptor molecule, acceptor atom, score
      L1  H     6    23       P1  7948  0.29
      L1  H     9    24       P1  7948  0.97
      P1  H  6896  6907       L1    18  0.57
      P1  H 10752 10764       L1     2  0.01

> <Gold.Chemscore.Hbond.Weighted>
-8.0642

> <Gold.Chemscore.Metal.Weighted>
-0.0000

> <Gold.Chemscore.Lipo.Weighted>
-6.4539

> <Gold.Chemscore.Internal_Hbond.Weighted>
0.0000

> <Gold.Chemscore.DEClash.Weighted>
0.0015

> <Gold.Chemscore.DEInternal.Weighted>
1.4676

> <Gold.Chemscore.Rot.Weighted>
4.0886

> <Gold.Chemscore.Internal.Correction.Weighted>
   9.000000E+99

> <Gold.Protein.RotatedTorsions>
[ 6907 6896 6895 6894 ] final -156.58 input  -60.11 | X-H torsion
[ 7974 7965 7964 7962 ] final -135.59 input  175.53 | X-H torsion
[ 8008 7997 7996 7995 ] final   84.22 input   59.86 | X-H torsion
[ 10167 10162 10161 10158 ] final -167.70 input  -65.29 | X-H torsion
[ 10718 10713 10712 10709 ] final -114.12 input   66.30 | X-H torsion
[ 10763 10752 10751 10750 ] final    1.56 input  -60.55 | X-H torsion
[ 11005 11000 10999 10996 ] final  -22.95 input  -57.11 | X-H torsion

> <Gold.Protein.ActiveResidues>
 VAL166  LYS551  ARG553  GLY616  TRP617  ASP618  TYR619  PRO620  LYS621  CYS622 
 ASP623  PHE694  ASN695  SER759  ASP760  ASP761  ALA762  ILE779  LEU786  VAL792 
 PHE793  MET794  SER795  GLU796  ALA797  LYS798  CYS799  TRP800  GLU811  SER814 

> <Gold.Protein.RotatedAtoms>
  151.2899  133.4170  159.2632 H   0  0  0  0  0  0  0  0  0  0  0  0  # atno 6907 bound_to 6896
  151.0287  134.9523  159.8109 H   0  0  0  0  0  0  0  0  0  0  0  0  # atno 6908 bound_to 6896
  152.5341  134.2860  159.9078 H   0  0  0  0  0  0  0  0  0  0  0  0  # atno 6909 bound_to 6896
  144.9001  140.6759  143.5090 H   0  0  0  0  0  0  0  0  0  0  0  0  # atno 7974 bound_to 7965
  155.9342  140.3412  155.6274 H   0  0  0  0  0  0  0  0  0  0  0  0  # atno 8008 bound_to 7997
  155.7120  140.0773  157.2385 H   0  0  0  0  0  0  0  0  0  0  0  0  # atno 8009 bound_to 7997
  154.4090  140.1621  156.2294 H   0  0  0  0  0  0  0  0  0  0  0  0  # atno 8010 bound_to 7997
  139.6032  144.0966  152.1765 H   0  0  0  0  0  0  0  0  0  0  0  0  # atno 10167 bound_to 10162
  156.0810  130.6009  150.8733 H   0  0  0  0  0  0  0  0  0  0  0  0  # atno 10718 bound_to 10713
  153.3065  135.6959  153.7154 H   0  0  0  0  0  0  0  0  0  0  0  0  # atno 10763 bound_to 10752
  153.6048  135.3455  155.2959 H   0  0  0  0  0  0  0  0  0  0  0  0  # atno 10764 bound_to 10752
  154.8564  135.4349  154.2191 H   0  0  0  0  0  0  0  0  0  0  0  0  # atno 10765 bound_to 10752
  140.8706  133.7723  156.0182 H   0  0  0  0  0  0  0  0  0  0  0  0  # atno 11005 bound_to 11000
  145.3632  139.1676  143.4372 LP  0  0  0  0  0  0  0  0  0  0  0  0  # atno 17320 bound_to 7965
  146.3103  140.3696  142.8673 LP  0  0  0  0  0  0  0  0  0  0  0  0  # atno 17321 bound_to 7965
  140.0568  144.5889  150.7294 LP  0  0  0  0  0  0  0  0  0  0  0  0  # atno 17342 bound_to 10162
  140.7265  143.2642  151.4100 LP  0  0  0  0  0  0  0  0  0  0  0  0  # atno 17343 bound_to 10162
  157.5926  131.0944  150.9094 LP  0  0  0  0  0  0  0  0  0  0  0  0  # atno 17370 bound_to 10713
  156.9267  130.5334  149.5279 LP  0  0  0  0  0  0  0  0  0  0  0  0  # atno 17371 bound_to 10713
  140.8578  134.2877  157.5248 LP  0  0  0  0  0  0  0  0  0  0  0  0  # atno 17394 bound_to 11000
  139.8712  134.9502  156.4048 LP  0  0  0  0  0  0  0  0  0  0  0  0  # atno 17395 bound_to 11000

$$$$
