#       Name:                AV-unprocessed.smi:72
#       Creating user name   scv26
#       Creation time:       Thu Mar 26 17:00:34 2020


#       File generated by GOLD software.
#

@<TRIPOS>MOLECULE
AV-unprocessed.smi:72
    41    42     1
SMALL
NO_CHARGES


@<TRIPOS>ATOM
      1 ****         1.1441   4.5311   1.2096 N.2            1 S1                 0.0000
      2 ****         0.6143   3.4562   0.7466 C.2            1 S1                 0.0000
      3 ****         0.7984   2.9522  -0.5487 N.2            1 S1                 0.0000
      4 ****         0.2268   1.8316  -0.8661 C.2            1 S1                 0.0000
      5 ****        -0.5591   1.0557   0.0877 N.am           1 S1                 0.0000
      6 ****        -1.2584  -0.2365  -0.3155 C.3            1 S1                 0.0000
      7 ****        -0.7628  -0.6757  -1.5518 O.3            1 S1                 0.0000
      8 ****         0.1077  -1.7971  -1.4078 C.3            1 S1                 0.0000
      9 ****         1.5669  -1.3376  -1.1833 C.3            1 S1                 0.0000
     10 ****         2.1113  -0.8601  -2.3950 O.3            1 S1                 0.0000
     11 ****        -0.5354  -2.5249  -0.2230 C.3            1 S1                 0.0000
     12 ****         0.3548  -3.3950   0.4482 O.3            1 S1                 0.0000
     13 ****        -1.0068  -1.3939   0.6818 C.3            1 S1                 0.0000
     14 ****        -2.1928  -1.7888   1.3419 O.3            1 S1                 0.0000
     15 ****        -0.8402   1.6137   1.3624 C.2            1 S1                 0.0000
     16 ****        -1.6056   1.0829   2.1664 O.2            1 S1                 0.0000
     17 ****        -0.2130   2.7752   1.6466 N.am           1 S1                 0.0000
     18 ****        -2.3081   0.0439  -0.4194 H              1 S1                 0.0000
     19 ****         0.0598  -2.4239  -2.2994 H              1 S1                 0.0000
     20 ****        -1.3888  -3.0979  -0.5905 H              1 S1                 0.0000
     21 ****        -0.2273  -1.1211   1.3951 H              1 S1                 0.0000
     22 ****         0.8498   4.6791   2.1645 H              1 S1                 0.0000
     23 ****         0.3052   1.4079  -1.8675 H              1 S1                 0.0000
     24 ****         1.6543  -0.5865  -0.4000 H              1 S1                 0.0000
     25 ****         2.1896  -2.1789  -0.8793 H              1 S1                 0.0000
     26 ****         3.0122  -0.6176  -2.2449 H              1 S1                 0.0000
     27 ****        -0.1087  -3.7950   1.1683 H              1 S1                 0.0000
     28 ****        -2.4875  -1.0683   1.8790 H              1 S1                 0.0000
     29 ****        -0.3713   3.1831   2.5562 H              1 S1                 0.0000
     30 ****         1.7580   5.1333   0.6992 LP             1 S1                 0.0000
     31 ****         1.3584   3.4460  -1.2139 LP             1 S1                 0.0000
     32 ****        -0.2578   0.0726  -1.9820 LP             1 S1                 0.0000
     33 ****        -1.5325  -0.9366  -2.1345 LP             1 S1                 0.0000
     34 ****         1.5946  -0.0622  -2.7054 LP             1 S1                 0.0000
     35 ****         2.0666  -1.5773  -3.0905 LP             1 S1                 0.0000
     36 ****         1.1368  -2.8772   0.7951 LP             1 S1                 0.0000
     37 ****         0.6762  -4.1020  -0.1818 LP             1 S1                 0.0000
     38 ****        -2.0104  -2.5865   1.9166 LP             1 S1                 0.0000
     39 ****        -2.8951  -2.0173   0.6676 LP             1 S1                 0.0000
     40 ****        -2.0588   0.2228   1.9323 LP             1 S1                 0.0000
     41 ****        -1.7745   1.5117   3.0539 LP             1 S1                 0.0000
@<TRIPOS>BOND
    1    1    2 2     
    2    1   22 1     
    3    2   17 1     
    4    2    3 1     
    5    3    4 2     
    6    4    5 1     
    7    4   23 1     
    8    5    6 1     
    9    5   15 am    
   10    6   18 1     
   11    6   13 1     
   12    6    7 1     
   13    7    8 1     
   14    8   19 1     
   15    8    9 1     
   16    8   11 1     
   17    9   10 1     
   18    9   24 1     
   19    9   25 1     
   20   10   26 1     
   21   11   20 1     
   22   11   12 1     
   23   11   13 1     
   24   12   27 1     
   25   13   21 1     
   26   13   14 1     
   27   14   28 1     
   28   15   16 2     
   29   15   17 am    
   30   17   29 1     
   31    1   30 1     
   32    3   31 1     
   33    7   32 1     
   34    7   33 1     
   35   10   34 1     
   36   10   35 1     
   37   12   36 1     
   38   12   37 1     
   39   14   38 1     
   40   14   39 1     
   41   16   40 1     
   42   16   41 1     
@<TRIPOS>SUBSTRUCTURE
      1 S1             1
@<TRIPOS>SET
LONE_PAIRS      STATIC     ATOMS    <user>   **** ""
12 30 31 32 33 34 35 36 37 38 39 40 41
DONOR_HYDROGENS      STATIC     ATOMS    <user>   **** ""
5 22 26 27 28 29
ATOM$BLUE        STATIC     ATOMS    COLORGROUP SYSTEM
12 30 31 32 33 34 35 36 37 38 39 40 41
ATOM$RED        STATIC     ATOMS    COLORGROUP SYSTEM
5 22 26 27 28 29
