#       Name:                AV-unprocessed.smi:47
#       Creating user name   scv26
#       Creation time:       Thu Mar 26 16:31:21 2020


#       File generated by GOLD software.
#

@<TRIPOS>MOLECULE
AV-unprocessed.smi:47
    36    38     1
SMALL
NO_CHARGES


@<TRIPOS>ATOM
      1 ****        -4.7644   0.3450   2.2184 O.3            1 S1                 0.0000
      2 ****        -3.5739   0.8593   1.6599 C.3            1 S1                 0.0000
      3 ****        -3.8290   2.0327   0.7233 C.3            1 S1                 0.0000
      4 ****        -2.6273   2.1107  -0.0951 N.3            1 S1                 0.0000
      5 ****        -2.1090   0.7477  -0.2601 C.3            1 S1                 0.0000
      6 ****        -0.6061   0.6648  -0.0623 C.2            1 S1                 0.0000
      7 ****         0.1036   1.4002   0.8180 N.2            1 S1                 0.0000
      8 ****         1.3562   0.9998   0.7065 N.pl3          1 S1                -1.0000
      9 ****         1.3928   0.0298  -0.2197 C.2            1 S1                 0.0000
     10 ****         2.6471  -0.6543  -0.5969 C.ar           1 S1                 0.0000
     11 ****         2.6367  -1.6869  -1.5632 C.ar           1 S1                 0.0000
     12 ****         3.8239  -2.3488  -1.9329 C.ar           1 S1                 0.0000
     13 ****         5.0462  -1.9861  -1.3391 C.ar           1 S1                 0.0000
     14 ****         5.0759  -0.9614  -0.3760 C.ar           1 S1                 0.0000
     15 ****         3.8859  -0.3026  -0.0098 C.ar           1 S1                 0.0000
     16 ****         0.1840  -0.2052  -0.7106 N.2            1 S1                 0.0000
     17 ****        -2.8670  -0.1372   0.7465 C.3            1 S1                 0.0000
     18 ****        -2.9006   1.1675   2.4613 H              1 S1                 0.0000
     19 ****        -2.3292   0.3964  -1.2689 H              1 S1                 0.0000
     20 ****        -4.5417  -0.3917   2.7668 H              1 S1                 0.0000
     21 ****        -4.6914   1.8230   0.0889 H              1 S1                 0.0000
     22 ****        -4.0221   2.9640   1.2561 H              1 S1                 0.0000
     23 ****        -2.8673   2.5003  -1.0006 H              1 S1                 0.0000
     24 ****         1.7080  -1.9795  -2.0309 H              1 S1                 0.0000
     25 ****         3.7946  -3.1350  -2.6726 H              1 S1                 0.0000
     26 ****         5.9577  -2.4920  -1.6212 H              1 S1                 0.0000
     27 ****         6.0116  -0.6790   0.0835 H              1 S1                 0.0000
     28 ****         3.9331   0.4813   0.7317 H              1 S1                 0.0000
     29 ****        -2.2237  -0.8280   1.2933 H              1 S1                 0.0000
     30 ****        -3.6035  -0.7342   0.2065 H              1 S1                 0.0000
     31 ****        -5.3799   0.0487   1.4880 LP             1 S1                 0.0000
     32 ****        -5.2131   1.0509   2.7665 LP             1 S1                 0.0000
     33 ****        -1.9378   2.6928   0.3357 LP             1 S1                 0.0000
     34 ****        -0.2486   2.1068   1.4317 LP             1 S1                 0.0000
     35 ****         2.1372   1.3553   1.2198 LP             1 S1                 0.0000
     36 ****        -0.0787  -0.8761  -1.4041 LP             1 S1                 0.0000
@<TRIPOS>BOND
    1    1    2 1     
    2    1   20 1     
    3    2   18 1     
    4    2   17 1     
    5    2    3 1     
    6    3    4 1     
    7    3   21 1     
    8    3   22 1     
    9    4    5 1     
   10    4   23 1     
   11    5   19 1     
   12    5    6 1     
   13    5   17 1     
   14    6   16 1     
   15    6    7 2     
   16    7    8 1     
   17    8    9 1     
   18    9   10 1     
   19    9   16 2     
   20   10   15 ar    
   21   10   11 ar    
   22   11   12 ar    
   23   11   24 1     
   24   12   13 ar    
   25   12   25 1     
   26   13   14 ar    
   27   13   26 1     
   28   14   15 ar    
   29   14   27 1     
   30   15   28 1     
   31   17   29 1     
   32   17   30 1     
   33    1   31 1     
   34    1   32 1     
   35    4   33 1     
   36    7   34 1     
   37    8   35 1     
   38   16   36 1     
@<TRIPOS>SUBSTRUCTURE
      1 S1             1
@<TRIPOS>SET
LONE_PAIRS      STATIC     ATOMS    <user>   **** ""
6 31 32 33 34 35 36
DONOR_HYDROGENS      STATIC     ATOMS    <user>   **** ""
2 20 23
ATOM$BLUE        STATIC     ATOMS    COLORGROUP SYSTEM
6 31 32 33 34 35 36
ATOM$RED        STATIC     ATOMS    COLORGROUP SYSTEM
2 20 23
