AV-unprocessed.smi:228|AV-procd|sdf|1744|dock8
  -GOLD-   2262020253D 1   1.00000     0.00000
 Structure written by MMmdl.
 60 63  0  0  0  0  0  0  0  0  2 V2000
  147.1957  128.4929  157.1208 C   0  0  0  0  0  0  0  0  0  0  0  0
  147.6582  128.4490  155.7391 N   0  0  0  0  0  0  0  0  0  0  0  0
  147.6965  127.1274  155.1075 C   0  0  0  0  0  0  0  0  0  0  0  0
  149.0411  126.3897  155.3079 C   0  0  1  0  0  0  0  0  0  0  0  0
  148.7606  125.0337  155.5908 O   0  0  0  0  0  0  0  0  0  0  0  0
  149.9099  126.4363  154.0355 C   0  0  0  0  0  0  0  0  0  0  0  0
  151.2327  127.0646  154.2797 N   0  3  0  0  0  0  0  0  0  0  0  0
  151.1208  128.4549  154.7806 C   0  0  0  0  0  0  0  0  0  0  0  0
  152.5172  129.0754  154.9575 C   0  0  0  0  0  0  0  0  0  0  0  0
  153.2893  128.2704  155.8396 O   0  0  0  0  0  0  0  0  0  0  0  0
  153.4777  126.9547  155.3328 C   0  0  0  0  0  0  0  0  0  0  0  0
  152.1130  126.2652  155.1687 C   0  0  0  0  0  0  0  0  0  0  0  0
  147.2023  129.4988  155.0060 C   0  0  0  0  0  0  0  0  0  0  0  0
  147.2581  130.7598  155.5142 N   0  0  0  0  0  0  0  0  0  0  0  0
  146.8034  131.7947  154.8029 C   0  0  0  0  0  0  0  0  0  0  0  0
  146.2601  131.7929  153.5853 N   0  0  0  0  0  0  0  0  0  0  0  0
  146.2016  130.5329  153.0661 C   0  0  0  0  0  0  0  0  0  0  0  0
  146.6496  129.3414  153.7041 C   0  0  0  0  0  0  0  0  0  0  0  0
  146.4176  128.2475  152.8799 N   0  0  0  0  0  0  0  0  0  0  0  0
  145.8714  128.7623  151.8125 C   0  0  0  0  0  0  0  0  0  0  0  0
  145.7002  130.1287  151.8385 N   0  0  0  0  0  0  0  0  0  0  0  0
  145.1159  130.9353  150.8031 C   0  0  0  0  0  0  0  0  0  0  0  0
  145.8864  132.0931  150.1621 C   0  0  0  0  0  0  0  0  0  0  0  0
  144.5616  132.8768  150.0082 C   0  0  0  0  0  0  0  0  0  0  0  0
  144.6188  134.3855  150.3203 C   0  0  0  0  0  0  0  0  0  0  0  0
  145.2111  134.6585  151.5749 O   0  0  0  0  0  0  0  0  0  0  0  0
  143.9000  132.7203  148.6265 C   0  0  0  0  0  0  0  0  0  0  0  0
  142.6666  132.0354  148.7132 O   0  0  0  0  0  0  0  0  0  0  0  0
  144.0101  131.9466  151.1147 C   0  0  0  0  0  0  0  0  0  0  0  0
  147.6010  129.3560  157.6488 H   0  0  0  0  0  0  0  0  0  0  0  0
  147.5101  127.6015  157.6644 H   0  0  0  0  0  0  0  0  0  0  0  0
  146.1069  128.5457  157.1612 H   0  0  0  0  0  0  0  0  0  0  0  0
  146.8729  126.5128  155.4742 H   0  0  0  0  0  0  0  0  0  0  0  0
  147.4981  127.2632  154.0435 H   0  0  0  0  0  0  0  0  0  0  0  0
  149.5919  126.8062  156.1494 H   0  0  0  0  0  0  0  0  0  0  0  0
  149.1012  124.8294  156.4489 H   0  0  0  0  0  0  0  0  0  0  0  0
  150.0387  125.4196  153.6599 H   0  0  0  0  0  0  0  0  0  0  0  0
  149.4011  126.9881  153.2435 H   0  0  0  0  0  0  0  0  0  0  0  0
  150.5401  129.0558  154.0795 H   0  0  0  0  0  0  0  0  0  0  0  0
  150.5843  128.4604  155.7307 H   0  0  0  0  0  0  0  0  0  0  0  0
  153.0249  129.1732  153.9964 H   0  0  0  0  0  0  0  0  0  0  0  0
  152.4327  130.0783  155.3765 H   0  0  0  0  0  0  0  0  0  0  0  0
  154.0143  126.9895  154.3833 H   0  0  0  0  0  0  0  0  0  0  0  0
  154.0999  126.3936  156.0301 H   0  0  0  0  0  0  0  0  0  0  0  0
  151.6390  126.1477  156.1446 H   0  0  0  0  0  0  0  0  0  0  0  0
  152.2616  125.2636  154.7668 H   0  0  0  0  0  0  0  0  0  0  0  0
  146.8847  132.7619  155.2764 H   0  0  0  0  0  0  0  0  0  0  0  0
  145.5724  128.1514  150.9729 H   0  0  0  0  0  0  0  0  0  0  0  0
  144.7751  130.2456  150.0284 H   0  0  0  0  0  0  0  0  0  0  0  0
  146.5964  132.5594  150.8455 H   0  0  0  0  0  0  0  0  0  0  0  0
  146.3752  131.8357  149.2219 H   0  0  0  0  0  0  0  0  0  0  0  0
  145.1902  134.9167  149.5587 H   0  0  0  0  0  0  0  0  0  0  0  0
  143.6208  134.8242  150.3274 H   0  0  0  0  0  0  0  0  0  0  0  0
  145.6474  133.8768  151.8778 H   0  0  0  0  0  0  0  0  0  0  0  0
  143.7292  133.6918  148.1616 H   0  0  0  0  0  0  0  0  0  0  0  0
  144.5416  132.1639  147.9428 H   0  0  0  0  0  0  0  0  0  0  0  0
  141.9793  132.6695  148.8504 H   0  0  0  0  0  0  0  0  0  0  0  0
  143.0017  131.5707  150.9387 H   0  0  0  0  0  0  0  0  0  0  0  0
  144.0910  132.3668  152.1175 H   0  0  0  0  0  0  0  0  0  0  0  0
  151.6886  127.1250  153.3801 H   0  0  0  0  0  0  0  0  0  0  0  0
  1  2  1  0  0  0  0
  1 30  1  0  0  0  0
  1 31  1  0  0  0  0
  1 32  1  0  0  0  0
  2  3  1  0  0  0  0
  2 13  1  0  0  0  0
  3  4  1  0  0  0  0
  3 33  1  0  0  0  0
  3 34  1  0  0  0  0
  4  5  1  0  0  0  0
  4  6  1  0  0  0  0
  4 35  1  0  0  0  0
  5 36  1  0  0  0  0
  6  7  1  0  0  0  0
  6 37  1  0  0  0  0
  6 38  1  0  0  0  0
  7 12  1  0  0  0  0
  7  8  1  0  0  0  0
  7 60  1  0  0  0  0
  8  9  1  0  0  0  0
  8 39  1  0  0  0  0
  8 40  1  0  0  0  0
  9 10  1  0  0  0  0
  9 41  1  0  0  0  0
  9 42  1  0  0  0  0
 10 11  1  0  0  0  0
 11 12  1  0  0  0  0
 11 43  1  0  0  0  0
 11 44  1  0  0  0  0
 12 45  1  0  0  0  0
 12 46  1  0  0  0  0
 13 18  1  0  0  0  0
 13 14  2  0  0  0  0
 14 15  1  0  0  0  0
 15 16  2  0  0  0  0
 15 47  1  0  0  0  0
 16 17  1  0  0  0  0
 17 21  1  0  0  0  0
 17 18  2  0  0  0  0
 18 19  1  0  0  0  0
 19 20  2  0  0  0  0
 20 21  1  0  0  0  0
 20 48  1  0  0  0  0
 21 22  1  0  0  0  0
 22 29  1  0  0  0  0
 22 23  1  0  0  0  0
 22 49  1  0  0  0  0
 23 24  1  0  0  0  0
 23 50  1  0  0  0  0
 23 51  1  0  0  0  0
 24 25  1  0  0  0  0
 24 27  1  0  0  0  0
 24 29  1  0  0  0  0
 25 26  1  0  0  0  0
 25 52  1  0  0  0  0
 25 53  1  0  0  0  0
 26 54  1  0  0  0  0
 27 28  1  0  0  0  0
 27 55  1  0  0  0  0
 27 56  1  0  0  0  0
 28 57  1  0  0  0  0
 29 58  1  0  0  0  0
 29 59  1  0  0  0  0
M  CHG  1   7   1
M  END
> <s_m_source_file>
AV-unprocessed.smi

> <i_m_source_file_index>
228

> <i_lp_mmshare_version>
43012

> <i_f3d_flags>
0

> <s_epik_input>
W0NIMl0xW0NIMl1PW0NIMl1bQ0gyXU4xW0NIMl1bQ0BASF0oW09IXSlbQ0gyXU4oW0NIM10pYyhuW2NIXW4yKWMoYzIzKW5bY0hdbjNbQ0hdKFtDSDJdNClbQ0gyXUM0KFtDSDJdW09IXSlbQ0gyXVtPSF0=

> <s_epik_cmdline>
J2VwaWtfcHl0aG9uJywgJy1waCcsICc3LjAnLCAnLXRuJywgJzgnLCAnLW1hJywgJzIwMCcsICctbWV0YWxfYmluZGluZycsICctaW1hZScsICc8aW5maWxlLm1hZT4nLCAnLW9tYWUnLCAnPG91dGZpbGUubWFlPic=

> <r_lp_tautomer_probability>
1

> <r_epik_Ionization_Penalty>
0.403032

> <r_epik_Ionization_Penalty_Charging>
0.40072

> <r_epik_Ionization_Penalty_Neutral>
0.00231206

> <r_epik_State_Penalty>
0.387266

> <r_epik_Charging_Adjusted_Penalty>
0.787986

> <i_epik_Tot_Q>
1

> <i_epik_Tot_abs_Q>
1

> <r_epik_Metal_State_Penalty>
0.385845

> <b_epik_Metal_Only>
0

> <s_lp_Force_Field>
OPLS_2005

> <r_lp_Energy>
50.3724

> <b_lp_Chiralities_Consistent>
1

> <s_lp_Variant>
AV-unprocessed.smi:228-2

> <Gold.Version>
5.8.1

> <Gold.Id.Protein>
6NUR|6NUR_protein|mol2

> <Gold.PLP.Fitness>
45.1683

> <Gold.PLP.PLP>
-41.5408

> <Gold.PLP.part.hbond>
-4.0000

> <Gold.PLP.part.metal>
0.0000

> <Gold.PLP.part.buried>
-6.1340

> <Gold.PLP.part.nonpolar>
-31.7611

> <Gold.PLP.part.repulsive>
0.3693

> <Gold.PLP.ligand.clash>
0.0000

> <Gold.PLP.ligand.torsion>
3.2917

> <Gold.PLP.Chemscore.Hbond>
3.0000

> <Gold.PLP.Chemscore.CHOScore>
0.0000

> <Gold.PLP.Chemscore.Metal>
0.0000

> <Gold.Chemscore.Hbonds>
donor molecule, donor type, donor heavy atom, donor atom, acceptor molecule, acceptor atom, score
      L1  H     7    60       P1 10737  1.00
      L1  H    28    57       P1 10186  0.83
      P1  H 10785 10796       L1    28  1.00

> <Gold.PLP.Chemscore.Internal.Correction>
1.2109

> <Gold.Rescore>
     Score         DG    S(hbond)    S(metal)    S(lipo)     H(rot)  DE(clash)    DE(int)     intcor
      6.16     -10.88       2.63        0.00      82.84       5.11       0.06       4.66       ----

> <Gold.Chemscore.Fitness>
6.1576

> <Gold.Chemscore.DG>
-10.8770

> <Gold.Chemscore.ZeroCoef>
-5.4800

> <Gold.Chemscore.Hbond>
2.6343

> <Gold.Chemscore.Metal>
0.0000

> <Gold.Chemscore.Lipo>
82.8417

> <Gold.Chemscore.Internal_Hbond>
0.0000

> <Gold.Chemscore.DEClash>
0.0567

> <Gold.Chemscore.DEInternal>
4.6627

> <Gold.Chemscore.Rot>
5.1149

> <Gold.Chemscore.Internal.Correction>
   9.000000E+99

> <Gold.Chemscore.Hbonds>
donor molecule, donor type, donor heavy atom, donor atom, acceptor molecule, acceptor atom, score
      L1  H     7    60       P1 10737  1.00
      L1  H    28    57       P1 10186  0.80
      P1  H 10785 10796       L1    28  0.42

> <Gold.Chemscore.Hbond.Weighted>
-8.7987

> <Gold.Chemscore.Metal.Weighted>
-0.0000

> <Gold.Chemscore.Lipo.Weighted>
-9.6925

> <Gold.Chemscore.Internal_Hbond.Weighted>
0.0000

> <Gold.Chemscore.DEClash.Weighted>
0.0567

> <Gold.Chemscore.DEInternal.Weighted>
4.6627

> <Gold.Chemscore.Rot.Weighted>
13.0942

> <Gold.Chemscore.Internal.Correction.Weighted>
   9.000000E+99

> <Gold.Protein.RotatedTorsions>
[ 6907 6896 6895 6894 ] final  147.29 input  -60.11 | X-H torsion
[ 7974 7965 7964 7962 ] final  -42.74 input  175.53 | X-H torsion
[ 8008 7997 7996 7995 ] final  -49.93 input   59.86 | X-H torsion
[ 10167 10162 10161 10158 ] final   27.51 input  -65.29 | X-H torsion
[ 10718 10713 10712 10709 ] final   76.36 input   66.30 | X-H torsion
[ 10763 10752 10751 10750 ] final -108.82 input  -60.55 | X-H torsion
[ 11005 11000 10999 10996 ] final  175.44 input  -57.11 | X-H torsion

> <Gold.Protein.ActiveResidues>
 VAL166  LYS551  ARG553  GLY616  TRP617  ASP618  TYR619  PRO620  LYS621  CYS622 
 ASP623  PHE694  ASN695  SER759  ASP760  ASP761  ALA762  ILE779  LEU786  VAL792 
 PHE793  MET794  SER795  GLU796  ALA797  LYS798  CYS799  TRP800  GLU811  SER814 

> <Gold.Protein.RotatedAtoms>
  152.1567  133.4555  159.4840 H   0  0  0  0  0  0  0  0  0  0  0  0  # atno 6907 bound_to 6896
  150.6902  134.2122  159.4373 H   0  0  0  0  0  0  0  0  0  0  0  0  # atno 6908 bound_to 6896
  152.0022  134.9921  160.0616 H   0  0  0  0  0  0  0  0  0  0  0  0  # atno 6909 bound_to 6896
  146.0086  140.6990  142.9235 H   0  0  0  0  0  0  0  0  0  0  0  0  # atno 7974 bound_to 7965
  154.4053  140.1284  156.4584 H   0  0  0  0  0  0  0  0  0  0  0  0  # atno 8008 bound_to 7997
  155.7297  140.3491  155.5034 H   0  0  0  0  0  0  0  0  0  0  0  0  # atno 8009 bound_to 7997
  155.9138  140.1040  157.1249 H   0  0  0  0  0  0  0  0  0  0  0  0  # atno 8010 bound_to 7997
  140.4932  144.0434  150.6304 H   0  0  0  0  0  0  0  0  0  0  0  0  # atno 10167 bound_to 10162
  157.6670  130.9770  150.1486 H   0  0  0  0  0  0  0  0  0  0  0  0  # atno 10718 bound_to 10713
  154.8158  135.4623  154.0639 H   0  0  0  0  0  0  0  0  0  0  0  0  # atno 10763 bound_to 10752
  153.2033  135.6872  153.8210 H   0  0  0  0  0  0  0  0  0  0  0  0  # atno 10764 bound_to 10752
  153.7687  135.3273  155.3325 H   0  0  0  0  0  0  0  0  0  0  0  0  # atno 10765 bound_to 10752
  140.3623  134.7102  157.4339 H   0  0  0  0  0  0  0  0  0  0  0  0  # atno 11005 bound_to 11000
  144.6945  140.3359  143.7208 LP  0  0  0  0  0  0  0  0  0  0  0  0  # atno 17320 bound_to 7965
  145.7377  139.1755  143.2394 LP  0  0  0  0  0  0  0  0  0  0  0  0  # atno 17321 bound_to 7965
  140.3709  143.2855  152.0279 LP  0  0  0  0  0  0  0  0  0  0  0  0  # atno 17342 bound_to 10162
  139.4855  144.6231  151.7217 LP  0  0  0  0  0  0  0  0  0  0  0  0  # atno 17343 bound_to 10162
  156.2291  130.3680  149.8466 LP  0  0  0  0  0  0  0  0  0  0  0  0  # atno 17370 bound_to 10713
  156.6298  130.8661  151.3493 LP  0  0  0  0  0  0  0  0  0  0  0  0  # atno 17371 bound_to 10713
  140.0617  134.5986  155.8741 LP  0  0  0  0  0  0  0  0  0  0  0  0  # atno 17394 bound_to 11000
  141.1980  133.6599  156.5772 LP  0  0  0  0  0  0  0  0  0  0  0  0  # atno 17395 bound_to 11000

$$$$
