AV-unprocessed.smi:2037|AV-procd|sdf|8276|dock3
  -GOLD-   2272010543D 1   1.00000     0.00000
 Structure written by MMmdl.
 39 40  0  0  0  0  0  0  0  0  2 V2000
  145.2290  131.8077  150.6386 C   0  0  0  0  0  0  0  0  0  0  0  0
  145.0673  133.1433  151.3778 C   0  0  2  0  0  0  0  0  0  0  0  0
  145.2228  134.3428  150.4285 C   0  0  0  0  0  0  0  0  0  0  0  0
  145.0884  135.6748  151.1856 C   0  0  0  0  0  0  0  0  0  0  0  0
  146.0720  135.7654  152.2956 N   0  3  1  0  0  0  0  0  0  0  0  0
  146.0460  137.0928  152.9595 C   0  0  0  0  0  0  0  0  0  0  0  0
  146.3911  138.2413  151.9911 C   0  0  0  0  0  0  0  0  0  0  0  0
  147.6044  138.9401  152.3990 N   0  0  0  0  0  0  0  0  0  0  0  0
  147.8718  139.3385  153.6513 C   0  0  0  0  0  0  0  0  0  0  0  0
  147.1025  139.1566  154.5956 O   0  0  0  0  0  0  0  0  0  0  0  0
  149.0669  139.9500  153.7265 N   0  0  0  0  0  0  0  0  0  0  0  0
  149.6897  140.5197  154.8683 C   0  0  0  0  0  0  0  0  0  0  0  0
  151.0019  140.4545  155.1231 N   0  0  0  0  0  0  0  0  0  0  0  0
  151.3366  141.0992  156.3167 C   0  0  0  0  0  0  0  0  0  0  0  0
  150.2589  141.6525  156.9627 C   0  0  0  0  0  0  0  0  0  0  0  0
  148.7720  141.3842  156.0927 S   0  0  0  0  0  0  0  0  0  0  0  0
  145.9207  134.6331  153.2485 C   0  0  0  0  0  0  0  0  0  0  0  0
  146.0732  133.2804  152.5329 C   0  0  0  0  0  0  0  0  0  0  0  0
  146.2192  131.7183  150.1907 H   0  0  0  0  0  0  0  0  0  0  0  0
  144.4928  131.7095  149.8402 H   0  0  0  0  0  0  0  0  0  0  0  0
  145.0933  130.9649  151.3169 H   0  0  0  0  0  0  0  0  0  0  0  0
  144.0605  133.1704  151.7978 H   0  0  0  0  0  0  0  0  0  0  0  0
  146.1946  134.3011  149.9341 H   0  0  0  0  0  0  0  0  0  0  0  0
  144.4727  134.2934  149.6383 H   0  0  0  0  0  0  0  0  0  0  0  0
  145.2433  136.4973  150.4861 H   0  0  0  0  0  0  0  0  0  0  0  0
  144.0778  135.7825  151.5834 H   0  0  0  0  0  0  0  0  0  0  0  0
  145.0469  137.2788  153.3561 H   0  0  0  0  0  0  0  0  0  0  0  0
  146.7190  137.0818  153.8183 H   0  0  0  0  0  0  0  0  0  0  0  0
  146.5160  137.8822  150.9692 H   0  0  0  0  0  0  0  0  0  0  0  0
  145.5755  138.9645  151.9677 H   0  0  0  0  0  0  0  0  0  0  0  0
  148.2902  139.1259  151.6814 H   0  0  0  0  0  0  0  0  0  0  0  0
  149.5931  140.0190  152.8679 H   0  0  0  0  0  0  0  0  0  0  0  0
  152.3693  141.1164  156.6325 H   0  0  0  0  0  0  0  0  0  0  0  0
  150.2497  142.1992  157.8939 H   0  0  0  0  0  0  0  0  0  0  0  0
  146.6671  134.6975  154.0392 H   0  0  0  0  0  0  0  0  0  0  0  0
  144.9447  134.6916  153.7333 H   0  0  0  0  0  0  0  0  0  0  0  0
  145.9323  132.4699  153.2488 H   0  0  0  0  0  0  0  0  0  0  0  0
  147.0913  133.1824  152.1528 H   0  0  0  0  0  0  0  0  0  0  0  0
  146.9840  135.6754  151.8712 H   0  0  0  0  0  0  0  0  0  0  0  0
  1  2  1  0  0  0  0
  1 19  1  0  0  0  0
  1 20  1  0  0  0  0
  1 21  1  0  0  0  0
  2 18  1  0  0  0  0
  2  3  1  0  0  0  0
  2 22  1  0  0  0  0
  3  4  1  0  0  0  0
  3 23  1  0  0  0  0
  3 24  1  0  0  0  0
  4  5  1  0  0  0  0
  4 25  1  0  0  0  0
  4 26  1  0  0  0  0
  5  6  1  0  0  0  0
  5 17  1  0  0  0  0
  5 39  1  0  0  0  0
  6  7  1  0  0  0  0
  6 27  1  0  0  0  0
  6 28  1  0  0  0  0
  7  8  1  0  0  0  0
  7 29  1  0  0  0  0
  7 30  1  0  0  0  0
  8  9  1  0  0  0  0
  8 31  1  0  0  0  0
  9 10  2  0  0  0  0
  9 11  1  0  0  0  0
 11 12  1  0  0  0  0
 11 32  1  0  0  0  0
 12 16  1  0  0  0  0
 12 13  2  0  0  0  0
 13 14  1  0  0  0  0
 14 15  2  0  0  0  0
 14 33  1  0  0  0  0
 15 16  1  0  0  0  0
 15 34  1  0  0  0  0
 17 18  1  0  0  0  0
 17 35  1  0  0  0  0
 17 36  1  0  0  0  0
 18 37  1  0  0  0  0
 18 38  1  0  0  0  0
M  CHG  1   5   1
M  END
> <s_m_source_file>
AV-unprocessed.smi

> <i_m_source_file_index>
2037

> <i_lp_mmshare_version>
43012

> <i_f3d_flags>
0

> <s_epik_input>
W0NIM11bQ0hdMVtDSDJdW0NIMl1OKFtDSDJdW0NIMl0xKVtDSDJdW0NIMl1bTkhdQyg9TylbTkhdYzJuW2NIXVtjSF1zMg==

> <s_epik_cmdline>
J2VwaWtfcHl0aG9uJywgJy1waCcsICc3LjAnLCAnLXRuJywgJzgnLCAnLW1hJywgJzIwMCcsICctbWV0YWxfYmluZGluZycsICctaW1hZScsICc8aW5maWxlLm1hZT4nLCAnLW9tYWUnLCAnPG91dGZpbGUubWFlPic=

> <r_lp_tautomer_probability>
0.999

> <r_epik_Ionization_Penalty>
0.00182893

> <r_epik_Ionization_Penalty_Charging>
0.00168873

> <r_epik_Ionization_Penalty_Neutral>
0.000140204

> <r_epik_State_Penalty>
0.00114045

> <r_epik_Charging_Adjusted_Penalty>
0.00282917

> <i_epik_Tot_Q>
1

> <i_epik_Tot_abs_Q>
1

> <r_epik_Metal_State_Penalty>
0.0569426

> <b_epik_Metal_Only>
0

> <s_lp_Force_Field>
OPLS_2005

> <r_lp_Energy>
13.393

> <b_lp_Chiralities_Consistent>
1

> <s_lp_Variant>
AV-unprocessed.smi:2037-1

> <Gold.Version>
5.8.1

> <Gold.Id.Protein>
6NUR|6NUR_protein|mol2

> <Gold.PLP.Fitness>
45.0865

> <Gold.PLP.PLP>
-31.6212

> <Gold.PLP.part.hbond>
-4.8593

> <Gold.PLP.part.metal>
0.0000

> <Gold.PLP.part.buried>
-2.4318

> <Gold.PLP.part.nonpolar>
-24.5568

> <Gold.PLP.part.repulsive>
0.3774

> <Gold.PLP.ligand.clash>
0.0000

> <Gold.PLP.ligand.torsion>
0.7546

> <Gold.PLP.Chemscore.Hbond>
4.9840

> <Gold.PLP.Chemscore.CHOScore>
0.0000

> <Gold.PLP.Chemscore.Metal>
0.0000

> <Gold.Chemscore.Hbonds>
donor molecule, donor type, donor heavy atom, donor atom, acceptor molecule, acceptor atom, score
      L1  H     5    39       P1  7948  1.98
      L1  H     8    31       P1  7957  1.00
      L1  H    11    32       P1  7957  0.99
      P1  H  7989  7998       L1    13  1.00

> <Gold.PLP.Chemscore.Internal.Correction>
0.0225

> <Gold.Rescore>
     Score         DG    S(hbond)    S(metal)    S(lipo)     H(rot)  DE(clash)    DE(int)     intcor
     18.84     -21.16       3.71        0.00      63.00       1.60       0.08       2.24       ----

> <Gold.Chemscore.Fitness>
18.8415

> <Gold.Chemscore.DG>
-21.1624

> <Gold.Chemscore.ZeroCoef>
-5.4800

> <Gold.Chemscore.Hbond>
3.7147

> <Gold.Chemscore.Metal>
0.0000

> <Gold.Chemscore.Lipo>
63.0038

> <Gold.Chemscore.Internal_Hbond>
0.0000

> <Gold.Chemscore.DEClash>
0.0766

> <Gold.Chemscore.DEInternal>
2.2443

> <Gold.Chemscore.Rot>
1.6001

> <Gold.Chemscore.Internal.Correction>
   9.000000E+99

> <Gold.Chemscore.Hbonds>
donor molecule, donor type, donor heavy atom, donor atom, acceptor molecule, acceptor atom, score
      L1  H     5    39       P1  7948  0.88
      L1  H     8    31       P1  7957  0.87
      L1  H    11    32       P1  7957  0.93
      P1  H  7989  7998       L1    13  0.24

> <Gold.Chemscore.Hbond.Weighted>
-12.4072

> <Gold.Chemscore.Metal.Weighted>
-0.0000

> <Gold.Chemscore.Lipo.Weighted>
-7.3714

> <Gold.Chemscore.Internal_Hbond.Weighted>
0.0000

> <Gold.Chemscore.DEClash.Weighted>
0.0766

> <Gold.Chemscore.DEInternal.Weighted>
2.2443

> <Gold.Chemscore.Rot.Weighted>
4.0963

> <Gold.Chemscore.Internal.Correction.Weighted>
   9.000000E+99

> <Gold.Protein.RotatedTorsions>
[ 6907 6896 6895 6894 ] final   51.46 input  -60.11 | X-H torsion
[ 7974 7965 7964 7962 ] final  125.54 input  175.53 | X-H torsion
[ 8008 7997 7996 7995 ] final -123.40 input   59.86 | X-H torsion
[ 10167 10162 10161 10158 ] final -161.65 input  -65.29 | X-H torsion
[ 10718 10713 10712 10709 ] final  171.59 input   66.30 | X-H torsion
[ 10763 10752 10751 10750 ] final  100.71 input  -60.55 | X-H torsion
[ 11005 11000 10999 10996 ] final  124.62 input  -57.11 | X-H torsion

> <Gold.Protein.ActiveResidues>
 VAL166  LYS551  ARG553  GLY616  TRP617  ASP618  TYR619  PRO620  LYS621  CYS622 
 ASP623  PHE694  ASN695  SER759  ASP760  ASP761  ALA762  ILE779  LEU786  VAL792 
 PHE793  MET794  SER795  GLU796  ALA797  LYS798  CYS799  TRP800  GLU811  SER814 

> <Gold.Protein.RotatedAtoms>
  152.3129  134.7475  160.0331 H   0  0  0  0  0  0  0  0  0  0  0  0  # atno 6907 bound_to 6896
  151.7950  133.3358  159.3518 H   0  0  0  0  0  0  0  0  0  0  0  0  # atno 6908 bound_to 6896
  150.7329  134.5737  159.5948 H   0  0  0  0  0  0  0  0  0  0  0  0  # atno 6909 bound_to 6896
  145.0718  139.3724  143.4953 H   0  0  0  0  0  0  0  0  0  0  0  0  # atno 7974 bound_to 7965
  155.1799  140.0410  157.2880 H   0  0  0  0  0  0  0  0  0  0  0  0  # atno 8008 bound_to 7997
  154.6210  140.2501  155.7521 H   0  0  0  0  0  0  0  0  0  0  0  0  # atno 8009 bound_to 7997
  156.2434  140.2895  156.0518 H   0  0  0  0  0  0  0  0  0  0  0  0  # atno 8010 bound_to 7997
  139.6449  144.0190  152.2120 H   0  0  0  0  0  0  0  0  0  0  0  0  # atno 10167 bound_to 10162
  156.9914  131.0149  151.2856 H   0  0  0  0  0  0  0  0  0  0  0  0  # atno 10718 bound_to 10713
  153.3174  135.4069  155.1388 H   0  0  0  0  0  0  0  0  0  0  0  0  # atno 10763 bound_to 10752
  154.8592  135.3579  154.5642 H   0  0  0  0  0  0  0  0  0  0  0  0  # atno 10764 bound_to 10752
  153.6074  135.7069  153.5419 H   0  0  0  0  0  0  0  0  0  0  0  0  # atno 10765 bound_to 10752
  139.9367  134.9639  156.8436 H   0  0  0  0  0  0  0  0  0  0  0  0  # atno 11005 bound_to 11000
  146.3529  140.0467  142.8639 LP  0  0  0  0  0  0  0  0  0  0  0  0  # atno 17320 bound_to 7965
  145.1283  140.9503  143.4559 LP  0  0  0  0  0  0  0  0  0  0  0  0  # atno 17321 bound_to 7965
  139.9890  144.6375  150.7832 LP  0  0  0  0  0  0  0  0  0  0  0  0  # atno 17342 bound_to 10162
  140.7509  143.2964  151.3193 LP  0  0  0  0  0  0  0  0  0  0  0  0  # atno 17343 bound_to 10162
  157.5456  130.8148  149.8082 LP  0  0  0  0  0  0  0  0  0  0  0  0  # atno 17370 bound_to 10713
  156.0206  130.3797  150.1975 LP  0  0  0  0  0  0  0  0  0  0  0  0  # atno 17371 bound_to 10713
  140.6057  134.0130  155.7555 LP  0  0  0  0  0  0  0  0  0  0  0  0  # atno 17394 bound_to 11000
  141.0984  133.9807  157.3121 LP  0  0  0  0  0  0  0  0  0  0  0  0  # atno 17395 bound_to 11000

$$$$
