AV-unprocessed.smi:2663|AV-procd|sdf|10324|dock10
  -GOLD-   2272014343D 1   1.00000     0.00000
 Structure written by MMmdl.
 38 39  0  0  0  0  0  0  0  0  2 V2000
  151.9376  136.7004  156.7764 C   0  0  0  0  0  0  0  0  0  0  0  0
  150.8706  137.8022  156.5471 C   0  0  1  0  0  0  0  0  0  0  0  0
  150.5031  137.8306  155.0343 C   0  0  0  0  0  0  0  0  0  0  0  0
  149.9475  136.6067  154.5952 O   0  0  0  0  0  0  0  0  0  0  0  0
  149.6625  137.5042  157.3329 N   0  0  0  0  0  0  0  0  0  0  0  0
  149.5421  136.9952  158.5704 C   0  0  0  0  0  0  0  0  0  0  0  0
  150.5409  136.6963  159.2278 O   0  0  0  0  0  0  0  0  0  0  0  0
  148.2572  136.8672  158.9723 N   0  5  0  0  0  0  0  0  0  0  0  0
  147.9798  136.3719  160.1897 C   0  0  0  0  0  0  0  0  0  0  0  0
  147.9253  137.1450  161.2861 N   0  0  0  0  0  0  0  0  0  0  0  0
  147.6261  136.4341  162.4407 N   0  0  0  0  0  0  0  0  0  0  0  0
  147.4709  135.1352  162.1850 C   0  0  0  0  0  0  0  0  0  0  0  0
  147.6806  134.6619  160.5125 S   0  0  0  0  0  0  0  0  0  0  0  0
  151.4151  139.1915  157.0380 C   0  0  0  0  0  0  0  0  0  0  0  0
  151.7715  139.2176  158.5501 C   0  0  0  0  0  0  0  0  0  0  0  0
  152.3507  140.5712  158.9916 C   0  0  0  0  0  0  0  0  0  0  0  0
  151.3907  141.7213  158.6642 C   0  0  0  0  0  0  0  0  0  0  0  0
  151.0465  141.7277  157.1700 C   0  0  0  0  0  0  0  0  0  0  0  0
  150.4626  140.3771  156.7250 C   0  0  0  0  0  0  0  0  0  0  0  0
  152.9086  137.0014  156.3824 H   0  0  0  0  0  0  0  0  0  0  0  0
  151.6735  135.7659  156.2816 H   0  0  0  0  0  0  0  0  0  0  0  0
  152.0671  136.4677  157.8331 H   0  0  0  0  0  0  0  0  0  0  0  0
  149.7755  138.6130  154.8202 H   0  0  0  0  0  0  0  0  0  0  0  0
  151.3734  138.0595  154.4193 H   0  0  0  0  0  0  0  0  0  0  0  0
  149.7658  136.6785  153.6707 H   0  0  0  0  0  0  0  0  0  0  0  0
  148.7915  137.7184  156.8699 H   0  0  0  0  0  0  0  0  0  0  0  0
  147.2347  134.4512  162.9862 H   0  0  0  0  0  0  0  0  0  0  0  0
  152.3451  139.3860  156.5018 H   0  0  0  0  0  0  0  0  0  0  0  0
  150.8882  138.9986  159.1512 H   0  0  0  0  0  0  0  0  0  0  0  0
  152.5036  138.4477  158.7889 H   0  0  0  0  0  0  0  0  0  0  0  0
  152.5565  140.5546  160.0622 H   0  0  0  0  0  0  0  0  0  0  0  0
  153.3073  140.7397  158.4954 H   0  0  0  0  0  0  0  0  0  0  0  0
  150.4776  141.6177  159.2518 H   0  0  0  0  0  0  0  0  0  0  0  0
  151.8380  142.6740  158.9492 H   0  0  0  0  0  0  0  0  0  0  0  0
  150.3359  142.5267  156.9565 H   0  0  0  0  0  0  0  0  0  0  0  0
  151.9427  141.9476  156.5885 H   0  0  0  0  0  0  0  0  0  0  0  0
  150.2600  140.4394  155.6570 H   0  0  0  0  0  0  0  0  0  0  0  0
  149.4989  140.2257  157.2128 H   0  0  0  0  0  0  0  0  0  0  0  0
  1  2  1  0  0  0  0
  1 20  1  0  0  0  0
  1 21  1  0  0  0  0
  1 22  1  0  0  0  0
  2  3  1  0  0  0  0
  2  5  1  0  0  0  0
  2 14  1  0  0  0  0
  3  4  1  0  0  0  0
  3 23  1  0  0  0  0
  3 24  1  0  0  0  0
  4 25  1  0  0  0  0
  5  6  1  0  0  0  0
  5 26  1  0  0  0  0
  6  7  2  0  0  0  0
  6  8  1  0  0  0  0
  8  9  1  0  0  0  0
  9 13  1  0  0  0  0
  9 10  2  0  0  0  0
 10 11  1  0  0  0  0
 11 12  2  0  0  0  0
 12 13  1  0  0  0  0
 12 27  1  0  0  0  0
 14 19  1  0  0  0  0
 14 15  1  0  0  0  0
 14 28  1  0  0  0  0
 15 16  1  0  0  0  0
 15 29  1  0  0  0  0
 15 30  1  0  0  0  0
 16 17  1  0  0  0  0
 16 31  1  0  0  0  0
 16 32  1  0  0  0  0
 17 18  1  0  0  0  0
 17 33  1  0  0  0  0
 17 34  1  0  0  0  0
 18 19  1  0  0  0  0
 18 35  1  0  0  0  0
 18 36  1  0  0  0  0
 19 37  1  0  0  0  0
 19 38  1  0  0  0  0
M  CHG  1   8  -1
M  END
> <s_m_source_file>
AV-unprocessed.smi

> <i_m_source_file_index>
2663

> <i_lp_mmshare_version>
43012

> <i_f3d_flags>
0

> <s_epik_input>
W0NIMl0xW0NIMl1bQ0gyXVtDSDJdW0NIMl1bQ0hdMVtDQF0oW0NIM10pKFtDSDJdW09IXSlbTkhdQyg9TylbTkhdYzJubltjSF1zMg==

> <s_epik_cmdline>
J2VwaWtfcHl0aG9uJywgJy1waCcsICc3LjAnLCAnLXRuJywgJzgnLCAnLW1hJywgJzIwMCcsICctbWV0YWxfYmluZGluZycsICctaW1hZScsICc8aW5maWxlLm1hZT4nLCAnLW9tYWUnLCAnPG91dGZpbGUubWFlPic=

> <r_lp_tautomer_probability>
1

> <r_epik_Ionization_Penalty>
4.39194

> <r_epik_Ionization_Penalty_Charging>
4.34423

> <r_epik_Ionization_Penalty_Neutral>
0.047714

> <r_epik_State_Penalty>
4.34384

> <r_epik_Charging_Adjusted_Penalty>
8.68806

> <i_epik_Tot_Q>
-1

> <i_epik_Tot_abs_Q>
1

> <r_epik_Metal_State_Penalty>
0.746645

> <b_epik_Metal_Only>
1

> <s_lp_Force_Field>
OPLS_2005

> <r_lp_Energy>
17.2717

> <b_lp_Chiralities_Consistent>
1

> <s_lp_Variant>
AV-unprocessed.smi:2663-3

> <Gold.Version>
5.8.1

> <Gold.Id.Protein>
6NUR|6NUR_protein|mol2

> <Gold.PLP.Fitness>
36.3753

> <Gold.PLP.PLP>
-27.5220

> <Gold.PLP.part.hbond>
-4.0000

> <Gold.PLP.part.metal>
0.0000

> <Gold.PLP.part.buried>
-5.5884

> <Gold.PLP.part.nonpolar>
-18.3298

> <Gold.PLP.part.repulsive>
0.0177

> <Gold.PLP.ligand.clash>
0.0000

> <Gold.PLP.ligand.torsion>
1.2395

> <Gold.PLP.Chemscore.Hbond>
3.7613

> <Gold.PLP.Chemscore.CHOScore>
0.0000

> <Gold.PLP.Chemscore.Metal>
0.0000

> <Gold.Chemscore.Hbonds>
donor molecule, donor type, donor heavy atom, donor atom, acceptor molecule, acceptor atom, score
      L1  H     4    25       P1  7948  1.00
      P1  H  6896  6907       L1     7  1.00
      P1  H  6931  6943       L1    10  1.00
      P1  H  6934  6947       L1    10  0.72

> <Gold.PLP.Chemscore.Internal.Correction>
0.0486

> <Gold.Rescore>
     Score         DG    S(hbond)    S(metal)    S(lipo)     H(rot)  DE(clash)    DE(int)     intcor
     14.54     -17.44       3.09        0.00      61.52       2.18       0.00       2.90       ----

> <Gold.Chemscore.Fitness>
14.5365

> <Gold.Chemscore.DG>
-17.4350

> <Gold.Chemscore.ZeroCoef>
-5.4800

> <Gold.Chemscore.Hbond>
3.0939

> <Gold.Chemscore.Metal>
0.0000

> <Gold.Chemscore.Lipo>
61.5214

> <Gold.Chemscore.Internal_Hbond>
0.0000

> <Gold.Chemscore.DEClash>
0.0000

> <Gold.Chemscore.DEInternal>
2.8985

> <Gold.Chemscore.Rot>
2.1783

> <Gold.Chemscore.Internal.Correction>
   9.000000E+99

> <Gold.Chemscore.Hbonds>
donor molecule, donor type, donor heavy atom, donor atom, acceptor molecule, acceptor atom, score
      L1  H     4    25       P1  7948  0.48
      P1  H  6896  6907       L1     7  1.00
      P1  H  6931  6943       L1    10  0.25
      P1  H  6934  6947       L1    10  0.59

> <Gold.Chemscore.Hbond.Weighted>
-10.3335

> <Gold.Chemscore.Metal.Weighted>
-0.0000

> <Gold.Chemscore.Lipo.Weighted>
-7.1980

> <Gold.Chemscore.Internal_Hbond.Weighted>
0.0000

> <Gold.Chemscore.DEClash.Weighted>
0.0000

> <Gold.Chemscore.DEInternal.Weighted>
2.8985

> <Gold.Chemscore.Rot.Weighted>
5.5765

> <Gold.Chemscore.Internal.Correction.Weighted>
   9.000000E+99

> <Gold.Protein.RotatedTorsions>
[ 6907 6896 6895 6894 ] final  -31.40 input  -60.11 | X-H torsion
[ 7974 7965 7964 7962 ] final  129.29 input  175.53 | X-H torsion
[ 8008 7997 7996 7995 ] final  -32.73 input   59.86 | X-H torsion
[ 10167 10162 10161 10158 ] final  145.86 input  -65.29 | X-H torsion
[ 10718 10713 10712 10709 ] final -125.10 input   66.30 | X-H torsion
[ 10763 10752 10751 10750 ] final -105.77 input  -60.55 | X-H torsion
[ 11005 11000 10999 10996 ] final  -53.57 input  -57.11 | X-H torsion

> <Gold.Protein.ActiveResidues>
 VAL166  LYS551  ARG553  GLY616  TRP617  ASP618  TYR619  PRO620  LYS621  CYS622 
 ASP623  PHE694  ASN695  SER759  ASP760  ASP761  ALA762  ILE779  LEU786  VAL792 
 PHE793  MET794  SER795  GLU796  ALA797  LYS798  CYS799  TRP800  GLU811  SER814 

> <Gold.Protein.RotatedAtoms>
  151.0925  134.9925  159.8409 H   0  0  0  0  0  0  0  0  0  0  0  0  # atno 6907 bound_to 6896
  152.5430  134.2048  159.8736 H   0  0  0  0  0  0  0  0  0  0  0  0  # atno 6908 bound_to 6896
  151.2085  133.4525  159.2631 H   0  0  0  0  0  0  0  0  0  0  0  0  # atno 6909 bound_to 6896
  145.0302  139.4052  143.5153 H   0  0  0  0  0  0  0  0  0  0  0  0  # atno 7974 bound_to 7965
  154.4171  140.1730  156.1773 H   0  0  0  0  0  0  0  0  0  0  0  0  # atno 8008 bound_to 7997
  155.9711  140.3385  155.6552 H   0  0  0  0  0  0  0  0  0  0  0  0  # atno 8009 bound_to 7997
  155.6624  140.0702  157.2540 H   0  0  0  0  0  0  0  0  0  0  0  0  # atno 8010 bound_to 7997
  139.4918  144.5871  151.6756 H   0  0  0  0  0  0  0  0  0  0  0  0  # atno 10167 bound_to 10162
  156.1645  130.6625  151.0096 H   0  0  0  0  0  0  0  0  0  0  0  0  # atno 10718 bound_to 10713
  154.7969  135.4736  154.0182 H   0  0  0  0  0  0  0  0  0  0  0  0  # atno 10763 bound_to 10752
  153.1717  135.6826  153.8605 H   0  0  0  0  0  0  0  0  0  0  0  0  # atno 10764 bound_to 10752
  153.8185  135.3207  155.3385 H   0  0  0  0  0  0  0  0  0  0  0  0  # atno 10765 bound_to 10752
  141.0982  133.6621  156.4191 H   0  0  0  0  0  0  0  0  0  0  0  0  # atno 11005 bound_to 11000
  146.3497  139.9848  142.8692 LP  0  0  0  0  0  0  0  0  0  0  0  0  # atno 17320 bound_to 7965
  145.1780  140.9753  143.4283 LP  0  0  0  0  0  0  0  0  0  0  0  0  # atno 17321 bound_to 7965
  140.5489  144.0457  150.6119 LP  0  0  0  0  0  0  0  0  0  0  0  0  # atno 17342 bound_to 10162
  140.3505  143.2966  152.0492 LP  0  0  0  0  0  0  0  0  0  0  0  0  # atno 17343 bound_to 10162
  157.6758  131.0851  150.7499 LP  0  0  0  0  0  0  0  0  0  0  0  0  # atno 17370 bound_to 10713
  156.7560  130.4783  149.5446 LP  0  0  0  0  0  0  0  0  0  0  0  0  # atno 17371 bound_to 10713
  140.5087  134.6416  157.5276 LP  0  0  0  0  0  0  0  0  0  0  0  0  # atno 17394 bound_to 11000
  139.9825  134.7114  155.9833 LP  0  0  0  0  0  0  0  0  0  0  0  0  # atno 17395 bound_to 11000

$$$$
