AV-unprocessed.smi:3330|AV-procd|sdf|12805|dock4
  -GOLD-   2272019173D 1   1.00000     0.00000
 Structure written by MMmdl.
 38 39  0  0  0  0  0  0  0  0  1 V2000
  152.6825  139.8422  158.6018 C   0  0  0  0  0  0  0  0  0  0  0  0
  151.9479  141.1608  158.9143 C   0  0  2  0  0  0  0  0  0  0  0  0
  151.1886  141.5622  157.7328 N   0  0  0  0  0  0  0  0  0  0  0  0
  149.8088  141.1046  157.7763 C   0  0  0  0  0  0  0  0  0  0  0  0
  149.4620  140.4206  156.4457 C   0  0  0  0  0  0  0  0  0  0  0  0
  148.3098  141.0605  155.8072 N   0  0  0  0  0  0  0  0  0  0  0  0
  148.2345  141.3490  154.5015 C   0  0  0  0  0  0  0  0  0  0  0  0
  149.0876  141.1456  153.6381 O   0  0  0  0  0  0  0  0  0  0  0  0
  146.8876  141.9819  154.2278 C   0  0  0  0  0  0  0  0  0  0  0  0
  146.3348  141.9447  155.5647 N   0  0  0  0  0  0  0  0  0  0  0  0
  147.1797  141.4039  156.4520 C   0  0  0  0  0  0  0  0  0  0  0  0
  146.9456  141.2503  157.6499 O   0  0  0  0  0  0  0  0  0  0  0  0
  152.9115  142.3164  159.2997 C   0  0  2  0  0  0  0  0  0  0  0  0
  153.6605  142.0677  160.6234 C   0  0  0  0  0  0  0  0  0  0  0  0
  152.2078  143.5940  159.3615 N   0  0  0  0  0  0  0  0  0  0  0  0
  152.2267  144.5283  160.3766 C   0  0  0  0  0  0  0  0  0  0  0  0
  151.4397  145.5735  159.9860 C   0  0  0  0  0  0  0  0  0  0  0  0
  150.9779  145.1857  158.6978 C   0  0  0  0  0  0  0  0  0  0  0  0
  151.4390  144.0029  158.3259 N   0  0  0  0  0  0  0  0  0  0  0  0
  153.2006  139.4578  159.4797 H   0  0  0  0  0  0  0  0  0  0  0  0
  153.4213  139.9762  157.8109 H   0  0  0  0  0  0  0  0  0  0  0  0
  151.9953  139.0585  158.2834 H   0  0  0  0  0  0  0  0  0  0  0  0
  151.2604  140.9985  159.7460 H   0  0  0  0  0  0  0  0  0  0  0  0
  151.6473  141.2404  156.8926 H   0  0  0  0  0  0  0  0  0  0  0  0
  149.6656  140.4109  158.6048 H   0  0  0  0  0  0  0  0  0  0  0  0
  149.1463  141.9557  157.9402 H   0  0  0  0  0  0  0  0  0  0  0  0
  150.3214  140.4546  155.7731 H   0  0  0  0  0  0  0  0  0  0  0  0
  149.2566  139.3612  156.6106 H   0  0  0  0  0  0  0  0  0  0  0  0
  146.9894  143.0043  153.8623 H   0  0  0  0  0  0  0  0  0  0  0  0
  146.2964  141.3876  153.5304 H   0  0  0  0  0  0  0  0  0  0  0  0
  145.4112  142.2857  155.7887 H   0  0  0  0  0  0  0  0  0  0  0  0
  153.6660  142.4082  158.5163 H   0  0  0  0  0  0  0  0  0  0  0  0
  154.3411  141.2204  160.5478 H   0  0  0  0  0  0  0  0  0  0  0  0
  152.9695  141.8691  161.4434 H   0  0  0  0  0  0  0  0  0  0  0  0
  154.2625  142.9341  160.8993 H   0  0  0  0  0  0  0  0  0  0  0  0
  152.7963  144.3748  161.2812 H   0  0  0  0  0  0  0  0  0  0  0  0
  151.2291  146.4790  160.5352 H   0  0  0  0  0  0  0  0  0  0  0  0
  150.3271  145.7253  158.0259 H   0  0  0  0  0  0  0  0  0  0  0  0
  1  2  1  0  0  0  0
  1 20  1  0  0  0  0
  1 21  1  0  0  0  0
  1 22  1  0  0  0  0
  2  3  1  0  0  0  0
  2 13  1  0  0  0  0
  2 23  1  0  0  0  0
  3  4  1  0  0  0  0
  3 24  1  0  0  0  0
  4  5  1  0  0  0  0
  4 25  1  0  0  0  0
  4 26  1  0  0  0  0
  5  6  1  0  0  0  0
  5 27  1  0  0  0  0
  5 28  1  0  0  0  0
  6 11  1  0  0  0  0
  6  7  1  0  0  0  0
  7  8  2  0  0  0  0
  7  9  1  0  0  0  0
  9 10  1  0  0  0  0
  9 29  1  0  0  0  0
  9 30  1  0  0  0  0
 10 11  1  0  0  0  0
 10 31  1  0  0  0  0
 11 12  2  0  0  0  0
 13 14  1  0  0  0  0
 13 15  1  0  0  0  0
 13 32  1  0  0  0  0
 14 33  1  0  0  0  0
 14 34  1  0  0  0  0
 14 35  1  0  0  0  0
 15 19  1  0  0  0  0
 15 16  1  0  0  0  0
 16 17  2  0  0  0  0
 16 36  1  0  0  0  0
 17 18  1  0  0  0  0
 17 37  1  0  0  0  0
 18 19  2  0  0  0  0
 18 38  1  0  0  0  0
M  END
> <s_m_source_file>
AV-unprocessed.smi

> <i_m_source_file_index>
3330

> <i_lp_mmshare_version>
43012

> <i_f3d_flags>
0

> <s_epik_input>
bjFbY0hdW2NIXVtjSF1uMVtDQEBIXShbQ0gzXSlbQ0BIXShbQ0gzXSlbTkhdW0NIMl1bQ0gyXU4yQyg9TylbQ0gyXVtOSF1DMj1P

> <s_epik_cmdline>
J2VwaWtfcHl0aG9uJywgJy1waCcsICc3LjAnLCAnLXRuJywgJzgnLCAnLW1hJywgJzIwMCcsICctbWV0YWxfYmluZGluZycsICctaW1hZScsICc8aW5maWxlLm1hZT4nLCAnLW9tYWUnLCAnPG91dGZpbGUubWFlPic=

> <r_lp_tautomer_probability>
1

> <r_epik_Ionization_Penalty>
2.2997

> <r_epik_Ionization_Penalty_Charging>
0

> <r_epik_Ionization_Penalty_Neutral>
2.2997

> <r_epik_State_Penalty>
2.44917

> <r_epik_Charging_Adjusted_Penalty>
2.44917

> <i_epik_Tot_Q>
0

> <i_epik_Tot_abs_Q>
0

> <r_epik_Metal_State_Penalty>
2.52438

> <b_epik_Metal_Only>
0

> <s_lp_Force_Field>
OPLS_2005

> <r_lp_Energy>
24.6484

> <b_lp_Chiralities_Consistent>
1

> <s_lp_Variant>
AV-unprocessed.smi:3330-5

> <Gold.Version>
5.8.1

> <Gold.Id.Protein>
6NUR|6NUR_protein|mol2

> <Gold.PLP.Fitness>
42.4315

> <Gold.PLP.PLP>
-40.1026

> <Gold.PLP.part.hbond>
-2.0000

> <Gold.PLP.part.metal>
0.0000

> <Gold.PLP.part.buried>
-7.0579

> <Gold.PLP.part.nonpolar>
-33.1550

> <Gold.PLP.part.repulsive>
2.6312

> <Gold.PLP.ligand.clash>
0.0000

> <Gold.PLP.ligand.torsion>
1.5687

> <Gold.PLP.Chemscore.Hbond>
0.8800

> <Gold.PLP.Chemscore.CHOScore>
0.9073

> <Gold.PLP.Chemscore.Metal>
0.0000

> <Gold.Chemscore.Hbonds>
donor molecule, donor type, donor heavy atom, donor atom, acceptor molecule, acceptor atom, score
      P1  H  8011  8017       L1     8  0.96
      L1  C    18    38       P1  8028  0.01
      L1  C    18    38       P1  8029  0.87

> <Gold.PLP.Chemscore.Internal.Correction>
0.1044

> <Gold.Rescore>
     Score         DG    S(hbond)    S(metal)    S(lipo)     H(rot)  DE(clash)    DE(int)     intcor
      7.21     -13.05       1.17        0.00      87.99       2.60       1.64       4.21       ----

> <Gold.Chemscore.Fitness>
7.2061

> <Gold.Chemscore.DG>
-13.0479

> <Gold.Chemscore.ZeroCoef>
-5.4800

> <Gold.Chemscore.Hbond>
1.1726

> <Gold.Chemscore.Metal>
0.0000

> <Gold.Chemscore.Lipo>
87.9935

> <Gold.Chemscore.Internal_Hbond>
0.0000

> <Gold.Chemscore.DEClash>
1.6358

> <Gold.Chemscore.DEInternal>
4.2059

> <Gold.Chemscore.Rot>
2.5952

> <Gold.Chemscore.Internal.Correction>
   9.000000E+99

> <Gold.Chemscore.Hbonds>
donor molecule, donor type, donor heavy atom, donor atom, acceptor molecule, acceptor atom, score
      P1  H  8011  8017       L1     8  0.91

> <Gold.Chemscore.Hbond.Weighted>
-3.9164

> <Gold.Chemscore.Metal.Weighted>
-0.0000

> <Gold.Chemscore.Lipo.Weighted>
-10.2952

> <Gold.Chemscore.Internal_Hbond.Weighted>
0.0000

> <Gold.Chemscore.DEClash.Weighted>
1.6358

> <Gold.Chemscore.DEInternal.Weighted>
4.2059

> <Gold.Chemscore.Rot.Weighted>
6.6437

> <Gold.Chemscore.Internal.Correction.Weighted>
   9.000000E+99

> <Gold.Protein.RotatedTorsions>
[ 6907 6896 6895 6894 ] final   54.73 input  -60.11 | X-H torsion
[ 7974 7965 7964 7962 ] final  153.12 input  175.53 | X-H torsion
[ 8008 7997 7996 7995 ] final -117.67 input   59.86 | X-H torsion
[ 10167 10162 10161 10158 ] final    4.52 input  -65.29 | X-H torsion
[ 10718 10713 10712 10709 ] final -109.04 input   66.30 | X-H torsion
[ 10763 10752 10751 10750 ] final  -95.67 input  -60.55 | X-H torsion
[ 11005 11000 10999 10996 ] final   26.62 input  -57.11 | X-H torsion

> <Gold.Protein.ActiveResidues>
 VAL166  LYS551  ARG553  GLY616  TRP617  ASP618  TYR619  PRO620  LYS621  CYS622 
 ASP623  PHE694  ASN695  SER759  ASP760  ASP761  ALA762  ILE779  LEU786  VAL792 
 PHE793  MET794  SER795  GLU796  ALA797  LYS798  CYS799  TRP800  GLU811  SER814 

> <Gold.Protein.RotatedAtoms>
  152.3468  134.7059  160.0247 H   0  0  0  0  0  0  0  0  0  0  0  0  # atno 6907 bound_to 6896
  151.7426  133.3317  159.3378 H   0  0  0  0  0  0  0  0  0  0  0  0  # atno 6908 bound_to 6896
  150.7514  134.6197  159.6174 H   0  0  0  0  0  0  0  0  0  0  0  0  # atno 6909 bound_to 6896
  144.8176  139.6758  143.6114 H   0  0  0  0  0  0  0  0  0  0  0  0  # atno 7974 bound_to 7965
  155.0874  140.0394  157.2658 H   0  0  0  0  0  0  0  0  0  0  0  0  # atno 8008 bound_to 7997
  154.6859  140.2643  155.6836 H   0  0  0  0  0  0  0  0  0  0  0  0  # atno 8009 bound_to 7997
  156.2711  140.2769  156.1420 H   0  0  0  0  0  0  0  0  0  0  0  0  # atno 8010 bound_to 7997
  140.6530  143.7497  150.7607 H   0  0  0  0  0  0  0  0  0  0  0  0  # atno 10167 bound_to 10162
  156.0516  130.5744  150.8045 H   0  0  0  0  0  0  0  0  0  0  0  0  # atno 10718 bound_to 10713
  154.7170  135.5112  153.8753 H   0  0  0  0  0  0  0  0  0  0  0  0  # atno 10763 bound_to 10752
  153.0829  135.6636  154.0017 H   0  0  0  0  0  0  0  0  0  0  0  0  # atno 10764 bound_to 10752
  153.9848  135.3025  155.3396 H   0  0  0  0  0  0  0  0  0  0  0  0  # atno 10765 bound_to 10752
  140.3351  134.2395  155.7697 H   0  0  0  0  0  0  0  0  0  0  0  0  # atno 11005 bound_to 11000
  146.2480  139.6139  142.9446 LP  0  0  0  0  0  0  0  0  0  0  0  0  # atno 17320 bound_to 7965
  145.5179  141.0433  143.2452 LP  0  0  0  0  0  0  0  0  0  0  0  0  # atno 17321 bound_to 7965
  140.1151  143.4663  152.2347 LP  0  0  0  0  0  0  0  0  0  0  0  0  # atno 17342 bound_to 10162
  139.5748  144.7482  151.3794 LP  0  0  0  0  0  0  0  0  0  0  0  0  # atno 17343 bound_to 10162
  157.5448  131.0942  150.9777 LP  0  0  0  0  0  0  0  0  0  0  0  0  # atno 17370 bound_to 10713
  157.0051  130.5615  149.5315 LP  0  0  0  0  0  0  0  0  0  0  0  0  # atno 17371 bound_to 10713
  141.2053  133.7863  157.0239 LP  0  0  0  0  0  0  0  0  0  0  0  0  # atno 17394 bound_to 11000
  140.0828  134.9638  157.1651 LP  0  0  0  0  0  0  0  0  0  0  0  0  # atno 17395 bound_to 11000

$$$$
