AV-unprocessed.smi:1224|AV-procd|sdf|5133|dock10
  -GOLD-   22720 4193D 1   1.00000     0.00000
 Structure written by MMmdl.
 43 45  0  0  0  0  0  0  0  0  1 V2000
  152.7272  142.6325  161.6026 C   0  0  0  0  0  0  0  0  0  0  0  0
  152.1882  142.3405  160.2132 C   0  0  0  0  0  0  0  0  0  0  0  0
  152.6358  141.1871  159.5304 C   0  0  0  0  0  0  0  0  0  0  0  0
  152.1586  140.8799  158.2374 C   0  0  0  0  0  0  0  0  0  0  0  0
  152.4577  139.8211  157.3971 N   0  0  0  0  0  0  0  0  0  0  0  0
  151.6976  140.0944  156.3407 C   0  0  0  0  0  0  0  0  0  0  0  0
  150.9328  141.2018  156.4012 N   0  0  0  0  0  0  0  0  0  0  0  0
  150.0244  141.6975  155.3826 C   0  0  0  0  0  0  0  0  0  0  0  0
  149.2067  140.5726  154.7174 C   0  0  1  0  0  0  0  0  0  0  0  0
  150.0688  139.8926  153.8293 O   0  0  0  0  0  0  0  0  0  0  0  0
  148.6357  139.5497  155.7186 C   0  0  0  0  0  0  0  0  0  0  0  0
  147.7261  140.1888  156.6644 N   0  0  0  0  0  0  0  0  0  0  0  0
  146.3317  140.1384  156.2403 C   0  0  0  0  0  0  0  0  0  0  0  0
  145.9239  141.3767  155.5149 C   0  0  0  0  0  0  0  0  0  0  0  0
  145.0588  142.3531  155.9400 C   0  0  0  0  0  0  0  0  0  0  0  0
  144.8911  143.4053  154.9924 C   0  0  0  0  0  0  0  0  0  0  0  0
  145.6309  143.2177  153.8551 C   0  0  0  0  0  0  0  0  0  0  0  0
  146.5516  141.7401  153.9270 S   0  0  0  0  0  0  0  0  0  0  0  0
  151.2117  141.7638  157.6422 C   0  0  0  0  0  0  0  0  0  0  0  0
  150.7603  142.9155  158.3104 C   0  0  0  0  0  0  0  0  0  0  0  0
  151.2481  143.2081  159.6013 C   0  0  0  0  0  0  0  0  0  0  0  0
  150.7538  144.4541  160.3148 C   0  0  0  0  0  0  0  0  0  0  0  0
  153.4383  141.8703  161.9227 H   0  0  0  0  0  0  0  0  0  0  0  0
  151.9152  142.6579  162.3295 H   0  0  0  0  0  0  0  0  0  0  0  0
  153.2384  143.5953  161.6201 H   0  0  0  0  0  0  0  0  0  0  0  0
  153.3522  140.5261  159.9955 H   0  0  0  0  0  0  0  0  0  0  0  0
  151.6898  139.4477  155.4754 H   0  0  0  0  0  0  0  0  0  0  0  0
  149.3580  142.4235  155.8504 H   0  0  0  0  0  0  0  0  0  0  0  0
  150.6027  142.2411  154.6337 H   0  0  0  0  0  0  0  0  0  0  0  0
  148.3976  141.0202  154.1384 H   0  0  0  0  0  0  0  0  0  0  0  0
  149.6717  139.8937  152.9715 H   0  0  0  0  0  0  0  0  0  0  0  0
  148.1398  138.7331  155.1918 H   0  0  0  0  0  0  0  0  0  0  0  0
  149.4507  139.0969  156.2830 H   0  0  0  0  0  0  0  0  0  0  0  0
  147.8167  139.7366  157.5687 H   0  0  0  0  0  0  0  0  0  0  0  0
  146.1718  139.2764  155.5917 H   0  0  0  0  0  0  0  0  0  0  0  0
  145.6861  139.9934  157.1072 H   0  0  0  0  0  0  0  0  0  0  0  0
  144.5454  142.3476  156.8905 H   0  0  0  0  0  0  0  0  0  0  0  0
  144.2432  144.2497  155.1755 H   0  0  0  0  0  0  0  0  0  0  0  0
  145.6918  143.8535  152.9841 H   0  0  0  0  0  0  0  0  0  0  0  0
  150.0442  143.5677  157.8328 H   0  0  0  0  0  0  0  0  0  0  0  0
  150.0394  145.0056  159.7029 H   0  0  0  0  0  0  0  0  0  0  0  0
  151.5860  145.1213  160.5401 H   0  0  0  0  0  0  0  0  0  0  0  0
  150.2590  144.1887  161.2493 H   0  0  0  0  0  0  0  0  0  0  0  0
  1  2  1  0  0  0  0
  1 23  1  0  0  0  0
  1 24  1  0  0  0  0
  1 25  1  0  0  0  0
  2 21  1  0  0  0  0
  2  3  2  0  0  0  0
  3  4  1  0  0  0  0
  3 26  1  0  0  0  0
  4 19  2  0  0  0  0
  4  5  1  0  0  0  0
  5  6  2  0  0  0  0
  6  7  1  0  0  0  0
  6 27  1  0  0  0  0
  7  8  1  0  0  0  0
  7 19  1  0  0  0  0
  8  9  1  0  0  0  0
  8 28  1  0  0  0  0
  8 29  1  0  0  0  0
  9 10  1  0  0  0  0
  9 11  1  0  0  0  0
  9 30  1  0  0  0  0
 10 31  1  0  0  0  0
 11 12  1  0  0  0  0
 11 32  1  0  0  0  0
 11 33  1  0  0  0  0
 12 13  1  0  0  0  0
 12 34  1  0  0  0  0
 13 14  1  0  0  0  0
 13 35  1  0  0  0  0
 13 36  1  0  0  0  0
 14 18  1  0  0  0  0
 14 15  2  0  0  0  0
 15 16  1  0  0  0  0
 15 37  1  0  0  0  0
 16 17  2  0  0  0  0
 16 38  1  0  0  0  0
 17 18  1  0  0  0  0
 17 39  1  0  0  0  0
 19 20  1  0  0  0  0
 20 21  2  0  0  0  0
 20 40  1  0  0  0  0
 21 22  1  0  0  0  0
 22 41  1  0  0  0  0
 22 42  1  0  0  0  0
 22 43  1  0  0  0  0
M  END
> <s_m_source_file>
AV-unprocessed.smi

> <i_m_source_file_index>
1224

> <i_lp_mmshare_version>
43012

> <i_f3d_flags>
0

> <s_epik_input>
W0NIM11jKFtjSF0xKWMoW0NIM10pW2NIXWMoYzEyKW4oW2NIXW4yKVtDSDJdW0NASF0oW09IXSlbQ0gyXVtOSF1bQ0gyXWMzW2NIXVtjSF1bY0hdczM=

> <s_epik_cmdline>
J2VwaWtfcHl0aG9uJywgJy1waCcsICc3LjAnLCAnLXRuJywgJzgnLCAnLW1hJywgJzIwMCcsICctbWV0YWxfYmluZGluZycsICctaW1hZScsICc8aW5maWxlLm1hZT4nLCAnLW9tYWUnLCAnPG91dGZpbGUubWFlPic=

> <r_epik_Ionization_Penalty>
1.55566

> <r_epik_Ionization_Penalty_Charging>
0

> <r_epik_Ionization_Penalty_Neutral>
1.55566

> <r_epik_State_Penalty>
1.63945

> <r_epik_Charging_Adjusted_Penalty>
1.63945

> <i_epik_Tot_Q>
0

> <i_epik_Tot_abs_Q>
0

> <r_epik_Metal_State_Penalty>
1.52326

> <b_epik_Metal_Only>
0

> <s_lp_Force_Field>
OPLS_2005

> <r_lp_Energy>
15.3814

> <b_lp_Chiralities_Consistent>
1

> <s_lp_Variant>
AV-unprocessed.smi:1224-6

> <Gold.Version>
5.8.1

> <Gold.Id.Protein>
6NUR|6NUR_protein|mol2

> <Gold.PLP.Fitness>
54.1523

> <Gold.PLP.PLP>
-47.3534

> <Gold.PLP.part.hbond>
-3.0000

> <Gold.PLP.part.metal>
0.0000

> <Gold.PLP.part.buried>
-6.4260

> <Gold.PLP.part.nonpolar>
-37.6595

> <Gold.PLP.part.repulsive>
0.0000

> <Gold.PLP.ligand.clash>
0.0000

> <Gold.PLP.ligand.torsion>
0.9139

> <Gold.PLP.Chemscore.Hbond>
2.8553

> <Gold.PLP.Chemscore.CHOScore>
0.0000

> <Gold.PLP.Chemscore.Metal>
0.0000

> <Gold.Chemscore.Hbonds>
donor molecule, donor type, donor heavy atom, donor atom, acceptor molecule, acceptor atom, score
      L1  H    10    31       P1  7957  1.00
      P1  H  7989  7998       L1    10  0.88
      P1  H  7997  8010       L1     5  0.84

> <Gold.PLP.Chemscore.Internal.Correction>
0.0610

> <Gold.Rescore>
     Score         DG    S(hbond)    S(metal)    S(lipo)     H(rot)  DE(clash)    DE(int)     intcor
     16.40     -18.65       1.64        0.00     116.51       2.32       0.27       1.98       ----

> <Gold.Chemscore.Fitness>
16.3976

> <Gold.Chemscore.DG>
-18.6475

> <Gold.Chemscore.ZeroCoef>
-5.4800

> <Gold.Chemscore.Hbond>
1.6371

> <Gold.Chemscore.Metal>
0.0000

> <Gold.Chemscore.Lipo>
116.5124

> <Gold.Chemscore.Internal_Hbond>
0.0000

> <Gold.Chemscore.DEClash>
0.2728

> <Gold.Chemscore.DEInternal>
1.9772

> <Gold.Chemscore.Rot>
2.3173

> <Gold.Chemscore.Internal.Correction>
   9.000000E+99

> <Gold.Chemscore.Hbonds>
donor molecule, donor type, donor heavy atom, donor atom, acceptor molecule, acceptor atom, score
      L1  H    10    31       P1  7957  0.99
      P1  H  7989  7998       L1    10  0.18
      P1  H  7997  8010       L1     5  0.15

> <Gold.Chemscore.Hbond.Weighted>
-5.4680

> <Gold.Chemscore.Metal.Weighted>
-0.0000

> <Gold.Chemscore.Lipo.Weighted>
-13.6320

> <Gold.Chemscore.Internal_Hbond.Weighted>
0.0000

> <Gold.Chemscore.DEClash.Weighted>
0.2728

> <Gold.Chemscore.DEInternal.Weighted>
1.9772

> <Gold.Chemscore.Rot.Weighted>
5.9324

> <Gold.Chemscore.Internal.Correction.Weighted>
   9.000000E+99

> <Gold.Protein.RotatedTorsions>
[ 6907 6896 6895 6894 ] final  -92.43 input  -60.11 | X-H torsion
[ 7974 7965 7964 7962 ] final   97.20 input  175.53 | X-H torsion
[ 8008 7997 7996 7995 ] final   66.27 input   59.86 | X-H torsion
[ 10167 10162 10161 10158 ] final  103.20 input  -65.29 | X-H torsion
[ 10718 10713 10712 10709 ] final  -92.70 input   66.30 | X-H torsion
[ 10763 10752 10751 10750 ] final -152.70 input  -60.55 | X-H torsion
[ 11005 11000 10999 10996 ] final -157.80 input  -57.11 | X-H torsion

> <Gold.Protein.ActiveResidues>
 VAL166  LYS551  ARG553  GLY616  TRP617  ASP618  TYR619  PRO620  LYS621  CYS622 
 ASP623  PHE694  ASN695  SER759  ASP760  ASP761  ALA762  ILE779  LEU786  VAL792 
 PHE793  MET794  SER795  GLU796  ALA797  LYS798  CYS799  TRP800  GLU811  SER814 

> <Gold.Protein.RotatedAtoms>
  150.6906  134.2123  159.4363 H   0  0  0  0  0  0  0  0  0  0  0  0  # atno 6907 bound_to 6896
  152.0084  134.9887  160.0576 H   0  0  0  0  0  0  0  0  0  0  0  0  # atno 6908 bound_to 6896
  152.1512  133.4488  159.4851 H   0  0  0  0  0  0  0  0  0  0  0  0  # atno 6909 bound_to 6896
  145.4287  139.2313  143.3156 H   0  0  0  0  0  0  0  0  0  0  0  0  # atno 7974 bound_to 7965
  155.6748  140.3497  155.4832 H   0  0  0  0  0  0  0  0  0  0  0  0  # atno 8008 bound_to 7997
  155.9658  140.1146  157.0879 H   0  0  0  0  0  0  0  0  0  0  0  0  # atno 8009 bound_to 7997
  154.4154  140.1167  156.5226 H   0  0  0  0  0  0  0  0  0  0  0  0  # atno 8010 bound_to 7997
  139.7283  144.7042  151.0762 H   0  0  0  0  0  0  0  0  0  0  0  0  # atno 10167 bound_to 10162
  156.0005  130.4997  150.5665 H   0  0  0  0  0  0  0  0  0  0  0  0  # atno 10718 bound_to 10713
  154.7977  135.3230  154.7627 H   0  0  0  0  0  0  0  0  0  0  0  0  # atno 10763 bound_to 10752
  153.8302  135.6880  153.4820 H   0  0  0  0  0  0  0  0  0  0  0  0  # atno 10764 bound_to 10752
  153.1676  135.4636  154.9801 H   0  0  0  0  0  0  0  0  0  0  0  0  # atno 10765 bound_to 10752
  140.6606  134.4353  157.5234 H   0  0  0  0  0  0  0  0  0  0  0  0  # atno 11005 bound_to 11000
  146.2618  140.5021  142.8850 LP  0  0  0  0  0  0  0  0  0  0  0  0  # atno 17320 bound_to 7965
  144.8197  140.6529  143.6361 LP  0  0  0  0  0  0  0  0  0  0  0  0  # atno 17321 bound_to 7965
  140.7767  143.5076  150.9693 LP  0  0  0  0  0  0  0  0  0  0  0  0  # atno 17342 bound_to 10162
  139.8764  143.7128  152.3161 LP  0  0  0  0  0  0  0  0  0  0  0  0  # atno 17343 bound_to 10162
  157.3567  131.0743  151.1670 LP  0  0  0  0  0  0  0  0  0  0  0  0  # atno 17370 bound_to 10713
  157.2468  130.6595  149.5914 LP  0  0  0  0  0  0  0  0  0  0  0  0  # atno 17371 bound_to 10713
  139.9014  134.8547  156.1880 LP  0  0  0  0  0  0  0  0  0  0  0  0  # atno 17394 bound_to 11000
  141.0468  133.6909  156.1698 LP  0  0  0  0  0  0  0  0  0  0  0  0  # atno 17395 bound_to 11000

$$$$
