AV-unprocessed.smi:3278|AV-procd|sdf|12540|dock6
  -GOLD-   2272018453D 1   1.00000     0.00000
 Structure written by MMmdl.
 39 40  0  0  0  0  0  0  0  0  2 V2000
  145.9271  142.7890  154.3345 C   0  0  0  0  0  0  0  0  0  0  0  0
  147.1647  142.0504  154.4651 N   0  0  0  0  0  0  0  0  0  0  0  0
  148.1100  142.1246  155.4647 C   0  0  0  0  0  0  0  0  0  0  0  0
  149.1055  141.2364  155.1610 C   0  0  0  0  0  0  0  0  0  0  0  0
  150.3708  140.9168  155.9285 C   0  0  1  0  0  0  0  0  0  0  0  0
  150.0151  140.2272  157.2565 C   0  0  0  0  0  0  0  0  0  0  0  0
  151.1993  140.0079  155.2264 O   0  0  0  0  0  0  0  0  0  0  0  0
  151.2043  142.1915  156.1855 C   0  0  0  0  0  0  0  0  0  0  0  0
  150.5715  143.0637  157.2013 N   0  3  0  0  0  0  0  0  0  0  0  0
  151.4739  143.5730  158.2570 C   0  0  2  0  0  0  0  0  0  0  0  0
  151.8820  142.4078  159.1798 C   0  0  0  0  0  0  0  0  0  0  0  0
  152.8911  142.8262  160.2619 C   0  0  0  0  0  0  0  0  0  0  0  0
  152.3321  143.9072  161.1967 C   0  0  0  0  0  0  0  0  0  0  0  0
  151.9392  145.4208  160.2806 S   0  0  0  0  0  0  0  0  0  0  0  0
  150.8056  144.7114  159.0555 C   0  0  0  0  0  0  0  0  0  0  0  0
  148.6664  140.6693  153.9284 C   0  0  0  0  0  0  0  0  0  0  0  0
  147.5050  141.1515  153.5202 N   0  0  0  0  0  0  0  0  0  0  0  0
  145.8057  143.4688  155.1783 H   0  0  0  0  0  0  0  0  0  0  0  0
  145.0845  142.0972  154.3125 H   0  0  0  0  0  0  0  0  0  0  0  0
  145.9389  143.3695  153.4113 H   0  0  0  0  0  0  0  0  0  0  0  0
  147.9965  142.7956  156.3037 H   0  0  0  0  0  0  0  0  0  0  0  0
  149.3972  140.8698  157.8850 H   0  0  0  0  0  0  0  0  0  0  0  0
  150.9087  139.9736  157.8284 H   0  0  0  0  0  0  0  0  0  0  0  0
  149.4596  139.3037  157.0872 H   0  0  0  0  0  0  0  0  0  0  0  0
  150.8540  139.1347  155.3368 H   0  0  0  0  0  0  0  0  0  0  0  0
  152.1990  141.9137  156.5377 H   0  0  0  0  0  0  0  0  0  0  0  0
  151.3451  142.7420  155.2551 H   0  0  0  0  0  0  0  0  0  0  0  0
  150.1271  143.8438  156.7385 H   0  0  0  0  0  0  0  0  0  0  0  0
  152.3763  143.9535  157.7754 H   0  0  0  0  0  0  0  0  0  0  0  0
  150.9970  141.9805  159.6539 H   0  0  0  0  0  0  0  0  0  0  0  0
  152.3219  141.6082  158.5821 H   0  0  0  0  0  0  0  0  0  0  0  0
  153.1689  141.9518  160.8511 H   0  0  0  0  0  0  0  0  0  0  0  0
  153.8100  143.1824  159.7942 H   0  0  0  0  0  0  0  0  0  0  0  0
  151.4318  143.5501  161.6980 H   0  0  0  0  0  0  0  0  0  0  0  0
  153.0576  144.1470  161.9742 H   0  0  0  0  0  0  0  0  0  0  0  0
  150.4871  145.5201  158.3984 H   0  0  0  0  0  0  0  0  0  0  0  0
  149.9141  144.3482  159.5685 H   0  0  0  0  0  0  0  0  0  0  0  0
  149.1542  139.9181  153.3249 H   0  0  0  0  0  0  0  0  0  0  0  0
  149.8541  142.5139  157.6523 H   0  0  0  0  0  0  0  0  0  0  0  0
  1  2  1  0  0  0  0
  1 18  1  0  0  0  0
  1 19  1  0  0  0  0
  1 20  1  0  0  0  0
  2 17  1  0  0  0  0
  2  3  1  0  0  0  0
  3  4  2  0  0  0  0
  3 21  1  0  0  0  0
  4  5  1  0  0  0  0
  4 16  1  0  0  0  0
  5  6  1  0  0  0  0
  5  7  1  0  0  0  0
  5  8  1  0  0  0  0
  6 22  1  0  0  0  0
  6 23  1  0  0  0  0
  6 24  1  0  0  0  0
  7 25  1  0  0  0  0
  8  9  1  0  0  0  0
  8 26  1  0  0  0  0
  8 27  1  0  0  0  0
  9 10  1  0  0  0  0
  9 28  1  0  0  0  0
  9 39  1  0  0  0  0
 10 15  1  0  0  0  0
 10 11  1  0  0  0  0
 10 29  1  0  0  0  0
 11 12  1  0  0  0  0
 11 30  1  0  0  0  0
 11 31  1  0  0  0  0
 12 13  1  0  0  0  0
 12 32  1  0  0  0  0
 12 33  1  0  0  0  0
 13 14  1  0  0  0  0
 13 34  1  0  0  0  0
 13 35  1  0  0  0  0
 14 15  1  0  0  0  0
 15 36  1  0  0  0  0
 15 37  1  0  0  0  0
 16 17  2  0  0  0  0
 16 38  1  0  0  0  0
M  CHG  1   9   1
M  END
> <s_m_source_file>
AV-unprocessed.smi

> <i_m_source_file_index>
3278

> <i_lp_mmshare_version>
43012

> <i_f3d_flags>
0

> <s_epik_input>
W0NIM11uMVtjSF1jKFtjSF1uMSlbQ0BAXShbQ0gzXSkoW09IXSlbQ0gyXVtOSF1bQ0BASF0yW0NIMl1bQ0gyXVtDSDJdU1tDSDJdMg==

> <s_epik_cmdline>
J2VwaWtfcHl0aG9uJywgJy1waCcsICc3LjAnLCAnLXRuJywgJzgnLCAnLW1hJywgJzIwMCcsICctbWV0YWxfYmluZGluZycsICctaW1hZScsICc8aW5maWxlLm1hZT4nLCAnLW9tYWUnLCAnPG91dGZpbGUubWFlPic=

> <r_lp_tautomer_probability>
1

> <r_epik_Ionization_Penalty>
0.0185703

> <r_epik_Ionization_Penalty_Charging>
0.0185619

> <r_epik_Ionization_Penalty_Neutral>
8.47286e-06

> <r_epik_State_Penalty>
0.0147768

> <r_epik_Charging_Adjusted_Penalty>
0.0333386

> <i_epik_Tot_Q>
1

> <i_epik_Tot_abs_Q>
1

> <r_epik_Metal_State_Penalty>
0.0147782

> <b_epik_Metal_Only>
0

> <s_lp_Force_Field>
OPLS_2005

> <r_lp_Energy>
8.27039

> <b_lp_Chiralities_Consistent>
1

> <s_lp_Variant>
AV-unprocessed.smi:3278-1

> <Gold.Version>
5.8.1

> <Gold.Id.Protein>
6NUR|6NUR_protein|mol2

> <Gold.PLP.Fitness>
50.6854

> <Gold.PLP.PLP>
-38.5417

> <Gold.PLP.part.hbond>
-2.0000

> <Gold.PLP.part.metal>
0.0000

> <Gold.PLP.part.buried>
-2.1952

> <Gold.PLP.part.nonpolar>
-34.7651

> <Gold.PLP.part.repulsive>
0.1796

> <Gold.PLP.ligand.clash>
0.0000

> <Gold.PLP.ligand.torsion>
0.6074

> <Gold.PLP.Chemscore.Hbond>
3.0000

> <Gold.PLP.Chemscore.CHOScore>
1.4417

> <Gold.PLP.Chemscore.Metal>
0.0000

> <Gold.Chemscore.Hbonds>
donor molecule, donor type, donor heavy atom, donor atom, acceptor molecule, acceptor atom, score
      L1  H     9    28       P1  8028  2.00
      P1  H  7989  7998       L1     7  1.00
      L1  C     3    21       P1  8028  0.52
      L1  C    16    38       P1  7957  0.94

> <Gold.PLP.Chemscore.Internal.Correction>
0.0334

> <Gold.Rescore>
     Score         DG    S(hbond)    S(metal)    S(lipo)     H(rot)  DE(clash)    DE(int)     intcor
     18.50     -19.29       1.87        0.00     108.51       2.00       0.29       0.50       ----

> <Gold.Chemscore.Fitness>
18.5039

> <Gold.Chemscore.DG>
-19.2920

> <Gold.Chemscore.ZeroCoef>
-5.4800

> <Gold.Chemscore.Hbond>
1.8700

> <Gold.Chemscore.Metal>
0.0000

> <Gold.Chemscore.Lipo>
108.5110

> <Gold.Chemscore.Internal_Hbond>
0.0000

> <Gold.Chemscore.DEClash>
0.2878

> <Gold.Chemscore.DEInternal>
0.5003

> <Gold.Chemscore.Rot>
2.0038

> <Gold.Chemscore.Internal.Correction>
   9.000000E+99

> <Gold.Chemscore.Hbonds>
donor molecule, donor type, donor heavy atom, donor atom, acceptor molecule, acceptor atom, score
      L1  H     9    28       P1  8028  0.99
      P1  H  7989  7998       L1     7  0.54

> <Gold.Chemscore.Hbond.Weighted>
-6.2458

> <Gold.Chemscore.Metal.Weighted>
-0.0000

> <Gold.Chemscore.Lipo.Weighted>
-12.6958

> <Gold.Chemscore.Internal_Hbond.Weighted>
0.0000

> <Gold.Chemscore.DEClash.Weighted>
0.2878

> <Gold.Chemscore.DEInternal.Weighted>
0.5003

> <Gold.Chemscore.Rot.Weighted>
5.1296

> <Gold.Chemscore.Internal.Correction.Weighted>
   9.000000E+99

> <Gold.Protein.RotatedTorsions>
[ 6907 6896 6895 6894 ] final  -42.19 input  -60.11 | X-H torsion
[ 7974 7965 7964 7962 ] final   86.25 input  175.53 | X-H torsion
[ 8008 7997 7996 7995 ] final  109.22 input   59.86 | X-H torsion
[ 10167 10162 10161 10158 ] final    3.09 input  -65.29 | X-H torsion
[ 10718 10713 10712 10709 ] final   20.65 input   66.30 | X-H torsion
[ 10763 10752 10751 10750 ] final  158.34 input  -60.55 | X-H torsion
[ 11005 11000 10999 10996 ] final   47.48 input  -57.11 | X-H torsion

> <Gold.Protein.ActiveResidues>
 VAL166  LYS551  ARG553  GLY616  TRP617  ASP618  TYR619  PRO620  LYS621  CYS622 
 ASP623  PHE694  ASN695  SER759  ASP760  ASP761  ALA762  ILE779  LEU786  VAL792 
 PHE793  MET794  SER795  GLU796  ALA797  LYS798  CYS799  TRP800  GLU811  SER814 

> <Gold.Protein.RotatedAtoms>
  150.9581  134.8972  159.7713 H   0  0  0  0  0  0  0  0  0  0  0  0  # atno 6907 bound_to 6896
  152.5145  134.3712  159.9328 H   0  0  0  0  0  0  0  0  0  0  0  0  # atno 6908 bound_to 6896
  151.3725  133.3809  159.2736 H   0  0  0  0  0  0  0  0  0  0  0  0  # atno 6909 bound_to 6896
  145.5748  139.2318  143.2386 H   0  0  0  0  0  0  0  0  0  0  0  0  # atno 7974 bound_to 7965
  156.1963  140.3062  155.9434 H   0  0  0  0  0  0  0  0  0  0  0  0  # atno 8008 bound_to 7997
  155.3058  140.0448  157.3049 H   0  0  0  0  0  0  0  0  0  0  0  0  # atno 8009 bound_to 7997
  154.5514  140.2292  155.8489 H   0  0  0  0  0  0  0  0  0  0  0  0  # atno 8010 bound_to 7997
  140.6603  143.7321  150.7727 H   0  0  0  0  0  0  0  0  0  0  0  0  # atno 10167 bound_to 10162
  157.1274  130.6576  149.5941 H   0  0  0  0  0  0  0  0  0  0  0  0  # atno 10718 bound_to 10713
  154.2145  135.2784  155.2947 H   0  0  0  0  0  0  0  0  0  0  0  0  # atno 10763 bound_to 10752
  154.5752  135.5606  153.7136 H   0  0  0  0  0  0  0  0  0  0  0  0  # atno 10764 bound_to 10752
  153.0056  135.6331  154.2284 H   0  0  0  0  0  0  0  0  0  0  0  0  # atno 10765 bound_to 10752
  140.1275  134.4749  155.8547 H   0  0  0  0  0  0  0  0  0  0  0  0  # atno 11005 bound_to 11000
  146.1758  140.6574  142.9212 LP  0  0  0  0  0  0  0  0  0  0  0  0  # atno 17320 bound_to 7965
  144.7421  140.4970  143.6862 LP  0  0  0  0  0  0  0  0  0  0  0  0  # atno 17321 bound_to 7965
  140.0989  143.4807  152.2437 LP  0  0  0  0  0  0  0  0  0  0  0  0  # atno 17342 bound_to 10162
  139.5835  144.7521  151.3579 LP  0  0  0  0  0  0  0  0  0  0  0  0  # atno 17343 bound_to 10162
  155.9815  130.4823  150.6832 LP  0  0  0  0  0  0  0  0  0  0  0  0  # atno 17370 bound_to 10713
  157.4423  131.0862  151.0931 LP  0  0  0  0  0  0  0  0  0  0  0  0  # atno 17371 bound_to 10713
  141.2164  133.6783  156.7006 LP  0  0  0  0  0  0  0  0  0  0  0  0  # atno 17394 bound_to 11000
  140.2885  134.8260  157.3996 LP  0  0  0  0  0  0  0  0  0  0  0  0  # atno 17395 bound_to 11000

$$$$
