AV-unprocessed.smi:261|AV-procd|sdf|1985|dock1
  -GOLD-   2262021163D 1   1.00000     0.00000
 Structure written by MMmdl.
 51 54  0  0  0  0  0  0  0  0  1 V2000
  146.7894  132.8484  153.4729 C   0  0  0  0  0  0  0  0  0  0  0  0
  147.4146  134.0829  153.7836 O   0  0  0  0  0  0  0  0  0  0  0  0
  148.2683  134.0139  154.9162 C   0  0  1  0  0  0  0  0  0  0  0  0
  149.6044  133.3267  154.6296 C   0  0  0  0  0  0  0  0  0  0  0  0
  150.5731  133.9124  155.6751 C   0  0  2  0  0  0  0  0  0  0  0  0
  150.7329  132.9893  156.8931 C   0  0  0  0  0  0  0  0  0  0  0  0
  149.8335  132.0121  157.0290 N   0  0  0  0  0  0  0  0  0  0  0  0
  151.6377  133.1603  157.7089 O   0  0  0  0  0  0  0  0  0  0  0  0
  149.9641  135.1851  156.0722 N   0  0  0  0  0  0  0  0  0  0  0  0
  150.7860  136.2505  156.1830 C   0  0  0  0  0  0  0  0  0  0  0  0
  151.3621  136.7844  155.0741 N   0  0  0  0  0  0  0  0  0  0  0  0
  152.1783  137.8370  155.1900 C   0  0  0  0  0  0  0  0  0  0  0  0
  152.5442  138.4934  156.2941 N   0  0  0  0  0  0  0  0  0  0  0  0
  151.9629  137.9559  157.4052 C   0  0  0  0  0  0  0  0  0  0  0  0
  151.0772  136.8436  157.4378 C   0  0  0  0  0  0  0  0  0  0  0  0
  150.6870  136.5800  158.7444 N   0  0  0  0  0  0  0  0  0  0  0  0
  151.3100  137.4866  159.4477 C   0  0  0  0  0  0  0  0  0  0  0  0
  152.0981  138.3529  158.7229 N   0  0  0  0  0  0  0  0  0  0  0  0
  152.9001  139.4461  159.2414 C   0  0  0  0  0  0  0  0  0  0  0  0
  152.1654  140.7982  159.1645 C   0  0  2  0  0  0  0  0  0  0  0  0
  151.9777  141.1864  157.8168 O   0  0  0  0  0  0  0  0  0  0  0  0
  152.8815  141.9117  159.9551 C   0  0  2  0  0  0  0  0  0  0  0  0
  153.4301  141.5278  161.3319 C   0  0  0  0  0  0  0  0  0  0  0  0
  153.5116  142.8812  162.0018 C   0  0  0  0  0  0  0  0  0  0  0  0
  152.2542  143.5680  161.4734 C   0  0  0  0  0  0  0  0  0  0  0  0
  152.0390  143.0425  160.1660 O   0  0  0  0  0  0  0  0  0  0  0  0
  148.7265  135.4062  155.3374 C   0  0  0  0  0  0  0  0  0  0  0  0
  147.7664  133.5313  155.7574 H   0  0  0  0  0  0  0  0  0  0  0  0
  151.5546  134.0579  155.2188 H   0  0  0  0  0  0  0  0  0  0  0  0
  146.1319  132.9799  152.6137 H   0  0  0  0  0  0  0  0  0  0  0  0
  146.1834  132.4924  154.3071 H   0  0  0  0  0  0  0  0  0  0  0  0
  147.5207  132.0807  153.2184 H   0  0  0  0  0  0  0  0  0  0  0  0
  149.5319  132.2386  154.6621 H   0  0  0  0  0  0  0  0  0  0  0  0
  149.9489  133.5988  153.6308 H   0  0  0  0  0  0  0  0  0  0  0  0
  149.8910  131.3784  157.8129 H   0  0  0  0  0  0  0  0  0  0  0  0
  149.0964  131.9124  156.3462 H   0  0  0  0  0  0  0  0  0  0  0  0
  152.5983  138.2064  154.2661 H   0  0  0  0  0  0  0  0  0  0  0  0
  151.2146  137.5461  160.5222 H   0  0  0  0  0  0  0  0  0  0  0  0
  153.1596  139.2165  160.2756 H   0  0  0  0  0  0  0  0  0  0  0  0
  153.8375  139.4843  158.6849 H   0  0  0  0  0  0  0  0  0  0  0  0
  151.1695  140.6755  159.5921 H   0  0  0  0  0  0  0  0  0  0  0  0
  151.3355  141.8794  157.7937 H   0  0  0  0  0  0  0  0  0  0  0  0
  153.7184  142.2722  159.3544 H   0  0  0  0  0  0  0  0  0  0  0  0
  152.7353  140.8913  161.8806 H   0  0  0  0  0  0  0  0  0  0  0  0
  154.3917  141.0168  161.2791 H   0  0  0  0  0  0  0  0  0  0  0  0
  153.5404  142.8215  163.0901 H   0  0  0  0  0  0  0  0  0  0  0  0
  154.4018  143.4138  161.6640 H   0  0  0  0  0  0  0  0  0  0  0  0
  151.3939  143.3128  162.0934 H   0  0  0  0  0  0  0  0  0  0  0  0
  152.3485  144.6541  161.4564 H   0  0  0  0  0  0  0  0  0  0  0  0
  148.9035  136.0305  154.4596 H   0  0  0  0  0  0  0  0  0  0  0  0
  147.9813  135.9027  155.9595 H   0  0  0  0  0  0  0  0  0  0  0  0
  1  2  1  0  0  0  0
  1 30  1  0  0  0  0
  1 31  1  0  0  0  0
  1 32  1  0  0  0  0
  2  3  1  0  0  0  0
  3 28  1  0  0  0  0
  3 27  1  0  0  0  0
  3  4  1  0  0  0  0
  4  5  1  0  0  0  0
  4 33  1  0  0  0  0
  4 34  1  0  0  0  0
  5 29  1  0  0  0  0
  5  6  1  0  0  0  0
  5  9  1  0  0  0  0
  6  7  1  0  0  0  0
  6  8  2  0  0  0  0
  7 35  1  0  0  0  0
  7 36  1  0  0  0  0
  9 10  1  0  0  0  0
  9 27  1  0  0  0  0
 10 15  1  0  0  0  0
 10 11  2  0  0  0  0
 11 12  1  0  0  0  0
 12 13  2  0  0  0  0
 12 37  1  0  0  0  0
 13 14  1  0  0  0  0
 14 18  1  0  0  0  0
 14 15  2  0  0  0  0
 15 16  1  0  0  0  0
 16 17  2  0  0  0  0
 17 18  1  0  0  0  0
 17 38  1  0  0  0  0
 18 19  1  0  0  0  0
 19 20  1  0  0  0  0
 19 39  1  0  0  0  0
 19 40  1  0  0  0  0
 20 21  1  0  0  0  0
 20 22  1  0  0  0  0
 20 41  1  0  0  0  0
 21 42  1  0  0  0  0
 22 26  1  0  0  0  0
 22 23  1  0  0  0  0
 22 43  1  0  0  0  0
 23 24  1  0  0  0  0
 23 44  1  0  0  0  0
 23 45  1  0  0  0  0
 24 25  1  0  0  0  0
 24 46  1  0  0  0  0
 24 47  1  0  0  0  0
 25 26  1  0  0  0  0
 25 48  1  0  0  0  0
 25 49  1  0  0  0  0
 27 50  1  0  0  0  0
 27 51  1  0  0  0  0
M  END
> <s_m_source_file>
AV-unprocessed.smi

> <i_m_source_file_index>
261

> <i_lp_mmshare_version>
43012

> <i_f3d_flags>
0

> <s_epik_input>
W0NIM11PW0NASF0xW0NIMl1bQ0BASF0oQyg9TylbTkgyXSlOKFtDSDJdMSljKG5bY0hdbjIpYyhjMjMpbltjSF1uM1tDSDJdW0NASF0oW09IXSlbQ0BASF00W0NIMl1bQ0gyXVtDSDJdTzQ=

> <s_epik_cmdline>
J2VwaWtfcHl0aG9uJywgJy1waCcsICc3LjAnLCAnLXRuJywgJzgnLCAnLW1hJywgJzIwMCcsICctbWV0YWxfYmluZGluZycsICctaW1hZScsICc8aW5maWxlLm1hZT4nLCAnLW9tYWUnLCAnPG91dGZpbGUubWFlPic=

> <r_lp_tautomer_probability>
1

> <r_epik_Ionization_Penalty>
0.000713824

> <r_epik_Ionization_Penalty_Charging>
0

> <r_epik_Ionization_Penalty_Neutral>
0.000713824

> <r_epik_State_Penalty>
0.000402132

> <r_epik_Charging_Adjusted_Penalty>
0.000402132

> <i_epik_Tot_Q>
0

> <i_epik_Tot_abs_Q>
0

> <r_epik_Metal_State_Penalty>
-0

> <b_epik_Metal_Only>
0

> <s_lp_Force_Field>
OPLS_2005

> <r_lp_Energy>
48.1487

> <b_lp_Chiralities_Consistent>
1

> <s_lp_Variant>
AV-unprocessed.smi:261-3

> <Gold.Version>
5.8.1

> <Gold.Id.Protein>
6NUR|6NUR_protein|mol2

> <Gold.PLP.Fitness>
43.7097

> <Gold.PLP.PLP>
-38.9543

> <Gold.PLP.part.hbond>
-3.1480

> <Gold.PLP.part.metal>
0.0000

> <Gold.PLP.part.buried>
-8.3871

> <Gold.PLP.part.nonpolar>
-28.0230

> <Gold.PLP.part.repulsive>
1.6918

> <Gold.PLP.ligand.clash>
0.1616

> <Gold.PLP.ligand.torsion>
1.1686

> <Gold.PLP.Chemscore.Hbond>
2.2840

> <Gold.PLP.Chemscore.CHOScore>
0.0000

> <Gold.PLP.Chemscore.Metal>
0.0000

> <Gold.Chemscore.Hbonds>
donor molecule, donor type, donor heavy atom, donor atom, acceptor molecule, acceptor atom, score
      P1  H  6896  6907       L1     8  0.76
      P1  H  6896  6908       L1    16  0.83
      P1  H 10752 10763       L1    11  0.46

> <Gold.PLP.Chemscore.Internal.Correction>
0.4024

> <Gold.Rescore>
     Score         DG    S(hbond)    S(metal)    S(lipo)     H(rot)  DE(clash)    DE(int)     intcor
      9.32     -10.21       1.39        0.00      79.04       3.57       0.02       0.87       ----

> <Gold.Chemscore.Fitness>
9.3152

> <Gold.Chemscore.DG>
-10.2069

> <Gold.Chemscore.ZeroCoef>
-5.4800

> <Gold.Chemscore.Hbond>
1.3860

> <Gold.Chemscore.Metal>
0.0000

> <Gold.Chemscore.Lipo>
79.0370

> <Gold.Chemscore.Internal_Hbond>
0.0000

> <Gold.Chemscore.DEClash>
0.0203

> <Gold.Chemscore.DEInternal>
0.8715

> <Gold.Chemscore.Rot>
3.5740

> <Gold.Chemscore.Internal.Correction>
   9.000000E+99

> <Gold.Chemscore.Hbonds>
donor molecule, donor type, donor heavy atom, donor atom, acceptor molecule, acceptor atom, score
      P1  H  6896  6907       L1     8  0.70
      P1  H  6896  6908       L1    16  0.53
      P1  H 10752 10763       L1    11  0.02

> <Gold.Chemscore.Hbond.Weighted>
-4.6291

> <Gold.Chemscore.Metal.Weighted>
-0.0000

> <Gold.Chemscore.Lipo.Weighted>
-9.2473

> <Gold.Chemscore.Internal_Hbond.Weighted>
0.0000

> <Gold.Chemscore.DEClash.Weighted>
0.0203

> <Gold.Chemscore.DEInternal.Weighted>
0.8715

> <Gold.Chemscore.Rot.Weighted>
9.1495

> <Gold.Chemscore.Internal.Correction.Weighted>
   9.000000E+99

> <Gold.Protein.RotatedTorsions>
[ 6907 6896 6895 6894 ] final -171.49 input  -60.11 | X-H torsion
[ 7974 7965 7964 7962 ] final  -95.07 input  175.53 | X-H torsion
[ 8008 7997 7996 7995 ] final   -3.84 input   59.86 | X-H torsion
[ 10167 10162 10161 10158 ] final  161.02 input  -65.29 | X-H torsion
[ 10718 10713 10712 10709 ] final   36.27 input   66.30 | X-H torsion
[ 10763 10752 10751 10750 ] final   44.59 input  -60.55 | X-H torsion
[ 11005 11000 10999 10996 ] final  136.83 input  -57.11 | X-H torsion

> <Gold.Protein.ActiveResidues>
 VAL166  LYS551  ARG553  GLY616  TRP617  ASP618  TYR619  PRO620  LYS621  CYS622 
 ASP623  PHE694  ASN695  SER759  ASP760  ASP761  ALA762  ILE779  LEU786  VAL792 
 PHE793  MET794  SER795  GLU796  ALA797  LYS798  CYS799  TRP800  GLU811  SER814 

> <Gold.Protein.RotatedAtoms>
  151.5246  133.3460  159.2907 H   0  0  0  0  0  0  0  0  0  0  0  0  # atno 6907 bound_to 6896
  150.8631  134.7990  159.7109 H   0  0  0  0  0  0  0  0  0  0  0  0  # atno 6908 bound_to 6896
  152.4644  134.5119  159.9808 H   0  0  0  0  0  0  0  0  0  0  0  0  # atno 6909 bound_to 6896
  145.3649  140.9497  143.2479 H   0  0  0  0  0  0  0  0  0  0  0  0  # atno 7974 bound_to 7965
  154.6206  140.2499  155.7554 H   0  0  0  0  0  0  0  0  0  0  0  0  # atno 8008 bound_to 7997
  156.2424  140.2927  156.0431 H   0  0  0  0  0  0  0  0  0  0  0  0  # atno 8009 bound_to 7997
  155.1903  140.0391  157.2889 H   0  0  0  0  0  0  0  0  0  0  0  0  # atno 8010 bound_to 7997
  139.4845  144.4578  151.8745 H   0  0  0  0  0  0  0  0  0  0  0  0  # atno 10167 bound_to 10162
  157.3328  130.7507  149.6859 H   0  0  0  0  0  0  0  0  0  0  0  0  # atno 10718 bound_to 10713
  152.9838  135.6066  154.3299 H   0  0  0  0  0  0  0  0  0  0  0  0  # atno 10763 bound_to 10752
  154.3003  135.2773  155.2616 H   0  0  0  0  0  0  0  0  0  0  0  0  # atno 10764 bound_to 10752
  154.4871  135.5902  153.6488 H   0  0  0  0  0  0  0  0  0  0  0  0  # atno 10765 bound_to 10752
  140.0073  134.9454  157.0202 H   0  0  0  0  0  0  0  0  0  0  0  0  # atno 11005 bound_to 11000
  144.8619  139.5165  143.6808 LP  0  0  0  0  0  0  0  0  0  0  0  0  # atno 17320 bound_to 7965
  146.2911  139.7141  142.9160 LP  0  0  0  0  0  0  0  0  0  0  0  0  # atno 17321 bound_to 7965
  140.4038  144.2458  150.5891 LP  0  0  0  0  0  0  0  0  0  0  0  0  # atno 17342 bound_to 10162
  140.5032  143.2312  151.8648 LP  0  0  0  0  0  0  0  0  0  0  0  0  # atno 17343 bound_to 10162
  155.9698  130.4190  150.4355 LP  0  0  0  0  0  0  0  0  0  0  0  0  # atno 17370 bound_to 10713
  157.2389  131.0521  151.2448 LP  0  0  0  0  0  0  0  0  0  0  0  0  # atno 17371 bound_to 10713
  140.4619  134.1476  155.7192 LP  0  0  0  0  0  0  0  0  0  0  0  0  # atno 17394 bound_to 11000
  141.1686  133.8654  157.1641 LP  0  0  0  0  0  0  0  0  0  0  0  0  # atno 17395 bound_to 11000

$$$$
