AV-unprocessed.smi:287|AV-procd|sdf|2196|dock5
  -GOLD-   2262022 03D 1   1.00000     0.00000
 Structure written by MMmdl.
 55 58  0  0  0  0  0  0  0  0  1 V2000
  153.8891  141.0601  161.3425 C   0  0  0  0  0  0  0  0  0  0  0  0
  152.8677  141.5895  160.3954 C   0  0  0  0  0  0  0  0  0  0  0  0
  152.3917  141.1695  159.1877 C   0  0  0  0  0  0  0  0  0  0  0  0
  151.4065  142.1115  158.7664 C   0  0  0  0  0  0  0  0  0  0  0  0
  150.5998  142.0418  157.4763 C   0  0  2  0  0  0  0  0  0  0  0  0
  151.1967  140.9842  156.5311 C   0  0  0  0  0  0  0  0  0  0  0  0
  150.6338  143.2489  156.7395 O   0  0  0  0  0  0  0  0  0  0  0  0
  149.1089  141.7349  157.7412 C   0  0  0  0  0  0  0  0  0  0  0  0
  148.2740  141.9147  156.5604 N   0  0  0  0  0  0  0  0  0  0  0  0
  147.6141  140.8758  156.0072 C   0  0  0  0  0  0  0  0  0  0  0  0
  146.7767  140.2141  156.8393 N   0  0  0  0  0  0  0  0  0  0  0  0
  146.0814  139.1661  156.3943 C   0  0  0  0  0  0  0  0  0  0  0  0
  146.0770  138.6293  155.1746 N   0  0  0  0  0  0  0  0  0  0  0  0
  146.9141  139.2862  154.3197 C   0  0  0  0  0  0  0  0  0  0  0  0
  147.7155  140.4168  154.6594 C   0  0  0  0  0  0  0  0  0  0  0  0
  148.4390  140.8179  153.5435 N   0  0  0  0  0  0  0  0  0  0  0  0
  148.0934  139.9726  152.6133 C   0  0  0  0  0  0  0  0  0  0  0  0
  147.1701  139.0208  152.9828 N   0  0  0  0  0  0  0  0  0  0  0  0
  146.6464  137.9205  152.0978 C   0  0  1  0  0  0  0  0  0  0  0  0
  146.9406  136.6989  152.6956 O   0  0  0  0  0  0  0  0  0  0  0  0
  145.8267  136.2583  153.4589 C   0  0  2  0  0  0  0  0  0  0  0  0
  145.8967  134.7354  153.6481 C   0  0  0  0  0  0  0  0  0  0  0  0
  146.0419  134.0974  152.3970 O   0  0  0  0  0  0  0  0  0  0  0  0
  144.6286  136.7141  152.6108 C   0  0  1  0  0  0  0  0  0  0  0  0
  143.5269  137.0220  153.4408 O   0  0  0  0  0  0  0  0  0  0  0  0
  145.1243  137.9644  151.8760 C   0  0  2  0  0  0  0  0  0  0  0  0
  144.8065  137.8762  150.5013 O   0  0  0  0  0  0  0  0  0  0  0  0
  151.3578  143.0427  159.7765 C   0  0  0  0  0  0  0  0  0  0  0  0
  150.5551  144.2799  160.0111 C   0  0  0  0  0  0  0  0  0  0  0  0
  152.2427  142.7352  160.7654 O   0  0  0  0  0  0  0  0  0  0  0  0
  147.2193  138.0356  151.1765 H   0  0  0  0  0  0  0  0  0  0  0  0
  145.8281  136.7605  154.4263 H   0  0  0  0  0  0  0  0  0  0  0  0
  144.3504  135.9314  151.9026 H   0  0  0  0  0  0  0  0  0  0  0  0
  144.7030  138.8930  152.2597 H   0  0  0  0  0  0  0  0  0  0  0  0
  154.2356  140.0745  161.0306 H   0  0  0  0  0  0  0  0  0  0  0  0
  153.4754  140.9699  162.3471 H   0  0  0  0  0  0  0  0  0  0  0  0
  154.7530  141.7233  161.3891 H   0  0  0  0  0  0  0  0  0  0  0  0
  152.7132  140.2817  158.6632 H   0  0  0  0  0  0  0  0  0  0  0  0
  151.1740  139.9900  156.9790 H   0  0  0  0  0  0  0  0  0  0  0  0
  152.2360  141.2104  156.2882 H   0  0  0  0  0  0  0  0  0  0  0  0
  150.6431  140.9287  155.5928 H   0  0  0  0  0  0  0  0  0  0  0  0
  149.8457  143.7357  156.9259 H   0  0  0  0  0  0  0  0  0  0  0  0
  148.9859  140.7298  158.1473 H   0  0  0  0  0  0  0  0  0  0  0  0
  148.7441  142.4312  158.4977 H   0  0  0  0  0  0  0  0  0  0  0  0
  148.1729  142.8668  156.2394 H   0  0  0  0  0  0  0  0  0  0  0  0
  145.4374  138.6886  157.1176 H   0  0  0  0  0  0  0  0  0  0  0  0
  148.5113  140.0203  151.6182 H   0  0  0  0  0  0  0  0  0  0  0  0
  146.7669  134.4734  154.2505 H   0  0  0  0  0  0  0  0  0  0  0  0
  145.0157  134.3579  154.1682 H   0  0  0  0  0  0  0  0  0  0  0  0
  145.3015  133.5258  152.2623 H   0  0  0  0  0  0  0  0  0  0  0  0
  142.7976  137.2658  152.8916 H   0  0  0  0  0  0  0  0  0  0  0  0
  144.9068  138.7328  150.1149 H   0  0  0  0  0  0  0  0  0  0  0  0
  150.7582  145.0241  159.2411 H   0  0  0  0  0  0  0  0  0  0  0  0
  150.7888  144.7261  160.9783 H   0  0  0  0  0  0  0  0  0  0  0  0
  149.4883  144.0563  159.9950 H   0  0  0  0  0  0  0  0  0  0  0  0
  1  2  1  0  0  0  0
  1 35  1  0  0  0  0
  1 36  1  0  0  0  0
  1 37  1  0  0  0  0
  2 30  1  0  0  0  0
  2  3  2  0  0  0  0
  3  4  1  0  0  0  0
  3 38  1  0  0  0  0
  4  5  1  0  0  0  0
  4 28  2  0  0  0  0
  5  6  1  0  0  0  0
  5  7  1  0  0  0  0
  5  8  1  0  0  0  0
  6 39  1  0  0  0  0
  6 40  1  0  0  0  0
  6 41  1  0  0  0  0
  7 42  1  0  0  0  0
  8  9  1  0  0  0  0
  8 43  1  0  0  0  0
  8 44  1  0  0  0  0
  9 10  1  0  0  0  0
  9 45  1  0  0  0  0
 10 15  1  0  0  0  0
 10 11  2  0  0  0  0
 11 12  1  0  0  0  0
 12 13  2  0  0  0  0
 12 46  1  0  0  0  0
 13 14  1  0  0  0  0
 14 18  1  0  0  0  0
 14 15  2  0  0  0  0
 15 16  1  0  0  0  0
 16 17  2  0  0  0  0
 17 18  1  0  0  0  0
 17 47  1  0  0  0  0
 18 19  1  0  0  0  0
 19 31  1  0  0  0  0
 19 26  1  0  0  0  0
 19 20  1  0  0  0  0
 20 21  1  0  0  0  0
 21 32  1  0  0  0  0
 21 22  1  0  0  0  0
 21 24  1  0  0  0  0
 22 23  1  0  0  0  0
 22 48  1  0  0  0  0
 22 49  1  0  0  0  0
 23 50  1  0  0  0  0
 24 33  1  0  0  0  0
 24 25  1  0  0  0  0
 24 26  1  0  0  0  0
 25 51  1  0  0  0  0
 26 34  1  0  0  0  0
 26 27  1  0  0  0  0
 27 52  1  0  0  0  0
 28 29  1  0  0  0  0
 28 30  1  0  0  0  0
 29 53  1  0  0  0  0
 29 54  1  0  0  0  0
 29 55  1  0  0  0  0
M  END
> <s_m_source_file>
AV-unprocessed.smi

> <i_m_source_file_index>
287

> <i_lp_mmshare_version>
43012

> <i_f3d_flags>
0

> <s_epik_input>
W0NIM11jMVtjSF1jKGMobzEpW0NIM10pW0NAQF0oW0NIM10pKFtPSF0pW0NIMl1bTkhdYyhuW2NIXW4yKWMoYzIzKW5bY0hdbjNbQ0BASF00T1tDQEhdKFtDSDJdW09IXSlbQ0BASF0oW09IXSlbQ0BIXTRbT0hd

> <s_epik_cmdline>
J2VwaWtfcHl0aG9uJywgJy1waCcsICc3LjAnLCAnLXRuJywgJzgnLCAnLW1hJywgJzIwMCcsICctbWV0YWxfYmluZGluZycsICctaW1hZScsICc8aW5maWxlLm1hZT4nLCAnLW9tYWUnLCAnPG91dGZpbGUubWFlPic=

> <r_lp_tautomer_probability>
1

> <r_epik_Ionization_Penalty>
0.000992612

> <r_epik_Ionization_Penalty_Charging>
0

> <r_epik_Ionization_Penalty_Neutral>
0.000992612

> <r_epik_State_Penalty>
-0

> <r_epik_Charging_Adjusted_Penalty>
0

> <i_epik_Tot_Q>
0

> <i_epik_Tot_abs_Q>
0

> <r_epik_Metal_State_Penalty>
-0

> <b_epik_Metal_Only>
0

> <s_epik_Chemistry_Notes>
This compound contains an acetal/aminal-like group ( X-CH(R)-Y where X, Y are N, S, or O) that may be acid/base labile, releasing an aldehyde.

> <s_lp_Force_Field>
OPLS_2005

> <r_lp_Energy>
37.3025

> <b_lp_Chiralities_Consistent>
1

> <s_lp_Variant>
AV-unprocessed.smi:287-20

> <Gold.Version>
5.8.1

> <Gold.Id.Protein>
6NUR|6NUR_protein|mol2

> <Gold.PLP.Fitness>
50.9198

> <Gold.PLP.PLP>
-35.5637

> <Gold.PLP.part.hbond>
-4.0000

> <Gold.PLP.part.metal>
0.0000

> <Gold.PLP.part.buried>
-6.8648

> <Gold.PLP.part.nonpolar>
-25.4844

> <Gold.PLP.part.repulsive>
0.2622

> <Gold.PLP.ligand.clash>
0.0000

> <Gold.PLP.ligand.torsion>
0.9320

> <Gold.PLP.Chemscore.Hbond>
3.9040

> <Gold.PLP.Chemscore.CHOScore>
1.8052

> <Gold.PLP.Chemscore.Metal>
0.0000

> <Gold.Chemscore.Hbonds>
donor molecule, donor type, donor heavy atom, donor atom, acceptor molecule, acceptor atom, score
      L1  H     7    42       P1  8028  0.50
      L1  H     9    45       P1  8028  0.94
      P1  H  8011  8017       L1    16  0.03

> <Gold.PLP.Chemscore.Internal.Correction>
0.0924

> <Gold.Rescore>
     Score         DG    S(hbond)    S(metal)    S(lipo)     H(rot)  DE(clash)    DE(int)     intcor
     12.35     -14.18       3.72        0.00      83.53       5.27       0.06       1.77       ----

> <Gold.Chemscore.Fitness>
12.3523

> <Gold.Chemscore.DG>
-14.1828

> <Gold.Chemscore.ZeroCoef>
-5.4800

> <Gold.Chemscore.Hbond>
3.7167

> <Gold.Chemscore.Metal>
0.0000

> <Gold.Chemscore.Lipo>
83.5285

> <Gold.Chemscore.Internal_Hbond>
0.0000

> <Gold.Chemscore.DEClash>
0.0634

> <Gold.Chemscore.DEInternal>
1.7671

> <Gold.Chemscore.Rot>
5.2672

> <Gold.Chemscore.Internal.Correction>
   9.000000E+99

> <Gold.Chemscore.Hbonds>
donor molecule, donor type, donor heavy atom, donor atom, acceptor molecule, acceptor atom, score
      L1  H     7    42       P1  8028  0.49
      L1  H     9    45       P1  8028  0.66
      P1  H  8011  8017       L1    16  0.03

> <Gold.Chemscore.Hbond.Weighted>
-12.4139

> <Gold.Chemscore.Metal.Weighted>
-0.0000

> <Gold.Chemscore.Lipo.Weighted>
-9.7728

> <Gold.Chemscore.Internal_Hbond.Weighted>
0.0000

> <Gold.Chemscore.DEClash.Weighted>
0.0634

> <Gold.Chemscore.DEInternal.Weighted>
1.7671

> <Gold.Chemscore.Rot.Weighted>
13.4839

> <Gold.Chemscore.Internal.Correction.Weighted>
   9.000000E+99

> <Gold.Protein.RotatedTorsions>
[ 6907 6896 6895 6894 ] final -135.49 input  -60.11 | X-H torsion
[ 7974 7965 7964 7962 ] final   89.21 input  175.53 | X-H torsion
[ 8008 7997 7996 7995 ] final  119.45 input   59.86 | X-H torsion
[ 10167 10162 10161 10158 ] final  -86.56 input  -65.29 | X-H torsion
[ 10718 10713 10712 10709 ] final  175.44 input   66.30 | X-H torsion
[ 10763 10752 10751 10750 ] final -178.57 input  -60.55 | X-H torsion
[ 11005 11000 10999 10996 ] final   -2.87 input  -57.11 | X-H torsion

> <Gold.Protein.ActiveResidues>
 VAL166  LYS551  ARG553  GLY616  TRP617  ASP618  TYR619  PRO620  LYS621  CYS622 
 ASP623  PHE694  ASN695  SER759  ASP760  ASP761  ALA762  ILE779  LEU786  VAL792 
 PHE793  MET794  SER795  GLU796  ALA797  LYS798  CYS799  TRP800  GLU811  SER814 

> <Gold.Protein.RotatedAtoms>
  150.9985  133.6079  159.2698 H   0  0  0  0  0  0  0  0  0  0  0  0  # atno 6907 bound_to 6896
  151.3274  135.0832  159.9336 H   0  0  0  0  0  0  0  0  0  0  0  0  # atno 6908 bound_to 6896
  152.5267  133.9621  159.7776 H   0  0  0  0  0  0  0  0  0  0  0  0  # atno 6909 bound_to 6896
  145.5354  139.2285  143.2595 H   0  0  0  0  0  0  0  0  0  0  0  0  # atno 7974 bound_to 7965
  156.2596  140.2852  156.0994 H   0  0  0  0  0  0  0  0  0  0  0  0  # atno 8008 bound_to 7997
  155.1376  140.0395  157.2808 H   0  0  0  0  0  0  0  0  0  0  0  0  # atno 8009 bound_to 7997
  154.6553  140.2554  155.7174 H   0  0  0  0  0  0  0  0  0  0  0  0  # atno 8010 bound_to 7997
  140.3929  143.2696  151.9241 H   0  0  0  0  0  0  0  0  0  0  0  0  # atno 10167 bound_to 10162
  156.9348  130.9982  151.2980 H   0  0  0  0  0  0  0  0  0  0  0  0  # atno 10718 bound_to 10713
  154.5460  135.2809  155.1052 H   0  0  0  0  0  0  0  0  0  0  0  0  # atno 10763 bound_to 10752
  154.2516  135.6338  153.5246 H   0  0  0  0  0  0  0  0  0  0  0  0  # atno 10764 bound_to 10752
  152.9991  135.5584  154.6013 H   0  0  0  0  0  0  0  0  0  0  0  0  # atno 10765 bound_to 10752
  140.6632  133.9302  155.8448 H   0  0  0  0  0  0  0  0  0  0  0  0  # atno 11005 bound_to 11000
  146.2016  140.6173  142.9100 LP  0  0  0  0  0  0  0  0  0  0  0  0  # atno 17320 bound_to 7965
  144.7604  140.5408  143.6739 LP  0  0  0  0  0  0  0  0  0  0  0  0  # atno 17321 bound_to 7965
  139.4788  144.5709  151.8089 LP  0  0  0  0  0  0  0  0  0  0  0  0  # atno 17342 bound_to 10162
  140.4821  144.1435  150.5934 LP  0  0  0  0  0  0  0  0  0  0  0  0  # atno 17343 bound_to 10162
  157.5823  130.8385  149.8540 LP  0  0  0  0  0  0  0  0  0  0  0  0  # atno 17370 bound_to 10713
  156.0431  130.3734  150.1386 LP  0  0  0  0  0  0  0  0  0  0  0  0  # atno 17371 bound_to 10713
  141.0449  134.0568  157.3856 LP  0  0  0  0  0  0  0  0  0  0  0  0  # atno 17394 bound_to 11000
  139.9006  135.0163  156.7250 LP  0  0  0  0  0  0  0  0  0  0  0  0  # atno 17395 bound_to 11000

$$$$
