#       Name:                AV-unprocessed.smi:1128
#       Creating user name   scv26
#       Creation time:       Fri Mar 27 03:41:05 2020


#       File generated by GOLD software.
#

@<TRIPOS>MOLECULE
AV-unprocessed.smi:1128
    42    43     1
SMALL
NO_CHARGES


@<TRIPOS>ATOM
      1 ****         0.3542   1.1305  -0.8968 O.2            1 S1                 0.0000
      2 ****        -0.1837   0.0348  -1.0531 C.2            1 S1                 0.0000
      3 ****         0.5037  -1.1110  -1.1591 N.am           1 S1                 0.0000
      4 ****         1.9572  -1.2271  -1.0959 C.3            1 S1                 0.0000
      5 ****         2.4899  -1.2083   0.3522 C.3            1 S1                 0.0000
      6 ****         1.8757  -2.3321   1.2208 C.3            1 S1                 0.0000
      7 ****         2.5964  -2.5096   2.5453 C.2            1 S1                 0.0000
      8 ****         3.8026  -1.9808   2.8096 C.2            1 S1                 0.0000
      9 ****         4.5861  -1.1519   1.8093 C.3            1 S1                 0.0000
     10 ****         4.0282  -1.2830   0.3799 C.3            1 S1                 0.0000
     11 ****        -1.5066  -0.1914  -1.1544 N.am           1 S1                 0.0000
     12 ****        -2.5803   0.7139  -1.0951 C.2            1 S1                 0.0000
     13 ****        -2.4911   2.0099  -0.6957 C.2            1 S1                 0.0000
     14 ****        -3.6488   2.8880  -0.6606 C.2            1 S1                 0.0000
     15 ****        -3.5458   4.3190  -0.1561 C.3            1 S1                 0.0000
     16 ****        -4.7017   4.7357   0.3624 F              1 S1                 0.0000
     17 ****        -2.6037   4.4283   0.7806 F              1 S1                 0.0000
     18 ****        -3.2252   5.1313  -1.1621 F              1 S1                 0.0000
     19 ****        -4.8261   2.3443  -1.0204 C.2            1 S1                 0.0000
     20 ****        -4.9264   1.0147  -1.4349 N.am           1 S1                 0.0000
     21 ****        -3.8838   0.1563  -1.4936 C.2            1 S1                 0.0000
     22 ****        -4.0568  -1.0055  -1.8608 O.2            1 S1                 0.0000
     23 ****        -5.8435   0.6841  -1.6985 H              1 S1                 0.0000
     24 ****        -0.0150  -1.9667  -1.2926 H              1 S1                 0.0000
     25 ****         2.2412  -2.1598  -1.5841 H              1 S1                 0.0000
     26 ****         2.4143  -0.4259  -1.6793 H              1 S1                 0.0000
     27 ****         2.2102  -0.2528   0.7993 H              1 S1                 0.0000
     28 ****         0.8257  -2.1177   1.4229 H              1 S1                 0.0000
     29 ****         1.9093  -3.2853   0.6923 H              1 S1                 0.0000
     30 ****         2.0960  -3.1044   3.2953 H              1 S1                 0.0000
     31 ****         4.2544  -2.1307   3.7792 H              1 S1                 0.0000
     32 ****         4.5529  -0.1115   2.1335 H              1 S1                 0.0000
     33 ****         5.6323  -1.4580   1.8288 H              1 S1                 0.0000
     34 ****         4.3480  -2.2346  -0.0468 H              1 S1                 0.0000
     35 ****         4.4599  -0.5043  -0.2499 H              1 S1                 0.0000
     36 ****        -1.7807  -1.1479  -1.3262 H              1 S1                 0.0000
     37 ****        -1.5522   2.4347  -0.3818 H              1 S1                 0.0000
     38 ****        -5.7680   2.8729  -1.0147 H              1 S1                 0.0000
     39 ****         1.3507   1.1953  -0.8432 LP             1 S1                 0.0000
     40 ****        -0.2051   1.9562  -0.8233 LP             1 S1                 0.0000
     41 ****        -3.2827  -1.6372  -1.9023 LP             1 S1                 0.0000
     42 ****        -4.9714  -1.3177  -2.1176 LP             1 S1                 0.0000
@<TRIPOS>BOND
    1    1    2 2     
    2    2    3 am    
    3    2   11 am    
    4    3    4 1     
    5    3   24 1     
    6    4    5 1     
    7    4   25 1     
    8    4   26 1     
    9    5   10 1     
   10    5    6 1     
   11    5   27 1     
   12    6    7 1     
   13    6   28 1     
   14    6   29 1     
   15    7    8 2     
   16    7   30 1     
   17    8    9 1     
   18    8   31 1     
   19    9   10 1     
   20    9   32 1     
   21    9   33 1     
   22   10   34 1     
   23   10   35 1     
   24   11   12 1     
   25   11   36 1     
   26   12   21 1     
   27   12   13 2     
   28   13   14 1     
   29   13   37 1     
   30   14   15 1     
   31   14   19 2     
   32   15   16 1     
   33   15   17 1     
   34   15   18 1     
   35   19   20 1     
   36   19   38 1     
   37   20   23 1     
   38   20   21 am    
   39   21   22 2     
   40    1   39 1     
   41    1   40 1     
   42   22   41 1     
   43   22   42 1     
@<TRIPOS>SUBSTRUCTURE
      1 S1             1
@<TRIPOS>SET
LONE_PAIRS      STATIC     ATOMS    <user>   **** ""
4 39 40 41 42
DONOR_HYDROGENS      STATIC     ATOMS    <user>   **** ""
3 24 36 23
ATOM$BLUE        STATIC     ATOMS    COLORGROUP SYSTEM
4 39 40 41 42
ATOM$RED        STATIC     ATOMS    COLORGROUP SYSTEM
3 24 36 23
