AV-unprocessed.smi:852|AV-procd|sdf|3952|dock2
  -GOLD-   22720 1423D 1   1.00000     0.00000
 Structure written by MMmdl.
 30 31  0  0  0  0  0  0  0  0  1 V2000
  149.9167  143.8176  159.1176 C   0  0  0  0  0  0  0  0  0  0  0  0
  151.1029  143.2076  158.3452 C   0  0  2  0  0  0  0  0  0  0  0  0
  152.0468  144.2842  157.9775 C   0  0  0  0  0  0  0  0  0  0  0  0
  152.7865  145.1269  157.6898 N   0  0  0  0  0  0  0  0  0  0  0  0
  150.6023  142.5304  157.1477 N   0  0  0  0  0  0  0  0  0  0  0  0
  149.4975  141.7716  157.0366 C   0  0  0  0  0  0  0  0  0  0  0  0
  148.7586  141.5020  157.9821 O   0  0  0  0  0  0  0  0  0  0  0  0
  149.1787  141.2243  155.6426 C   0  0  0  0  0  0  0  0  0  0  0  0
  150.1045  140.1750  155.2520 N   0  0  0  0  0  0  0  0  0  0  0  0
  149.9024  138.8680  155.0547 C   0  0  0  0  0  0  0  0  0  0  0  0
  150.9965  138.1973  154.7173 N   0  0  0  0  0  0  0  0  0  0  0  0
  151.8884  139.2304  154.7244 C   0  0  0  0  0  0  0  0  0  0  0  0
  153.2921  139.0234  154.4117 C   0  0  0  0  0  0  0  0  0  0  0  0
  154.4101  138.8583  154.1627 N   0  0  0  0  0  0  0  0  0  0  0  0
  151.4167  140.4362  155.0342 N   0  0  0  0  0  0  0  0  0  0  0  0
  151.8072  142.2015  159.2531 C   0  0  0  0  0  0  0  0  0  0  0  0
  152.6235  142.6197  160.4562 C   0  0  0  0  0  0  0  0  0  0  0  0
  153.3073  142.0108  159.2513 C   0  0  0  0  0  0  0  0  0  0  0  0
  150.2518  144.2802  160.0466 H   0  0  0  0  0  0  0  0  0  0  0  0
  149.1774  143.0586  159.3766 H   0  0  0  0  0  0  0  0  0  0  0  0
  149.4090  144.5907  158.5404 H   0  0  0  0  0  0  0  0  0  0  0  0
  151.1386  142.6809  156.3056 H   0  0  0  0  0  0  0  0  0  0  0  0
  148.1639  140.8253  155.6307 H   0  0  0  0  0  0  0  0  0  0  0  0
  149.2188  142.0262  154.9034 H   0  0  0  0  0  0  0  0  0  0  0  0
  148.9367  138.3972  155.1669 H   0  0  0  0  0  0  0  0  0  0  0  0
  151.2309  141.2878  159.3896 H   0  0  0  0  0  0  0  0  0  0  0  0
  152.7742  143.6822  160.6359 H   0  0  0  0  0  0  0  0  0  0  0  0
  152.5455  142.0064  161.3515 H   0  0  0  0  0  0  0  0  0  0  0  0
  153.6806  140.9934  159.3464 H   0  0  0  0  0  0  0  0  0  0  0  0
  153.9117  142.6680  158.6296 H   0  0  0  0  0  0  0  0  0  0  0  0
  1  2  1  0  0  0  0
  1 19  1  0  0  0  0
  1 20  1  0  0  0  0
  1 21  1  0  0  0  0
  2  3  1  0  0  0  0
  2  5  1  0  0  0  0
  2 16  1  0  0  0  0
  3  4  3  0  0  0  0
  5  6  1  0  0  0  0
  5 22  1  0  0  0  0
  6  7  2  0  0  0  0
  6  8  1  0  0  0  0
  8  9  1  0  0  0  0
  8 23  1  0  0  0  0
  8 24  1  0  0  0  0
  9 15  1  0  0  0  0
  9 10  1  0  0  0  0
 10 11  2  0  0  0  0
 10 25  1  0  0  0  0
 11 12  1  0  0  0  0
 12 13  1  0  0  0  0
 12 15  2  0  0  0  0
 13 14  3  0  0  0  0
 16 18  1  0  0  0  0
 16 17  1  0  0  0  0
 16 26  1  0  0  0  0
 17 18  1  0  0  0  0
 17 27  1  0  0  0  0
 17 28  1  0  0  0  0
 18 29  1  0  0  0  0
 18 30  1  0  0  0  0
M  END
> <s_m_source_file>
AV-unprocessed.smi

> <i_m_source_file_index>
852

> <i_lp_mmshare_version>
43012

> <i_f3d_flags>
0

> <s_epik_input>
W0NIMl0xW0NIMl1bQ0hdMVtDQF0oW0NIM10pKEMjTilbTkhdQyg9TylbQ0gyXW4yW2NIXW5jKG4yKUMjTg==

> <s_epik_cmdline>
J2VwaWtfcHl0aG9uJywgJy1waCcsICc3LjAnLCAnLXRuJywgJzgnLCAnLW1hJywgJzIwMCcsICctbWV0YWxfYmluZGluZycsICctaW1hZScsICc8aW5maWxlLm1hZT4nLCAnLW9tYWUnLCAnPG91dGZpbGUubWFlPic=

> <r_lp_tautomer_probability>
1

> <r_epik_Ionization_Penalty>
2.64294e-06

> <r_epik_Ionization_Penalty_Charging>
0

> <r_epik_Ionization_Penalty_Neutral>
2.64294e-06

> <r_epik_State_Penalty>
-0

> <r_epik_Charging_Adjusted_Penalty>
0

> <i_epik_Tot_Q>
0

> <i_epik_Tot_abs_Q>
0

> <r_epik_Metal_State_Penalty>
-0

> <b_epik_Metal_Only>
0

> <s_lp_Force_Field>
OPLS_2005

> <r_lp_Energy>
16.3367

> <b_lp_Chiralities_Consistent>
1

> <s_lp_Variant>
AV-unprocessed.smi:852-2

> <Gold.Version>
5.8.1

> <Gold.Id.Protein>
6NUR|6NUR_protein|mol2

> <Gold.PLP.Fitness>
36.4432

> <Gold.PLP.PLP>
-34.1957

> <Gold.PLP.part.hbond>
-2.8005

> <Gold.PLP.part.metal>
0.0000

> <Gold.PLP.part.buried>
-3.7064

> <Gold.PLP.part.nonpolar>
-28.6535

> <Gold.PLP.part.repulsive>
0.3081

> <Gold.PLP.ligand.clash>
0.0000

> <Gold.PLP.ligand.torsion>
1.4023

> <Gold.PLP.Chemscore.Hbond>
1.1709

> <Gold.PLP.Chemscore.CHOScore>
0.0000

> <Gold.PLP.Chemscore.Metal>
0.0000

> <Gold.Chemscore.Hbonds>
donor molecule, donor type, donor heavy atom, donor atom, acceptor molecule, acceptor atom, score
      P1  H  7989  7998       L1    15  0.43
      P1  H  7997  8010       L1    14  0.60

> <Gold.PLP.Chemscore.Internal.Correction>
1.5396

> <Gold.Rescore>
     Score         DG    S(hbond)    S(metal)    S(lipo)     H(rot)  DE(clash)    DE(int)     intcor
      5.07      -8.45       0.93        0.00      52.74       2.46       0.34       3.04       ----

> <Gold.Chemscore.Fitness>
5.0681

> <Gold.Chemscore.DG>
-8.4543

> <Gold.Chemscore.ZeroCoef>
-5.4800

> <Gold.Chemscore.Hbond>
0.9264

> <Gold.Chemscore.Metal>
0.0000

> <Gold.Chemscore.Lipo>
52.7359

> <Gold.Chemscore.Internal_Hbond>
0.0000

> <Gold.Chemscore.DEClash>
0.3442

> <Gold.Chemscore.DEInternal>
3.0420

> <Gold.Chemscore.Rot>
2.4571

> <Gold.Chemscore.Internal.Correction>
   9.000000E+99

> <Gold.Chemscore.Hbonds>
donor molecule, donor type, donor heavy atom, donor atom, acceptor molecule, acceptor atom, score
      P1  H  7989  7998       L1    15  0.01
      P1  H  7997  8010       L1    14  0.05

> <Gold.Chemscore.Hbond.Weighted>
-3.0943

> <Gold.Chemscore.Metal.Weighted>
-0.0000

> <Gold.Chemscore.Lipo.Weighted>
-6.1701

> <Gold.Chemscore.Internal_Hbond.Weighted>
0.0000

> <Gold.Chemscore.DEClash.Weighted>
0.3442

> <Gold.Chemscore.DEInternal.Weighted>
3.0420

> <Gold.Chemscore.Rot.Weighted>
6.2901

> <Gold.Chemscore.Internal.Correction.Weighted>
   9.000000E+99

> <Gold.Protein.RotatedTorsions>
[ 6907 6896 6895 6894 ] final   41.40 input  -60.11 | X-H torsion
[ 7974 7965 7964 7962 ] final -156.29 input  175.53 | X-H torsion
[ 8008 7997 7996 7995 ] final  146.23 input   59.86 | X-H torsion
[ 10167 10162 10161 10158 ] final -162.00 input  -65.29 | X-H torsion
[ 10718 10713 10712 10709 ] final  -88.95 input   66.30 | X-H torsion
[ 10763 10752 10751 10750 ] final  129.03 input  -60.55 | X-H torsion
[ 11005 11000 10999 10996 ] final  -14.38 input  -57.11 | X-H torsion

> <Gold.Protein.ActiveResidues>
 VAL166  LYS551  ARG553  GLY616  TRP617  ASP618  TYR619  PRO620  LYS621  CYS622 
 ASP623  PHE694  ASN695  SER759  ASP760  ASP761  ALA762  ILE779  LEU786  VAL792 
 PHE793  MET794  SER795  GLU796  ALA797  LYS798  CYS799  TRP800  GLU811  SER814 

> <Gold.Protein.RotatedAtoms>
  152.1948  134.8641  160.0513 H   0  0  0  0  0  0  0  0  0  0  0  0  # atno 6907 bound_to 6896
  151.9516  133.3662  159.4010 H   0  0  0  0  0  0  0  0  0  0  0  0  # atno 6908 bound_to 6896
  150.6942  134.4258  159.5270 H   0  0  0  0  0  0  0  0  0  0  0  0  # atno 6909 bound_to 6896
  144.7600  140.4130  143.5984 H   0  0  0  0  0  0  0  0  0  0  0  0  # atno 7974 bound_to 7965
  156.2861  140.2188  156.5343 H   0  0  0  0  0  0  0  0  0  0  0  0  # atno 8008 bound_to 7997
  154.7423  140.0487  157.0844 H   0  0  0  0  0  0  0  0  0  0  0  0  # atno 8009 bound_to 7997
  155.0215  140.3124  155.4795 H   0  0  0  0  0  0  0  0  0  0  0  0  # atno 8010 bound_to 7997
  139.6424  144.0235  152.2101 H   0  0  0  0  0  0  0  0  0  0  0  0  # atno 10167 bound_to 10162
  155.9984  130.4854  150.5097 H   0  0  0  0  0  0  0  0  0  0  0  0  # atno 10718 bound_to 10713
  153.7351  135.3232  155.3293 H   0  0  0  0  0  0  0  0  0  0  0  0  # atno 10763 bound_to 10752
  154.8313  135.4531  154.1082 H   0  0  0  0  0  0  0  0  0  0  0  0  # atno 10764 bound_to 10752
  153.2241  135.6952  153.8047 H   0  0  0  0  0  0  0  0  0  0  0  0  # atno 10765 bound_to 10752
  140.7858  133.8327  155.9334 H   0  0  0  0  0  0  0  0  0  0  0  0  # atno 11005 bound_to 11000
  145.6652  139.1589  143.2786 LP  0  0  0  0  0  0  0  0  0  0  0  0  # atno 17320 bound_to 7965
  146.1652  140.6729  142.9259 LP  0  0  0  0  0  0  0  0  0  0  0  0  # atno 17321 bound_to 7965
  139.9928  144.6349  150.7799 LP  0  0  0  0  0  0  0  0  0  0  0  0  # atno 17342 bound_to 10162
  140.7497  143.2943  151.3245 LP  0  0  0  0  0  0  0  0  0  0  0  0  # atno 17343 bound_to 10162
  157.3072  131.0656  151.2027 LP  0  0  0  0  0  0  0  0  0  0  0  0  # atno 17370 bound_to 10713
  157.2985  130.6831  149.6151 LP  0  0  0  0  0  0  0  0  0  0  0  0  # atno 17371 bound_to 10713
  140.9438  134.1867  157.4778 LP  0  0  0  0  0  0  0  0  0  0  0  0  # atno 17394 bound_to 11000
  139.8737  134.9882  156.5403 LP  0  0  0  0  0  0  0  0  0  0  0  0  # atno 17395 bound_to 11000

$$$$
