AV-unprocessed.smi:2851|AV-procd|sdf|10971|dock2
  -GOLD-   2272015423D 1   1.00000     0.00000
 Structure written by MMmdl.
 43 44  0  0  0  0  0  0  0  0  2 V2000
  150.3818  144.6208  159.7323 C   0  0  0  0  0  0  0  0  0  0  0  0
  151.4959  143.7492  160.2368 C   0  0  0  0  0  0  0  0  0  0  0  0
  151.8938  143.8645  161.4932 N   0  0  0  0  0  0  0  0  0  0  0  0
  152.8757  142.9500  161.6277 N   0  0  0  0  0  0  0  0  0  0  0  0
  153.5355  142.7995  162.9099 C   0  0  0  0  0  0  0  0  0  0  0  0
  153.1073  142.2652  160.4509 C   0  0  0  0  0  0  0  0  0  0  0  0
  154.1465  141.1955  160.3436 C   0  0  0  0  0  0  0  0  0  0  0  0
  152.2285  142.7568  159.5218 C   0  0  0  0  0  0  0  0  0  0  0  0
  152.0488  142.3508  158.0806 C   0  0  0  0  0  0  0  0  0  0  0  0
  151.9168  140.8306  157.9935 C   0  0  0  0  0  0  0  0  0  0  0  0
  151.9640  140.1625  159.0247 O   0  0  0  0  0  0  0  0  0  0  0  0
  151.7826  140.3372  156.7487 N   0  0  0  0  0  0  0  0  0  0  0  0
  151.6621  138.9674  156.2229 C   0  0  0  0  0  0  0  0  0  0  0  0
  153.0868  138.3714  156.3493 C   0  0  0  0  0  0  0  0  0  0  0  0
  153.2607  137.1808  156.0054 O   0  0  0  0  0  0  0  0  0  0  0  0
  153.9828  139.0996  156.8344 O   0  5  0  0  0  0  0  0  0  0  0  0
  150.6291  138.0364  156.9403 C   0  0  0  0  0  0  0  0  0  0  0  0
  149.1546  138.3746  156.6400 C   0  0  0  0  0  0  0  0  0  0  0  0
  148.8846  138.4328  155.1332 C   0  0  0  0  0  0  0  0  0  0  0  0
  149.8284  139.4338  154.4587 C   0  0  0  0  0  0  0  0  0  0  0  0
  151.2997  139.0658  154.7122 C   0  0  0  0  0  0  0  0  0  0  0  0
  150.7648  145.3947  159.0671 H   0  0  0  0  0  0  0  0  0  0  0  0
  149.8521  145.1142  160.5480 H   0  0  0  0  0  0  0  0  0  0  0  0
  149.6523  144.0346  159.1732 H   0  0  0  0  0  0  0  0  0  0  0  0
  154.5512  143.1901  162.8461 H   0  0  0  0  0  0  0  0  0  0  0  0
  153.5751  141.7444  163.1815 H   0  0  0  0  0  0  0  0  0  0  0  0
  152.9946  143.3409  163.6872 H   0  0  0  0  0  0  0  0  0  0  0  0
  154.3308  140.9251  159.3043 H   0  0  0  0  0  0  0  0  0  0  0  0
  153.8278  140.2962  160.8709 H   0  0  0  0  0  0  0  0  0  0  0  0
  155.0926  141.5238  160.7736 H   0  0  0  0  0  0  0  0  0  0  0  0
  151.1596  142.8084  157.6460 H   0  0  0  0  0  0  0  0  0  0  0  0
  152.8857  142.6799  157.4636 H   0  0  0  0  0  0  0  0  0  0  0  0
  151.7927  141.0372  156.0215 H   0  0  0  0  0  0  0  0  0  0  0  0
  150.7941  137.0100  156.6075 H   0  0  0  0  0  0  0  0  0  0  0  0
  150.7938  138.0086  158.0176 H   0  0  0  0  0  0  0  0  0  0  0  0
  148.5067  137.6291  157.1015 H   0  0  0  0  0  0  0  0  0  0  0  0
  148.8812  139.3293  157.0865 H   0  0  0  0  0  0  0  0  0  0  0  0
  149.0201  137.4436  154.6945 H   0  0  0  0  0  0  0  0  0  0  0  0
  147.8474  138.7156  154.9513 H   0  0  0  0  0  0  0  0  0  0  0  0
  149.6346  139.4583  153.3862 H   0  0  0  0  0  0  0  0  0  0  0  0
  149.6286  140.4392  154.8315 H   0  0  0  0  0  0  0  0  0  0  0  0
  151.9344  139.7975  154.2092 H   0  0  0  0  0  0  0  0  0  0  0  0
  151.5002  138.1107  154.2231 H   0  0  0  0  0  0  0  0  0  0  0  0
  1  2  1  0  0  0  0
  1 22  1  0  0  0  0
  1 23  1  0  0  0  0
  1 24  1  0  0  0  0
  2  8  1  0  0  0  0
  2  3  2  0  0  0  0
  3  4  1  0  0  0  0
  4  5  1  0  0  0  0
  4  6  1  0  0  0  0
  5 25  1  0  0  0  0
  5 26  1  0  0  0  0
  5 27  1  0  0  0  0
  6  7  1  0  0  0  0
  6  8  2  0  0  0  0
  7 28  1  0  0  0  0
  7 29  1  0  0  0  0
  7 30  1  0  0  0  0
  8  9  1  0  0  0  0
  9 10  1  0  0  0  0
  9 31  1  0  0  0  0
  9 32  1  0  0  0  0
 10 11  2  0  0  0  0
 10 12  1  0  0  0  0
 12 13  1  0  0  0  0
 12 33  1  0  0  0  0
 13 21  1  0  0  0  0
 13 14  1  0  0  0  0
 13 17  1  0  0  0  0
 14 15  2  0  0  0  0
 14 16  1  0  0  0  0
 17 18  1  0  0  0  0
 17 34  1  0  0  0  0
 17 35  1  0  0  0  0
 18 19  1  0  0  0  0
 18 36  1  0  0  0  0
 18 37  1  0  0  0  0
 19 20  1  0  0  0  0
 19 38  1  0  0  0  0
 19 39  1  0  0  0  0
 20 21  1  0  0  0  0
 20 40  1  0  0  0  0
 20 41  1  0  0  0  0
 21 42  1  0  0  0  0
 21 43  1  0  0  0  0
M  CHG  1  16  -1
M  END
> <s_m_source_file>
AV-unprocessed.smi

> <i_m_source_file_index>
2851

> <i_lp_mmshare_version>
43012

> <i_f3d_flags>
0

> <s_epik_input>
W0NIM11jMW5uKFtDSDNdKWMoW0NIM10pYzFbQ0gyXUMoPU8pW05IXUMyKEMoPU8pW09IXSlbQ0gyXVtDSDJdW0NIMl1bQ0gyXVtDSDJdMg==

> <s_epik_cmdline>
J2VwaWtfcHl0aG9uJywgJy1waCcsICc3LjAnLCAnLXRuJywgJzgnLCAnLW1hJywgJzIwMCcsICctbWV0YWxfYmluZGluZycsICctaW1hZScsICc8aW5maWxlLm1hZT4nLCAnLW9tYWUnLCAnPG91dGZpbGUubWFlPic=

> <r_lp_tautomer_probability>
1

> <r_epik_Ionization_Penalty>
0.00398412

> <r_epik_Ionization_Penalty_Charging>
0.000391215

> <r_epik_Ionization_Penalty_Neutral>
0.0035929

> <r_epik_State_Penalty>
-0

> <r_epik_Charging_Adjusted_Penalty>
0.000391215

> <i_epik_Tot_Q>
-1

> <i_epik_Tot_abs_Q>
1

> <r_epik_Metal_State_Penalty>
-0

> <b_epik_Metal_Only>
0

> <s_lp_Force_Field>
OPLS_2005

> <r_lp_Energy>
3.24008

> <b_lp_Chiralities_Consistent>
1

> <s_lp_Variant>
AV-unprocessed.smi:2851-1

> <Gold.Version>
5.8.1

> <Gold.Id.Protein>
6NUR|6NUR_protein|mol2

> <Gold.PLP.Fitness>
52.0987

> <Gold.PLP.PLP>
-41.0709

> <Gold.PLP.part.hbond>
-2.0000

> <Gold.PLP.part.metal>
0.0000

> <Gold.PLP.part.buried>
-6.5001

> <Gold.PLP.part.nonpolar>
-33.0832

> <Gold.PLP.part.repulsive>
0.2687

> <Gold.PLP.ligand.clash>
0.0000

> <Gold.PLP.ligand.torsion>
0.3619

> <Gold.PLP.Chemscore.Hbond>
3.8880

> <Gold.PLP.Chemscore.CHOScore>
0.0000

> <Gold.PLP.Chemscore.Metal>
0.0000

> <Gold.Chemscore.Hbonds>
donor molecule, donor type, donor heavy atom, donor atom, acceptor molecule, acceptor atom, score
      P1  H 10752 10764       L1    15  0.93

> <Gold.PLP.Chemscore.Internal.Correction>
0.0876

> <Gold.Rescore>
     Score         DG    S(hbond)    S(metal)    S(lipo)     H(rot)  DE(clash)    DE(int)     intcor
     15.98     -17.90       1.89        0.00      93.48       1.88       0.27       1.65       ----

> <Gold.Chemscore.Fitness>
15.9794

> <Gold.Chemscore.DG>
-17.9024

> <Gold.Chemscore.ZeroCoef>
-5.4800

> <Gold.Chemscore.Hbond>
1.8864

> <Gold.Chemscore.Metal>
0.0000

> <Gold.Chemscore.Lipo>
93.4794

> <Gold.Chemscore.Internal_Hbond>
0.0000

> <Gold.Chemscore.DEClash>
0.2694

> <Gold.Chemscore.DEInternal>
1.6536

> <Gold.Chemscore.Rot>
1.8809

> <Gold.Chemscore.Internal.Correction>
   9.000000E+99

> <Gold.Chemscore.Hbonds>
donor molecule, donor type, donor heavy atom, donor atom, acceptor molecule, acceptor atom, score
      P1  H  7997  8009       L1    16  0.01
      P1  H 10752 10764       L1    15  0.46

> <Gold.Chemscore.Hbond.Weighted>
-6.3005

> <Gold.Chemscore.Metal.Weighted>
-0.0000

> <Gold.Chemscore.Lipo.Weighted>
-10.9371

> <Gold.Chemscore.Internal_Hbond.Weighted>
0.0000

> <Gold.Chemscore.DEClash.Weighted>
0.2694

> <Gold.Chemscore.DEInternal.Weighted>
1.6536

> <Gold.Chemscore.Rot.Weighted>
4.8152

> <Gold.Chemscore.Internal.Correction.Weighted>
   9.000000E+99

> <Gold.Protein.RotatedTorsions>
[ 6907 6896 6895 6894 ] final  -10.39 input  -60.11 | X-H torsion
[ 7974 7965 7964 7962 ] final -127.91 input  175.53 | X-H torsion
[ 8008 7997 7996 7995 ] final  177.07 input   59.86 | X-H torsion
[ 10167 10162 10161 10158 ] final    3.07 input  -65.29 | X-H torsion
[ 10718 10713 10712 10709 ] final  109.70 input   66.30 | X-H torsion
[ 10763 10752 10751 10750 ] final  -30.64 input  -60.55 | X-H torsion
[ 11005 11000 10999 10996 ] final   34.83 input  -57.11 | X-H torsion

> <Gold.Protein.ActiveResidues>
 VAL166  LYS551  ARG553  GLY616  TRP617  ASP618  TYR619  PRO620  LYS621  CYS622 
 ASP623  PHE694  ASN695  SER759  ASP760  ASP761  ALA762  ILE779  LEU786  VAL792 
 PHE793  MET794  SER795  GLU796  ALA797  LYS798  CYS799  TRP800  GLU811  SER814 

> <Gold.Protein.RotatedAtoms>
  151.4027  135.0973  159.9560 H   0  0  0  0  0  0  0  0  0  0  0  0  # atno 6907 bound_to 6896
  152.5045  133.8873  159.7386 H   0  0  0  0  0  0  0  0  0  0  0  0  # atno 6908 bound_to 6896
  150.9350  133.6666  159.2831 H   0  0  0  0  0  0  0  0  0  0  0  0  # atno 6909 bound_to 6896
  144.9723  140.7558  143.4663 H   0  0  0  0  0  0  0  0  0  0  0  0  # atno 7974 bound_to 7965
  156.0696  140.1367  156.9844 H   0  0  0  0  0  0  0  0  0  0  0  0  # atno 8008 bound_to 7997
  154.4525  140.0974  156.6711 H   0  0  0  0  0  0  0  0  0  0  0  0  # atno 8009 bound_to 7997
  155.5248  140.3457  155.4416 H   0  0  0  0  0  0  0  0  0  0  0  0  # atno 8010 bound_to 7997
  140.6604  143.7319  150.7728 H   0  0  0  0  0  0  0  0  0  0  0  0  # atno 10167 bound_to 10162
  157.6529  131.0919  150.6493 H   0  0  0  0  0  0  0  0  0  0  0  0  # atno 10718 bound_to 10713
  153.7843  135.6903  153.4883 H   0  0  0  0  0  0  0  0  0  0  0  0  # atno 10763 bound_to 10752
  153.1791  135.4513  155.0003 H   0  0  0  0  0  0  0  0  0  0  0  0  # atno 10764 bound_to 10752
  154.8069  135.3361  154.7343 H   0  0  0  0  0  0  0  0  0  0  0  0  # atno 10765 bound_to 10752
  140.2488  134.3328  155.7898 H   0  0  0  0  0  0  0  0  0  0  0  0  # atno 11005 bound_to 11000
  145.2540  139.2020  143.4927 LP  0  0  0  0  0  0  0  0  0  0  0  0  # atno 17320 bound_to 7965
  146.3385  140.2458  142.8597 LP  0  0  0  0  0  0  0  0  0  0  0  0  # atno 17321 bound_to 7965
  140.0987  143.4809  152.2438 LP  0  0  0  0  0  0  0  0  0  0  0  0  # atno 17342 bound_to 10162
  139.5836  144.7521  151.3576 LP  0  0  0  0  0  0  0  0  0  0  0  0  # atno 17343 bound_to 10162
  156.6802  130.4565  149.5630 LP  0  0  0  0  0  0  0  0  0  0  0  0  # atno 17370 bound_to 10713
  156.1934  130.6574  151.1087 LP  0  0  0  0  0  0  0  0  0  0  0  0  # atno 17371 bound_to 10713
  141.2203  133.7341  156.9004 LP  0  0  0  0  0  0  0  0  0  0  0  0  # atno 17394 bound_to 11000
  140.1579  134.9186  157.2677 LP  0  0  0  0  0  0  0  0  0  0  0  0  # atno 17395 bound_to 11000

$$$$
