#       Name:                AV-unprocessed.smi:713
#       Creating user name   scv26
#       Creation time:       Fri Mar 27 00:47:20 2020


#       File generated by GOLD software.
#

@<TRIPOS>MOLECULE
AV-unprocessed.smi:713
    44    45     1
SMALL
NO_CHARGES


@<TRIPOS>ATOM
      1 ****        -3.6712  -2.4663  -1.4484 C.3            1 S1                 0.0000
      2 ****        -3.0302  -1.3936  -0.5483 C.3            1 S1                 0.0000
      3 ****        -1.5240  -1.2276  -0.7986 C.2            1 S1                 0.0000
      4 ****        -0.8508  -2.1627  -1.2341 O.2            1 S1                 0.0000
      5 ****        -1.0075  -0.0245  -0.5027 N.am           1 S1                 0.0000
      6 ****         0.4015   0.3408  -0.6012 C.3            1 S1                 0.0000
      7 ****         0.7748   0.6974  -2.0544 C.3            1 S1                 0.0000
      8 ****         2.2380   1.1528  -2.1692 C.3            1 S1                 0.0000
      9 ****         2.5516   2.3085  -1.2018 C.3            1 S1                 0.0000
     10 ****         2.1424   2.0220   0.2613 C.3            1 S1                 0.0000
     11 ****         3.2908   0.8522   1.1421 S.o2           1 S1                 0.0000
     12 ****         4.8674   1.8006   1.1879 C.3            1 S1                 0.0000
     13 ****         2.8096   0.6967   2.5231 O.2            1 S1                 0.0000
     14 ****         3.5170  -0.3458   0.3206 O.2            1 S1                 0.0000
     15 ****         0.6828   1.5311   0.3356 C.3            1 S1                 0.0000
     16 ****        -3.2725  -1.6730   0.8611 N.pl3          1 S1                 0.0000
     17 ****        -2.9201  -2.7880   1.5970 C.2            1 S1                 0.0000
     18 ****        -3.3420  -2.5827   2.8791 C.2            1 S1                 0.0000
     19 ****        -3.9461  -1.2957   2.8332 C.2            1 S1                 0.0000
     20 ****        -3.9019  -0.7540   1.6269 N.2            1 S1                 0.0000
     21 ****        -3.5039  -2.2469  -2.5034 H              1 S1                 0.0000
     22 ****        -4.7492  -2.5094  -1.2911 H              1 S1                 0.0000
     23 ****        -3.2697  -3.4604  -1.2479 H              1 S1                 0.0000
     24 ****        -3.5068  -0.4417  -0.7921 H              1 S1                 0.0000
     25 ****        -1.6361   0.6822  -0.1484 H              1 S1                 0.0000
     26 ****         0.9998  -0.5109  -0.2758 H              1 S1                 0.0000
     27 ****         0.6102  -0.1589  -2.7093 H              1 S1                 0.0000
     28 ****         0.1216   1.4924  -2.4172 H              1 S1                 0.0000
     29 ****         2.9017   0.3095  -1.9879 H              1 S1                 0.0000
     30 ****         2.4408   1.4703  -3.1922 H              1 S1                 0.0000
     31 ****         3.6061   2.5722  -1.2654 H              1 S1                 0.0000
     32 ****         2.0087   3.1914  -1.5413 H              1 S1                 0.0000
     33 ****         2.2058   2.9562   0.8198 H              1 S1                 0.0000
     34 ****         5.5936   1.2580   1.7926 H              1 S1                 0.0000
     35 ****         4.6942   2.7815   1.6294 H              1 S1                 0.0000
     36 ****         5.2629   1.9159   0.1797 H              1 S1                 0.0000
     37 ****         0.0226   2.3579   0.0692 H              1 S1                 0.0000
     38 ****         0.4308   1.2672   1.3634 H              1 S1                 0.0000
     39 ****        -2.4010  -3.6243   1.1516 H              1 S1                 0.0000
     40 ****        -3.2322  -3.2489   3.7219 H              1 S1                 0.0000
     41 ****        -4.4106  -0.7420   3.6358 H              1 S1                 0.0000
     42 ****        -1.2842  -3.0426  -1.4289 LP             1 S1                 0.0000
     43 ****         0.1291  -2.0419  -1.3929 LP             1 S1                 0.0000
     44 ****        -4.2557   0.1376   1.3443 LP             1 S1                 0.0000
@<TRIPOS>BOND
    1    1    2 1     
    2    1   21 1     
    3    1   22 1     
    4    1   23 1     
    5    2    3 1     
    6    2   16 1     
    7    2   24 1     
    8    3    4 2     
    9    3    5 am    
   10    5    6 1     
   11    5   25 1     
   12    6   15 1     
   13    6    7 1     
   14    6   26 1     
   15    7    8 1     
   16    7   27 1     
   17    7   28 1     
   18    8    9 1     
   19    8   29 1     
   20    8   30 1     
   21    9   10 1     
   22    9   31 1     
   23    9   32 1     
   24   10   11 1     
   25   10   15 1     
   26   10   33 1     
   27   11   12 1     
   28   11   13 2     
   29   11   14 2     
   30   12   34 1     
   31   12   35 1     
   32   12   36 1     
   33   15   37 1     
   34   15   38 1     
   35   16   20 1     
   36   16   17 1     
   37   17   18 2     
   38   17   39 1     
   39   18   19 1     
   40   18   40 1     
   41   19   20 2     
   42   19   41 1     
   43    4   42 1     
   44    4   43 1     
   45   20   44 1     
@<TRIPOS>SUBSTRUCTURE
      1 S1             1
@<TRIPOS>SET
LONE_PAIRS      STATIC     ATOMS    <user>   **** ""
5 42 43 13 14 44
DONOR_HYDROGENS      STATIC     ATOMS    <user>   **** ""
1 25
ATOM$BLUE        STATIC     ATOMS    COLORGROUP SYSTEM
5 42 43 13 14 44
ATOM$RED        STATIC     ATOMS    COLORGROUP SYSTEM
1 25
