AV-unprocessed.smi:37|AV-procd|sdf|328|dock5
  -GOLD-   2262016153D 1   1.00000     0.00000
 Structure written by MMmdl.
 43 44  0  0  0  0  0  0  0  0  2 V2000
  154.1358  136.7987  164.4073 C   0  0  0  0  0  0  0  0  0  0  0  0
  155.3816  136.3718  163.6185 C   0  0  0  0  0  0  0  0  0  0  0  0
  156.0037  137.5360  162.8508 C   0  0  0  0  0  0  0  0  0  0  0  0
  157.0237  137.3908  162.1766 O   0  0  0  0  0  0  0  0  0  0  0  0
  155.3206  138.6782  163.0087 O   0  0  0  0  0  0  0  0  0  0  0  0
  155.8893  139.9098  162.5957 C   0  0  0  0  0  0  0  0  0  0  0  0
  155.5268  140.1839  161.1301 C   0  0  1  0  0  0  0  0  0  0  0  0
  155.8656  139.0484  160.3419 O   0  0  0  0  0  0  0  0  0  0  0  0
  154.9186  138.9167  159.3338 C   0  0  1  0  0  0  0  0  0  0  0  0
  154.8914  137.4909  158.8351 N   0  0  0  0  0  0  0  0  0  0  0  0
  155.2467  136.4337  159.6573 C   0  0  0  0  0  0  0  0  0  0  0  0
  155.2106  135.1614  159.2121 C   0  0  0  0  0  0  0  0  0  0  0  0
  155.5549  134.1552  160.0341 F   0  0  0  0  0  0  0  0  0  0  0  0
  154.7932  134.8874  157.8382 C   0  0  0  0  0  0  0  0  0  0  0  0
  154.7659  133.7250  157.4371 O   0  0  0  0  0  0  0  0  0  0  0  0
  154.4473  135.9482  157.0523 N   0  5  0  0  0  0  0  0  0  0  0  0
  154.4783  137.2377  157.4998 C   0  0  0  0  0  0  0  0  0  0  0  0
  154.1621  138.2025  156.8033 O   0  0  0  0  0  0  0  0  0  0  0  0
  153.5855  139.3576  159.9480 C   0  0  1  0  0  0  0  0  0  0  0  0
  152.7328  137.9182  161.0389 Br  0  0  0  0  0  0  0  0  0  0  0  0
  154.0340  140.4772  160.8797 C   0  0  2  0  0  0  0  0  0  0  0  0
  153.9168  141.7363  160.2269 O   0  0  0  0  0  0  0  0  0  0  0  0
  152.7085  142.3032  160.0521 C   0  0  0  0  0  0  0  0  0  0  0  0
  151.6262  141.7169  160.0681 O   0  0  0  0  0  0  0  0  0  0  0  0
  152.7945  143.8067  159.8001 C   0  0  0  0  0  0  0  0  0  0  0  0
  152.1523  144.2118  158.4662 C   0  0  0  0  0  0  0  0  0  0  0  0
  153.7005  135.9459  164.9284 H   0  0  0  0  0  0  0  0  0  0  0  0
  153.3704  137.2088  163.7477 H   0  0  0  0  0  0  0  0  0  0  0  0
  154.3729  137.5539  165.1571 H   0  0  0  0  0  0  0  0  0  0  0  0
  156.1289  135.9588  164.2963 H   0  0  0  0  0  0  0  0  0  0  0  0
  155.1218  135.5816  162.9138 H   0  0  0  0  0  0  0  0  0  0  0  0
  155.5200  140.7147  163.2321 H   0  0  0  0  0  0  0  0  0  0  0  0
  156.9741  139.8755  162.7058 H   0  0  0  0  0  0  0  0  0  0  0  0
  156.1327  141.0188  160.7743 H   0  0  0  0  0  0  0  0  0  0  0  0
  155.2275  139.5333  158.4872 H   0  0  0  0  0  0  0  0  0  0  0  0
  155.5495  136.6145  160.6778 H   0  0  0  0  0  0  0  0  0  0  0  0
  152.8763  139.6646  159.1785 H   0  0  0  0  0  0  0  0  0  0  0  0
  153.4648  140.4779  161.8107 H   0  0  0  0  0  0  0  0  0  0  0  0
  152.3085  144.3297  160.6238 H   0  0  0  0  0  0  0  0  0  0  0  0
  153.8430  144.1056  159.8107 H   0  0  0  0  0  0  0  0  0  0  0  0
  152.2717  145.2814  158.2927 H   0  0  0  0  0  0  0  0  0  0  0  0
  151.0838  143.9940  158.4538 H   0  0  0  0  0  0  0  0  0  0  0  0
  152.6134  143.6878  157.6284 H   0  0  0  0  0  0  0  0  0  0  0  0
  1  2  1  0  0  0  0
  1 27  1  0  0  0  0
  1 28  1  0  0  0  0
  1 29  1  0  0  0  0
  2  3  1  0  0  0  0
  2 30  1  0  0  0  0
  2 31  1  0  0  0  0
  3  4  2  0  0  0  0
  3  5  1  0  0  0  0
  5  6  1  0  0  0  0
  6  7  1  0  0  0  0
  6 32  1  0  0  0  0
  6 33  1  0  0  0  0
  7 21  1  0  0  0  0
  7  8  1  0  0  0  0
  7 34  1  0  0  0  0
  8  9  1  0  0  0  0
  9 10  1  0  0  0  0
  9 19  1  0  0  0  0
  9 35  1  0  0  0  0
 10 17  1  0  0  0  0
 10 11  1  0  0  0  0
 11 12  2  0  0  0  0
 11 36  1  0  0  0  0
 12 13  1  0  0  0  0
 12 14  1  0  0  0  0
 14 15  2  0  0  0  0
 14 16  1  0  0  0  0
 16 17  1  0  0  0  0
 17 18  2  0  0  0  0
 19 20  1  0  0  0  0
 19 21  1  0  0  0  0
 19 37  1  0  0  0  0
 21 22  1  0  0  0  0
 21 38  1  0  0  0  0
 22 23  1  0  0  0  0
 23 24  2  0  0  0  0
 23 25  1  0  0  0  0
 25 26  1  0  0  0  0
 25 39  1  0  0  0  0
 25 40  1  0  0  0  0
 26 41  1  0  0  0  0
 26 42  1  0  0  0  0
 26 43  1  0  0  0  0
M  CHG  1  16  -1
M  END
> <s_m_source_file>
AV-unprocessed.smi

> <i_m_source_file_index>
37

> <i_lp_mmshare_version>
43012

> <i_f3d_flags>
0

> <s_epik_input>
W0NIM11bQ0gyXUMoPU8pT1tDSDJdW0NAQEhdMU9bQ0BASF0objJbY0hdYyhGKWMoPU8pW25IXWMyPU8pW0NAQEhdKEJyKVtDQEhdMU9DKD1PKVtDSDJdW0NIM10=

> <s_epik_cmdline>
J2VwaWtfcHl0aG9uJywgJy1waCcsICc3LjAnLCAnLXRuJywgJzgnLCAnLW1hJywgJzIwMCcsICctbWV0YWxfYmluZGluZycsICctaW1hZScsICc8aW5maWxlLm1hZT4nLCAnLW9tYWUnLCAnPG91dGZpbGUubWFlPic=

> <r_epik_Ionization_Penalty>
1.08158

> <r_epik_Ionization_Penalty_Charging>
9.05154e-09

> <r_epik_Ionization_Penalty_Neutral>
1.08158

> <r_epik_State_Penalty>
1.13706

> <r_epik_Charging_Adjusted_Penalty>
1.13706

> <i_epik_Tot_Q>
-1

> <i_epik_Tot_abs_Q>
1

> <r_epik_Metal_State_Penalty>
0.00343535

> <b_epik_Metal_Only>
0

> <s_epik_Chemistry_Notes>
This compound has an ester and may undergo hydrolysis at high or low pH. This compound contains an acetal/aminal-like group ( X-CH(R)-Y where X, Y are N, S, or O) that may be acid/base labile, releasing an aldehyde.

> <s_lp_Force_Field>
OPLS_2005

> <r_lp_Energy>
31.9934

> <b_lp_Chiralities_Consistent>
1

> <s_lp_Variant>
AV-unprocessed.smi:37-26

> <Gold.Version>
5.8.1

> <Gold.Id.Protein>
6NUR|6NUR_protein|mol2

> <Gold.PLP.Fitness>
40.4619

> <Gold.PLP.PLP>
-36.0587

> <Gold.PLP.part.hbond>
-2.6775

> <Gold.PLP.part.metal>
0.0000

> <Gold.PLP.part.buried>
-5.6154

> <Gold.PLP.part.nonpolar>
-28.0613

> <Gold.PLP.part.repulsive>
0.0000

> <Gold.PLP.ligand.clash>
0.0000

> <Gold.PLP.ligand.torsion>
1.4682

> <Gold.PLP.Chemscore.Hbond>
2.3840

> <Gold.PLP.Chemscore.CHOScore>
0.0000

> <Gold.PLP.Chemscore.Metal>
0.0000

> <Gold.Chemscore.Hbonds>
donor molecule, donor type, donor heavy atom, donor atom, acceptor molecule, acceptor atom, score
      P1  H  7997  8010       L1    18  0.50
      P1  H 10752 10763       L1    16  1.82

> <Gold.PLP.Chemscore.Internal.Correction>
0.1875

> <Gold.Rescore>
     Score         DG    S(hbond)    S(metal)    S(lipo)     H(rot)  DE(clash)    DE(int)     intcor
      9.22     -10.84       1.26        0.00      81.31       3.27       0.16       1.47       ----

> <Gold.Chemscore.Fitness>
9.2186

> <Gold.Chemscore.DG>
-10.8403

> <Gold.Chemscore.ZeroCoef>
-5.4800

> <Gold.Chemscore.Hbond>
1.2607

> <Gold.Chemscore.Metal>
0.0000

> <Gold.Chemscore.Lipo>
81.3066

> <Gold.Chemscore.Internal_Hbond>
0.0000

> <Gold.Chemscore.DEClash>
0.1559

> <Gold.Chemscore.DEInternal>
1.4659

> <Gold.Chemscore.Rot>
3.2669

> <Gold.Chemscore.Internal.Correction>
   9.000000E+99

> <Gold.Chemscore.Hbonds>
donor molecule, donor type, donor heavy atom, donor atom, acceptor molecule, acceptor atom, score
      P1  H  7997  8010       L1    18  0.50
      P1  H 10752 10763       L1    16  0.49

> <Gold.Chemscore.Hbond.Weighted>
-4.2108

> <Gold.Chemscore.Metal.Weighted>
-0.0000

> <Gold.Chemscore.Lipo.Weighted>
-9.5129

> <Gold.Chemscore.Internal_Hbond.Weighted>
0.0000

> <Gold.Chemscore.DEClash.Weighted>
0.1559

> <Gold.Chemscore.DEInternal.Weighted>
1.4659

> <Gold.Chemscore.Rot.Weighted>
8.3634

> <Gold.Chemscore.Internal.Correction.Weighted>
   9.000000E+99

> <Gold.Protein.RotatedTorsions>
[ 6907 6896 6895 6894 ] final  -56.52 input  -60.11 | X-H torsion
[ 7974 7965 7964 7962 ] final  122.85 input  175.53 | X-H torsion
[ 8008 7997 7996 7995 ] final   37.07 input   59.86 | X-H torsion
[ 10167 10162 10161 10158 ] final  -67.98 input  -65.29 | X-H torsion
[ 10718 10713 10712 10709 ] final  -85.89 input   66.30 | X-H torsion
[ 10763 10752 10751 10750 ] final  173.21 input  -60.55 | X-H torsion
[ 11005 11000 10999 10996 ] final  145.17 input  -57.11 | X-H torsion

> <Gold.Protein.ActiveResidues>
 VAL166  LYS551  ARG553  GLY616  TRP617  ASP618  TYR619  PRO620  LYS621  CYS622 
 ASP623  PHE694  ASN695  SER759  ASP760  ASP761  ALA762  ILE779  LEU786  VAL792 
 PHE793  MET794  SER795  GLU796  ALA797  LYS798  CYS799  TRP800  GLU811  SER814 

> <Gold.Protein.RotatedAtoms>
  150.8161  134.7343  159.6730 H   0  0  0  0  0  0  0  0  0  0  0  0  # atno 6907 bound_to 6896
  152.4279  134.5829  159.9963 H   0  0  0  0  0  0  0  0  0  0  0  0  # atno 6908 bound_to 6896
  151.6026  133.3317  159.3086 H   0  0  0  0  0  0  0  0  0  0  0  0  # atno 6909 bound_to 6896
  145.1027  139.3507  143.4803 H   0  0  0  0  0  0  0  0  0  0  0  0  # atno 7974 bound_to 7965
  155.1978  140.3313  155.4348 H   0  0  0  0  0  0  0  0  0  0  0  0  # atno 8008 bound_to 7997
  156.2418  140.1899  156.7017 H   0  0  0  0  0  0  0  0  0  0  0  0  # atno 8009 bound_to 7997
  154.6162  140.0602  156.9543 H   0  0  0  0  0  0  0  0  0  0  0  0  # atno 8010 bound_to 7997
  140.5542  143.2312  151.6854 H   0  0  0  0  0  0  0  0  0  0  0  0  # atno 10167 bound_to 10162
  155.9993  130.4746  150.4631 H   0  0  0  0  0  0  0  0  0  0  0  0  # atno 10718 bound_to 10713
  154.4368  135.2761  155.1875 H   0  0  0  0  0  0  0  0  0  0  0  0  # atno 10763 bound_to 10752
  154.3757  135.6098  153.5767 H   0  0  0  0  0  0  0  0  0  0  0  0  # atno 10764 bound_to 10752
  152.9839  135.5868  154.4689 H   0  0  0  0  0  0  0  0  0  0  0  0  # atno 10765 bound_to 10752
  140.0691  134.9162  157.1314 H   0  0  0  0  0  0  0  0  0  0  0  0  # atno 11005 bound_to 11000
  146.3529  140.0912  142.8612 LP  0  0  0  0  0  0  0  0  0  0  0  0  # atno 17320 bound_to 7965
  145.0936  140.9301  143.4754 LP  0  0  0  0  0  0  0  0  0  0  0  0  # atno 17321 bound_to 7965
  139.5040  144.3769  152.0415 LP  0  0  0  0  0  0  0  0  0  0  0  0  # atno 17342 bound_to 10162
  140.2889  144.3776  150.6095 LP  0  0  0  0  0  0  0  0  0  0  0  0  # atno 17343 bound_to 10162
  157.2653  131.0575  151.2294 LP  0  0  0  0  0  0  0  0  0  0  0  0  # atno 17370 bound_to 10713
  157.3394  130.7025  149.6372 LP  0  0  0  0  0  0  0  0  0  0  0  0  # atno 17371 bound_to 10713
  140.3655  134.2448  155.7183 LP  0  0  0  0  0  0  0  0  0  0  0  0  # atno 17394 bound_to 11000
  141.2004  133.7987  157.0489 LP  0  0  0  0  0  0  0  0  0  0  0  0  # atno 17395 bound_to 11000

$$$$
