#       Name:                AV-unprocessed.smi:3296
#       Creating user name   scv26
#       Creation time:       Fri Mar 27 18:57:20 2020


#       File generated by GOLD software.
#

@<TRIPOS>MOLECULE
AV-unprocessed.smi:3296
    40    41     1
SMALL
NO_CHARGES


@<TRIPOS>ATOM
      1 ****        -4.6814   1.8367  -0.8236 C.3            1 S1                 0.0000
      2 ****        -4.1765   0.4978  -1.0843 N.am           1 S1                 0.0000
      3 ****        -4.1598  -0.0809  -2.2942 C.2            1 S1                 0.0000
      4 ****        -4.5898   0.4636  -3.3108 O.2            1 S1                 0.0000
      5 ****        -3.5693  -1.4898  -2.3723 C.3            1 S1                 0.0000
      6 ****        -2.0797  -1.3651  -2.3638 C.2            1 S1                 0.0000
      7 ****        -1.3376  -1.4634  -1.2568 N.2            1 S1                 0.0000
      8 ****         0.0276  -1.2948  -1.5061 C.2            1 S1                 0.0000
      9 ****         1.0063  -1.3499  -0.3729 C.3            1 S1                 0.0000
     10 ****         1.0394  -0.0378   0.4268 C.3            1 S1                 0.0000
     11 ****         2.0220  -0.0686   1.6109 C.3            1 S1                 0.0000
     12 ****         1.9769   1.1963   2.4698 C.3            1 S1                 0.0000
     13 ****         3.2800   1.1596   3.2695 C.3            1 S1                 0.0000
     14 ****         4.2939   0.4215   2.3837 C.3            1 S1                 0.0000
     15 ****         3.4991  -0.1678   1.2096 C.3            1 S1                 0.0000
     16 ****         0.3131  -1.0770  -2.8309 C.2            1 S1                 0.0000
     17 ****        -1.1249  -1.0716  -3.8138 S.3            1 S1                 0.0000
     18 ****        -4.5930   2.0674   0.2379 H              1 S1                 0.0000
     19 ****        -5.7322   1.9180  -1.1048 H              1 S1                 0.0000
     20 ****        -4.1120   2.5806  -1.3823 H              1 S1                 0.0000
     21 ****        -3.8001  -0.0164  -0.3006 H              1 S1                 0.0000
     22 ****        -3.9015  -2.0949  -1.5276 H              1 S1                 0.0000
     23 ****        -3.8900  -1.9891  -3.2873 H              1 S1                 0.0000
     24 ****         0.7546  -2.1755   0.2938 H              1 S1                 0.0000
     25 ****         2.0022  -1.5699  -0.7584 H              1 S1                 0.0000
     26 ****         1.2892   0.7900  -0.2383 H              1 S1                 0.0000
     27 ****         0.0383   0.1704   0.8069 H              1 S1                 0.0000
     28 ****         1.7809  -0.9177   2.2530 H              1 S1                 0.0000
     29 ****         1.9647   2.0817   1.8323 H              1 S1                 0.0000
     30 ****         1.0959   1.2369   3.1109 H              1 S1                 0.0000
     31 ****         3.6193   2.1580   3.5470 H              1 S1                 0.0000
     32 ****         3.1256   0.5982   4.1917 H              1 S1                 0.0000
     33 ****         5.0679   1.0979   2.0194 H              1 S1                 0.0000
     34 ****         4.7908  -0.3650   2.9530 H              1 S1                 0.0000
     35 ****         3.7975  -1.1923   0.9852 H              1 S1                 0.0000
     36 ****         3.6834   0.4291   0.3152 H              1 S1                 0.0000
     37 ****         1.2790  -0.9156  -3.2860 H              1 S1                 0.0000
     38 ****        -4.9766   1.3843  -3.2594 LP             1 S1                 0.0000
     39 ****        -4.5524  -0.0148  -4.1882 LP             1 S1                 0.0000
     40 ****        -1.7176  -1.6386  -0.3486 LP             1 S1                 0.0000
@<TRIPOS>BOND
    1    1    2 1     
    2    1   18 1     
    3    1   19 1     
    4    1   20 1     
    5    2    3 am    
    6    2   21 1     
    7    3    4 2     
    8    3    5 1     
    9    5    6 1     
   10    5   22 1     
   11    5   23 1     
   12    6   17 1     
   13    6    7 2     
   14    7    8 1     
   15    8    9 1     
   16    8   16 2     
   17    9   10 1     
   18    9   24 1     
   19    9   25 1     
   20   10   11 1     
   21   10   26 1     
   22   10   27 1     
   23   11   15 1     
   24   11   12 1     
   25   11   28 1     
   26   12   13 1     
   27   12   29 1     
   28   12   30 1     
   29   13   14 1     
   30   13   31 1     
   31   13   32 1     
   32   14   15 1     
   33   14   33 1     
   34   14   34 1     
   35   15   35 1     
   36   15   36 1     
   37   16   17 1     
   38   16   37 1     
   39    4   38 1     
   40    4   39 1     
   41    7   40 1     
@<TRIPOS>SUBSTRUCTURE
      1 S1             1
@<TRIPOS>SET
LONE_PAIRS      STATIC     ATOMS    <user>   **** ""
3 38 39 40
DONOR_HYDROGENS      STATIC     ATOMS    <user>   **** ""
1 21
ATOM$BLUE        STATIC     ATOMS    COLORGROUP SYSTEM
3 38 39 40
ATOM$RED        STATIC     ATOMS    COLORGROUP SYSTEM
1 21
