AV-unprocessed.smi:1410|AV-procd|sdf|5731|dock2
  -GOLD-   22720 5363D 1   1.00000     0.00000
 Structure written by MMmdl.
 40 41  0  0  0  0  0  0  0  0  2 V2000
  142.6025  132.5476  149.7649 N   0  0  0  0  0  0  0  0  0  0  0  0
  143.8819  132.2590  150.0145 C   0  0  0  0  0  0  0  0  0  0  0  0
  144.2725  131.1049  150.1816 O   0  0  0  0  0  0  0  0  0  0  0  0
  144.8611  133.4368  150.0658 C   0  0  0  0  0  0  0  0  0  0  0  0
  144.6037  134.3554  151.2046 N   0  3  2  0  0  0  0  0  0  0  0  0
  144.7728  135.7890  150.8472 C   0  0  0  0  0  0  0  0  0  0  0  0
  144.3473  136.7020  152.0101 C   0  0  0  0  0  0  0  0  0  0  0  0
  145.1113  136.3755  153.3093 C   0  0  2  0  0  0  0  0  0  0  0  0
  146.5166  136.7763  153.2330 N   0  0  0  0  0  0  0  0  0  0  0  0
  147.0897  137.7335  153.9781 C   0  0  0  0  0  0  0  0  0  0  0  0
  146.4750  138.3967  154.8124 O   0  0  0  0  0  0  0  0  0  0  0  0
  148.3924  137.8713  153.6739 N   0  0  0  0  0  0  0  0  0  0  0  0
  149.3480  138.7744  154.2164 C   0  0  0  0  0  0  0  0  0  0  0  0
  150.6517  138.2862  154.4421 C   0  0  0  0  0  0  0  0  0  0  0  0
  151.6181  139.1533  154.9902 C   0  0  0  0  0  0  0  0  0  0  0  0
  151.3606  140.4359  155.3212 N   0  0  0  0  0  0  0  0  0  0  0  0
  150.1095  140.8988  155.1167 C   0  0  0  0  0  0  0  0  0  0  0  0
  149.0701  140.1160  154.5746 C   0  0  0  0  0  0  0  0  0  0  0  0
  144.9929  134.8724  153.6168 C   0  0  0  0  0  0  0  0  0  0  0  0
  145.3903  133.9982  152.4124 C   0  0  0  0  0  0  0  0  0  0  0  0
  141.9215  131.8026  149.7182 H   0  0  0  0  0  0  0  0  0  0  0  0
  142.3153  133.5050  149.6197 H   0  0  0  0  0  0  0  0  0  0  0  0
  145.8593  133.0068  150.1589 H   0  0  0  0  0  0  0  0  0  0  0  0
  144.8456  133.9916  149.1259 H   0  0  0  0  0  0  0  0  0  0  0  0
  145.8127  135.9800  150.5780 H   0  0  0  0  0  0  0  0  0  0  0  0
  144.1734  136.0310  149.9692 H   0  0  0  0  0  0  0  0  0  0  0  0
  144.4834  137.7479  151.7331 H   0  0  0  0  0  0  0  0  0  0  0  0
  143.2777  136.5767  152.1845 H   0  0  0  0  0  0  0  0  0  0  0  0
  144.6531  136.9248  154.1340 H   0  0  0  0  0  0  0  0  0  0  0  0
  147.0981  136.2786  152.5748 H   0  0  0  0  0  0  0  0  0  0  0  0
  148.7332  137.2911  152.9217 H   0  0  0  0  0  0  0  0  0  0  0  0
  150.9141  137.2672  154.1975 H   0  0  0  0  0  0  0  0  0  0  0  0
  152.6249  138.8057  155.1683 H   0  0  0  0  0  0  0  0  0  0  0  0
  149.9278  141.9251  155.3992 H   0  0  0  0  0  0  0  0  0  0  0  0
  148.0927  140.5573  154.4590 H   0  0  0  0  0  0  0  0  0  0  0  0
  145.5996  134.6138  154.4856 H   0  0  0  0  0  0  0  0  0  0  0  0
  143.9614  134.6464  153.8914 H   0  0  0  0  0  0  0  0  0  0  0  0
  145.2211  132.9506  152.6645 H   0  0  0  0  0  0  0  0  0  0  0  0
  146.4553  134.1033  152.1991 H   0  0  0  0  0  0  0  0  0  0  0  0
  143.6321  134.2270  151.4507 H   0  0  0  0  0  0  0  0  0  0  0  0
  1  2  1  0  0  0  0
  1 21  1  0  0  0  0
  1 22  1  0  0  0  0
  2  3  2  0  0  0  0
  2  4  1  0  0  0  0
  4  5  1  0  0  0  0
  4 23  1  0  0  0  0
  4 24  1  0  0  0  0
  5 20  1  0  0  0  0
  5  6  1  0  0  0  0
  5 40  1  0  0  0  0
  6  7  1  0  0  0  0
  6 25  1  0  0  0  0
  6 26  1  0  0  0  0
  7  8  1  0  0  0  0
  7 27  1  0  0  0  0
  7 28  1  0  0  0  0
  8  9  1  0  0  0  0
  8 19  1  0  0  0  0
  8 29  1  0  0  0  0
  9 10  1  0  0  0  0
  9 30  1  0  0  0  0
 10 11  2  0  0  0  0
 10 12  1  0  0  0  0
 12 13  1  0  0  0  0
 12 31  1  0  0  0  0
 13 18  1  0  0  0  0
 13 14  2  0  0  0  0
 14 15  1  0  0  0  0
 14 32  1  0  0  0  0
 15 16  2  0  0  0  0
 15 33  1  0  0  0  0
 16 17  1  0  0  0  0
 17 18  2  0  0  0  0
 17 34  1  0  0  0  0
 18 35  1  0  0  0  0
 19 20  1  0  0  0  0
 19 36  1  0  0  0  0
 19 37  1  0  0  0  0
 20 38  1  0  0  0  0
 20 39  1  0  0  0  0
M  CHG  1   5   1
M  END
> <s_m_source_file>
AV-unprocessed.smi

> <i_m_source_file_index>
1410

> <i_lp_mmshare_version>
43012

> <i_f3d_flags>
0

> <s_epik_input>
W05IMl1DKD1PKVtDSDJdTjFbQ0gyXVtDSDJdW0NIXShbQ0gyXVtDSDJdMSlbTkhdQyg9TylbTkhdYzJbY0hdW2NIXW5bY0hdW2NIXTI=

> <s_epik_cmdline>
J2VwaWtfcHl0aG9uJywgJy1waCcsICc3LjAnLCAnLXRuJywgJzgnLCAnLW1hJywgJzIwMCcsICctbWV0YWxfYmluZGluZycsICctaW1hZScsICc8aW5maWxlLm1hZT4nLCAnLW9tYWUnLCAnPG91dGZpbGUubWFlPic=

> <r_epik_Ionization_Penalty>
0.938358

> <r_epik_Ionization_Penalty_Charging>
0.838844

> <r_epik_Ionization_Penalty_Neutral>
0.0995144

> <r_epik_State_Penalty>
0.957795

> <r_epik_Charging_Adjusted_Penalty>
1.79664

> <i_epik_Tot_Q>
1

> <i_epik_Tot_abs_Q>
1

> <r_epik_Metal_State_Penalty>
0.97276

> <b_epik_Metal_Only>
0

> <s_lp_Force_Field>
OPLS_2005

> <r_lp_Energy>
18.9404

> <b_lp_Chiralities_Consistent>
1

> <s_lp_Variant>
AV-unprocessed.smi:1410-3

> <Gold.Version>
5.8.1

> <Gold.Id.Protein>
6NUR|6NUR_protein|mol2

> <Gold.PLP.Fitness>
42.6629

> <Gold.PLP.PLP>
-31.5046

> <Gold.PLP.part.hbond>
-5.9433

> <Gold.PLP.part.metal>
0.0000

> <Gold.PLP.part.buried>
-1.2743

> <Gold.PLP.part.nonpolar>
-23.8101

> <Gold.PLP.part.repulsive>
0.3061

> <Gold.PLP.ligand.clash>
0.0000

> <Gold.PLP.ligand.torsion>
0.8327

> <Gold.PLP.Chemscore.Hbond>
4.2659

> <Gold.PLP.Chemscore.CHOScore>
0.0000

> <Gold.PLP.Chemscore.Metal>
0.0000

> <Gold.Chemscore.Hbonds>
donor molecule, donor type, donor heavy atom, donor atom, acceptor molecule, acceptor atom, score
      L1  H     1    21       P1 10952  1.00
      L1  H     1    22       P1 10186  0.82
      L1  H     9    30       P1  7948  0.85
      L1  H    12    31       P1  7948  0.93
      P1  H  7989  7998       L1    16  0.09
      P1  H 10785 10796       L1     3  0.45

> <Gold.PLP.Chemscore.Internal.Correction>
0.0260

> <Gold.Rescore>
     Score         DG    S(hbond)    S(metal)    S(lipo)     H(rot)  DE(clash)    DE(int)     intcor
     18.83     -20.08       3.74        0.00      61.12       1.96       0.39       0.86       ----

> <Gold.Chemscore.Fitness>
18.8346

> <Gold.Chemscore.DG>
-20.0817

> <Gold.Chemscore.ZeroCoef>
-5.4800

> <Gold.Chemscore.Hbond>
3.7364

> <Gold.Chemscore.Metal>
0.0000

> <Gold.Chemscore.Lipo>
61.1152

> <Gold.Chemscore.Internal_Hbond>
0.0000

> <Gold.Chemscore.DEClash>
0.3892

> <Gold.Chemscore.DEInternal>
0.8580

> <Gold.Chemscore.Rot>
1.9642

> <Gold.Chemscore.Internal.Correction>
   9.000000E+99

> <Gold.Chemscore.Hbonds>
donor molecule, donor type, donor heavy atom, donor atom, acceptor molecule, acceptor atom, score
      L1  H     1    21       P1 10952  0.99
      L1  H     1    22       P1 10186  0.80
      L1  H     9    30       P1  7948  0.81
      L1  H    12    31       P1  7948  0.89
      P1  H 10785 10796       L1     3  0.15

> <Gold.Chemscore.Hbond.Weighted>
-12.4796

> <Gold.Chemscore.Metal.Weighted>
-0.0000

> <Gold.Chemscore.Lipo.Weighted>
-7.1505

> <Gold.Chemscore.Internal_Hbond.Weighted>
0.0000

> <Gold.Chemscore.DEClash.Weighted>
0.3892

> <Gold.Chemscore.DEInternal.Weighted>
0.8580

> <Gold.Chemscore.Rot.Weighted>
5.0283

> <Gold.Chemscore.Internal.Correction.Weighted>
   9.000000E+99

> <Gold.Protein.RotatedTorsions>
[ 6907 6896 6895 6894 ] final  -82.69 input  -60.11 | X-H torsion
[ 7974 7965 7964 7962 ] final  166.91 input  175.53 | X-H torsion
[ 8008 7997 7996 7995 ] final  124.34 input   59.86 | X-H torsion
[ 10167 10162 10161 10158 ] final -119.39 input  -65.29 | X-H torsion
[ 10718 10713 10712 10709 ] final    8.85 input   66.30 | X-H torsion
[ 10763 10752 10751 10750 ] final  132.31 input  -60.55 | X-H torsion
[ 11005 11000 10999 10996 ] final   54.62 input  -57.11 | X-H torsion

> <Gold.Protein.ActiveResidues>
 VAL166  LYS551  ARG553  GLY616  TRP617  ASP618  TYR619  PRO620  LYS621  CYS622 
 ASP623  PHE694  ASN695  SER759  ASP760  ASP761  ALA762  ILE779  LEU786  VAL792 
 PHE793  MET794  SER795  GLU796  ALA797  LYS798  CYS799  TRP800  GLU811  SER814 

> <Gold.Protein.RotatedAtoms>
  150.6894  134.3627  159.4957 H   0  0  0  0  0  0  0  0  0  0  0  0  # atno 6907 bound_to 6896
  152.1453  134.9028  160.0560 H   0  0  0  0  0  0  0  0  0  0  0  0  # atno 6908 bound_to 6896
  152.0146  133.3840  159.4270 H   0  0  0  0  0  0  0  0  0  0  0  0  # atno 6909 bound_to 6896
  144.7444  139.8684  143.6387 H   0  0  0  0  0  0  0  0  0  0  0  0  # atno 7974 bound_to 7965
  156.2798  140.2742  156.1773 H   0  0  0  0  0  0  0  0  0  0  0  0  # atno 8008 bound_to 7997
  155.0592  140.0386  157.2589 H   0  0  0  0  0  0  0  0  0  0  0  0  # atno 8009 bound_to 7997
  154.7131  140.2672  155.6616 H   0  0  0  0  0  0  0  0  0  0  0  0  # atno 8010 bound_to 7997
  140.0472  143.5096  152.2100 H   0  0  0  0  0  0  0  0  0  0  0  0  # atno 10167 bound_to 10162
  156.9576  130.5921  149.5660 H   0  0  0  0  0  0  0  0  0  0  0  0  # atno 10718 bound_to 10713
  153.7887  135.3158  155.3375 H   0  0  0  0  0  0  0  0  0  0  0  0  # atno 10763 bound_to 10752
  154.8134  135.4652  154.0580 H   0  0  0  0  0  0  0  0  0  0  0  0  # atno 10764 bound_to 10752
  153.1891  135.6905  153.8462 H   0  0  0  0  0  0  0  0  0  0  0  0  # atno 10765 bound_to 10752
  140.0672  134.5520  155.9086 H   0  0  0  0  0  0  0  0  0  0  0  0  # atno 11005 bound_to 11000
  146.1298  139.4331  143.0176 LP  0  0  0  0  0  0  0  0  0  0  0  0  # atno 17320 bound_to 7965
  145.7181  141.0084  143.1417 LP  0  0  0  0  0  0  0  0  0  0  0  0  # atno 17321 bound_to 7965
  139.5976  144.7572  151.3248 LP  0  0  0  0  0  0  0  0  0  0  0  0  # atno 17342 bound_to 10162
  140.7233  143.7074  150.7797 LP  0  0  0  0  0  0  0  0  0  0  0  0  # atno 17343 bound_to 10162
  156.0336  130.5425  150.8596 LP  0  0  0  0  0  0  0  0  0  0  0  0  # atno 17370 bound_to 10713
  157.5679  131.0946  150.9461 LP  0  0  0  0  0  0  0  0  0  0  0  0  # atno 17371 bound_to 10713
  141.1997  133.6608  156.5859 LP  0  0  0  0  0  0  0  0  0  0  0  0  # atno 17394 bound_to 11000
  140.3681  134.7629  157.4580 LP  0  0  0  0  0  0  0  0  0  0  0  0  # atno 17395 bound_to 11000

$$$$
