#       Name:                AV-unprocessed.smi:279
#       Creating user name   scv26
#       Creation time:       Thu Mar 26 21:37:57 2020


#       File generated by GOLD software.
#

@<TRIPOS>MOLECULE
AV-unprocessed.smi:279
    58    62     1
SMALL
NO_CHARGES


@<TRIPOS>ATOM
      1 ****        -7.4737   1.7726   1.7324 O.2            1 S1                 0.0000
      2 ****        -6.1984   1.2147   2.2071 S.o2           1 S1                 0.0000
      3 ****        -5.3908   1.9241   3.2113 O.2            1 S1                 0.0000
      4 ****        -6.4544  -0.5078   2.7584 C.3            1 S1                 0.0000
      5 ****        -5.1656  -1.2316   2.3578 C.3            1 S1                 0.0000
      6 ****        -4.7106  -0.7093   0.9755 C.3            1 S1                 0.0000
      7 ****        -3.1880  -0.7142   0.7657 C.3            1 S1                 0.0000
      8 ****        -2.8530   0.5843   0.1981 N.3            1 S1                 0.0000
      9 ****        -1.5489   0.9588   0.0839 C.ar           1 S1                 0.0000
     10 ****        -1.2507   2.2862   0.0962 N.ar           1 S1                 0.0000
     11 ****         0.0133   2.7041  -0.0087 C.ar           1 S1                 0.0000
     12 ****         1.1223   1.9770  -0.1428 N.ar           1 S1                 0.0000
     13 ****         0.8376   0.6443  -0.1757 C.ar           1 S1                 0.0000
     14 ****        -0.4553   0.0524  -0.0667 C.ar           1 S1                 0.0000
     15 ****        -0.3358  -1.3319  -0.1363 N.2            1 S1                 0.0000
     16 ****         0.9447  -1.5438  -0.2653 C.2            1 S1                 0.0000
     17 ****         1.7214  -0.4105  -0.3245 N.pl3          1 S1                 0.0000
     18 ****         3.1510  -0.3568  -0.4179 C.3            1 S1                 0.0000
     19 ****         3.8527   0.6620  -1.3220 C.3            1 S1                 0.0000
     20 ****         4.9845  -0.3608  -1.5732 C.3            1 S1                 0.0000
     21 ****         5.5552  -0.4227  -3.0037 C.3            1 S1                 0.0000
     22 ****         4.5453  -0.5015  -3.9899 O.3            1 S1                 0.0000
     23 ****         6.1811  -0.2218  -0.6125 C.3            1 S1                 0.0000
     24 ****         6.9677  -1.3956  -0.5900 O.3            1 S1                 0.0000
     25 ****         3.9368  -1.4282  -1.1801 C.3            1 S1                 0.0000
     26 ****        -3.8424   1.5491   0.6576 C.3            1 S1                 0.0000
     27 ****        -5.1438   0.7519   0.7737 C.3            1 S1                 0.0000
     28 ****        -5.1871  -1.3091   0.1987 H              1 S1                 0.0000
     29 ****        -5.7332   0.8410  -0.1396 H              1 S1                 0.0000
     30 ****        -6.6576  -0.5385   3.8288 H              1 S1                 0.0000
     31 ****        -7.3117  -0.9148   2.2218 H              1 S1                 0.0000
     32 ****        -4.4062  -1.0005   3.1058 H              1 S1                 0.0000
     33 ****        -5.2912  -2.3145   2.3592 H              1 S1                 0.0000
     34 ****        -2.6488  -0.8509   1.7041 H              1 S1                 0.0000
     35 ****        -2.9085  -1.5226   0.0905 H              1 S1                 0.0000
     36 ****         0.1563   3.7743   0.0165 H              1 S1                 0.0000
     37 ****         1.3579  -2.5402  -0.3262 H              1 S1                 0.0000
     38 ****         3.5130  -0.2735   0.6081 H              1 S1                 0.0000
     39 ****         3.2638   0.8983  -2.2095 H              1 S1                 0.0000
     40 ****         4.1640   1.5741  -0.8118 H              1 S1                 0.0000
     41 ****         6.1617   0.4580  -3.2167 H              1 S1                 0.0000
     42 ****         6.2042  -1.2895  -3.1307 H              1 S1                 0.0000
     43 ****         4.9575  -0.5301  -4.8399 H              1 S1                 0.0000
     44 ****         6.8152   0.6191  -0.8953 H              1 S1                 0.0000
     45 ****         5.8512  -0.0229   0.4072 H              1 S1                 0.0000
     46 ****         7.6777  -1.2695   0.0209 H              1 S1                 0.0000
     47 ****         4.3128  -2.2379  -0.5542 H              1 S1                 0.0000
     48 ****         3.3795  -1.8243  -2.0306 H              1 S1                 0.0000
     49 ****        -3.5213   1.9469   1.6202 H              1 S1                 0.0000
     50 ****        -3.9518   2.3820  -0.0379 H              1 S1                 0.0000
     51 ****        -2.9303   0.5110  -0.7962 LP             1 S1                 0.0000
     52 ****        -1.9870   2.9570   0.1849 LP             1 S1                 0.0000
     53 ****         2.0438   2.3595  -0.2105 LP             1 S1                 0.0000
     54 ****        -1.0677  -2.0121  -0.0963 LP             1 S1                 0.0000
     55 ****         3.9518   0.3011  -3.9297 LP             1 S1                 0.0000
     56 ****         4.0018  -1.3292  -3.8506 LP             1 S1                 0.0000
     57 ****         7.3357  -1.5725  -1.5028 LP             1 S1                 0.0000
     58 ****         6.4074  -2.1716  -0.3003 LP             1 S1                 0.0000
@<TRIPOS>BOND
    1    1    2 2     
    2    2   27 1     
    3    2    3 2     
    4    2    4 1     
    5    4    5 1     
    6    4   30 1     
    7    4   31 1     
    8    5    6 1     
    9    5   32 1     
   10    5   33 1     
   11    6   28 1     
   12    6   27 1     
   13    6    7 1     
   14    7    8 1     
   15    7   34 1     
   16    7   35 1     
   17    8    9 1     
   18    8   26 1     
   19    9   14 ar    
   20    9   10 ar    
   21   10   11 ar    
   22   11   12 ar    
   23   11   36 1     
   24   12   13 ar    
   25   13   17 1     
   26   13   14 ar    
   27   14   15 1     
   28   15   16 2     
   29   16   17 1     
   30   16   37 1     
   31   17   18 1     
   32   18   25 1     
   33   18   19 1     
   34   18   38 1     
   35   19   20 1     
   36   19   39 1     
   37   19   40 1     
   38   20   21 1     
   39   20   23 1     
   40   20   25 1     
   41   21   22 1     
   42   21   41 1     
   43   21   42 1     
   44   22   43 1     
   45   23   24 1     
   46   23   44 1     
   47   23   45 1     
   48   24   46 1     
   49   25   47 1     
   50   25   48 1     
   51   26   27 1     
   52   26   49 1     
   53   26   50 1     
   54   27   29 1     
   55    8   51 1     
   56   10   52 1     
   57   12   53 1     
   58   15   54 1     
   59   22   55 1     
   60   22   56 1     
   61   24   57 1     
   62   24   58 1     
@<TRIPOS>SUBSTRUCTURE
      1 S1             1
@<TRIPOS>SET
LONE_PAIRS      STATIC     ATOMS    <user>   **** ""
10 1 3 51 52 53 54 55 56 57 58
DONOR_HYDROGENS      STATIC     ATOMS    <user>   **** ""
2 43 46
ATOM$BLUE        STATIC     ATOMS    COLORGROUP SYSTEM
10 1 3 51 52 53 54 55 56 57 58
ATOM$RED        STATIC     ATOMS    COLORGROUP SYSTEM
2 43 46
