AV-unprocessed.smi:2270|AV-procd|sdf|9156|dock3
  -GOLD-   2272012363D 1   1.00000     0.00000
 Structure written by MMmdl.
 53 54  0  0  0  0  0  0  0  0  2 V2000
  152.6504  141.2851  160.7156 C   0  0  0  0  0  0  0  0  0  0  0  0
  152.3054  142.1923  159.5533 C   0  0  0  0  0  0  0  0  0  0  0  0
  152.9516  143.4327  159.3861 C   0  0  0  0  0  0  0  0  0  0  0  0
  152.5886  144.2259  158.2829 C   0  0  0  0  0  0  0  0  0  0  0  0
  151.6029  143.7487  157.3975 C   0  0  0  0  0  0  0  0  0  0  0  0
  151.0043  142.4913  157.6369 C   0  0  0  0  0  0  0  0  0  0  0  0
  150.0240  142.1004  156.6867 N   0  0  0  0  0  0  0  0  0  0  0  0
  149.2983  140.9687  156.6609 C   0  0  0  0  0  0  0  0  0  0  0  0
  149.3679  140.0552  157.4832 O   0  0  0  0  0  0  0  0  0  0  0  0
  148.4557  140.9561  155.6182 N   0  0  0  0  0  0  0  0  0  0  0  0
  147.5420  139.8636  155.2968 C   0  0  0  0  0  0  0  0  0  0  0  0
  147.9688  139.0063  154.0668 C   0  0  2  0  0  0  0  0  0  0  0  0
  146.7667  138.2727  153.4041 C   0  0  0  0  0  0  0  0  0  0  0  0
  146.6563  138.5908  151.8992 C   0  0  0  0  0  0  0  0  0  0  0  0
  145.4193  138.5951  154.0786 C   0  0  0  0  0  0  0  0  0  0  0  0
  149.0608  138.0241  154.3561 N   0  3  0  0  0  0  0  0  0  0  0  0
  148.7613  136.9792  155.3676 C   0  0  0  0  0  0  0  0  0  0  0  0
  149.8612  135.8975  155.3519 C   0  0  0  0  0  0  0  0  0  0  0  0
  151.1953  136.4617  155.5721 N   0  0  0  0  0  0  0  0  0  0  0  0
  151.4091  136.9133  156.9430 C   0  0  0  0  0  0  0  0  0  0  0  0
  151.4735  137.4983  154.5755 C   0  0  0  0  0  0  0  0  0  0  0  0
  150.4050  138.6111  154.5807 C   0  0  0  0  0  0  0  0  0  0  0  0
  151.3595  141.7346  158.7048 N   0  0  0  0  0  0  0  0  0  0  0  0
  153.2475  141.8101  161.4617 H   0  0  0  0  0  0  0  0  0  0  0  0
  153.2209  140.4248  160.3650 H   0  0  0  0  0  0  0  0  0  0  0  0
  151.7444  140.9222  161.2021 H   0  0  0  0  0  0  0  0  0  0  0  0
  153.7060  143.7691  160.0821 H   0  0  0  0  0  0  0  0  0  0  0  0
  153.0587  145.1841  158.1171 H   0  0  0  0  0  0  0  0  0  0  0  0
  151.3143  144.3456  156.5446 H   0  0  0  0  0  0  0  0  0  0  0  0
  149.8567  142.7606  155.9422 H   0  0  0  0  0  0  0  0  0  0  0  0
  148.4646  141.7452  154.9881 H   0  0  0  0  0  0  0  0  0  0  0  0
  147.4413  139.2351  156.1819 H   0  0  0  0  0  0  0  0  0  0  0  0
  146.5579  140.3032  155.1352 H   0  0  0  0  0  0  0  0  0  0  0  0
  148.3483  139.6946  153.3101 H   0  0  0  0  0  0  0  0  0  0  0  0
  146.9226  137.1976  153.4987 H   0  0  0  0  0  0  0  0  0  0  0  0
  146.5388  139.6615  151.7284 H   0  0  0  0  0  0  0  0  0  0  0  0
  145.7960  138.0897  151.4542 H   0  0  0  0  0  0  0  0  0  0  0  0
  147.5334  138.2583  151.3438 H   0  0  0  0  0  0  0  0  0  0  0  0
  145.2400  139.6702  154.1146 H   0  0  0  0  0  0  0  0  0  0  0  0
  145.3678  138.2092  155.0960 H   0  0  0  0  0  0  0  0  0  0  0  0
  144.5894  138.1416  153.5357 H   0  0  0  0  0  0  0  0  0  0  0  0
  148.6717  137.4132  156.3630 H   0  0  0  0  0  0  0  0  0  0  0  0
  147.8017  136.5144  155.1415 H   0  0  0  0  0  0  0  0  0  0  0  0
  149.6565  135.1352  156.1042 H   0  0  0  0  0  0  0  0  0  0  0  0
  149.8561  135.3880  154.3872 H   0  0  0  0  0  0  0  0  0  0  0  0
  152.4353  137.2594  157.0694 H   0  0  0  0  0  0  0  0  0  0  0  0
  151.2508  136.0900  157.6401 H   0  0  0  0  0  0  0  0  0  0  0  0
  150.7428  137.7271  157.2265 H   0  0  0  0  0  0  0  0  0  0  0  0
  152.4641  137.9201  154.7500 H   0  0  0  0  0  0  0  0  0  0  0  0
  151.5064  137.0308  153.5904 H   0  0  0  0  0  0  0  0  0  0  0  0
  150.6322  139.3219  153.7858 H   0  0  0  0  0  0  0  0  0  0  0  0
  150.4410  139.1663  155.5158 H   0  0  0  0  0  0  0  0  0  0  0  0
  149.1641  137.5207  153.4867 H   0  0  0  0  0  0  0  0  0  0  0  0
  1  2  1  0  0  0  0
  1 24  1  0  0  0  0
  1 25  1  0  0  0  0
  1 26  1  0  0  0  0
  2 23  1  0  0  0  0
  2  3  2  0  0  0  0
  3  4  1  0  0  0  0
  3 27  1  0  0  0  0
  4  5  2  0  0  0  0
  4 28  1  0  0  0  0
  5  6  1  0  0  0  0
  5 29  1  0  0  0  0
  6  7  1  0  0  0  0
  6 23  2  0  0  0  0
  7  8  1  0  0  0  0
  7 30  1  0  0  0  0
  8  9  2  0  0  0  0
  8 10  1  0  0  0  0
 10 11  1  0  0  0  0
 10 31  1  0  0  0  0
 11 12  1  0  0  0  0
 11 32  1  0  0  0  0
 11 33  1  0  0  0  0
 12 13  1  0  0  0  0
 12 16  1  0  0  0  0
 12 34  1  0  0  0  0
 13 14  1  0  0  0  0
 13 15  1  0  0  0  0
 13 35  1  0  0  0  0
 14 36  1  0  0  0  0
 14 37  1  0  0  0  0
 14 38  1  0  0  0  0
 15 39  1  0  0  0  0
 15 40  1  0  0  0  0
 15 41  1  0  0  0  0
 16 22  1  0  0  0  0
 16 17  1  0  0  0  0
 16 53  1  0  0  0  0
 17 18  1  0  0  0  0
 17 42  1  0  0  0  0
 17 43  1  0  0  0  0
 18 19  1  0  0  0  0
 18 44  1  0  0  0  0
 18 45  1  0  0  0  0
 19 20  1  0  0  0  0
 19 21  1  0  0  0  0
 20 46  1  0  0  0  0
 20 47  1  0  0  0  0
 20 48  1  0  0  0  0
 21 22  1  0  0  0  0
 21 49  1  0  0  0  0
 21 50  1  0  0  0  0
 22 51  1  0  0  0  0
 22 52  1  0  0  0  0
M  CHG  1  16   1
M  END
> <s_m_source_file>
AV-unprocessed.smi

> <i_m_source_file_index>
2270

> <i_lp_mmshare_version>
43012

> <i_f3d_flags>
0

> <s_epik_input>
W0NIM11jMVtjSF1bY0hdW2NIXWMobjEpW05IXUMoPU8pW05IXVtDSDJdW0NASF0oW0NIXShbQ0gzXSlbQ0gzXSlOMltDSDJdW0NIMl1OKFtDSDNdKVtDSDJdW0NIMl0y

> <s_epik_cmdline>
J2VwaWtfcHl0aG9uJywgJy1waCcsICc3LjAnLCAnLXRuJywgJzgnLCAnLW1hJywgJzIwMCcsICctbWV0YWxfYmluZGluZycsICctaW1hZScsICc8aW5maWxlLm1hZT4nLCAnLW9tYWUnLCAnPG91dGZpbGUubWFlPic=

> <r_epik_Ionization_Penalty>
0.201855

> <r_epik_Ionization_Penalty_Charging>
0.20006

> <r_epik_Ionization_Penalty_Neutral>
0.00179462

> <r_epik_State_Penalty>
1.43207

> <r_epik_Charging_Adjusted_Penalty>
1.63213

> <i_epik_Tot_Q>
1

> <i_epik_Tot_abs_Q>
1

> <r_epik_Metal_State_Penalty>
1.43208

> <b_epik_Metal_Only>
0

> <s_lp_Force_Field>
OPLS_2005

> <r_lp_Energy>
33.4642

> <b_lp_Chiralities_Consistent>
1

> <s_lp_Variant>
AV-unprocessed.smi:2270-3

> <Gold.Version>
5.8.1

> <Gold.Id.Protein>
6NUR|6NUR_protein|mol2

> <Gold.PLP.Fitness>
50.4829

> <Gold.PLP.PLP>
-42.3572

> <Gold.PLP.part.hbond>
-3.0000

> <Gold.PLP.part.metal>
0.0000

> <Gold.PLP.part.buried>
-4.7635

> <Gold.PLP.part.nonpolar>
-37.0156

> <Gold.PLP.part.repulsive>
0.2486

> <Gold.PLP.ligand.clash>
0.0000

> <Gold.PLP.ligand.torsion>
1.8274

> <Gold.PLP.Chemscore.Hbond>
3.8140

> <Gold.PLP.Chemscore.CHOScore>
0.0000

> <Gold.PLP.Chemscore.Metal>
0.0000

> <Gold.Chemscore.Hbonds>
donor molecule, donor type, donor heavy atom, donor atom, acceptor molecule, acceptor atom, score
      L1  H     7    30       P1  8028  0.44
      L1  H    16    53       P1  7948  1.85
      P1  H 10752 10765       L1    19  0.10

> <Gold.PLP.Chemscore.Internal.Correction>
0.3385

> <Gold.Rescore>
     Score         DG    S(hbond)    S(metal)    S(lipo)     H(rot)  DE(clash)    DE(int)     intcor
     18.28     -21.63       1.99        0.00     116.46       1.61       0.26       3.09       ----

> <Gold.Chemscore.Fitness>
18.2762

> <Gold.Chemscore.DG>
-21.6308

> <Gold.Chemscore.ZeroCoef>
-5.4800

> <Gold.Chemscore.Hbond>
1.9876

> <Gold.Chemscore.Metal>
0.0000

> <Gold.Chemscore.Lipo>
116.4637

> <Gold.Chemscore.Internal_Hbond>
0.0000

> <Gold.Chemscore.DEClash>
0.2612

> <Gold.Chemscore.DEInternal>
3.0934

> <Gold.Chemscore.Rot>
1.6070

> <Gold.Chemscore.Internal.Correction>
   9.000000E+99

> <Gold.Chemscore.Hbonds>
donor molecule, donor type, donor heavy atom, donor atom, acceptor molecule, acceptor atom, score
      L1  H     7    30       P1  8028  0.44
      L1  H    16    53       P1  7948  0.88

> <Gold.Chemscore.Hbond.Weighted>
-6.6385

> <Gold.Chemscore.Metal.Weighted>
-0.0000

> <Gold.Chemscore.Lipo.Weighted>
-13.6263

> <Gold.Chemscore.Internal_Hbond.Weighted>
0.0000

> <Gold.Chemscore.DEClash.Weighted>
0.2612

> <Gold.Chemscore.DEInternal.Weighted>
3.0934

> <Gold.Chemscore.Rot.Weighted>
4.1140

> <Gold.Chemscore.Internal.Correction.Weighted>
   9.000000E+99

> <Gold.Protein.RotatedTorsions>
[ 6907 6896 6895 6894 ] final  155.32 input  -60.11 | X-H torsion
[ 7974 7965 7964 7962 ] final  112.57 input  175.53 | X-H torsion
[ 8008 7997 7996 7995 ] final -126.09 input   59.86 | X-H torsion
[ 10167 10162 10161 10158 ] final   -7.13 input  -65.29 | X-H torsion
[ 10718 10713 10712 10709 ] final  -40.19 input   66.30 | X-H torsion
[ 10763 10752 10751 10750 ] final -172.09 input  -60.55 | X-H torsion
[ 11005 11000 10999 10996 ] final  120.69 input  -57.11 | X-H torsion

> <Gold.Protein.ActiveResidues>
 VAL166  LYS551  ARG553  GLY616  TRP617  ASP618  TYR619  PRO620  LYS621  CYS622 
 ASP623  PHE694  ASN695  SER759  ASP760  ASP761  ALA762  ILE779  LEU786  VAL792 
 PHE793  MET794  SER795  GLU796  ALA797  LYS798  CYS799  TRP800  GLU811  SER814 

> <Gold.Protein.RotatedAtoms>
  152.0458  133.3997  159.4355 H   0  0  0  0  0  0  0  0  0  0  0  0  # atno 6907 bound_to 6896
  150.6873  134.3363  159.4858 H   0  0  0  0  0  0  0  0  0  0  0  0  # atno 6908 bound_to 6896
  152.1167  134.9235  160.0615 H   0  0  0  0  0  0  0  0  0  0  0  0  # atno 6909 bound_to 6896
  145.2279  139.2832  143.4184 H   0  0  0  0  0  0  0  0  0  0  0  0  # atno 7974 bound_to 7965
  155.2240  140.0423  157.2952 H   0  0  0  0  0  0  0  0  0  0  0  0  # atno 8008 bound_to 7997
  154.5931  140.2432  155.7864 H   0  0  0  0  0  0  0  0  0  0  0  0  # atno 8009 bound_to 7997
  156.2272  140.2950  156.0106 H   0  0  0  0  0  0  0  0  0  0  0  0  # atno 8010 bound_to 7997
  140.7019  143.6115  150.8699 H   0  0  0  0  0  0  0  0  0  0  0  0  # atno 10167 bound_to 10162
  156.2841  130.4220  149.8306 H   0  0  0  0  0  0  0  0  0  0  0  0  # atno 10718 bound_to 10713
  154.6232  135.2877  155.0302 H   0  0  0  0  0  0  0  0  0  0  0  0  # atno 10763 bound_to 10752
  154.1490  135.6506  153.4963 H   0  0  0  0  0  0  0  0  0  0  0  0  # atno 10764 bound_to 10752
  153.0245  135.5351  154.7030 H   0  0  0  0  0  0  0  0  0  0  0  0  # atno 10765 bound_to 10752
  139.9195  134.9636  156.7845 H   0  0  0  0  0  0  0  0  0  0  0  0  # atno 11005 bound_to 11000
  146.3360  140.2605  142.8602 LP  0  0  0  0  0  0  0  0  0  0  0  0  # atno 17320 bound_to 7965
  144.9704  140.8363  143.5459 LP  0  0  0  0  0  0  0  0  0  0  0  0  # atno 17321 bound_to 7965
  139.9838  143.5922  152.2934 LP  0  0  0  0  0  0  0  0  0  0  0  0  # atno 17342 bound_to 10162
  139.6552  144.7662  151.2069 LP  0  0  0  0  0  0  0  0  0  0  0  0  # atno 17343 bound_to 10162
  156.5743  130.8438  151.3365 LP  0  0  0  0  0  0  0  0  0  0  0  0  # atno 17370 bound_to 10713
  157.7323  130.9713  150.1923 LP  0  0  0  0  0  0  0  0  0  0  0  0  # atno 17371 bound_to 10713
  140.6517  133.9725  155.7758 LP  0  0  0  0  0  0  0  0  0  0  0  0  # atno 17394 bound_to 11000
  141.0703  134.0215  157.3535 LP  0  0  0  0  0  0  0  0  0  0  0  0  # atno 17395 bound_to 11000

$$$$
