AV-unprocessed.smi:2666|AV-procd|sdf|10333|dock8
  -GOLD-   2272014353D 1   1.00000     0.00000
 Structure written by MMmdl.
 43 44  0  0  0  0  0  0  0  0  1 V2000
  144.5362  136.6466  152.4166 O   0  0  0  0  0  0  0  0  0  0  0  0
  145.7402  136.5225  152.1953 C   0  0  0  0  0  0  0  0  0  0  0  0
  146.3112  135.4695  151.5858 N   0  0  0  0  0  0  0  0  0  0  0  0
  145.6800  134.3174  151.0439 C   0  0  0  0  0  0  0  0  0  0  0  0
  146.4989  133.2978  150.5162 C   0  0  0  0  0  0  0  0  0  0  0  0
  145.8971  132.1537  149.9586 C   0  0  0  0  0  0  0  0  0  0  0  0
  144.4910  132.0782  149.9409 C   0  0  0  0  0  0  0  0  0  0  0  0
  143.6918  133.0517  150.4257 N   0  0  0  0  0  0  0  0  0  0  0  0
  144.2757  134.1454  150.9615 C   0  0  0  0  0  0  0  0  0  0  0  0
  146.6623  137.4259  152.5610 N   0  0  0  0  0  0  0  0  0  0  0  0
  146.4055  138.6859  153.2651 C   0  0  1  0  0  0  0  0  0  0  0  0
  145.6852  138.3772  154.6025 C   0  0  0  0  0  0  0  0  0  0  0  0
  145.1935  139.6123  155.3811 C   0  0  0  0  0  0  0  0  0  0  0  0
  143.9093  139.9981  154.9387 O   0  0  0  0  0  0  0  0  0  0  0  0
  147.7353  139.4763  153.4411 C   0  0  0  0  0  0  0  0  0  0  0  0
  148.7322  138.7586  154.3849 C   0  0  0  0  0  0  0  0  0  0  0  0
  150.0366  139.5499  154.5748 C   0  0  0  0  0  0  0  0  0  0  0  0
  149.7616  140.9688  155.0863 C   0  0  0  0  0  0  0  0  0  0  0  0
  148.8017  141.7042  154.1439 C   0  0  0  0  0  0  0  0  0  0  0  0
  147.4939  140.9193  153.9562 C   0  0  0  0  0  0  0  0  0  0  0  0
  147.3201  135.4659  151.5561 H   0  0  0  0  0  0  0  0  0  0  0  0
  147.5754  133.3855  150.5422 H   0  0  0  0  0  0  0  0  0  0  0  0
  146.4985  131.3534  149.5534 H   0  0  0  0  0  0  0  0  0  0  0  0
  143.9952  131.2158  149.5203 H   0  0  0  0  0  0  0  0  0  0  0  0
  143.5866  134.8997  151.3079 H   0  0  0  0  0  0  0  0  0  0  0  0
  147.6261  137.2291  152.3348 H   0  0  0  0  0  0  0  0  0  0  0  0
  145.7382  139.3098  152.6679 H   0  0  0  0  0  0  0  0  0  0  0  0
  144.8319  137.7276  154.4040 H   0  0  0  0  0  0  0  0  0  0  0  0
  146.3407  137.8157  155.2666 H   0  0  0  0  0  0  0  0  0  0  0  0
  145.1709  139.4314  156.4557 H   0  0  0  0  0  0  0  0  0  0  0  0
  145.8756  140.4470  155.2180 H   0  0  0  0  0  0  0  0  0  0  0  0
  143.9739  140.2892  154.0419 H   0  0  0  0  0  0  0  0  0  0  0  0
  148.2074  139.5541  152.4605 H   0  0  0  0  0  0  0  0  0  0  0  0
  148.2640  138.5911  155.3557 H   0  0  0  0  0  0  0  0  0  0  0  0
  148.9965  137.7767  153.9960 H   0  0  0  0  0  0  0  0  0  0  0  0
  150.6907  139.0252  155.2716 H   0  0  0  0  0  0  0  0  0  0  0  0
  150.5732  139.6013  153.6266 H   0  0  0  0  0  0  0  0  0  0  0  0
  149.3322  140.9231  156.0881 H   0  0  0  0  0  0  0  0  0  0  0  0
  150.6969  141.5223  155.1735 H   0  0  0  0  0  0  0  0  0  0  0  0
  148.5851  142.6981  154.5366 H   0  0  0  0  0  0  0  0  0  0  0  0
  149.2813  141.8524  153.1754 H   0  0  0  0  0  0  0  0  0  0  0  0
  146.8628  141.4776  153.2650 H   0  0  0  0  0  0  0  0  0  0  0  0
  146.9531  140.8834  154.9028 H   0  0  0  0  0  0  0  0  0  0  0  0
  1  2  2  0  0  0  0
  2  3  1  0  0  0  0
  2 10  1  0  0  0  0
  3  4  1  0  0  0  0
  3 21  1  0  0  0  0
  4  9  1  0  0  0  0
  4  5  2  0  0  0  0
  5  6  1  0  0  0  0
  5 22  1  0  0  0  0
  6  7  2  0  0  0  0
  6 23  1  0  0  0  0
  7  8  1  0  0  0  0
  7 24  1  0  0  0  0
  8  9  2  0  0  0  0
  9 25  1  0  0  0  0
 10 11  1  0  0  0  0
 10 26  1  0  0  0  0
 11 12  1  0  0  0  0
 11 15  1  0  0  0  0
 11 27  1  0  0  0  0
 12 13  1  0  0  0  0
 12 28  1  0  0  0  0
 12 29  1  0  0  0  0
 13 14  1  0  0  0  0
 13 30  1  0  0  0  0
 13 31  1  0  0  0  0
 14 32  1  0  0  0  0
 15 20  1  0  0  0  0
 15 16  1  0  0  0  0
 15 33  1  0  0  0  0
 16 17  1  0  0  0  0
 16 34  1  0  0  0  0
 16 35  1  0  0  0  0
 17 18  1  0  0  0  0
 17 36  1  0  0  0  0
 17 37  1  0  0  0  0
 18 19  1  0  0  0  0
 18 38  1  0  0  0  0
 18 39  1  0  0  0  0
 19 20  1  0  0  0  0
 19 40  1  0  0  0  0
 19 41  1  0  0  0  0
 20 42  1  0  0  0  0
 20 43  1  0  0  0  0
M  END
> <s_m_source_file>
AV-unprocessed.smi

> <i_m_source_file_index>
2666

> <i_lp_mmshare_version>
43012

> <i_f3d_flags>
0

> <s_epik_input>
W2NIXTFuW2NIXVtjSF1bY0hdYzFbTkhdQyg9TylbTkhdW0NASF0oW0NIMl1bQ0gyXVtPSF0pW0NIXTJbQ0gyXVtDSDJdW0NIMl1bQ0gyXVtDSDJdMg==

> <s_epik_cmdline>
J2VwaWtfcHl0aG9uJywgJy1waCcsICc3LjAnLCAnLXRuJywgJzgnLCAnLW1hJywgJzIwMCcsICctbWV0YWxfYmluZGluZycsICctaW1hZScsICc8aW5maWxlLm1hZT4nLCAnLW9tYWUnLCAnPG91dGZpbGUubWFlPic=

> <r_epik_Ionization_Penalty>
0.00500145

> <r_epik_Ionization_Penalty_Charging>
0

> <r_epik_Ionization_Penalty_Neutral>
0.00500145

> <r_epik_State_Penalty>
0.00360517

> <r_epik_Charging_Adjusted_Penalty>
0.00360517

> <i_epik_Tot_Q>
0

> <i_epik_Tot_abs_Q>
0

> <r_epik_Metal_State_Penalty>
-0

> <b_epik_Metal_Only>
0

> <s_lp_Force_Field>
OPLS_2005

> <r_lp_Energy>
18.9025

> <b_lp_Chiralities_Consistent>
1

> <s_lp_Variant>
AV-unprocessed.smi:2666-2

> <Gold.Version>
5.8.1

> <Gold.Id.Protein>
6NUR|6NUR_protein|mol2

> <Gold.PLP.Fitness>
43.0680

> <Gold.PLP.PLP>
-34.4930

> <Gold.PLP.part.hbond>
-3.0000

> <Gold.PLP.part.metal>
0.0000

> <Gold.PLP.part.buried>
-1.2982

> <Gold.PLP.part.nonpolar>
-30.0416

> <Gold.PLP.part.repulsive>
0.4946

> <Gold.PLP.ligand.clash>
0.0000

> <Gold.PLP.ligand.torsion>
0.2349

> <Gold.PLP.Chemscore.Hbond>
3.0000

> <Gold.PLP.Chemscore.CHOScore>
0.0000

> <Gold.PLP.Chemscore.Metal>
0.0000

> <Gold.Chemscore.Hbonds>
donor molecule, donor type, donor heavy atom, donor atom, acceptor molecule, acceptor atom, score
      L1  H     3    21       P1  7948  1.00
      L1  H    10    26       P1  7948  1.00
      L1  H    14    32       P1 10175  1.00

> <Gold.PLP.Chemscore.Internal.Correction>
0.0447

> <Gold.Rescore>
     Score         DG    S(hbond)    S(metal)    S(lipo)     H(rot)  DE(clash)    DE(int)     intcor
     18.07     -19.72       2.94        0.00      86.48       2.23       0.02       1.63       ----

> <Gold.Chemscore.Fitness>
18.0743

> <Gold.Chemscore.DG>
-19.7210

> <Gold.Chemscore.ZeroCoef>
-5.4800

> <Gold.Chemscore.Hbond>
2.9397

> <Gold.Chemscore.Metal>
0.0000

> <Gold.Chemscore.Lipo>
86.4848

> <Gold.Chemscore.Internal_Hbond>
0.0000

> <Gold.Chemscore.DEClash>
0.0170

> <Gold.Chemscore.DEInternal>
1.6297

> <Gold.Chemscore.Rot>
2.2251

> <Gold.Chemscore.Internal.Correction>
   9.000000E+99

> <Gold.Chemscore.Hbonds>
donor molecule, donor type, donor heavy atom, donor atom, acceptor molecule, acceptor atom, score
      L1  H     3    21       P1  7948  0.94
      L1  H    10    26       P1  7948  0.98
      L1  H    14    32       P1 10175  0.98

> <Gold.Chemscore.Hbond.Weighted>
-9.8184

> <Gold.Chemscore.Metal.Weighted>
-0.0000

> <Gold.Chemscore.Lipo.Weighted>
-10.1187

> <Gold.Chemscore.Internal_Hbond.Weighted>
0.0000

> <Gold.Chemscore.DEClash.Weighted>
0.0170

> <Gold.Chemscore.DEInternal.Weighted>
1.6297

> <Gold.Chemscore.Rot.Weighted>
5.6962

> <Gold.Chemscore.Internal.Correction.Weighted>
   9.000000E+99

> <Gold.Protein.RotatedTorsions>
[ 6907 6896 6895 6894 ] final  -57.07 input  -60.11 | X-H torsion
[ 7974 7965 7964 7962 ] final  160.41 input  175.53 | X-H torsion
[ 8008 7997 7996 7995 ] final  -51.17 input   59.86 | X-H torsion
[ 10167 10162 10161 10158 ] final -135.69 input  -65.29 | X-H torsion
[ 10718 10713 10712 10709 ] final -112.40 input   66.30 | X-H torsion
[ 10763 10752 10751 10750 ] final -167.64 input  -60.55 | X-H torsion
[ 11005 11000 10999 10996 ] final   48.45 input  -57.11 | X-H torsion

> <Gold.Protein.ActiveResidues>
 VAL166  LYS551  ARG553  GLY616  TRP617  ASP618  TYR619  PRO620  LYS621  CYS622 
 ASP623  PHE694  ASN695  SER759  ASP760  ASP761  ALA762  ILE779  LEU786  VAL792 
 PHE793  MET794  SER795  GLU796  ALA797  LYS798  CYS799  TRP800  GLU811  SER814 

> <Gold.Protein.RotatedAtoms>
  150.8115  134.7273  159.6692 H   0  0  0  0  0  0  0  0  0  0  0  0  # atno 6907 bound_to 6896
  152.4235  134.5908  159.9983 H   0  0  0  0  0  0  0  0  0  0  0  0  # atno 6908 bound_to 6896
  151.6116  133.3309  159.3105 H   0  0  0  0  0  0  0  0  0  0  0  0  # atno 6909 bound_to 6896
  144.7738  139.7754  143.6286 H   0  0  0  0  0  0  0  0  0  0  0  0  # atno 7974 bound_to 7965
  154.4077  140.1254  156.4786 H   0  0  0  0  0  0  0  0  0  0  0  0  # atno 8008 bound_to 7997
  155.7108  140.3494  155.4953 H   0  0  0  0  0  0  0  0  0  0  0  0  # atno 8009 bound_to 7997
  155.9302  140.1068  157.1128 H   0  0  0  0  0  0  0  0  0  0  0  0  # atno 8010 bound_to 7997
  139.8753  143.6906  152.2634 H   0  0  0  0  0  0  0  0  0  0  0  0  # atno 10167 bound_to 10162
  156.0703  130.5918  150.8503 H   0  0  0  0  0  0  0  0  0  0  0  0  # atno 10718 bound_to 10713
  154.6711  135.2939  154.9740 H   0  0  0  0  0  0  0  0  0  0  0  0  # atno 10763 bound_to 10752
  154.0766  135.6610  153.4836 H   0  0  0  0  0  0  0  0  0  0  0  0  # atno 10764 bound_to 10752
  153.0487  135.5187  154.7708 H   0  0  0  0  0  0  0  0  0  0  0  0  # atno 10765 bound_to 10752
  140.1189  134.4855  155.8614 H   0  0  0  0  0  0  0  0  0  0  0  0  # atno 11005 bound_to 11000
  146.1904  139.5141  142.9809 LP  0  0  0  0  0  0  0  0  0  0  0  0  # atno 17320 bound_to 7965
  145.6245  141.0316  143.1897 LP  0  0  0  0  0  0  0  0  0  0  0  0  # atno 17321 bound_to 7965
  139.7246  144.7595  151.0900 LP  0  0  0  0  0  0  0  0  0  0  0  0  # atno 17342 bound_to 10162
  140.7754  143.5165  150.9589 LP  0  0  0  0  0  0  0  0  0  0  0  0  # atno 17343 bound_to 10162
  157.5770  131.0946  150.9330 LP  0  0  0  0  0  0  0  0  0  0  0  0  # atno 17370 bound_to 10713
  156.9533  130.5428  149.5283 LP  0  0  0  0  0  0  0  0  0  0  0  0  # atno 17371 bound_to 10713
  141.2147  133.6753  156.6851 LP  0  0  0  0  0  0  0  0  0  0  0  0  # atno 17394 bound_to 11000
  140.2991  134.8178  157.4082 LP  0  0  0  0  0  0  0  0  0  0  0  0  # atno 17395 bound_to 11000

$$$$
