AV-unprocessed.smi:1648|AV-procd|sdf|6632|dock1
  -GOLD-   22720 7333D 1   1.00000     0.00000
 Structure written by MMmdl.
 41 41  0  0  0  0  0  0  0  0  1 V2000
  154.4995  138.6197  161.2394 C   0  0  0  0  0  0  0  0  0  0  0  0
  154.1439  139.8275  160.3702 C   0  0  0  0  0  0  0  0  0  0  0  0
  154.5384  139.8705  159.2073 O   0  0  0  0  0  0  0  0  0  0  0  0
  153.4035  140.8211  160.8923 N   0  0  0  0  0  0  0  0  0  0  0  0
  152.9604  142.0520  160.2292 C   0  0  1  0  0  0  0  0  0  0  0  0
  151.8401  141.7054  159.2277 C   0  0  0  0  0  0  0  0  0  0  0  0
  150.7610  142.2984  159.2655 O   0  0  0  0  0  0  0  0  0  0  0  0
  152.1188  140.7395  158.3375 N   0  0  0  0  0  0  0  0  0  0  0  0
  151.1966  140.1976  157.3407 C   0  0  2  0  0  0  0  0  0  0  0  0
  151.8857  139.0282  156.6244 C   0  0  0  0  0  0  0  0  0  0  0  0
  150.7506  141.2816  156.3347 C   0  0  0  0  0  0  0  0  0  0  0  0
  149.6118  140.8811  155.5275 N   0  0  0  0  0  0  0  0  0  0  0  0
  148.4241  141.5785  155.3459 C   0  0  0  0  0  0  0  0  0  0  0  0
  147.6403  140.8122  154.5135 C   0  0  0  0  0  0  0  0  0  0  0  0
  148.3111  139.6352  154.1907 N   0  0  0  0  0  0  0  0  0  0  0  0
  149.4657  139.7431  154.8347 C   0  0  0  0  0  0  0  0  0  0  0  0
  152.4237  143.0396  161.3079 C   0  0  0  0  0  0  0  0  0  0  0  0
  152.2900  144.4841  160.7840 C   0  0  0  0  0  0  0  0  0  0  0  0
  153.3013  143.0514  162.5759 C   0  0  0  0  0  0  0  0  0  0  0  0
  155.0826  138.9243  162.1085 H   0  0  0  0  0  0  0  0  0  0  0  0
  155.0957  137.9036  160.6731 H   0  0  0  0  0  0  0  0  0  0  0  0
  153.5994  138.1086  161.5809 H   0  0  0  0  0  0  0  0  0  0  0  0
  153.1024  140.7071  161.8493 H   0  0  0  0  0  0  0  0  0  0  0  0
  153.7997  142.5153  159.7077 H   0  0  0  0  0  0  0  0  0  0  0  0
  153.0364  140.3199  158.3765 H   0  0  0  0  0  0  0  0  0  0  0  0
  150.3167  139.7885  157.8409 H   0  0  0  0  0  0  0  0  0  0  0  0
  151.2183  138.5652  155.8970 H   0  0  0  0  0  0  0  0  0  0  0  0
  152.1852  138.2547  157.3326 H   0  0  0  0  0  0  0  0  0  0  0  0
  152.7790  139.3585  156.0929 H   0  0  0  0  0  0  0  0  0  0  0  0
  150.5112  142.2108  156.8540 H   0  0  0  0  0  0  0  0  0  0  0  0
  151.5672  141.5109  155.6492 H   0  0  0  0  0  0  0  0  0  0  0  0
  148.2436  142.5400  155.8031 H   0  0  0  0  0  0  0  0  0  0  0  0
  146.6500  141.0124  154.1318 H   0  0  0  0  0  0  0  0  0  0  0  0
  150.2242  138.9749  154.7993 H   0  0  0  0  0  0  0  0  0  0  0  0
  151.4280  142.7116  161.6130 H   0  0  0  0  0  0  0  0  0  0  0  0
  153.2491  144.8677  160.4347 H   0  0  0  0  0  0  0  0  0  0  0  0
  151.9315  145.1535  161.5664 H   0  0  0  0  0  0  0  0  0  0  0  0
  151.5835  144.5591  159.9598 H   0  0  0  0  0  0  0  0  0  0  0  0
  154.3294  143.3292  162.3412 H   0  0  0  0  0  0  0  0  0  0  0  0
  153.3231  142.0798  163.0697 H   0  0  0  0  0  0  0  0  0  0  0  0
  152.9245  143.7669  163.3072 H   0  0  0  0  0  0  0  0  0  0  0  0
  1  2  1  0  0  0  0
  1 20  1  0  0  0  0
  1 21  1  0  0  0  0
  1 22  1  0  0  0  0
  2  3  2  0  0  0  0
  2  4  1  0  0  0  0
  4  5  1  0  0  0  0
  4 23  1  0  0  0  0
  5  6  1  0  0  0  0
  5 17  1  0  0  0  0
  5 24  1  0  0  0  0
  6  7  2  0  0  0  0
  6  8  1  0  0  0  0
  8  9  1  0  0  0  0
  8 25  1  0  0  0  0
  9 10  1  0  0  0  0
  9 11  1  0  0  0  0
  9 26  1  0  0  0  0
 10 27  1  0  0  0  0
 10 28  1  0  0  0  0
 10 29  1  0  0  0  0
 11 12  1  0  0  0  0
 11 30  1  0  0  0  0
 11 31  1  0  0  0  0
 12 16  1  0  0  0  0
 12 13  1  0  0  0  0
 13 14  2  0  0  0  0
 13 32  1  0  0  0  0
 14 15  1  0  0  0  0
 14 33  1  0  0  0  0
 15 16  2  0  0  0  0
 16 34  1  0  0  0  0
 17 18  1  0  0  0  0
 17 19  1  0  0  0  0
 17 35  1  0  0  0  0
 18 36  1  0  0  0  0
 18 37  1  0  0  0  0
 18 38  1  0  0  0  0
 19 39  1  0  0  0  0
 19 40  1  0  0  0  0
 19 41  1  0  0  0  0
M  END
> <s_m_source_file>
AV-unprocessed.smi

> <i_m_source_file_index>
1648

> <i_lp_mmshare_version>
43012

> <i_f3d_flags>
0

> <s_epik_input>
W0NIM11DKD1PKVtOSF1bQ0BASF0oW0NIXShbQ0gzXSlbQ0gzXSlDKD1PKVtOSF1bQ0BIXShbQ0gzXSlbQ0gyXW4xW2NIXVtjSF1uW2NIXTE=

> <s_epik_cmdline>
J2VwaWtfcHl0aG9uJywgJy1waCcsICc3LjAnLCAnLXRuJywgJzgnLCAnLW1hJywgJzIwMCcsICctbWV0YWxfYmluZGluZycsICctaW1hZScsICc8aW5maWxlLm1hZT4nLCAnLW9tYWUnLCAnPG91dGZpbGUubWFlPic=

> <r_lp_tautomer_probability>
1

> <r_epik_Ionization_Penalty>
0.628885

> <r_epik_Ionization_Penalty_Charging>
0.628884

> <r_epik_Ionization_Penalty_Neutral>
4.35155e-07

> <r_epik_State_Penalty>
0.64556

> <r_epik_Charging_Adjusted_Penalty>
1.27444

> <i_epik_Tot_Q>
0

> <i_epik_Tot_abs_Q>
0

> <r_epik_Metal_State_Penalty>
0.30874

> <b_epik_Metal_Only>
0

> <s_lp_Force_Field>
OPLS_2005

> <r_lp_Energy>
9.77282

> <b_lp_Chiralities_Consistent>
1

> <s_lp_Variant>
AV-unprocessed.smi:1648-6

> <Gold.Version>
5.8.1

> <Gold.Id.Protein>
6NUR|6NUR_protein|mol2

> <Gold.PLP.Fitness>
43.4915

> <Gold.PLP.PLP>
-38.8493

> <Gold.PLP.part.hbond>
-1.5024

> <Gold.PLP.part.metal>
0.0000

> <Gold.PLP.part.buried>
-4.8572

> <Gold.PLP.part.nonpolar>
-33.2000

> <Gold.PLP.part.repulsive>
2.2064

> <Gold.PLP.ligand.clash>
0.0000

> <Gold.PLP.ligand.torsion>
0.7266

> <Gold.PLP.Chemscore.Hbond>
0.9920

> <Gold.PLP.Chemscore.CHOScore>
1.0000

> <Gold.PLP.Chemscore.Metal>
0.0000

> <Gold.Chemscore.Hbonds>
donor molecule, donor type, donor heavy atom, donor atom, acceptor molecule, acceptor atom, score
      P1  H  7997  8008       L1     3  0.99
      L1  C    13    32       P1  8028  1.00

> <Gold.PLP.Chemscore.Internal.Correction>
0.1193

> <Gold.Rescore>
     Score         DG    S(hbond)    S(metal)    S(lipo)     H(rot)  DE(clash)    DE(int)     intcor
     10.84     -11.58       0.97        0.00      79.53       2.52       0.04       0.71       ----

> <Gold.Chemscore.Fitness>
10.8385

> <Gold.Chemscore.DG>
-11.5848

> <Gold.Chemscore.ZeroCoef>
-5.4800

> <Gold.Chemscore.Hbond>
0.9745

> <Gold.Chemscore.Metal>
0.0000

> <Gold.Chemscore.Lipo>
79.5312

> <Gold.Chemscore.Internal_Hbond>
0.0000

> <Gold.Chemscore.DEClash>
0.0402

> <Gold.Chemscore.DEInternal>
0.7061

> <Gold.Chemscore.Rot>
2.5216

> <Gold.Chemscore.Internal.Correction>
   9.000000E+99

> <Gold.Chemscore.Hbonds>
donor molecule, donor type, donor heavy atom, donor atom, acceptor molecule, acceptor atom, score
      P1  H  7997  8008       L1     3  0.91

> <Gold.Chemscore.Hbond.Weighted>
-3.2550

> <Gold.Chemscore.Metal.Weighted>
-0.0000

> <Gold.Chemscore.Lipo.Weighted>
-9.3051

> <Gold.Chemscore.Internal_Hbond.Weighted>
0.0000

> <Gold.Chemscore.DEClash.Weighted>
0.0402

> <Gold.Chemscore.DEInternal.Weighted>
0.7061

> <Gold.Chemscore.Rot.Weighted>
6.4553

> <Gold.Chemscore.Internal.Correction.Weighted>
   9.000000E+99

> <Gold.Protein.RotatedTorsions>
[ 6907 6896 6895 6894 ] final -161.46 input  -60.11 | X-H torsion
[ 7974 7965 7964 7962 ] final -118.10 input  175.53 | X-H torsion
[ 8008 7997 7996 7995 ] final -130.82 input   59.86 | X-H torsion
[ 10167 10162 10161 10158 ] final -132.72 input  -65.29 | X-H torsion
[ 10718 10713 10712 10709 ] final   86.87 input   66.30 | X-H torsion
[ 10763 10752 10751 10750 ] final  141.91 input  -60.55 | X-H torsion
[ 11005 11000 10999 10996 ] final -145.69 input  -57.11 | X-H torsion

> <Gold.Protein.ActiveResidues>
 VAL166  LYS551  ARG553  GLY616  TRP617  ASP618  TYR619  PRO620  LYS621  CYS622 
 ASP623  PHE694  ASN695  SER759  ASP760  ASP761  ALA762  ILE779  LEU786  VAL792 
 PHE793  MET794  SER795  GLU796  ALA797  LYS798  CYS799  TRP800  GLU811  SER814 

> <Gold.Protein.RotatedAtoms>
  151.3650  133.3875  159.2693 H   0  0  0  0  0  0  0  0  0  0  0  0  # atno 6907 bound_to 6896
  150.9695  134.9071  159.7790 H   0  0  0  0  0  0  0  0  0  0  0  0  # atno 6908 bound_to 6896
  152.5179  134.3612  159.9337 H   0  0  0  0  0  0  0  0  0  0  0  0  # atno 6909 bound_to 6896
  145.0777  140.8404  143.4057 H   0  0  0  0  0  0  0  0  0  0  0  0  # atno 7974 bound_to 7965
  155.3021  140.0453  157.3030 H   0  0  0  0  0  0  0  0  0  0  0  0  # atno 8008 bound_to 7997
  154.5481  140.2309  155.8497 H   0  0  0  0  0  0  0  0  0  0  0  0  # atno 8009 bound_to 7997
  156.1942  140.3043  155.9400 H   0  0  0  0  0  0  0  0  0  0  0  0  # atno 8010 bound_to 7997
  139.9057  143.6554  152.2586 H   0  0  0  0  0  0  0  0  0  0  0  0  # atno 10167 bound_to 10162
  157.6934  131.0233  150.3037 H   0  0  0  0  0  0  0  0  0  0  0  0  # atno 10718 bound_to 10713
  153.9470  135.2974  155.3440 H   0  0  0  0  0  0  0  0  0  0  0  0  # atno 10763 bound_to 10752
  154.7446  135.5009  153.9185 H   0  0  0  0  0  0  0  0  0  0  0  0  # atno 10764 bound_to 10752
  153.1013  135.6735  153.9775 H   0  0  0  0  0  0  0  0  0  0  0  0  # atno 10765 bound_to 10752
  140.7897  134.2983  157.5018 H   0  0  0  0  0  0  0  0  0  0  0  0  # atno 11005 bound_to 11000
  145.1216  139.2690  143.5586 LP  0  0  0  0  0  0  0  0  0  0  0  0  # atno 17320 bound_to 7965
  146.3530  140.0841  142.8616 LP  0  0  0  0  0  0  0  0  0  0  0  0  # atno 17321 bound_to 7965
  139.6986  144.7638  151.1312 LP  0  0  0  0  0  0  0  0  0  0  0  0  # atno 17342 bound_to 10162
  140.7697  143.5489  150.9227 LP  0  0  0  0  0  0  0  0  0  0  0  0  # atno 17343 bound_to 10162
  156.3549  130.3837  149.7298 LP  0  0  0  0  0  0  0  0  0  0  0  0  # atno 17370 bound_to 10713
  156.4764  130.8020  151.3036 LP  0  0  0  0  0  0  0  0  0  0  0  0  # atno 17371 bound_to 10713
  139.8732  134.9367  156.3668 LP  0  0  0  0  0  0  0  0  0  0  0  0  # atno 17394 bound_to 11000
  140.9402  133.7520  156.0136 LP  0  0  0  0  0  0  0  0  0  0  0  0  # atno 17395 bound_to 11000

$$$$
