AV-unprocessed.smi:246|AV-procd|sdf|1882|dock3
  -GOLD-   2262020533D 1   1.00000     0.00000
 Structure written by MMmdl.
 57 60  0  0  0  0  0  0  0  0  1 V2000
  145.3572  131.2572  151.0796 C   0  0  0  0  0  0  0  0  0  0  0  0
  145.1998  132.6997  151.5802 C   0  0  0  0  0  0  0  0  0  0  0  0
  146.3377  133.4894  151.2660 O   0  0  0  0  0  0  0  0  0  0  0  0
  147.5209  133.1116  151.9547 C   0  0  0  0  0  0  0  0  0  0  0  0
  147.4488  133.6516  153.3857 C   0  0  0  0  0  0  0  0  0  0  0  0
  148.6646  133.3381  154.0488 O   0  0  0  0  0  0  0  0  0  0  0  0
  148.7941  133.9212  155.3390 C   0  0  1  0  0  0  0  0  0  0  0  0
  150.1443  133.5012  155.9239 C   0  0  0  0  0  0  0  0  0  0  0  0
  151.1345  134.5317  155.3768 C   0  0  0  0  0  0  0  0  0  0  0  0
  150.3383  135.7135  155.0861 N   0  0  0  0  0  0  0  0  0  0  0  0
  150.8558  136.9685  155.0906 C   0  0  0  0  0  0  0  0  0  0  0  0
  151.9773  137.2106  154.3612 N   0  0  0  0  0  0  0  0  0  0  0  0
  152.5198  138.4311  154.3344 C   0  0  0  0  0  0  0  0  0  0  0  0
  152.1151  139.5371  154.9598 N   0  0  0  0  0  0  0  0  0  0  0  0
  150.9988  139.3012  155.7058 C   0  0  0  0  0  0  0  0  0  0  0  0
  150.3087  138.0605  155.8272 C   0  0  0  0  0  0  0  0  0  0  0  0
  149.2235  138.2141  156.6839 N   0  0  0  0  0  0  0  0  0  0  0  0
  149.2688  139.4669  157.0441 C   0  0  0  0  0  0  0  0  0  0  0  0
  150.3091  140.1908  156.5100 N   0  0  0  0  0  0  0  0  0  0  0  0
  150.6061  141.5914  156.7502 C   0  0  0  0  0  0  0  0  0  0  0  0
  150.9816  141.8958  158.2170 C   0  0  1  0  0  0  0  0  0  0  0  0
  152.2659  141.3470  158.4368 O   0  0  0  0  0  0  0  0  0  0  0  0
  151.0037  143.3984  158.5815 C   0  0  2  0  0  0  0  0  0  0  0  0
  152.1503  144.1843  157.9384 C   0  0  0  0  0  0  0  0  0  0  0  0
  152.3007  145.3521  158.8849 C   0  0  0  0  0  0  0  0  0  0  0  0
  152.0790  144.6804  160.2344 C   0  0  0  0  0  0  0  0  0  0  0  0
  151.2009  143.5877  159.9831 O   0  0  0  0  0  0  0  0  0  0  0  0
  148.9158  135.4491  155.2508 C   0  0  0  0  0  0  0  0  0  0  0  0
  147.9736  133.6057  155.9856 H   0  0  0  0  0  0  0  0  0  0  0  0
  144.5238  130.6401  151.4156 H   0  0  0  0  0  0  0  0  0  0  0  0
  146.2762  130.8106  151.4602 H   0  0  0  0  0  0  0  0  0  0  0  0
  145.3837  131.2045  149.9916 H   0  0  0  0  0  0  0  0  0  0  0  0
  144.2866  133.1546  151.1934 H   0  0  0  0  0  0  0  0  0  0  0  0
  145.1024  132.6846  152.6660 H   0  0  0  0  0  0  0  0  0  0  0  0
  147.6563  132.0300  151.9684 H   0  0  0  0  0  0  0  0  0  0  0  0
  148.3833  133.5435  151.4451 H   0  0  0  0  0  0  0  0  0  0  0  0
  147.3094  134.7322  153.3599 H   0  0  0  0  0  0  0  0  0  0  0  0
  146.5920  133.2230  153.9080 H   0  0  0  0  0  0  0  0  0  0  0  0
  150.1056  133.5847  157.0106 H   0  0  0  0  0  0  0  0  0  0  0  0
  150.4191  132.4744  155.6805 H   0  0  0  0  0  0  0  0  0  0  0  0
  151.9265  134.7324  156.0990 H   0  0  0  0  0  0  0  0  0  0  0  0
  151.5899  134.1775  154.4516 H   0  0  0  0  0  0  0  0  0  0  0  0
  153.4059  138.5358  153.7260 H   0  0  0  0  0  0  0  0  0  0  0  0
  148.5461  139.8962  157.7228 H   0  0  0  0  0  0  0  0  0  0  0  0
  151.4198  141.8824  156.0845 H   0  0  0  0  0  0  0  0  0  0  0  0
  149.7370  142.1815  156.4555 H   0  0  0  0  0  0  0  0  0  0  0  0
  150.2898  141.3793  158.8831 H   0  0  0  0  0  0  0  0  0  0  0  0
  152.4858  140.7970  157.7004 H   0  0  0  0  0  0  0  0  0  0  0  0
  150.0556  143.8664  158.3110 H   0  0  0  0  0  0  0  0  0  0  0  0
  153.0673  143.5925  157.9310 H   0  0  0  0  0  0  0  0  0  0  0  0
  151.9337  144.4925  156.9150 H   0  0  0  0  0  0  0  0  0  0  0  0
  153.2685  145.8483  158.8083 H   0  0  0  0  0  0  0  0  0  0  0  0
  151.5195  146.0901  158.6971 H   0  0  0  0  0  0  0  0  0  0  0  0
  153.0179  144.2852  160.6240 H   0  0  0  0  0  0  0  0  0  0  0  0
  151.6642  145.3629  160.9763 H   0  0  0  0  0  0  0  0  0  0  0  0
  148.3326  135.8759  154.4352 H   0  0  0  0  0  0  0  0  0  0  0  0
  148.5769  135.9031  156.1830 H   0  0  0  0  0  0  0  0  0  0  0  0
  1  2  1  0  0  0  0
  1 30  1  0  0  0  0
  1 31  1  0  0  0  0
  1 32  1  0  0  0  0
  2  3  1  0  0  0  0
  2 33  1  0  0  0  0
  2 34  1  0  0  0  0
  3  4  1  0  0  0  0
  4  5  1  0  0  0  0
  4 35  1  0  0  0  0
  4 36  1  0  0  0  0
  5  6  1  0  0  0  0
  5 37  1  0  0  0  0
  5 38  1  0  0  0  0
  6  7  1  0  0  0  0
  7 29  1  0  0  0  0
  7 28  1  0  0  0  0
  7  8  1  0  0  0  0
  8  9  1  0  0  0  0
  8 39  1  0  0  0  0
  8 40  1  0  0  0  0
  9 10  1  0  0  0  0
  9 41  1  0  0  0  0
  9 42  1  0  0  0  0
 10 11  1  0  0  0  0
 10 28  1  0  0  0  0
 11 16  1  0  0  0  0
 11 12  2  0  0  0  0
 12 13  1  0  0  0  0
 13 14  2  0  0  0  0
 13 43  1  0  0  0  0
 14 15  1  0  0  0  0
 15 19  1  0  0  0  0
 15 16  2  0  0  0  0
 16 17  1  0  0  0  0
 17 18  2  0  0  0  0
 18 19  1  0  0  0  0
 18 44  1  0  0  0  0
 19 20  1  0  0  0  0
 20 21  1  0  0  0  0
 20 45  1  0  0  0  0
 20 46  1  0  0  0  0
 21 22  1  0  0  0  0
 21 23  1  0  0  0  0
 21 47  1  0  0  0  0
 22 48  1  0  0  0  0
 23 27  1  0  0  0  0
 23 24  1  0  0  0  0
 23 49  1  0  0  0  0
 24 25  1  0  0  0  0
 24 50  1  0  0  0  0
 24 51  1  0  0  0  0
 25 26  1  0  0  0  0
 25 52  1  0  0  0  0
 25 53  1  0  0  0  0
 26 27  1  0  0  0  0
 26 54  1  0  0  0  0
 26 55  1  0  0  0  0
 28 56  1  0  0  0  0
 28 57  1  0  0  0  0
M  END
> <s_m_source_file>
AV-unprocessed.smi

> <i_m_source_file_index>
246

> <i_lp_mmshare_version>
43012

> <i_f3d_flags>
0

> <s_epik_input>
W0NIM11bQ0gyXU9bQ0gyXVtDSDJdT1tDQEhdMVtDSDJdW0NIMl1OKFtDSDJdMSljKG5bY0hdbjIpYyhjMjMpbltjSF1uM1tDSDJdW0NASF0oW09IXSlbQ0BASF00W0NIMl1bQ0gyXVtDSDJdTzQ=

> <s_epik_cmdline>
J2VwaWtfcHl0aG9uJywgJy1waCcsICc3LjAnLCAnLXRuJywgJzgnLCAnLW1hJywgJzIwMCcsICctbWV0YWxfYmluZGluZycsICctaW1hZScsICc8aW5maWxlLm1hZT4nLCAnLW9tYWUnLCAnPG91dGZpbGUubWFlPic=

> <r_lp_tautomer_probability>
1

> <r_epik_Ionization_Penalty>
0.0024631

> <r_epik_Ionization_Penalty_Charging>
0

> <r_epik_Ionization_Penalty_Neutral>
0.0024631

> <r_epik_State_Penalty>
0.00162428

> <r_epik_Charging_Adjusted_Penalty>
0.00162428

> <i_epik_Tot_Q>
0

> <i_epik_Tot_abs_Q>
0

> <r_epik_Metal_State_Penalty>
-0

> <b_epik_Metal_Only>
0

> <s_lp_Force_Field>
OPLS_2005

> <r_lp_Energy>
52.0053

> <b_lp_Chiralities_Consistent>
1

> <s_lp_Variant>
AV-unprocessed.smi:246-3

> <Gold.Version>
5.8.1

> <Gold.Id.Protein>
6NUR|6NUR_protein|mol2

> <Gold.PLP.Fitness>
52.6140

> <Gold.PLP.PLP>
-48.0974

> <Gold.PLP.part.hbond>
-2.3172

> <Gold.PLP.part.metal>
0.0000

> <Gold.PLP.part.buried>
-10.3630

> <Gold.PLP.part.nonpolar>
-36.4479

> <Gold.PLP.part.repulsive>
0.5649

> <Gold.PLP.ligand.clash>
0.0000

> <Gold.PLP.ligand.torsion>
0.9387

> <Gold.PLP.Chemscore.Hbond>
1.9675

> <Gold.PLP.Chemscore.CHOScore>
0.0000

> <Gold.PLP.Chemscore.Metal>
0.0000

> <Gold.Chemscore.Hbonds>
donor molecule, donor type, donor heavy atom, donor atom, acceptor molecule, acceptor atom, score
      P1  H  7989  7998       L1    14  0.86
      P1  H 10752 10765       L1    12  0.98

> <Gold.PLP.Chemscore.Internal.Correction>
0.4916

> <Gold.Rescore>
     Score         DG    S(hbond)    S(metal)    S(lipo)     H(rot)  DE(clash)    DE(int)     intcor
     13.73     -15.03       1.40        0.00     109.45       3.10       0.16       1.14       ----

> <Gold.Chemscore.Fitness>
13.7333

> <Gold.Chemscore.DG>
-15.0298

> <Gold.Chemscore.ZeroCoef>
-5.4800

> <Gold.Chemscore.Hbond>
1.4032

> <Gold.Chemscore.Metal>
0.0000

> <Gold.Chemscore.Lipo>
109.4519

> <Gold.Chemscore.Internal_Hbond>
0.0000

> <Gold.Chemscore.DEClash>
0.1565

> <Gold.Chemscore.DEInternal>
1.1401

> <Gold.Chemscore.Rot>
3.1026

> <Gold.Chemscore.Internal.Correction>
   9.000000E+99

> <Gold.Chemscore.Hbonds>
donor molecule, donor type, donor heavy atom, donor atom, acceptor molecule, acceptor atom, score
      P1  H  7989  7998       L1    14  0.31
      P1  H 10752 10765       L1    12  0.56

> <Gold.Chemscore.Hbond.Weighted>
-4.6866

> <Gold.Chemscore.Metal.Weighted>
-0.0000

> <Gold.Chemscore.Lipo.Weighted>
-12.8059

> <Gold.Chemscore.Internal_Hbond.Weighted>
0.0000

> <Gold.Chemscore.DEClash.Weighted>
0.1565

> <Gold.Chemscore.DEInternal.Weighted>
1.1401

> <Gold.Chemscore.Rot.Weighted>
7.9426

> <Gold.Chemscore.Internal.Correction.Weighted>
   9.000000E+99

> <Gold.Protein.RotatedTorsions>
[ 6907 6896 6895 6894 ] final   13.69 input  -60.11 | X-H torsion
[ 7974 7965 7964 7962 ] final   87.72 input  175.53 | X-H torsion
[ 8008 7997 7996 7995 ] final   31.38 input   59.86 | X-H torsion
[ 10167 10162 10161 10158 ] final -167.31 input  -65.29 | X-H torsion
[ 10718 10713 10712 10709 ] final  -90.42 input   66.30 | X-H torsion
[ 10763 10752 10751 10750 ] final  164.84 input  -60.55 | X-H torsion
[ 11005 11000 10999 10996 ] final    7.31 input  -57.11 | X-H torsion

> <Gold.Protein.ActiveResidues>
 VAL166  LYS551  ARG553  GLY616  TRP617  ASP618  TYR619  PRO620  LYS621  CYS622 
 ASP623  PHE694  ASN695  SER759  ASP760  ASP761  ALA762  ILE779  LEU786  VAL792 
 PHE793  MET794  SER795  GLU796  ALA797  LYS798  CYS799  TRP800  GLU811  SER814 

> <Gold.Protein.RotatedAtoms>
  151.7903  135.0737  160.0386 H   0  0  0  0  0  0  0  0  0  0  0  0  # atno 6907 bound_to 6896
  152.3161  133.5799  159.5721 H   0  0  0  0  0  0  0  0  0  0  0  0  # atno 6908 bound_to 6896
  150.7345  133.9997  159.3676 H   0  0  0  0  0  0  0  0  0  0  0  0  # atno 6909 bound_to 6896
  145.5553  139.2299  143.2490 H   0  0  0  0  0  0  0  0  0  0  0  0  # atno 7974 bound_to 7965
  155.1055  140.3234  155.4535 H   0  0  0  0  0  0  0  0  0  0  0  0  # atno 8008 bound_to 7997
  156.2705  140.2053  156.6127 H   0  0  0  0  0  0  0  0  0  0  0  0  # atno 8009 bound_to 7997
  154.6796  140.0527  157.0239 H   0  0  0  0  0  0  0  0  0  0  0  0  # atno 8010 bound_to 7997
  139.6057  144.0917  152.1791 H   0  0  0  0  0  0  0  0  0  0  0  0  # atno 10167 bound_to 10162
  155.9988  130.4909  150.5320 H   0  0  0  0  0  0  0  0  0  0  0  0  # atno 10718 bound_to 10713
  154.3149  135.2757  155.2548 H   0  0  0  0  0  0  0  0  0  0  0  0  # atno 10763 bound_to 10752
  154.4926  135.5829  153.6474 H   0  0  0  0  0  0  0  0  0  0  0  0  # atno 10764 bound_to 10752
  152.9883  135.6138  154.3329 H   0  0  0  0  0  0  0  0  0  0  0  0  # atno 10765 bound_to 10752
  140.5497  134.0295  155.7932 H   0  0  0  0  0  0  0  0  0  0  0  0  # atno 11005 bound_to 11000
  146.1889  140.6376  142.9155 LP  0  0  0  0  0  0  0  0  0  0  0  0  # atno 17320 bound_to 7965
  144.7509  140.5189  143.6802 LP  0  0  0  0  0  0  0  0  0  0  0  0  # atno 17321 bound_to 7965
  140.0524  144.5922  150.7326 LP  0  0  0  0  0  0  0  0  0  0  0  0  # atno 17342 bound_to 10162
  140.7283  143.2661  151.4042 LP  0  0  0  0  0  0  0  0  0  0  0  0  # atno 17343 bound_to 10162
  157.3268  131.0692  151.1891 LP  0  0  0  0  0  0  0  0  0  0  0  0  # atno 17370 bound_to 10713
  157.2785  130.6738  149.6054 LP  0  0  0  0  0  0  0  0  0  0  0  0  # atno 17371 bound_to 10713
  141.1179  133.9510  157.2787 LP  0  0  0  0  0  0  0  0  0  0  0  0  # atno 17394 bound_to 11000
  139.9462  135.0183  156.8858 LP  0  0  0  0  0  0  0  0  0  0  0  0  # atno 17395 bound_to 11000

$$$$
