AV-unprocessed.smi:148|AV-procd|sdf|1208|dock1
  -GOLD-   2262018383D 1   1.00000     0.00000
 Structure written by MMmdl.
 63 67  0  0  0  0  0  0  0  0  1 V2000
  146.2292  141.4813  153.1676 O   0  0  0  0  0  0  0  0  0  0  0  0
  146.2090  142.5808  154.0538 C   0  0  0  0  0  0  0  0  0  0  0  0
  146.9869  142.2686  155.3525 C   0  0  2  0  0  0  0  0  0  0  0  0
  148.3325  141.5606  155.0472 C   0  0  0  0  0  0  0  0  0  0  0  0
  149.1679  141.4076  156.2252 N   0  0  0  0  0  0  0  0  0  0  0  0
  148.8795  141.8255  157.5059 C   0  0  0  0  0  0  0  0  0  0  0  0
  149.8045  141.5793  158.3937 N   0  0  0  0  0  0  0  0  0  0  0  0
  150.8059  140.9488  157.6671 C   0  0  0  0  0  0  0  0  0  0  0  0
  152.0844  140.4284  157.9954 C   0  0  0  0  0  0  0  0  0  0  0  0
  152.5758  140.4832  159.2525 N   0  0  0  0  0  0  0  0  0  0  0  0
  153.4770  139.3515  159.4820 C   0  0  0  0  0  0  0  0  0  0  0  0
  153.8302  139.2085  160.9651 C   0  0  0  0  0  0  0  0  0  0  0  0
  154.4292  140.5171  161.4818 C   0  0  0  0  0  0  0  0  0  0  0  0
  153.4559  141.6737  161.2215 C   0  0  0  0  0  0  0  0  0  0  0  0
  153.0532  141.7994  159.7263 C   0  0  2  0  0  0  0  0  0  0  0  0
  152.0089  142.9563  159.5383 C   0  0  1  0  0  0  0  0  0  0  0  0
  152.0444  144.0550  160.6185 C   0  0  0  0  0  0  0  0  0  0  0  0
  151.3018  145.2633  160.0363 C   0  0  0  0  0  0  0  0  0  0  0  0
  151.2283  145.0310  158.5233 C   0  0  0  0  0  0  0  0  0  0  0  0
  152.0888  143.7950  158.2413 C   0  0  1  0  0  0  0  0  0  0  0  0
  153.4152  144.2150  157.9804 O   0  0  0  0  0  0  0  0  0  0  0  0
  152.8170  139.8575  157.0026 N   0  0  0  0  0  0  0  0  0  0  0  0
  152.3331  139.8190  155.7573 C   0  0  0  0  0  0  0  0  0  0  0  0
  151.1649  140.2773  155.3005 N   0  0  0  0  0  0  0  0  0  0  0  0
  150.4251  140.8355  156.3018 C   0  0  0  0  0  0  0  0  0  0  0  0
  146.1127  141.5077  156.3870 C   0  0  2  0  0  0  0  0  0  0  0  0
  145.5668  140.1575  155.9175 C   0  0  0  0  0  0  0  0  0  0  0  0
  144.0702  140.2343  156.2176 C   0  0  0  0  0  0  0  0  0  0  0  0
  143.9793  141.2018  157.2503 O   0  0  0  0  0  0  0  0  0  0  0  0
  144.8696  142.2484  156.9008 C   0  0  0  0  0  0  0  0  0  0  0  0
  145.3670  141.0945  153.1476 H   0  0  0  0  0  0  0  0  0  0  0  0
  146.6209  143.4574  153.5535 H   0  0  0  0  0  0  0  0  0  0  0  0
  145.1631  142.8004  154.2673 H   0  0  0  0  0  0  0  0  0  0  0  0
  147.2300  143.2285  155.8109 H   0  0  0  0  0  0  0  0  0  0  0  0
  148.1738  140.5664  154.6319 H   0  0  0  0  0  0  0  0  0  0  0  0
  148.8996  142.1171  154.3014 H   0  0  0  0  0  0  0  0  0  0  0  0
  147.9541  142.3197  157.7638 H   0  0  0  0  0  0  0  0  0  0  0  0
  153.0132  138.4280  159.1308 H   0  0  0  0  0  0  0  0  0  0  0  0
  154.3908  139.4888  158.9017 H   0  0  0  0  0  0  0  0  0  0  0  0
  152.9358  138.9566  161.5365 H   0  0  0  0  0  0  0  0  0  0  0  0
  154.5355  138.3892  161.1062 H   0  0  0  0  0  0  0  0  0  0  0  0
  154.6449  140.4382  162.5476 H   0  0  0  0  0  0  0  0  0  0  0  0
  155.3787  140.7132  160.9823 H   0  0  0  0  0  0  0  0  0  0  0  0
  152.5611  141.5322  161.8295 H   0  0  0  0  0  0  0  0  0  0  0  0
  153.9290  142.5894  161.5750 H   0  0  0  0  0  0  0  0  0  0  0  0
  153.9582  142.0438  159.1685 H   0  0  0  0  0  0  0  0  0  0  0  0
  151.0123  142.5125  159.5823 H   0  0  0  0  0  0  0  0  0  0  0  0
  151.5996  143.7299  161.5595 H   0  0  0  0  0  0  0  0  0  0  0  0
  153.0775  144.3387  160.8248 H   0  0  0  0  0  0  0  0  0  0  0  0
  150.2971  145.3393  160.4537 H   0  0  0  0  0  0  0  0  0  0  0  0
  151.8251  146.1900  160.2740 H   0  0  0  0  0  0  0  0  0  0  0  0
  150.1946  144.8183  158.2477 H   0  0  0  0  0  0  0  0  0  0  0  0
  151.5381  145.9045  157.9482 H   0  0  0  0  0  0  0  0  0  0  0  0
  151.7074  143.2736  157.3659 H   0  0  0  0  0  0  0  0  0  0  0  0
  153.7114  144.7400  158.7080 H   0  0  0  0  0  0  0  0  0  0  0  0
  152.9755  139.3583  155.0216 H   0  0  0  0  0  0  0  0  0  0  0  0
  146.7310  141.2876  157.2584 H   0  0  0  0  0  0  0  0  0  0  0  0
  145.7570  139.9400  154.8667 H   0  0  0  0  0  0  0  0  0  0  0  0
  146.0245  139.3545  156.4968 H   0  0  0  0  0  0  0  0  0  0  0  0
  143.5190  140.5856  155.3436 H   0  0  0  0  0  0  0  0  0  0  0  0
  143.6513  139.2753  156.5239 H   0  0  0  0  0  0  0  0  0  0  0  0
  145.0877  142.8879  157.7565 H   0  0  0  0  0  0  0  0  0  0  0  0
  144.3981  142.8606  156.1329 H   0  0  0  0  0  0  0  0  0  0  0  0
  1  2  1  0  0  0  0
  1 31  1  0  0  0  0
  2  3  1  0  0  0  0
  2 32  1  0  0  0  0
  2 33  1  0  0  0  0
  3  4  1  0  0  0  0
  3 26  1  0  0  0  0
  3 34  1  0  0  0  0
  4  5  1  0  0  0  0
  4 35  1  0  0  0  0
  4 36  1  0  0  0  0
  5 25  1  0  0  0  0
  5  6  1  0  0  0  0
  6  7  2  0  0  0  0
  6 37  1  0  0  0  0
  7  8  1  0  0  0  0
  8 25  2  0  0  0  0
  8  9  1  0  0  0  0
  9 10  1  0  0  0  0
  9 22  2  0  0  0  0
 10 15  1  0  0  0  0
 10 11  1  0  0  0  0
 11 12  1  0  0  0  0
 11 38  1  0  0  0  0
 11 39  1  0  0  0  0
 12 13  1  0  0  0  0
 12 40  1  0  0  0  0
 12 41  1  0  0  0  0
 13 14  1  0  0  0  0
 13 42  1  0  0  0  0
 13 43  1  0  0  0  0
 14 15  1  0  0  0  0
 14 44  1  0  0  0  0
 14 45  1  0  0  0  0
 15 16  1  0  0  0  0
 15 46  1  0  0  0  0
 16 20  1  0  0  0  0
 16 17  1  0  0  0  0
 16 47  1  0  0  0  0
 17 18  1  0  0  0  0
 17 48  1  0  0  0  0
 17 49  1  0  0  0  0
 18 19  1  0  0  0  0
 18 50  1  0  0  0  0
 18 51  1  0  0  0  0
 19 20  1  0  0  0  0
 19 52  1  0  0  0  0
 19 53  1  0  0  0  0
 20 21  1  0  0  0  0
 20 54  1  0  0  0  0
 21 55  1  0  0  0  0
 22 23  1  0  0  0  0
 23 24  2  0  0  0  0
 23 56  1  0  0  0  0
 24 25  1  0  0  0  0
 26 30  1  0  0  0  0
 26 27  1  0  0  0  0
 26 57  1  0  0  0  0
 27 28  1  0  0  0  0
 27 58  1  0  0  0  0
 27 59  1  0  0  0  0
 28 29  1  0  0  0  0
 28 60  1  0  0  0  0
 28 61  1  0  0  0  0
 29 30  1  0  0  0  0
 30 62  1  0  0  0  0
 30 63  1  0  0  0  0
M  END
> <s_m_source_file>
AV-unprocessed.smi

> <i_m_source_file_index>
148

> <i_lp_mmshare_version>
43012

> <i_f3d_flags>
0

> <s_epik_input>
W0NIMl0xT1tDSDJdW0NIMl1bQ0BIXTFbQ0BIXShbQ0gyXVtPSF0pW0NIMl1uKFtjSF1uMiljKGMyMyluW2NIXW5jM040W0NIMl1bQ0gyXVtDSDJdW0NIMl1bQ0BIXTRbQ0BASF01W0NIMl1bQ0gyXVtDSDJdW0NASF01W09IXQ==

> <s_epik_cmdline>
J2VwaWtfcHl0aG9uJywgJy1waCcsICc3LjAnLCAnLXRuJywgJzgnLCAnLW1hJywgJzIwMCcsICctbWV0YWxfYmluZGluZycsICctaW1hZScsICc8aW5maWxlLm1hZT4nLCAnLW9tYWUnLCAnPG91dGZpbGUubWFlPic=

> <r_lp_tautomer_probability>
1

> <r_epik_Ionization_Penalty>
0.00556303

> <r_epik_Ionization_Penalty_Charging>
0

> <r_epik_Ionization_Penalty_Neutral>
0.00556303

> <r_epik_State_Penalty>
0.00401767

> <r_epik_Charging_Adjusted_Penalty>
0.00401767

> <i_epik_Tot_Q>
0

> <i_epik_Tot_abs_Q>
0

> <r_epik_Metal_State_Penalty>
-0

> <b_epik_Metal_Only>
0

> <s_lp_Force_Field>
OPLS_2005

> <r_lp_Energy>
70.8238

> <b_lp_Chiralities_Consistent>
1

> <s_lp_Variant>
AV-unprocessed.smi:148-7

> <Gold.Version>
5.8.1

> <Gold.Id.Protein>
6NUR|6NUR_protein|mol2

> <Gold.PLP.Fitness>
56.1600

> <Gold.PLP.PLP>
-49.4473

> <Gold.PLP.part.hbond>
-3.0000

> <Gold.PLP.part.metal>
0.0000

> <Gold.PLP.part.buried>
1.1398

> <Gold.PLP.part.nonpolar>
-46.5854

> <Gold.PLP.part.repulsive>
0.0776

> <Gold.PLP.ligand.clash>
0.1178

> <Gold.PLP.ligand.torsion>
1.7070

> <Gold.PLP.Chemscore.Hbond>
3.0000

> <Gold.PLP.Chemscore.CHOScore>
0.0000

> <Gold.PLP.Chemscore.Metal>
0.0000

> <Gold.Chemscore.Hbonds>
donor molecule, donor type, donor heavy atom, donor atom, acceptor molecule, acceptor atom, score
      L1  H     1    31       P1 10175  1.00
      P1  H  7989  7998       L1    24  1.00
      P1  H  7997  8010       L1    22  1.00

> <Gold.PLP.Chemscore.Internal.Correction>
1.2445

> <Gold.Rescore>
     Score         DG    S(hbond)    S(metal)    S(lipo)     H(rot)  DE(clash)    DE(int)     intcor
     11.25     -18.09       1.84        0.00     127.82       3.32       1.66       5.17       ----

> <Gold.Chemscore.Fitness>
11.2541

> <Gold.Chemscore.DG>
-18.0906

> <Gold.Chemscore.ZeroCoef>
-5.4800

> <Gold.Chemscore.Hbond>
1.8431

> <Gold.Chemscore.Metal>
0.0000

> <Gold.Chemscore.Lipo>
127.8173

> <Gold.Chemscore.Internal_Hbond>
0.0000

> <Gold.Chemscore.DEClash>
1.6635

> <Gold.Chemscore.DEInternal>
5.1730

> <Gold.Chemscore.Rot>
3.3203

> <Gold.Chemscore.Internal.Correction>
   9.000000E+99

> <Gold.Chemscore.Hbonds>
donor molecule, donor type, donor heavy atom, donor atom, acceptor molecule, acceptor atom, score
      L1  H     1    31       P1 10175  0.30
      P1  H  7989  7998       L1    24  0.33
      P1  H  7997  8010       L1    22  0.25

> <Gold.Chemscore.Hbond.Weighted>
-6.1560

> <Gold.Chemscore.Metal.Weighted>
-0.0000

> <Gold.Chemscore.Lipo.Weighted>
-14.9546

> <Gold.Chemscore.Internal_Hbond.Weighted>
0.0000

> <Gold.Chemscore.DEClash.Weighted>
1.6635

> <Gold.Chemscore.DEInternal.Weighted>
5.1730

> <Gold.Chemscore.Rot.Weighted>
8.5000

> <Gold.Chemscore.Internal.Correction.Weighted>
   9.000000E+99

> <Gold.Protein.RotatedTorsions>
[ 6907 6896 6895 6894 ] final   68.06 input  -60.11 | X-H torsion
[ 7974 7965 7964 7962 ] final -178.80 input  175.53 | X-H torsion
[ 8008 7997 7996 7995 ] final   55.99 input   59.86 | X-H torsion
[ 10167 10162 10161 10158 ] final  -25.68 input  -65.29 | X-H torsion
[ 10718 10713 10712 10709 ] final  170.37 input   66.30 | X-H torsion
[ 10763 10752 10751 10750 ] final  106.62 input  -60.55 | X-H torsion
[ 11005 11000 10999 10996 ] final -125.14 input  -57.11 | X-H torsion

> <Gold.Protein.ActiveResidues>
 VAL166  LYS551  ARG553  GLY616  TRP617  ASP618  TYR619  PRO620  LYS621  CYS622 
 ASP623  PHE694  ASN695  SER759  ASP760  ASP761  ALA762  ILE779  LEU786  VAL792 
 PHE793  MET794  SER795  GLU796  ALA797  LYS798  CYS799  TRP800  GLU811  SER814 

> <Gold.Protein.RotatedAtoms>
  152.4595  134.5217  159.9784 H   0  0  0  0  0  0  0  0  0  0  0  0  # atno 6907 bound_to 6896
  151.5269  133.3450  159.2919 H   0  0  0  0  0  0  0  0  0  0  0  0  # atno 6908 bound_to 6896
  150.8552  134.7918  159.7102 H   0  0  0  0  0  0  0  0  0  0  0  0  # atno 6909 bound_to 6896
  144.7133  140.0814  143.6425 H   0  0  0  0  0  0  0  0  0  0  0  0  # atno 7974 bound_to 7965
  155.5101  140.3477  155.4387 H   0  0  0  0  0  0  0  0  0  0  0  0  # atno 8008 bound_to 7997
  156.0855  140.1397  156.9685 H   0  0  0  0  0  0  0  0  0  0  0  0  # atno 8009 bound_to 7997
  154.4604  140.0937  156.6854 H   0  0  0  0  0  0  0  0  0  0  0  0  # atno 8010 bound_to 7997
  140.7285  143.4244  151.0900 H   0  0  0  0  0  0  0  0  0  0  0  0  # atno 10167 bound_to 10162
  157.0091  131.0199  151.2808 H   0  0  0  0  0  0  0  0  0  0  0  0  # atno 10718 bound_to 10713
  153.3954  135.3871  155.1952 H   0  0  0  0  0  0  0  0  0  0  0  0  # atno 10763 bound_to 10752
  154.8724  135.3758  154.4684 H   0  0  0  0  0  0  0  0  0  0  0  0  # atno 10764 bound_to 10752
  153.5176  135.7087  153.5810 H   0  0  0  0  0  0  0  0  0  0  0  0  # atno 10765 bound_to 10752
  140.9785  134.0706  157.3791 H   0  0  0  0  0  0  0  0  0  0  0  0  # atno 11005 bound_to 11000
  145.9698  139.2861  143.1105 LP  0  0  0  0  0  0  0  0  0  0  0  0  # atno 17320 bound_to 7965
  145.9129  140.9168  143.0445 LP  0  0  0  0  0  0  0  0  0  0  0  0  # atno 17321 bound_to 7965
  139.7893  143.8241  152.3149 LP  0  0  0  0  0  0  0  0  0  0  0  0  # atno 17342 bound_to 10162
  139.8219  144.7292  150.9561 LP  0  0  0  0  0  0  0  0  0  0  0  0  # atno 17343 bound_to 10162
  157.5333  130.8073  149.7943 LP  0  0  0  0  0  0  0  0  0  0  0  0  # atno 17370 bound_to 10713
  156.0142  130.3820  150.2163 LP  0  0  0  0  0  0  0  0  0  0  0  0  # atno 17371 bound_to 10713
  139.8940  135.0134  156.6930 LP  0  0  0  0  0  0  0  0  0  0  0  0  # atno 17394 bound_to 11000
  140.7222  133.9131  155.8154 LP  0  0  0  0  0  0  0  0  0  0  0  0  # atno 17395 bound_to 11000

$$$$
