AV-unprocessed.smi:906|AV-procd|sdf|4104|dock1
  -GOLD-   22720 1593D 1   1.00000     0.00000
 Structure written by MMmdl.
 48 49  0  0  0  0  0  0  0  0  2 V2000
  152.9607  143.3684  162.7825 C   0  0  0  0  0  0  0  0  0  0  0  0
  152.5842  143.1343  161.3347 C   0  0  0  0  0  0  0  0  0  0  0  0
  153.3272  142.2470  160.5275 C   0  0  0  0  0  0  0  0  0  0  0  0
  152.9294  142.0656  159.1890 C   0  0  0  0  0  0  0  0  0  0  0  0
  151.8088  142.7749  158.7105 C   0  0  0  0  0  0  0  0  0  0  0  0
  151.3341  142.6077  157.2809 C   0  0  0  0  0  0  0  0  0  0  0  0
  149.9487  141.9451  157.2085 C   0  0  0  0  0  0  0  0  0  0  0  0
  149.9574  140.7738  156.3403 N   0  0  0  0  0  0  0  0  0  0  0  0
  149.1110  140.5584  155.3193 C   0  0  0  0  0  0  0  0  0  0  0  0
  148.2400  141.3705  155.0053 O   0  0  0  0  0  0  0  0  0  0  0  0
  149.3434  139.4167  154.6251 N   0  0  0  0  0  0  0  0  0  0  0  0
  150.4700  138.4957  154.8347 C   0  0  0  0  0  0  0  0  0  0  0  0
  149.9638  137.2483  155.5833 C   0  0  0  0  0  0  0  0  0  0  0  0
  148.8356  136.6009  154.8535 N   0  3  0  0  0  0  0  0  0  0  0  0
  148.3243  135.3267  155.4442 C   0  0  2  0  0  0  0  0  0  0  0  0
  147.9669  135.4417  156.9404 C   0  0  0  0  0  0  0  0  0  0  0  0
  149.2606  134.1338  155.1489 C   0  0  0  0  0  0  0  0  0  0  0  0
  149.4109  133.9929  153.8316 F   0  0  0  0  0  0  0  0  0  0  0  0
  150.4603  134.2922  155.7065 F   0  0  0  0  0  0  0  0  0  0  0  0
  148.7186  133.0147  155.6284 F   0  0  0  0  0  0  0  0  0  0  0  0
  147.7514  137.5587  154.4987 C   0  0  0  0  0  0  0  0  0  0  0  0
  148.3148  138.7998  153.7834 C   0  0  0  0  0  0  0  0  0  0  0  0
  151.1357  143.6392  159.5996 C   0  0  0  0  0  0  0  0  0  0  0  0
  151.5097  143.8192  160.8846 N   0  0  0  0  0  0  0  0  0  0  0  0
  153.8592  142.8128  163.0523 H   0  0  0  0  0  0  0  0  0  0  0  0
  152.1527  143.0483  163.4410 H   0  0  0  0  0  0  0  0  0  0  0  0
  153.1499  144.4276  162.9593 H   0  0  0  0  0  0  0  0  0  0  0  0
  154.1811  141.7160  160.9220 H   0  0  0  0  0  0  0  0  0  0  0  0
  153.4742  141.3920  158.5439 H   0  0  0  0  0  0  0  0  0  0  0  0
  151.3125  143.5879  156.8026 H   0  0  0  0  0  0  0  0  0  0  0  0
  152.0640  142.0130  156.7299 H   0  0  0  0  0  0  0  0  0  0  0  0
  149.6400  141.6231  158.2034 H   0  0  0  0  0  0  0  0  0  0  0  0
  149.1984  142.6601  156.8660 H   0  0  0  0  0  0  0  0  0  0  0  0
  150.6669  140.0792  156.5228 H   0  0  0  0  0  0  0  0  0  0  0  0
  150.8793  138.2072  153.8654 H   0  0  0  0  0  0  0  0  0  0  0  0
  151.3035  138.9353  155.3829 H   0  0  0  0  0  0  0  0  0  0  0  0
  150.7902  136.5505  155.7045 H   0  0  0  0  0  0  0  0  0  0  0  0
  149.6437  137.5429  156.5832 H   0  0  0  0  0  0  0  0  0  0  0  0
  147.3965  135.0980  154.9174 H   0  0  0  0  0  0  0  0  0  0  0  0
  147.4756  134.5335  157.2901 H   0  0  0  0  0  0  0  0  0  0  0  0
  147.2838  136.2694  157.1298 H   0  0  0  0  0  0  0  0  0  0  0  0
  148.8508  135.5859  157.5616 H   0  0  0  0  0  0  0  0  0  0  0  0
  147.0227  137.0714  153.8500 H   0  0  0  0  0  0  0  0  0  0  0  0
  147.2199  137.8645  155.4009 H   0  0  0  0  0  0  0  0  0  0  0  0
  147.5067  139.4896  153.5349 H   0  0  0  0  0  0  0  0  0  0  0  0
  148.7585  138.5129  152.8287 H   0  0  0  0  0  0  0  0  0  0  0  0
  150.2716  144.1989  159.2727 H   0  0  0  0  0  0  0  0  0  0  0  0
  149.2250  136.3283  153.9621 H   0  0  0  0  0  0  0  0  0  0  0  0
  1  2  1  0  0  0  0
  1 25  1  0  0  0  0
  1 26  1  0  0  0  0
  1 27  1  0  0  0  0
  2 24  1  0  0  0  0
  2  3  2  0  0  0  0
  3  4  1  0  0  0  0
  3 28  1  0  0  0  0
  4  5  2  0  0  0  0
  4 29  1  0  0  0  0
  5  6  1  0  0  0  0
  5 23  1  0  0  0  0
  6  7  1  0  0  0  0
  6 30  1  0  0  0  0
  6 31  1  0  0  0  0
  7  8  1  0  0  0  0
  7 32  1  0  0  0  0
  7 33  1  0  0  0  0
  8  9  1  0  0  0  0
  8 34  1  0  0  0  0
  9 10  2  0  0  0  0
  9 11  1  0  0  0  0
 11 22  1  0  0  0  0
 11 12  1  0  0  0  0
 12 13  1  0  0  0  0
 12 35  1  0  0  0  0
 12 36  1  0  0  0  0
 13 14  1  0  0  0  0
 13 37  1  0  0  0  0
 13 38  1  0  0  0  0
 14 15  1  0  0  0  0
 14 21  1  0  0  0  0
 14 48  1  0  0  0  0
 15 16  1  0  0  0  0
 15 17  1  0  0  0  0
 15 39  1  0  0  0  0
 16 40  1  0  0  0  0
 16 41  1  0  0  0  0
 16 42  1  0  0  0  0
 17 18  1  0  0  0  0
 17 19  1  0  0  0  0
 17 20  1  0  0  0  0
 21 22  1  0  0  0  0
 21 43  1  0  0  0  0
 21 44  1  0  0  0  0
 22 45  1  0  0  0  0
 22 46  1  0  0  0  0
 23 24  2  0  0  0  0
 23 47  1  0  0  0  0
M  CHG  1  14   1
M  END
> <s_m_source_file>
AV-unprocessed.smi

> <i_m_source_file_index>
906

> <i_lp_mmshare_version>
43012

> <i_f3d_flags>
0

> <s_epik_input>
W0NIM11jMVtjSF1bY0hdYyhbY0hdbjEpW0NIMl1bQ0gyXVtOSF1DKD1PKU4yW0NIMl1bQ0gyXU4oW0NASF0oW0NIM10pQyhGKShGKUYpW0NIMl1bQ0gyXTI=

> <s_epik_cmdline>
J2VwaWtfcHl0aG9uJywgJy1waCcsICc3LjAnLCAnLXRuJywgJzgnLCAnLW1hJywgJzIwMCcsICctbWV0YWxfYmluZGluZycsICctaW1hZScsICc8aW5maWxlLm1hZT4nLCAnLW9tYWUnLCAnPG91dGZpbGUubWFlPic=

> <r_epik_Ionization_Penalty>
2.02136

> <r_epik_Ionization_Penalty_Charging>
1.96814

> <r_epik_Ionization_Penalty_Neutral>
0.0532286

> <r_epik_State_Penalty>
2.14285

> <r_epik_Charging_Adjusted_Penalty>
4.11098

> <i_epik_Tot_Q>
1

> <i_epik_Tot_abs_Q>
1

> <r_epik_Metal_State_Penalty>
2.1406

> <b_epik_Metal_Only>
0

> <s_lp_Force_Field>
OPLS_2005

> <r_lp_Energy>
50.8751

> <b_lp_Chiralities_Consistent>
1

> <s_lp_Variant>
AV-unprocessed.smi:906-5

> <Gold.Version>
5.8.1

> <Gold.Id.Protein>
6NUR|6NUR_protein|mol2

> <Gold.PLP.Fitness>
43.3183

> <Gold.PLP.PLP>
-38.4120

> <Gold.PLP.part.hbond>
-1.1177

> <Gold.PLP.part.metal>
0.0000

> <Gold.PLP.part.buried>
-2.9906

> <Gold.PLP.part.nonpolar>
-33.9251

> <Gold.PLP.part.repulsive>
0.2802

> <Gold.PLP.ligand.clash>
0.0000

> <Gold.PLP.ligand.torsion>
0.9334

> <Gold.PLP.Chemscore.Hbond>
1.9666

> <Gold.PLP.Chemscore.CHOScore>
0.0000

> <Gold.PLP.Chemscore.Metal>
0.0000

> <Gold.Chemscore.Hbonds>
donor molecule, donor type, donor heavy atom, donor atom, acceptor molecule, acceptor atom, score
      L1  H    14    48       P1  7948  1.59

> <Gold.PLP.Chemscore.Internal.Correction>
0.8731

> <Gold.Rescore>
     Score         DG    S(hbond)    S(metal)    S(lipo)     H(rot)  DE(clash)    DE(int)     intcor
     14.71     -16.54       0.99        0.00     101.62       1.62       0.10       1.73       ----

> <Gold.Chemscore.Fitness>
14.7137

> <Gold.Chemscore.DG>
-16.5372

> <Gold.Chemscore.ZeroCoef>
-5.4800

> <Gold.Chemscore.Hbond>
0.9903

> <Gold.Chemscore.Metal>
0.0000

> <Gold.Chemscore.Lipo>
101.6191

> <Gold.Chemscore.Internal_Hbond>
0.0000

> <Gold.Chemscore.DEClash>
0.0979

> <Gold.Chemscore.DEInternal>
1.7257

> <Gold.Chemscore.Rot>
1.6171

> <Gold.Chemscore.Internal.Correction>
   9.000000E+99

> <Gold.Chemscore.Hbonds>
donor molecule, donor type, donor heavy atom, donor atom, acceptor molecule, acceptor atom, score
      L1  H    14    48       P1  7948  0.72

> <Gold.Chemscore.Hbond.Weighted>
-3.3076

> <Gold.Chemscore.Metal.Weighted>
-0.0000

> <Gold.Chemscore.Lipo.Weighted>
-11.8894

> <Gold.Chemscore.Internal_Hbond.Weighted>
0.0000

> <Gold.Chemscore.DEClash.Weighted>
0.0979

> <Gold.Chemscore.DEInternal.Weighted>
1.7257

> <Gold.Chemscore.Rot.Weighted>
4.1398

> <Gold.Chemscore.Internal.Correction.Weighted>
   9.000000E+99

> <Gold.Protein.RotatedTorsions>
[ 6907 6896 6895 6894 ] final  136.04 input  -60.11 | X-H torsion
[ 7974 7965 7964 7962 ] final  124.16 input  175.53 | X-H torsion
[ 8008 7997 7996 7995 ] final  -34.31 input   59.86 | X-H torsion
[ 10167 10162 10161 10158 ] final  -43.38 input  -65.29 | X-H torsion
[ 10718 10713 10712 10709 ] final   92.61 input   66.30 | X-H torsion
[ 10763 10752 10751 10750 ] final   75.09 input  -60.55 | X-H torsion
[ 11005 11000 10999 10996 ] final   49.46 input  -57.11 | X-H torsion

> <Gold.Protein.ActiveResidues>
 VAL166  LYS551  ARG553  GLY616  TRP617  ASP618  TYR619  PRO620  LYS621  CYS622 
 ASP623  PHE694  ASN695  SER759  ASP760  ASP761  ALA762  ILE779  LEU786  VAL792 
 PHE793  MET794  SER795  GLU796  ALA797  LYS798  CYS799  TRP800  GLU811  SER814 

> <Gold.Protein.RotatedAtoms>
  152.2938  133.5587  159.5574 H   0  0  0  0  0  0  0  0  0  0  0  0  # atno 6907 bound_to 6896
  150.7247  134.0390  159.3768 H   0  0  0  0  0  0  0  0  0  0  0  0  # atno 6908 bound_to 6896
  151.8295  135.0626  160.0486 H   0  0  0  0  0  0  0  0  0  0  0  0  # atno 6909 bound_to 6896
  145.0876  139.3610  143.4877 H   0  0  0  0  0  0  0  0  0  0  0  0  # atno 7974 bound_to 7965
  154.4124  140.1687  156.2029 H   0  0  0  0  0  0  0  0  0  0  0  0  # atno 8008 bound_to 7997
  155.9509  140.3401  155.6384 H   0  0  0  0  0  0  0  0  0  0  0  0  # atno 8009 bound_to 7997
  155.6871  140.0729  157.2453 H   0  0  0  0  0  0  0  0  0  0  0  0  # atno 8010 bound_to 7997
  140.6936  143.2986  151.3344 H   0  0  0  0  0  0  0  0  0  0  0  0  # atno 10167 bound_to 10162
  157.6958  131.0449  150.3907 H   0  0  0  0  0  0  0  0  0  0  0  0  # atno 10718 bound_to 10713
  153.0631  135.5001  154.8138 H   0  0  0  0  0  0  0  0  0  0  0  0  # atno 10763 bound_to 10752
  154.6912  135.2985  154.9479 H   0  0  0  0  0  0  0  0  0  0  0  0  # atno 10764 bound_to 10752
  154.0232  135.6739  153.4827 H   0  0  0  0  0  0  0  0  0  0  0  0  # atno 10765 bound_to 10752
  140.1102  134.4965  155.8685 H   0  0  0  0  0  0  0  0  0  0  0  0  # atno 11005 bound_to 11000
  146.3531  140.0695  142.8624 LP  0  0  0  0  0  0  0  0  0  0  0  0  # atno 17320 bound_to 7965
  145.1104  140.9401  143.4660 LP  0  0  0  0  0  0  0  0  0  0  0  0  # atno 17321 bound_to 7965
  139.6365  144.0621  152.2520 LP  0  0  0  0  0  0  0  0  0  0  0  0  # atno 17342 bound_to 10162
  140.0112  144.6222  150.7645 LP  0  0  0  0  0  0  0  0  0  0  0  0  # atno 17343 bound_to 10162
  156.4311  130.3972  149.6760 LP  0  0  0  0  0  0  0  0  0  0  0  0  # atno 17370 bound_to 10713
  156.3977  130.7659  151.2664 LP  0  0  0  0  0  0  0  0  0  0  0  0  # atno 17371 bound_to 10713
  141.2128  133.6724  156.6689 LP  0  0  0  0  0  0  0  0  0  0  0  0  # atno 17394 bound_to 11000
  140.3102  134.8093  157.4169 LP  0  0  0  0  0  0  0  0  0  0  0  0  # atno 17395 bound_to 11000

$$$$
