AV-unprocessed.smi:2222|AV-procd|sdf|8987|dock8
  -GOLD-   2272012203D 1   1.00000     0.00000
 Structure written by MMmdl.
 34 35  0  0  0  0  0  0  0  0  1 V2000
  147.0530  141.4068  153.9558 C   0  0  0  0  0  0  0  0  0  0  0  0
  148.1552  141.7044  154.8003 O   0  0  0  0  0  0  0  0  0  0  0  0
  149.2320  140.8391  154.7993 C   0  0  0  0  0  0  0  0  0  0  0  0
  149.2863  139.6549  154.0206 C   0  0  0  0  0  0  0  0  0  0  0  0
  150.4277  138.8373  154.0850 C   0  0  0  0  0  0  0  0  0  0  0  0
  151.4807  139.2318  154.9292 C   0  0  0  0  0  0  0  0  0  0  0  0
  152.7416  138.4019  155.0456 C   0  0  0  0  0  0  0  0  0  0  0  0
  151.4406  140.3546  155.6741 N   0  0  0  0  0  0  0  0  0  0  0  0
  150.3450  141.1520  155.6220 C   0  0  0  0  0  0  0  0  0  0  0  0
  150.2271  142.3519  156.3758 N   0  0  0  0  0  0  0  0  0  0  0  0
  150.6337  142.5995  157.6367 C   0  0  0  0  0  0  0  0  0  0  0  0
  151.1538  141.7701  158.3809 O   0  0  0  0  0  0  0  0  0  0  0  0
  150.3888  143.8527  158.0599 N   0  0  0  0  0  0  0  0  0  0  0  0
  150.6950  144.4273  159.3370 C   0  0  2  0  0  0  0  0  0  0  0  0
  151.6493  145.6018  159.3503 C   0  0  0  0  0  0  0  0  0  0  0  0
  152.0958  144.2732  159.9003 C   0  0  2  0  0  0  0  0  0  0  0  0
  153.1643  143.4624  159.1928 C   0  0  0  0  0  0  0  0  0  0  0  0
  146.2960  142.1828  154.0674 H   0  0  0  0  0  0  0  0  0  0  0  0
  146.5909  140.4554  154.2223 H   0  0  0  0  0  0  0  0  0  0  0  0
  147.3496  141.3846  152.9062 H   0  0  0  0  0  0  0  0  0  0  0  0
  148.4754  139.3563  153.3740 H   0  0  0  0  0  0  0  0  0  0  0  0
  150.4895  137.9319  153.4990 H   0  0  0  0  0  0  0  0  0  0  0  0
  152.6400  137.4521  154.5200 H   0  0  0  0  0  0  0  0  0  0  0  0
  152.9624  138.1889  156.0918 H   0  0  0  0  0  0  0  0  0  0  0  0
  153.5881  138.9400  154.6181 H   0  0  0  0  0  0  0  0  0  0  0  0
  149.7896  143.1216  155.8908 H   0  0  0  0  0  0  0  0  0  0  0  0
  149.8721  144.4460  157.4270 H   0  0  0  0  0  0  0  0  0  0  0  0
  149.8861  144.4941  160.0631 H   0  0  0  0  0  0  0  0  0  0  0  0
  152.0695  145.9251  158.3995 H   0  0  0  0  0  0  0  0  0  0  0  0
  151.4548  146.3989  160.0651 H   0  0  0  0  0  0  0  0  0  0  0  0
  152.1533  144.2019  160.9849 H   0  0  0  0  0  0  0  0  0  0  0  0
  153.1285  143.6187  158.1143 H   0  0  0  0  0  0  0  0  0  0  0  0
  153.0230  142.4007  159.3958 H   0  0  0  0  0  0  0  0  0  0  0  0
  154.1515  143.7561  159.5494 H   0  0  0  0  0  0  0  0  0  0  0  0
  1  2  1  0  0  0  0
  1 18  1  0  0  0  0
  1 19  1  0  0  0  0
  1 20  1  0  0  0  0
  2  3  1  0  0  0  0
  3  9  1  0  0  0  0
  3  4  2  0  0  0  0
  4  5  1  0  0  0  0
  4 21  1  0  0  0  0
  5  6  2  0  0  0  0
  5 22  1  0  0  0  0
  6  7  1  0  0  0  0
  6  8  1  0  0  0  0
  7 23  1  0  0  0  0
  7 24  1  0  0  0  0
  7 25  1  0  0  0  0
  8  9  2  0  0  0  0
  9 10  1  0  0  0  0
 10 11  1  0  0  0  0
 10 26  1  0  0  0  0
 11 12  2  0  0  0  0
 11 13  1  0  0  0  0
 13 14  1  0  0  0  0
 13 27  1  0  0  0  0
 14 16  1  0  0  0  0
 14 15  1  0  0  0  0
 14 28  1  0  0  0  0
 15 16  1  0  0  0  0
 15 29  1  0  0  0  0
 15 30  1  0  0  0  0
 16 17  1  0  0  0  0
 16 31  1  0  0  0  0
 17 32  1  0  0  0  0
 17 33  1  0  0  0  0
 17 34  1  0  0  0  0
M  END
> <s_m_source_file>
AV-unprocessed.smi

> <i_m_source_file_index>
2222

> <i_lp_mmshare_version>
43012

> <i_f3d_flags>
0

> <s_epik_input>
W0NIM11PYzFbY0hdW2NIXWMoW0NIM10pbmMxW05IXUMoPU8pW05IXVtDQEBIXTJbQ0gyXVtDQEhdMltDSDNd

> <s_epik_cmdline>
J2VwaWtfcHl0aG9uJywgJy1waCcsICc3LjAnLCAnLXRuJywgJzgnLCAnLW1hJywgJzIwMCcsICctbWV0YWxfYmluZGluZycsICctaW1hZScsICc8aW5maWxlLm1hZT4nLCAnLW9tYWUnLCAnPG91dGZpbGUubWFlPic=

> <r_lp_tautomer_probability>
1

> <r_epik_Ionization_Penalty>
6.59103e-05

> <r_epik_Ionization_Penalty_Charging>
0

> <r_epik_Ionization_Penalty_Neutral>
6.59103e-05

> <r_epik_State_Penalty>
-0

> <r_epik_Charging_Adjusted_Penalty>
0

> <i_epik_Tot_Q>
0

> <i_epik_Tot_abs_Q>
0

> <r_epik_Metal_State_Penalty>
-0

> <b_epik_Metal_Only>
0

> <s_lp_Force_Field>
OPLS_2005

> <r_lp_Energy>
34.1661

> <b_lp_Chiralities_Consistent>
1

> <s_lp_Variant>
AV-unprocessed.smi:2222-3

> <Gold.Version>
5.8.1

> <Gold.Id.Protein>
6NUR|6NUR_protein|mol2

> <Gold.PLP.Fitness>
45.8624

> <Gold.PLP.PLP>
-40.5144

> <Gold.PLP.part.hbond>
-2.8295

> <Gold.PLP.part.metal>
0.0000

> <Gold.PLP.part.buried>
-2.1337

> <Gold.PLP.part.nonpolar>
-35.7554

> <Gold.PLP.part.repulsive>
0.2799

> <Gold.PLP.ligand.clash>
0.0000

> <Gold.PLP.ligand.torsion>
0.3450

> <Gold.PLP.Chemscore.Hbond>
2.0000

> <Gold.PLP.Chemscore.CHOScore>
0.0000

> <Gold.PLP.Chemscore.Metal>
0.0000

> <Gold.Chemscore.Hbonds>
donor molecule, donor type, donor heavy atom, donor atom, acceptor molecule, acceptor atom, score
      L1  H    10    26       P1  8028  1.00
      L1  H    13    27       P1  8028  0.95

> <Gold.PLP.Chemscore.Internal.Correction>
0.0379

> <Gold.Rescore>
     Score         DG    S(hbond)    S(metal)    S(lipo)     H(rot)  DE(clash)    DE(int)     intcor
     16.07     -17.85       1.68        0.00      84.41       1.22       0.06       1.72       ----

> <Gold.Chemscore.Fitness>
16.0696

> <Gold.Chemscore.DG>
-17.8484

> <Gold.Chemscore.ZeroCoef>
-5.4800

> <Gold.Chemscore.Hbond>
1.6788

> <Gold.Chemscore.Metal>
0.0000

> <Gold.Chemscore.Lipo>
84.4126

> <Gold.Chemscore.Internal_Hbond>
0.0000

> <Gold.Chemscore.DEClash>
0.0585

> <Gold.Chemscore.DEInternal>
1.7204

> <Gold.Chemscore.Rot>
1.2168

> <Gold.Chemscore.Internal.Correction>
   9.000000E+99

> <Gold.Chemscore.Hbonds>
donor molecule, donor type, donor heavy atom, donor atom, acceptor molecule, acceptor atom, score
      L1  H    10    26       P1  8028  0.99
      L1  H    13    27       P1  8028  0.20

> <Gold.Chemscore.Hbond.Weighted>
-5.6071

> <Gold.Chemscore.Metal.Weighted>
-0.0000

> <Gold.Chemscore.Lipo.Weighted>
-9.8763

> <Gold.Chemscore.Internal_Hbond.Weighted>
0.0000

> <Gold.Chemscore.DEClash.Weighted>
0.0585

> <Gold.Chemscore.DEInternal.Weighted>
1.7204

> <Gold.Chemscore.Rot.Weighted>
3.1150

> <Gold.Chemscore.Internal.Correction.Weighted>
   9.000000E+99

> <Gold.Protein.RotatedTorsions>
[ 6907 6896 6895 6894 ] final  133.00 input  -60.11 | X-H torsion
[ 7974 7965 7964 7962 ] final   20.34 input  175.53 | X-H torsion
[ 8008 7997 7996 7995 ] final  164.80 input   59.86 | X-H torsion
[ 10167 10162 10161 10158 ] final  130.37 input  -65.29 | X-H torsion
[ 10718 10713 10712 10709 ] final -157.92 input   66.30 | X-H torsion
[ 10763 10752 10751 10750 ] final   52.02 input  -60.55 | X-H torsion
[ 11005 11000 10999 10996 ] final  109.07 input  -57.11 | X-H torsion

> <Gold.Protein.ActiveResidues>
 VAL166  LYS551  ARG553  GLY616  TRP617  ASP618  TYR619  PRO620  LYS621  CYS622 
 ASP623  PHE694  ASN695  SER759  ASP760  ASP761  ALA762  ILE779  LEU786  VAL792 
 PHE793  MET794  SER795  GLU796  ALA797  LYS798  CYS799  TRP800  GLU811  SER814 

> <Gold.Protein.RotatedAtoms>
  152.3265  133.5911  159.5779 H   0  0  0  0  0  0  0  0  0  0  0  0  # atno 6907 bound_to 6896
  150.7399  133.9933  159.3623 H   0  0  0  0  0  0  0  0  0  0  0  0  # atno 6908 bound_to 6896
  151.7812  135.0761  160.0425 H   0  0  0  0  0  0  0  0  0  0  0  0  # atno 6909 bound_to 6896
  146.2115  139.8183  142.8685 H   0  0  0  0  0  0  0  0  0  0  0  0  # atno 7974 bound_to 7965
  156.1852  140.1687  156.8199 H   0  0  0  0  0  0  0  0  0  0  0  0  # atno 8008 bound_to 7997
  154.5405  140.0737  156.8534 H   0  0  0  0  0  0  0  0  0  0  0  0  # atno 8009 bound_to 7997
  155.3224  140.3374  155.4243 H   0  0  0  0  0  0  0  0  0  0  0  0  # atno 8010 bound_to 7997
  139.5433  144.6750  151.4554 H   0  0  0  0  0  0  0  0  0  0  0  0  # atno 10167 bound_to 10162
  156.5470  130.8588  151.2767 H   0  0  0  0  0  0  0  0  0  0  0  0  # atno 10718 bound_to 10713
  152.9787  135.5826  154.4510 H   0  0  0  0  0  0  0  0  0  0  0  0  # atno 10763 bound_to 10752
  154.4099  135.2770  155.2045 H   0  0  0  0  0  0  0  0  0  0  0  0  # atno 10764 bound_to 10752
  154.3840  135.6140  153.5860 H   0  0  0  0  0  0  0  0  0  0  0  0  # atno 10765 bound_to 10752
  139.8855  134.9448  156.6070 H   0  0  0  0  0  0  0  0  0  0  0  0  # atno 11005 bound_to 11000
  145.3123  141.0223  143.3547 LP  0  0  0  0  0  0  0  0  0  0  0  0  # atno 17320 bound_to 7965
  144.8927  139.4754  143.6670 LP  0  0  0  0  0  0  0  0  0  0  0  0  # atno 17321 bound_to 7965
  140.6672  143.8373  150.6955 LP  0  0  0  0  0  0  0  0  0  0  0  0  # atno 17342 bound_to 10162
  140.1786  143.4134  152.1949 LP  0  0  0  0  0  0  0  0  0  0  0  0  # atno 17343 bound_to 10162
  157.7395  130.9832  150.2316 LP  0  0  0  0  0  0  0  0  0  0  0  0  # atno 17370 bound_to 10713
  156.2919  130.3747  149.7833 LP  0  0  0  0  0  0  0  0  0  0  0  0  # atno 17371 bound_to 10713
  140.7840  133.8636  155.8591 LP  0  0  0  0  0  0  0  0  0  0  0  0  # atno 17394 bound_to 11000
  140.9735  134.1500  157.4556 LP  0  0  0  0  0  0  0  0  0  0  0  0  # atno 17395 bound_to 11000

$$$$
