#       Name:                AV-unprocessed.smi:33
#       Creating user name   scv26
#       Creation time:       Thu Mar 26 15:51:06 2020


#       File generated by GOLD software.
#

@<TRIPOS>MOLECULE
AV-unprocessed.smi:33
    80    85     1
SMALL
NO_CHARGES


@<TRIPOS>ATOM
      1 ****        -7.4847  -0.3993  -2.4005 O.2            1 S1                 0.0000
      2 ****        -7.5080   0.1433  -1.2939 C.2            1 S1                 0.0000
      3 ****        -6.4004   0.5144  -0.6223 O.3            1 S1                 0.0000
      4 ****        -5.1201   0.2952  -1.1918 C.3            1 S1                 0.0000
      5 ****        -4.0323   0.7017  -0.1842 C.3            1 S1                 0.0000
      6 ****        -2.7695   0.6808  -0.8340 O.3            1 S1                 0.0000
      7 ****        -2.2008  -0.5892  -0.7289 C.3            1 S1                 0.0000
      8 ****        -0.7505  -0.3940  -0.4401 N.pl3          1 S1                 0.0000
      9 ****        -0.1682   0.4081   0.5177 C.2            1 S1                 0.0000
     10 ****         1.1376   0.3945   0.5382 N.2            1 S1                 0.0000
     11 ****         1.4794  -0.4791  -0.4862 C.ar           1 S1                 0.0000
     12 ****         2.7107  -0.9479  -1.0173 C.ar           1 S1                 0.0000
     13 ****         3.9140  -0.5626  -0.5323 N.am           1 S1                 0.0000
     14 ****         4.2949  -1.0779   0.7910 C.2            1 S1                 0.0000
     15 ****         3.7996  -2.1302   1.1992 O.2            1 S1                 0.0000
     16 ****         5.3147  -0.3572   1.6267 C.ar           1 S1                 0.0000
     17 ****         6.3604  -1.0791   2.2428 C.ar           1 S1                 0.0000
     18 ****         7.3109  -0.4115   3.0392 C.ar           1 S1                 0.0000
     19 ****         7.2112   0.9784   3.2399 C.ar           1 S1                 0.0000
     20 ****         6.1547   1.6996   2.6520 C.ar           1 S1                 0.0000
     21 ****         5.2041   1.0331   1.8552 C.ar           1 S1                 0.0000
     22 ****         4.7237   0.3315  -1.3732 C.2            1 S1                 0.0000
     23 ****         4.1685   1.0434  -2.2124 O.2            1 S1                 0.0000
     24 ****         6.2110   0.4255  -1.1802 C.ar           1 S1                 0.0000
     25 ****         6.8345   1.6906  -1.1088 C.ar           1 S1                 0.0000
     26 ****         8.2295   1.7867  -0.9412 C.ar           1 S1                 0.0000
     27 ****         9.0120   0.6191  -0.8632 C.ar           1 S1                 0.0000
     28 ****         8.4005  -0.6451  -0.9619 C.ar           1 S1                 0.0000
     29 ****         7.0054  -0.7422  -1.1287 C.ar           1 S1                 0.0000
     30 ****         2.6664  -1.8193  -2.0583 N.ar           1 S1                 0.0000
     31 ****         1.4853  -2.2100  -2.5469 C.ar           1 S1                 0.0000
     32 ****         0.2593  -1.8581  -2.1511 N.ar           1 S1                 0.0000
     33 ****         0.3028  -0.9793  -1.1078 C.ar           1 S1                 0.0000
     34 ****        -2.8847  -1.3224   0.4389 C.3            1 S1                 0.0000
     35 ****        -3.5832  -2.4727   0.0069 O.3            1 S1                 0.0000
     36 ****        -3.8588  -0.2815   0.9744 C.3            1 S1                 0.0000
     37 ****        -3.3049   0.3523   2.0093 F              1 S1                 0.0000
     38 ****        -8.7668   0.4565  -0.5579 C.ar           1 S1                 0.0000
     39 ****       -10.0090   0.0776  -1.1183 C.ar           1 S1                 0.0000
     40 ****       -11.2151   0.3617  -0.4488 C.ar           1 S1                 0.0000
     41 ****       -11.1937   1.0298   0.7892 C.ar           1 S1                 0.0000
     42 ****        -9.9646   1.4124   1.3575 C.ar           1 S1                 0.0000
     43 ****        -8.7573   1.1276   0.6900 C.ar           1 S1                 0.0000
     44 ****        -5.0060  -0.7482  -1.4882 H              1 S1                 0.0000
     45 ****        -5.0297   0.9007  -2.0946 H              1 S1                 0.0000
     46 ****        -4.2347   1.7114   0.1757 H              1 S1                 0.0000
     47 ****        -2.2506  -1.1215  -1.6797 H              1 S1                 0.0000
     48 ****        -0.7469   1.0093   1.2037 H              1 S1                 0.0000
     49 ****         6.4468  -2.1459   2.0956 H              1 S1                 0.0000
     50 ****         8.1158  -0.9670   3.4974 H              1 S1                 0.0000
     51 ****         7.9407   1.4899   3.8505 H              1 S1                 0.0000
     52 ****         6.0722   2.7642   2.8131 H              1 S1                 0.0000
     53 ****         4.3947   1.5963   1.4134 H              1 S1                 0.0000
     54 ****         6.2435   2.5934  -1.1668 H              1 S1                 0.0000
     55 ****         8.6989   2.7569  -0.8733 H              1 S1                 0.0000
     56 ****        10.0818   0.6934  -0.7347 H              1 S1                 0.0000
     57 ****         9.0013  -1.5410  -0.9109 H              1 S1                 0.0000
     58 ****         6.5476  -1.7177  -1.2081 H              1 S1                 0.0000
     59 ****         1.5288  -2.9030  -3.3740 H              1 S1                 0.0000
     60 ****        -2.1601  -1.6258   1.1967 H              1 S1                 0.0000
     61 ****        -2.9575  -3.0910  -0.3391 H              1 S1                 0.0000
     62 ****        -4.7998  -0.6999   1.3347 H              1 S1                 0.0000
     63 ****       -10.0509  -0.4362  -2.0679 H              1 S1                 0.0000
     64 ****       -12.1572   0.0667  -0.8867 H              1 S1                 0.0000
     65 ****       -12.1186   1.2488   1.3021 H              1 S1                 0.0000
     66 ****        -9.9473   1.9262   2.3073 H              1 S1                 0.0000
     67 ****        -7.8318   1.4369   1.1535 H              1 S1                 0.0000
     68 ****        -6.6099  -0.5862  -2.8474 LP             1 S1                 0.0000
     69 ****        -8.3406  -0.6526  -2.8513 LP             1 S1                 0.0000
     70 ****        -2.1646   1.3513  -0.4043 LP             1 S1                 0.0000
     71 ****        -2.8899   0.9110  -1.7996 LP             1 S1                 0.0000
     72 ****         1.7494   0.8965   1.1496 LP             1 S1                 0.0000
     73 ****         3.1435  -2.6273   0.6314 LP             1 S1                 0.0000
     74 ****         4.0539  -2.4869   2.0982 LP             1 S1                 0.0000
     75 ****         3.1746   1.0101  -2.3174 LP             1 S1                 0.0000
     76 ****         4.7120   1.6542  -2.7882 LP             1 S1                 0.0000
     77 ****         3.5145  -2.1673  -2.4577 LP             1 S1                 0.0000
     78 ****        -0.5849  -2.1962  -2.5671 LP             1 S1                 0.0000
     79 ****        -4.2387  -2.2217  -0.7053 LP             1 S1                 0.0000
     80 ****        -4.0700  -2.8816   0.7789 LP             1 S1                 0.0000
@<TRIPOS>BOND
    1    1    2 2     
    2    2    3 1     
    3    2   38 1     
    4    3    4 1     
    5    4    5 1     
    6    4   44 1     
    7    4   45 1     
    8    5   36 1     
    9    5    6 1     
   10    5   46 1     
   11    6    7 1     
   12    7    8 1     
   13    7   34 1     
   14    7   47 1     
   15    8   33 1     
   16    8    9 1     
   17    9   10 2     
   18    9   48 1     
   19   10   11 1     
   20   11   33 ar    
   21   11   12 ar    
   22   12   13 1     
   23   12   30 ar    
   24   13   14 am    
   25   13   22 am    
   26   14   15 2     
   27   14   16 1     
   28   16   21 ar    
   29   16   17 ar    
   30   17   18 ar    
   31   17   49 1     
   32   18   19 ar    
   33   18   50 1     
   34   19   20 ar    
   35   19   51 1     
   36   20   21 ar    
   37   20   52 1     
   38   21   53 1     
   39   22   23 2     
   40   22   24 1     
   41   24   29 ar    
   42   24   25 ar    
   43   25   26 ar    
   44   25   54 1     
   45   26   27 ar    
   46   26   55 1     
   47   27   28 ar    
   48   27   56 1     
   49   28   29 ar    
   50   28   57 1     
   51   29   58 1     
   52   30   31 ar    
   53   31   32 ar    
   54   31   59 1     
   55   32   33 ar    
   56   34   35 1     
   57   34   36 1     
   58   34   60 1     
   59   35   61 1     
   60   36   37 1     
   61   36   62 1     
   62   38   43 ar    
   63   38   39 ar    
   64   39   40 ar    
   65   39   63 1     
   66   40   41 ar    
   67   40   64 1     
   68   41   42 ar    
   69   41   65 1     
   70   42   43 ar    
   71   42   66 1     
   72   43   67 1     
   73    1   68 1     
   74    1   69 1     
   75    6   70 1     
   76    6   71 1     
   77   10   72 1     
   78   15   73 1     
   79   15   74 1     
   80   23   75 1     
   81   23   76 1     
   82   30   77 1     
   83   32   78 1     
   84   35   79 1     
   85   35   80 1     
@<TRIPOS>SUBSTRUCTURE
      1 S1             1
@<TRIPOS>SET
LONE_PAIRS      STATIC     ATOMS    <user>   **** ""
13 68 69 70 71 72 73 74 75 76 77 78 79 80
DONOR_HYDROGENS      STATIC     ATOMS    <user>   **** ""
1 61
ATOM$BLUE        STATIC     ATOMS    COLORGROUP SYSTEM
13 68 69 70 71 72 73 74 75 76 77 78 79 80
ATOM$RED        STATIC     ATOMS    COLORGROUP SYSTEM
1 61
