#       Name:                AV-unprocessed.smi:3255
#       Creating user name   scv26
#       Creation time:       Fri Mar 27 18:35:56 2020


#       File generated by GOLD software.
#

@<TRIPOS>MOLECULE
AV-unprocessed.smi:3255
    43    44     1
SMALL
NO_CHARGES


@<TRIPOS>ATOM
      1 ****        -2.1662  -1.2265  -2.7240 C.3            1 S1                 0.0000
      2 ****        -1.5212  -0.4423  -1.5709 C.3            1 S1                 0.0000
      3 ****        -0.0769  -0.4016  -1.7863 N.am           1 S1                 0.0000
      4 ****         0.7225   0.6300  -1.4811 C.2            1 S1                 0.0000
      5 ****         0.3247   1.7044  -1.0305 O.2            1 S1                 0.0000
      6 ****         2.0128   0.3372  -1.6955 N.am           1 S1                 0.0000
      7 ****         3.1367   1.2093  -1.3668 C.3            1 S1                 0.0000
      8 ****         3.7278   0.8890   0.0193 C.3            1 S1                 0.0000
      9 ****         2.8213   1.2150   1.1049 N.pl3          1 S1                 0.0000
     10 ****         2.0349   0.3333   1.8354 C.2            1 S1                 0.0000
     11 ****         1.3374   1.0923   2.7474 C.2            1 S1                 0.0000
     12 ****         1.6814   2.4341   2.6021 N.2            1 S1                 0.0000
     13 ****         2.5640   2.4286   1.6114 C.2            1 S1                 0.0000
     14 ****        -1.8275  -1.0696  -0.1939 C.3            1 S1                 0.0000
     15 ****        -3.3098  -1.0992   0.1806 C.3            1 S1                 0.0000
     16 ****        -3.2954  -1.1484   1.7005 C.3            1 S1                 0.0000
     17 ****        -1.8719  -0.7260   2.0742 C.3            1 S1                 0.0000
     18 ****        -1.2839  -0.2868   0.8585 O.3            1 S1                 0.0000
     19 ****        -3.2532  -1.2293  -2.6431 H              1 S1                 0.0000
     20 ****        -1.8304  -2.2641  -2.7360 H              1 S1                 0.0000
     21 ****        -1.9143  -0.7835  -3.6882 H              1 S1                 0.0000
     22 ****        -1.9227   0.5725  -1.5954 H              1 S1                 0.0000
     23 ****         0.3501  -1.2402  -2.1513 H              1 S1                 0.0000
     24 ****         2.2372  -0.5726  -2.0707 H              1 S1                 0.0000
     25 ****         3.9030   1.0550  -2.1267 H              1 S1                 0.0000
     26 ****         2.8532   2.2612  -1.4321 H              1 S1                 0.0000
     27 ****         3.9960  -0.1662   0.0872 H              1 S1                 0.0000
     28 ****         4.6482   1.4549   0.1677 H              1 S1                 0.0000
     29 ****         2.0284  -0.7297   1.6449 H              1 S1                 0.0000
     30 ****         0.6192   0.7778   3.4900 H              1 S1                 0.0000
     31 ****         3.0317   3.3295   1.2422 H              1 S1                 0.0000
     32 ****        -1.4099  -2.0767  -0.1328 H              1 S1                 0.0000
     33 ****        -3.7992  -0.1817  -0.1491 H              1 S1                 0.0000
     34 ****        -3.8403  -1.9419  -0.2634 H              1 S1                 0.0000
     35 ****        -4.0423  -0.4738   2.1203 H              1 S1                 0.0000
     36 ****        -3.5052  -2.1533   2.0683 H              1 S1                 0.0000
     37 ****        -1.8519   0.0647   2.8245 H              1 S1                 0.0000
     38 ****        -1.3066  -1.5756   2.4599 H              1 S1                 0.0000
     39 ****        -0.6519   1.8486  -0.8705 LP             1 S1                 0.0000
     40 ****         0.9780   2.4329  -0.8246 LP             1 S1                 0.0000
     41 ****         1.3425   3.2179   3.1224 LP             1 S1                 0.0000
     42 ****        -1.4949   0.6791   0.7080 LP             1 S1                 0.0000
     43 ****        -0.2922  -0.4094   0.8964 LP             1 S1                 0.0000
@<TRIPOS>BOND
    1    1    2 1     
    2    1   19 1     
    3    1   20 1     
    4    1   21 1     
    5    2    3 1     
    6    2   14 1     
    7    2   22 1     
    8    3    4 am    
    9    3   23 1     
   10    4    5 2     
   11    4    6 am    
   12    6    7 1     
   13    6   24 1     
   14    7    8 1     
   15    7   25 1     
   16    7   26 1     
   17    8    9 1     
   18    8   27 1     
   19    8   28 1     
   20    9   13 1     
   21    9   10 1     
   22   10   11 2     
   23   10   29 1     
   24   11   12 1     
   25   11   30 1     
   26   12   13 2     
   27   13   31 1     
   28   14   18 1     
   29   14   15 1     
   30   14   32 1     
   31   15   16 1     
   32   15   33 1     
   33   15   34 1     
   34   16   17 1     
   35   16   35 1     
   36   16   36 1     
   37   17   18 1     
   38   17   37 1     
   39   17   38 1     
   40    5   39 1     
   41    5   40 1     
   42   12   41 1     
   43   18   42 1     
   44   18   43 1     
@<TRIPOS>SUBSTRUCTURE
      1 S1             1
@<TRIPOS>SET
LONE_PAIRS      STATIC     ATOMS    <user>   **** ""
5 39 40 41 42 43
DONOR_HYDROGENS      STATIC     ATOMS    <user>   **** ""
2 23 24
ATOM$BLUE        STATIC     ATOMS    COLORGROUP SYSTEM
5 39 40 41 42 43
ATOM$RED        STATIC     ATOMS    COLORGROUP SYSTEM
2 23 24
