#       Name:                AV-unprocessed.smi:1222
#       Creating user name   scv26
#       Creation time:       Fri Mar 27 04:18:09 2020


#       File generated by GOLD software.
#

@<TRIPOS>MOLECULE
AV-unprocessed.smi:1222
    40    42     1
SMALL
NO_CHARGES


@<TRIPOS>ATOM
      1 ****        -1.8836   2.1569   0.9082 O.2            1 S1                 0.0000
      2 ****        -2.4190   1.0987   0.5704 C.2            1 S1                 0.0000
      3 ****        -3.7361   0.9046   0.3354 N.pl3          1 S1                -1.0000
      4 ****        -4.5980   1.9273   0.4578 C.2            1 S1                 0.0000
      5 ****        -5.0497   2.6290  -0.5880 N.2            1 S1                 0.0000
      6 ****        -5.9406   3.6433  -0.2325 C.2            1 S1                 0.0000
      7 ****        -6.1789   3.7105   1.1146 C.2            1 S1                 0.0000
      8 ****        -5.2872   2.4931   1.9821 S.3            1 S1                 0.0000
      9 ****        -1.6745  -0.0032   0.4008 N.am           1 S1                 0.0000
     10 ****        -0.2288  -0.0972   0.5793 C.3            1 S1                 0.0000
     11 ****         0.5131   0.4496  -0.6553 C.3            1 S1                 0.0000
     12 ****         2.0313   0.2498  -0.5236 C.3            1 S1                 0.0000
     13 ****         2.3620  -1.1795  -0.3013 N.4            1 S1                 1.0000
     14 ****         3.8214  -1.4193  -0.2887 C.3            1 S1                 0.0000
     15 ****         4.4246  -1.5740  -1.6654 C.3            1 S1                 0.0000
     16 ****         4.2162  -2.7893  -0.7893 C.3            1 S1                 0.0000
     17 ****         1.6967  -1.7143   0.9124 C.3            1 S1                 0.0000
     18 ****         0.1699  -1.5633   0.8150 C.3            1 S1                 0.0000
     19 ****        -6.3578   4.2719  -1.0052 H              1 S1                 0.0000
     20 ****        -6.8207   4.3960   1.6468 H              1 S1                 0.0000
     21 ****        -2.1582  -0.8457   0.1264 H              1 S1                 0.0000
     22 ****         0.0616   0.4820   1.4580 H              1 S1                 0.0000
     23 ****         0.1577  -0.0548  -1.5554 H              1 S1                 0.0000
     24 ****         0.2950   1.5096  -0.7897 H              1 S1                 0.0000
     25 ****         2.5239   0.6033  -1.4300 H              1 S1                 0.0000
     26 ****         2.4189   0.8481   0.3024 H              1 S1                 0.0000
     27 ****         4.3837  -0.9391   0.5103 H              1 S1                 0.0000
     28 ****         3.7730  -1.4608  -2.5302 H              1 S1                 0.0000
     29 ****         5.4476  -1.2309  -1.8066 H              1 S1                 0.0000
     30 ****         5.1022  -3.2476  -0.3543 H              1 S1                 0.0000
     31 ****         3.4259  -3.4825  -1.0724 H              1 S1                 0.0000
     32 ****         1.9502  -2.7678   1.0349 H              1 S1                 0.0000
     33 ****         2.0710  -1.1932   1.7952 H              1 S1                 0.0000
     34 ****        -0.2970  -1.9360   1.7276 H              1 S1                 0.0000
     35 ****        -0.2037  -2.1857   0.0001 H              1 S1                 0.0000
     36 ****         1.9889  -1.6906  -1.0886 H              1 S1                 0.0000
     37 ****        -2.4377   2.9800   1.0331 LP             1 S1                 0.0000
     38 ****        -0.8954   2.1920   1.0571 LP             1 S1                 0.0000
     39 ****        -4.0686  -0.0005   0.0704 LP             1 S1                 0.0000
     40 ****        -4.7759   2.4449  -1.5320 LP             1 S1                 0.0000
@<TRIPOS>BOND
    1    1    2 2     
    2    2    3 1     
    3    2    9 am    
    4    3    4 1     
    5    4    8 1     
    6    4    5 2     
    7    5    6 1     
    8    6    7 2     
    9    6   19 1     
   10    7    8 1     
   11    7   20 1     
   12    9   10 1     
   13    9   21 1     
   14   10   18 1     
   15   10   11 1     
   16   10   22 1     
   17   11   12 1     
   18   11   23 1     
   19   11   24 1     
   20   12   13 1     
   21   12   25 1     
   22   12   26 1     
   23   13   14 1     
   24   13   17 1     
   25   13   36 1     
   26   14   16 1     
   27   14   15 1     
   28   14   27 1     
   29   15   16 1     
   30   15   28 1     
   31   15   29 1     
   32   16   30 1     
   33   16   31 1     
   34   17   18 1     
   35   17   32 1     
   36   17   33 1     
   37   18   34 1     
   38   18   35 1     
   39    1   37 1     
   40    1   38 1     
   41    3   39 1     
   42    5   40 1     
@<TRIPOS>SUBSTRUCTURE
      1 S1             1
@<TRIPOS>SET
LONE_PAIRS      STATIC     ATOMS    <user>   **** ""
4 37 38 39 40
DONOR_HYDROGENS      STATIC     ATOMS    <user>   **** ""
2 21 36
ATOM$BLUE        STATIC     ATOMS    COLORGROUP SYSTEM
4 37 38 39 40
ATOM$RED        STATIC     ATOMS    COLORGROUP SYSTEM
2 21 36
