AV-unprocessed.smi:756|AV-procd|sdf|3612|dock6
  -GOLD-   22720 1 13D 1   1.00000     0.00000
 Structure written by MMmdl.
 42 43  0  0  0  0  0  0  0  0  1 V2000
  151.6367  143.7627  160.5254 C   0  0  0  0  0  0  0  0  0  0  0  0
  152.6042  142.8502  159.7923 C   0  0  0  0  0  0  0  0  0  0  0  0
  153.7331  142.3439  160.2994 C   0  0  0  0  0  0  0  0  0  0  0  0
  154.5734  141.3056  159.1740 S   0  0  0  0  0  0  0  0  0  0  0  0
  153.2900  141.5865  157.9431 C   0  0  0  0  0  0  0  0  0  0  0  0
  153.3134  141.0733  156.8257 O   0  0  0  0  0  0  0  0  0  0  0  0
  152.3322  142.4485  158.4769 N   0  0  0  0  0  0  0  0  0  0  0  0
  151.1532  142.8894  157.7195 C   0  0  0  0  0  0  0  0  0  0  0  0
  150.2651  141.7279  157.2539 C   0  0  0  0  0  0  0  0  0  0  0  0
  149.7002  140.9939  158.0660 O   0  0  0  0  0  0  0  0  0  0  0  0
  150.1379  141.5849  155.9278 N   0  0  0  0  0  0  0  0  0  0  0  0
  149.3386  140.5509  155.2798 C   0  0  0  0  0  0  0  0  0  0  0  0
  148.3965  141.1137  154.1848 C   0  0  1  0  0  0  0  0  0  0  0  0
  147.2347  141.9370  154.7841 C   0  0  0  0  0  0  0  0  0  0  0  0
  149.1674  141.9794  153.3712 O   0  0  0  0  0  0  0  0  0  0  0  0
  147.8501  139.9560  153.2993 C   0  0  0  0  0  0  0  0  0  0  0  0
  146.8847  140.3667  152.1783 C   0  0  0  0  0  0  0  0  0  0  0  0
  146.2455  139.0520  151.7329 C   0  0  0  0  0  0  0  0  0  0  0  0
  146.1779  138.1769  152.9907 C   0  0  0  0  0  0  0  0  0  0  0  0
  147.0872  138.8399  154.0365 C   0  0  0  0  0  0  0  0  0  0  0  0
  151.8446  143.7550  161.5959 H   0  0  0  0  0  0  0  0  0  0  0  0
  150.6037  143.4413  160.3903 H   0  0  0  0  0  0  0  0  0  0  0  0
  151.7366  144.7881  160.1689 H   0  0  0  0  0  0  0  0  0  0  0  0
  154.1230  142.5159  161.2919 H   0  0  0  0  0  0  0  0  0  0  0  0
  150.5524  143.5901  158.2985 H   0  0  0  0  0  0  0  0  0  0  0  0
  151.4813  143.4502  156.8423 H   0  0  0  0  0  0  0  0  0  0  0  0
  150.6360  142.2229  155.3244 H   0  0  0  0  0  0  0  0  0  0  0  0
  150.0074  139.7937  154.8671 H   0  0  0  0  0  0  0  0  0  0  0  0
  148.7414  140.0551  156.0472 H   0  0  0  0  0  0  0  0  0  0  0  0
  146.6196  141.3231  155.4426 H   0  0  0  0  0  0  0  0  0  0  0  0
  146.5838  142.3412  154.0088 H   0  0  0  0  0  0  0  0  0  0  0  0
  147.5894  142.7893  155.3645 H   0  0  0  0  0  0  0  0  0  0  0  0
  149.1886  141.6275  152.4944 H   0  0  0  0  0  0  0  0  0  0  0  0
  148.7058  139.4821  152.8147 H   0  0  0  0  0  0  0  0  0  0  0  0
  146.1121  141.0354  152.5598 H   0  0  0  0  0  0  0  0  0  0  0  0
  147.3861  140.8741  151.3536 H   0  0  0  0  0  0  0  0  0  0  0  0
  145.2671  139.2017  151.2755 H   0  0  0  0  0  0  0  0  0  0  0  0
  146.8848  138.5720  150.9906 H   0  0  0  0  0  0  0  0  0  0  0  0
  145.1557  138.1160  153.3659 H   0  0  0  0  0  0  0  0  0  0  0  0
  146.5032  137.1600  152.7682 H   0  0  0  0  0  0  0  0  0  0  0  0
  147.7649  138.1192  154.4950 H   0  0  0  0  0  0  0  0  0  0  0  0
  146.4678  139.2522  154.8334 H   0  0  0  0  0  0  0  0  0  0  0  0
  1  2  1  0  0  0  0
  1 21  1  0  0  0  0
  1 22  1  0  0  0  0
  1 23  1  0  0  0  0
  2  7  1  0  0  0  0
  2  3  2  0  0  0  0
  3  4  1  0  0  0  0
  3 24  1  0  0  0  0
  4  5  1  0  0  0  0
  5  6  2  0  0  0  0
  5  7  1  0  0  0  0
  7  8  1  0  0  0  0
  8  9  1  0  0  0  0
  8 25  1  0  0  0  0
  8 26  1  0  0  0  0
  9 10  2  0  0  0  0
  9 11  1  0  0  0  0
 11 12  1  0  0  0  0
 11 27  1  0  0  0  0
 12 13  1  0  0  0  0
 12 28  1  0  0  0  0
 12 29  1  0  0  0  0
 13 14  1  0  0  0  0
 13 15  1  0  0  0  0
 13 16  1  0  0  0  0
 14 30  1  0  0  0  0
 14 31  1  0  0  0  0
 14 32  1  0  0  0  0
 15 33  1  0  0  0  0
 16 20  1  0  0  0  0
 16 17  1  0  0  0  0
 16 34  1  0  0  0  0
 17 18  1  0  0  0  0
 17 35  1  0  0  0  0
 17 36  1  0  0  0  0
 18 19  1  0  0  0  0
 18 37  1  0  0  0  0
 18 38  1  0  0  0  0
 19 20  1  0  0  0  0
 19 39  1  0  0  0  0
 19 40  1  0  0  0  0
 20 41  1  0  0  0  0
 20 42  1  0  0  0  0
M  END
> <s_m_source_file>
AV-unprocessed.smi

> <i_m_source_file_index>
756

> <i_lp_mmshare_version>
43012

> <i_f3d_flags>
0

> <s_epik_input>
W0NIM11jMVtjSF1zYyg9TyluMVtDSDJdQyg9TylbTkhdW0NIMl1bQ0BAXShbQ0gzXSkoW09IXSlbQ0hdMltDSDJdW0NIMl1bQ0gyXVtDSDJdMg==

> <s_epik_cmdline>
J2VwaWtfcHl0aG9uJywgJy1waCcsICc3LjAnLCAnLXRuJywgJzgnLCAnLW1hJywgJzIwMCcsICctbWV0YWxfYmluZGluZycsICctaW1hZScsICc8aW5maWxlLm1hZT4nLCAnLW9tYWUnLCAnPG91dGZpbGUubWFlPic=

> <r_lp_tautomer_probability>
1

> <r_epik_Ionization_Penalty>
1.53576e-06

> <r_epik_Ionization_Penalty_Charging>
1.31044e-06

> <r_epik_Ionization_Penalty_Neutral>
2.25323e-07

> <r_epik_State_Penalty>
-0

> <r_epik_Charging_Adjusted_Penalty>
1.31044e-06

> <i_epik_Tot_Q>
0

> <i_epik_Tot_abs_Q>
0

> <r_epik_Metal_State_Penalty>
-0

> <b_epik_Metal_Only>
0

> <s_lp_Force_Field>
OPLS_2005

> <r_lp_Energy>
32.8559

> <b_lp_Chiralities_Consistent>
1

> <s_lp_Variant>
AV-unprocessed.smi:756-1

> <Gold.Version>
5.8.1

> <Gold.Id.Protein>
6NUR|6NUR_protein|mol2

> <Gold.PLP.Fitness>
49.3299

> <Gold.PLP.PLP>
-41.1359

> <Gold.PLP.part.hbond>
-3.6888

> <Gold.PLP.part.metal>
0.0000

> <Gold.PLP.part.buried>
-2.1245

> <Gold.PLP.part.nonpolar>
-35.9842

> <Gold.PLP.part.repulsive>
0.1531

> <Gold.PLP.ligand.clash>
0.0000

> <Gold.PLP.ligand.torsion>
0.2133

> <Gold.PLP.Chemscore.Hbond>
2.8581

> <Gold.PLP.Chemscore.CHOScore>
0.0000

> <Gold.PLP.Chemscore.Metal>
0.0000

> <Gold.Chemscore.Hbonds>
donor molecule, donor type, donor heavy atom, donor atom, acceptor molecule, acceptor atom, score
      L1  H    15    33       P1  7957  0.84
      P1  H  7997  8009       L1     6  0.14

> <Gold.PLP.Chemscore.Internal.Correction>
0.0462

> <Gold.Rescore>
     Score         DG    S(hbond)    S(metal)    S(lipo)     H(rot)  DE(clash)    DE(int)     intcor
     16.08     -16.88       1.88        0.00      95.58       2.37       0.14       0.66       ----

> <Gold.Chemscore.Fitness>
16.0753

> <Gold.Chemscore.DG>
-16.8810

> <Gold.Chemscore.ZeroCoef>
-5.4800

> <Gold.Chemscore.Hbond>
1.8831

> <Gold.Chemscore.Metal>
0.0000

> <Gold.Chemscore.Lipo>
95.5795

> <Gold.Chemscore.Internal_Hbond>
0.0000

> <Gold.Chemscore.DEClash>
0.1432

> <Gold.Chemscore.DEInternal>
0.6625

> <Gold.Chemscore.Rot>
2.3717

> <Gold.Chemscore.Internal.Correction>
   9.000000E+99

> <Gold.Chemscore.Hbonds>
donor molecule, donor type, donor heavy atom, donor atom, acceptor molecule, acceptor atom, score
      L1  H    15    33       P1  7957  0.79
      P1  H  7997  8009       L1     6  0.06

> <Gold.Chemscore.Hbond.Weighted>
-6.2897

> <Gold.Chemscore.Metal.Weighted>
-0.0000

> <Gold.Chemscore.Lipo.Weighted>
-11.1828

> <Gold.Chemscore.Internal_Hbond.Weighted>
0.0000

> <Gold.Chemscore.DEClash.Weighted>
0.1432

> <Gold.Chemscore.DEInternal.Weighted>
0.6625

> <Gold.Chemscore.Rot.Weighted>
6.0715

> <Gold.Chemscore.Internal.Correction.Weighted>
   9.000000E+99

> <Gold.Protein.RotatedTorsions>
[ 6907 6896 6895 6894 ] final -121.76 input  -60.11 | X-H torsion
[ 7974 7965 7964 7962 ] final  144.52 input  175.53 | X-H torsion
[ 8008 7997 7996 7995 ] final  162.80 input   59.86 | X-H torsion
[ 10167 10162 10161 10158 ] final   25.47 input  -65.29 | X-H torsion
[ 10718 10713 10712 10709 ] final   68.68 input   66.30 | X-H torsion
[ 10763 10752 10751 10750 ] final   33.91 input  -60.55 | X-H torsion
[ 11005 11000 10999 10996 ] final   -3.60 input  -57.11 | X-H torsion

> <Gold.Protein.ActiveResidues>
 VAL166  LYS551  ARG553  GLY616  TRP617  ASP618  TYR619  PRO620  LYS621  CYS622 
 ASP623  PHE694  ASN695  SER759  ASP760  ASP761  ALA762  ILE779  LEU786  VAL792 
 PHE793  MET794  SER795  GLU796  ALA797  LYS798  CYS799  TRP800  GLU811  SER814 

> <Gold.Protein.RotatedAtoms>
  150.8513  133.7783  159.3024 H   0  0  0  0  0  0  0  0  0  0  0  0  # atno 6907 bound_to 6896
  151.5454  135.1066  159.9946 H   0  0  0  0  0  0  0  0  0  0  0  0  # atno 6908 bound_to 6896
  152.4555  133.7671  159.6834 H   0  0  0  0  0  0  0  0  0  0  0  0  # atno 6909 bound_to 6896
  144.8829  139.5672  143.5834 H   0  0  0  0  0  0  0  0  0  0  0  0  # atno 7974 bound_to 7965
  156.2004  140.1740  156.7910 H   0  0  0  0  0  0  0  0  0  0  0  0  # atno 8008 bound_to 7997
  154.5585  140.0704  156.8812 H   0  0  0  0  0  0  0  0  0  0  0  0  # atno 8009 bound_to 7997
  155.2893  140.3354  155.4256 H   0  0  0  0  0  0  0  0  0  0  0  0  # atno 8010 bound_to 7997
  140.5103  144.0171  150.6370 H   0  0  0  0  0  0  0  0  0  0  0  0  # atno 10167 bound_to 10162
  157.6303  130.9386  150.0410 H   0  0  0  0  0  0  0  0  0  0  0  0  # atno 10718 bound_to 10713
  153.0189  135.6374  154.1586 H   0  0  0  0  0  0  0  0  0  0  0  0  # atno 10763 bound_to 10752
  154.1323  135.2840  155.3183 H   0  0  0  0  0  0  0  0  0  0  0  0  # atno 10764 bound_to 10752
  154.6185  135.5532  153.7611 H   0  0  0  0  0  0  0  0  0  0  0  0  # atno 10765 bound_to 10752
  140.6711  133.9236  155.8495 H   0  0  0  0  0  0  0  0  0  0  0  0  # atno 11005 bound_to 11000
  146.3006  139.7414  142.9094 LP  0  0  0  0  0  0  0  0  0  0  0  0  # atno 17320 bound_to 7965
  145.3922  141.0374  143.3118 LP  0  0  0  0  0  0  0  0  0  0  0  0  # atno 17321 bound_to 7965
  140.3491  143.2973  152.0506 LP  0  0  0  0  0  0  0  0  0  0  0  0  # atno 17342 bound_to 10162
  139.4894  144.6387  151.6923 LP  0  0  0  0  0  0  0  0  0  0  0  0  # atno 17343 bound_to 10162
  156.1502  130.3642  149.9450 LP  0  0  0  0  0  0  0  0  0  0  0  0  # atno 17370 bound_to 10713
  156.7472  130.9101  151.3635 LP  0  0  0  0  0  0  0  0  0  0  0  0  # atno 17371 bound_to 10713
  141.0391  134.0646  157.3923 LP  0  0  0  0  0  0  0  0  0  0  0  0  # atno 17394 bound_to 11000
  139.8981  135.0153  156.7134 LP  0  0  0  0  0  0  0  0  0  0  0  0  # atno 17395 bound_to 11000

$$$$
