AV-unprocessed.smi:221|AV-procd|sdf|1690|dock5
  -GOLD-   2262020133D 1   1.00000     0.00000
 Structure written by MMmdl.
 50 53  0  0  0  0  0  0  0  0  1 V2000
  147.3866  136.7281  163.0546 N   0  0  0  0  0  0  0  0  0  0  0  0
  146.3426  136.7675  162.2234 C   0  0  0  0  0  0  0  0  0  0  0  0
  145.6602  137.7806  162.0791 O   0  0  0  0  0  0  0  0  0  0  0  0
  146.0408  135.4870  161.4315 C   0  0  2  0  0  0  0  0  0  0  0  0
  145.9027  134.2660  162.3508 C   0  0  0  0  0  0  0  0  0  0  0  0
  146.2129  133.0971  161.4226 C   0  0  1  0  0  0  0  0  0  0  0  0
  145.1220  132.7812  160.7228 F   0  0  0  0  0  0  0  0  0  0  0  0
  147.2778  133.6675  160.4829 C   0  0  0  0  0  0  0  0  0  0  0  0
  147.1321  135.1203  160.5261 N   0  0  0  0  0  0  0  0  0  0  0  0
  147.1420  135.7450  159.3279 C   0  0  0  0  0  0  0  0  0  0  0  0
  145.9586  135.8566  158.6774 N   0  0  0  0  0  0  0  0  0  0  0  0
  145.9058  136.4639  157.4878 C   0  0  0  0  0  0  0  0  0  0  0  0
  146.8986  137.0178  156.7877 N   0  0  0  0  0  0  0  0  0  0  0  0
  148.0903  136.9057  157.4418 C   0  0  0  0  0  0  0  0  0  0  0  0
  148.3011  136.2886  158.7064 C   0  0  0  0  0  0  0  0  0  0  0  0
  149.6447  136.3627  159.0537 N   0  0  0  0  0  0  0  0  0  0  0  0
  150.1976  136.9882  158.0507 C   0  0  0  0  0  0  0  0  0  0  0  0
  149.3384  137.3464  157.0370 N   0  0  0  0  0  0  0  0  0  0  0  0
  149.6908  138.0455  155.8135 C   0  0  0  0  0  0  0  0  0  0  0  0
  150.9075  138.9887  155.9824 C   0  0  1  0  0  0  0  0  0  0  0  0
  151.7025  139.1737  154.6670 C   0  0  0  0  0  0  0  0  0  0  0  0
  153.0220  139.6126  154.9173 O   0  0  0  0  0  0  0  0  0  0  0  0
  150.4968  140.3403  156.6201 C   0  0  2  0  0  0  0  0  0  0  0  0
  151.6354  141.1250  157.2482 C   0  0  0  0  0  0  0  0  0  0  0  0
  150.8932  142.0948  158.1606 C   0  0  0  0  0  0  0  0  0  0  0  0
  149.7341  141.3962  158.5997 O   0  0  0  0  0  0  0  0  0  0  0  0
  149.5497  140.2192  157.8190 C   0  0  0  0  0  0  0  0  0  0  0  0
  145.1147  135.6177  160.8685 H   0  0  0  0  0  0  0  0  0  0  0  0
  146.5374  132.1987  161.9480 H   0  0  0  0  0  0  0  0  0  0  0  0
  147.6244  137.5453  163.5978 H   0  0  0  0  0  0  0  0  0  0  0  0
  147.9337  135.8836  163.1384 H   0  0  0  0  0  0  0  0  0  0  0  0
  146.6416  134.2970  163.1539 H   0  0  0  0  0  0  0  0  0  0  0  0
  144.9155  134.1896  162.8075 H   0  0  0  0  0  0  0  0  0  0  0  0
  148.2726  133.4280  160.8598 H   0  0  0  0  0  0  0  0  0  0  0  0
  147.2032  133.2428  159.4801 H   0  0  0  0  0  0  0  0  0  0  0  0
  144.9279  136.5130  157.0321 H   0  0  0  0  0  0  0  0  0  0  0  0
  151.2558  137.2042  158.0204 H   0  0  0  0  0  0  0  0  0  0  0  0
  149.8853  137.3102  155.0320 H   0  0  0  0  0  0  0  0  0  0  0  0
  148.8117  138.6052  155.4939 H   0  0  0  0  0  0  0  0  0  0  0  0
  151.5874  138.5006  156.6824 H   0  0  0  0  0  0  0  0  0  0  0  0
  151.7468  138.2411  154.1049 H   0  0  0  0  0  0  0  0  0  0  0  0
  151.2128  139.8935  154.0110 H   0  0  0  0  0  0  0  0  0  0  0  0
  153.4988  139.6143  154.1013 H   0  0  0  0  0  0  0  0  0  0  0  0
  150.0191  140.9701  155.8678 H   0  0  0  0  0  0  0  0  0  0  0  0
  152.2727  140.4671  157.8408 H   0  0  0  0  0  0  0  0  0  0  0  0
  152.2599  141.6391  156.5170 H   0  0  0  0  0  0  0  0  0  0  0  0
  151.5024  142.4275  159.0011 H   0  0  0  0  0  0  0  0  0  0  0  0
  150.5766  142.9758  157.6011 H   0  0  0  0  0  0  0  0  0  0  0  0
  148.5077  140.1109  157.5174 H   0  0  0  0  0  0  0  0  0  0  0  0
  149.8120  139.3583  158.4354 H   0  0  0  0  0  0  0  0  0  0  0  0
  1  2  1  0  0  0  0
  1 30  1  0  0  0  0
  1 31  1  0  0  0  0
  2  3  2  0  0  0  0
  2  4  1  0  0  0  0
  4 28  1  0  0  0  0
  4  9  1  0  0  0  0
  4  5  1  0  0  0  0
  5  6  1  0  0  0  0
  5 32  1  0  0  0  0
  5 33  1  0  0  0  0
  6 29  1  0  0  0  0
  6  7  1  0  0  0  0
  6  8  1  0  0  0  0
  8  9  1  0  0  0  0
  8 34  1  0  0  0  0
  8 35  1  0  0  0  0
  9 10  1  0  0  0  0
 10 15  1  0  0  0  0
 10 11  2  0  0  0  0
 11 12  1  0  0  0  0
 12 13  2  0  0  0  0
 12 36  1  0  0  0  0
 13 14  1  0  0  0  0
 14 18  1  0  0  0  0
 14 15  2  0  0  0  0
 15 16  1  0  0  0  0
 16 17  2  0  0  0  0
 17 18  1  0  0  0  0
 17 37  1  0  0  0  0
 18 19  1  0  0  0  0
 19 20  1  0  0  0  0
 19 38  1  0  0  0  0
 19 39  1  0  0  0  0
 20 21  1  0  0  0  0
 20 23  1  0  0  0  0
 20 40  1  0  0  0  0
 21 22  1  0  0  0  0
 21 41  1  0  0  0  0
 21 42  1  0  0  0  0
 22 43  1  0  0  0  0
 23 27  1  0  0  0  0
 23 24  1  0  0  0  0
 23 44  1  0  0  0  0
 24 25  1  0  0  0  0
 24 45  1  0  0  0  0
 24 46  1  0  0  0  0
 25 26  1  0  0  0  0
 25 47  1  0  0  0  0
 25 48  1  0  0  0  0
 26 27  1  0  0  0  0
 27 49  1  0  0  0  0
 27 50  1  0  0  0  0
M  END
> <s_m_source_file>
AV-unprocessed.smi

> <i_m_source_file_index>
221

> <i_lp_mmshare_version>
43012

> <i_f3d_flags>
0

> <s_epik_input>
W05IMl1DKD1PKVtDQEBIXTFbQ0gyXVtDQEBIXShGKVtDSDJdTjFjKG5bY0hdbjIpYyhjMjMpbltjSF1uM1tDSDJdW0NASF0oW0NIMl1bT0hdKVtDQEBIXTRbQ0gyXVtDSDJdT1tDSDJdNA==

> <s_epik_cmdline>
J2VwaWtfcHl0aG9uJywgJy1waCcsICc3LjAnLCAnLXRuJywgJzgnLCAnLW1hJywgJzIwMCcsICctbWV0YWxfYmluZGluZycsICctaW1hZScsICc8aW5maWxlLm1hZT4nLCAnLW9tYWUnLCAnPG91dGZpbGUubWFlPic=

> <r_lp_tautomer_probability>
1

> <r_epik_Ionization_Penalty>
0.000818822

> <r_epik_Ionization_Penalty_Charging>
0

> <r_epik_Ionization_Penalty_Neutral>
0.000818822

> <r_epik_State_Penalty>
0.000440551

> <r_epik_Charging_Adjusted_Penalty>
0.000440551

> <i_epik_Tot_Q>
0

> <i_epik_Tot_abs_Q>
0

> <r_epik_Metal_State_Penalty>
-0

> <b_epik_Metal_Only>
0

> <s_lp_Force_Field>
OPLS_2005

> <r_lp_Energy>
51.1408

> <b_lp_Chiralities_Consistent>
1

> <s_lp_Variant>
AV-unprocessed.smi:221-5

> <Gold.Version>
5.8.1

> <Gold.Id.Protein>
6NUR|6NUR_protein|mol2

> <Gold.PLP.Fitness>
39.7619

> <Gold.PLP.PLP>
-35.5816

> <Gold.PLP.part.hbond>
-4.2533

> <Gold.PLP.part.metal>
0.0000

> <Gold.PLP.part.buried>
-5.0362

> <Gold.PLP.part.nonpolar>
-26.8939

> <Gold.PLP.part.repulsive>
2.1871

> <Gold.PLP.ligand.clash>
0.0000

> <Gold.PLP.ligand.torsion>
1.6347

> <Gold.PLP.Chemscore.Hbond>
2.3520

> <Gold.PLP.Chemscore.CHOScore>
0.0000

> <Gold.PLP.Chemscore.Metal>
0.0000

> <Gold.Chemscore.Hbonds>
donor molecule, donor type, donor heavy atom, donor atom, acceptor molecule, acceptor atom, score
      P1  H  6896  6908       L1    16  1.00
      P1  H  6934  6947       L1     3  0.29
      P1  H  7997  8009       L1    22  0.65

> <Gold.PLP.Chemscore.Internal.Correction>
0.3938

> <Gold.Rescore>
     Score         DG    S(hbond)    S(metal)    S(lipo)     H(rot)  DE(clash)    DE(int)     intcor
      8.62     -12.23       2.33        0.00      72.49       3.72       0.50       3.11       ----

> <Gold.Chemscore.Fitness>
8.6181

> <Gold.Chemscore.DG>
-12.2313

> <Gold.Chemscore.ZeroCoef>
-5.4800

> <Gold.Chemscore.Hbond>
2.3336

> <Gold.Chemscore.Metal>
0.0000

> <Gold.Chemscore.Lipo>
72.4855

> <Gold.Chemscore.Internal_Hbond>
0.0000

> <Gold.Chemscore.DEClash>
0.5027

> <Gold.Chemscore.DEInternal>
3.1105

> <Gold.Chemscore.Rot>
3.7202

> <Gold.Chemscore.Internal.Correction>
   9.000000E+99

> <Gold.Chemscore.Hbonds>
donor molecule, donor type, donor heavy atom, donor atom, acceptor molecule, acceptor atom, score
      P1  H  6896  6908       L1    16  0.73
      P1  H  6934  6947       L1     3  0.07
      P1  H  7997  8009       L1    22  0.06

> <Gold.Chemscore.Hbond.Weighted>
-7.7942

> <Gold.Chemscore.Metal.Weighted>
-0.0000

> <Gold.Chemscore.Lipo.Weighted>
-8.4808

> <Gold.Chemscore.Internal_Hbond.Weighted>
0.0000

> <Gold.Chemscore.DEClash.Weighted>
0.5027

> <Gold.Chemscore.DEInternal.Weighted>
3.1105

> <Gold.Chemscore.Rot.Weighted>
9.5237

> <Gold.Chemscore.Internal.Correction.Weighted>
   9.000000E+99

> <Gold.Protein.RotatedTorsions>
[ 6907 6896 6895 6894 ] final -176.56 input  -60.11 | X-H torsion
[ 7974 7965 7964 7962 ] final  -94.84 input  175.53 | X-H torsion
[ 8008 7997 7996 7995 ] final -134.29 input   59.86 | X-H torsion
[ 10167 10162 10161 10158 ] final   43.82 input  -65.29 | X-H torsion
[ 10718 10713 10712 10709 ] final -101.40 input   66.30 | X-H torsion
[ 10763 10752 10751 10750 ] final  -86.88 input  -60.55 | X-H torsion
[ 11005 11000 10999 10996 ] final -159.87 input  -57.11 | X-H torsion

> <Gold.Protein.ActiveResidues>
 VAL166  LYS551  ARG553  GLY616  TRP617  ASP618  TYR619  PRO620  LYS621  CYS622 
 ASP623  PHE694  ASN695  SER759  ASP760  ASP761  ALA762  ILE779  LEU786  VAL792 
 PHE793  MET794  SER795  GLU796  ALA797  LYS798  CYS799  TRP800  GLU811  SER814 

> <Gold.Protein.RotatedAtoms>
  151.6067  133.3351  159.3058 H   0  0  0  0  0  0  0  0  0  0  0  0  # atno 6907 bound_to 6896
  150.8178  134.7373  159.6757 H   0  0  0  0  0  0  0  0  0  0  0  0  # atno 6908 bound_to 6896
  152.4273  134.5849  160.0009 H   0  0  0  0  0  0  0  0  0  0  0  0  # atno 6909 bound_to 6896
  145.3679  140.9501  143.2463 H   0  0  0  0  0  0  0  0  0  0  0  0  # atno 7974 bound_to 7965
  155.3597  140.0482  157.3046 H   0  0  0  0  0  0  0  0  0  0  0  0  # atno 8008 bound_to 7997
  154.5184  140.2216  155.8985 H   0  0  0  0  0  0  0  0  0  0  0  0  # atno 8009 bound_to 7997
  156.1663  140.3105  155.8900 H   0  0  0  0  0  0  0  0  0  0  0  0  # atno 8010 bound_to 7997
  140.3405  144.2476  150.6156 H   0  0  0  0  0  0  0  0  0  0  0  0  # atno 10167 bound_to 10162
  156.0193  130.5372  150.6957 H   0  0  0  0  0  0  0  0  0  0  0  0  # atno 10718 bound_to 10713
  154.6274  135.5433  153.7642 H   0  0  0  0  0  0  0  0  0  0  0  0  # atno 10763 bound_to 10752
  153.0267  135.6427  154.1352 H   0  0  0  0  0  0  0  0  0  0  0  0  # atno 10764 bound_to 10752
  154.1283  135.2916  155.3171 H   0  0  0  0  0  0  0  0  0  0  0  0  # atno 10765 bound_to 10752
  140.6378  134.4583  157.5232 H   0  0  0  0  0  0  0  0  0  0  0  0  # atno 11005 bound_to 11000
  144.8598  139.5195  143.6817 LP  0  0  0  0  0  0  0  0  0  0  0  0  # atno 17320 bound_to 7965
  146.2898  139.7107  142.9169 LP  0  0  0  0  0  0  0  0  0  0  0  0  # atno 17321 bound_to 7965
  140.5313  143.2243  151.8234 LP  0  0  0  0  0  0  0  0  0  0  0  0  # atno 17342 bound_to 10162
  139.4841  144.4717  151.9417 LP  0  0  0  0  0  0  0  0  0  0  0  0  # atno 17343 bound_to 10162
  157.4629  131.0885  151.0726 LP  0  0  0  0  0  0  0  0  0  0  0  0  # atno 17370 bound_to 10713
  157.1209  130.6061  149.5505 LP  0  0  0  0  0  0  0  0  0  0  0  0  # atno 17371 bound_to 10713
  139.9091  134.8383  156.1593 LP  0  0  0  0  0  0  0  0  0  0  0  0  # atno 17394 bound_to 11000
  141.0629  133.6833  156.1987 LP  0  0  0  0  0  0  0  0  0  0  0  0  # atno 17395 bound_to 11000

$$$$
