AV-unprocessed.smi:1793|AV-procd|sdf|7228|dock7
  -GOLD-   22720 8473D 1   1.00000     0.00000
 Structure written by MMmdl.
 47 49  0  0  0  0  0  0  0  0  2 V2000
  151.9167  138.5834  154.2396 C   0  0  0  0  0  0  0  0  0  0  0  0
  150.3925  138.4899  154.4269 C   0  0  2  0  0  0  0  0  0  0  0  0
  149.9152  137.1972  153.9432 N   0  0  0  0  0  0  0  0  0  0  0  0
  150.0381  136.0315  154.5925 C   0  0  0  0  0  0  0  0  0  0  0  0
  150.6098  135.9088  155.6756 O   0  0  0  0  0  0  0  0  0  0  0  0
  149.4411  135.0360  153.9166 N   0  0  0  0  0  0  0  0  0  0  0  0
  149.3020  133.6731  154.3032 C   0  0  0  0  0  0  0  0  0  0  0  0
  150.0676  133.1289  155.3664 C   0  0  0  0  0  0  0  0  0  0  0  0
  149.8930  131.7840  155.7425 C   0  0  0  0  0  0  0  0  0  0  0  0
  148.9576  130.9997  155.0465 C   0  0  0  0  0  0  0  0  0  0  0  0
  148.2600  131.5399  154.0262 N   0  3  0  0  0  0  0  0  0  0  0  0
  148.3934  132.8233  153.6070 C   0  0  0  0  0  0  0  0  0  0  0  0
  147.6007  133.2439  152.5144 N   0  0  0  0  0  0  0  0  0  0  0  0
  146.6130  134.3037  152.6821 C   0  0  0  0  0  0  0  0  0  0  0  0
  145.7442  134.2374  151.4291 C   0  0  0  0  0  0  0  0  0  0  0  0
  145.7093  132.7413  151.1322 C   0  0  0  0  0  0  0  0  0  0  0  0
  147.0921  132.2504  151.5739 C   0  0  0  0  0  0  0  0  0  0  0  0
  149.6428  139.6107  153.6817 C   0  0  2  0  0  0  0  0  0  0  0  0
  149.6656  140.9735  154.3802 C   0  0  0  0  0  0  0  0  0  0  0  0
  148.3582  141.6306  153.9589 C   0  0  0  0  0  0  0  0  0  0  0  0
  147.6001  140.5229  153.2259 C   0  0  0  0  0  0  0  0  0  0  0  0
  148.2530  139.3261  153.6184 O   0  0  0  0  0  0  0  0  0  0  0  0
  152.3063  139.5265  154.6235 H   0  0  0  0  0  0  0  0  0  0  0  0
  152.1923  138.5137  153.1869 H   0  0  0  0  0  0  0  0  0  0  0  0
  152.4302  137.7821  154.7719 H   0  0  0  0  0  0  0  0  0  0  0  0
  150.1652  138.5778  155.4911 H   0  0  0  0  0  0  0  0  0  0  0  0
  149.4251  137.2018  153.0608 H   0  0  0  0  0  0  0  0  0  0  0  0
  148.9307  135.3089  153.0897 H   0  0  0  0  0  0  0  0  0  0  0  0
  150.7938  133.7239  155.8994 H   0  0  0  0  0  0  0  0  0  0  0  0
  150.4674  131.3626  156.5546 H   0  0  0  0  0  0  0  0  0  0  0  0
  148.7532  129.9617  155.2663 H   0  0  0  0  0  0  0  0  0  0  0  0
  145.9983  134.1160  153.5635 H   0  0  0  0  0  0  0  0  0  0  0  0
  147.0887  135.2785  152.7936 H   0  0  0  0  0  0  0  0  0  0  0  0
  144.7535  134.6685  151.5747 H   0  0  0  0  0  0  0  0  0  0  0  0
  146.2295  134.7679  150.6083 H   0  0  0  0  0  0  0  0  0  0  0  0
  144.9388  132.2662  151.7411 H   0  0  0  0  0  0  0  0  0  0  0  0
  145.4949  132.5195  150.0864 H   0  0  0  0  0  0  0  0  0  0  0  0
  147.7625  132.2065  150.7152 H   0  0  0  0  0  0  0  0  0  0  0  0
  147.0366  131.2543  152.0156 H   0  0  0  0  0  0  0  0  0  0  0  0
  150.0236  139.7120  152.6633 H   0  0  0  0  0  0  0  0  0  0  0  0
  149.6751  140.8480  155.4638 H   0  0  0  0  0  0  0  0  0  0  0  0
  150.5404  141.5635  154.1054 H   0  0  0  0  0  0  0  0  0  0  0  0
  147.8053  141.9699  154.8356 H   0  0  0  0  0  0  0  0  0  0  0  0
  148.5204  142.4922  153.3104 H   0  0  0  0  0  0  0  0  0  0  0  0
  146.5397  140.4999  153.4779 H   0  0  0  0  0  0  0  0  0  0  0  0
  147.6916  140.6439  152.1454 H   0  0  0  0  0  0  0  0  0  0  0  0
  147.5956  130.9425  153.5343 H   0  0  0  0  0  0  0  0  0  0  0  0
  1  2  1  0  0  0  0
  1 23  1  0  0  0  0
  1 24  1  0  0  0  0
  1 25  1  0  0  0  0
  2  3  1  0  0  0  0
  2 18  1  0  0  0  0
  2 26  1  0  0  0  0
  3  4  1  0  0  0  0
  3 27  1  0  0  0  0
  4  5  2  0  0  0  0
  4  6  1  0  0  0  0
  6  7  1  0  0  0  0
  6 28  1  0  0  0  0
  7 12  1  0  0  0  0
  7  8  2  0  0  0  0
  8  9  1  0  0  0  0
  8 29  1  0  0  0  0
  9 10  2  0  0  0  0
  9 30  1  0  0  0  0
 10 11  1  0  0  0  0
 10 31  1  0  0  0  0
 11 12  2  0  0  0  0
 11 47  1  0  0  0  0
 12 13  1  0  0  0  0
 13 17  1  0  0  0  0
 13 14  1  0  0  0  0
 14 15  1  0  0  0  0
 14 32  1  0  0  0  0
 14 33  1  0  0  0  0
 15 16  1  0  0  0  0
 15 34  1  0  0  0  0
 15 35  1  0  0  0  0
 16 17  1  0  0  0  0
 16 36  1  0  0  0  0
 16 37  1  0  0  0  0
 17 38  1  0  0  0  0
 17 39  1  0  0  0  0
 18 22  1  0  0  0  0
 18 19  1  0  0  0  0
 18 40  1  0  0  0  0
 19 20  1  0  0  0  0
 19 41  1  0  0  0  0
 19 42  1  0  0  0  0
 20 21  1  0  0  0  0
 20 43  1  0  0  0  0
 20 44  1  0  0  0  0
 21 22  1  0  0  0  0
 21 45  1  0  0  0  0
 21 46  1  0  0  0  0
M  CHG  1  11   1
M  END
> <s_m_source_file>
AV-unprocessed.smi

> <i_m_source_file_index>
1793

> <i_lp_mmshare_version>
43012

> <i_f3d_flags>
0

> <s_epik_input>
TzFbQ0gyXVtDSDJdW0NIMl1bQ0BIXTFbQ0BIXShbQ0gzXSlbTkhdQyg9TylbTkhdYzJbY0hdW2NIXVtjSF1uYzJOM1tDSDJdW0NIMl1bQ0gyXVtDSDJdMw==

> <s_epik_cmdline>
J2VwaWtfcHl0aG9uJywgJy1waCcsICc3LjAnLCAnLXRuJywgJzgnLCAnLW1hJywgJzIwMCcsICctbWV0YWxfYmluZGluZycsICctaW1hZScsICc8aW5maWxlLm1hZT4nLCAnLW9tYWUnLCAnPG91dGZpbGUubWFlPic=

> <r_lp_tautomer_probability>
0.999994

> <r_epik_Ionization_Penalty>
1.11092

> <r_epik_Ionization_Penalty_Charging>
1.1109

> <r_epik_Ionization_Penalty_Neutral>
1.9363e-05

> <r_epik_State_Penalty>
1.16888

> <r_epik_Charging_Adjusted_Penalty>
2.27978

> <i_epik_Tot_Q>
1

> <i_epik_Tot_abs_Q>
1

> <r_epik_Metal_State_Penalty>
1.25472

> <b_epik_Metal_Only>
0

> <s_lp_Force_Field>
OPLS_2005

> <r_lp_Energy>
52.5047

> <b_lp_Chiralities_Consistent>
1

> <s_lp_Variant>
AV-unprocessed.smi:1793-5

> <Gold.Version>
5.8.1

> <Gold.Id.Protein>
6NUR|6NUR_protein|mol2

> <Gold.PLP.Fitness>
43.4613

> <Gold.PLP.PLP>
-36.6919

> <Gold.PLP.part.hbond>
-4.6671

> <Gold.PLP.part.metal>
0.0000

> <Gold.PLP.part.buried>
1.5105

> <Gold.PLP.part.nonpolar>
-32.8960

> <Gold.PLP.part.repulsive>
0.4789

> <Gold.PLP.ligand.clash>
0.0000

> <Gold.PLP.ligand.torsion>
0.9017

> <Gold.PLP.Chemscore.Hbond>
2.7120

> <Gold.PLP.Chemscore.CHOScore>
0.0000

> <Gold.PLP.Chemscore.Metal>
0.0000

> <Gold.Chemscore.Hbonds>
donor molecule, donor type, donor heavy atom, donor atom, acceptor molecule, acceptor atom, score
      L1  H     3    27       P1  7948  0.83
      L1  H     6    28       P1  7948  0.80

> <Gold.PLP.Chemscore.Internal.Correction>
0.4367

> <Gold.Rescore>
     Score         DG    S(hbond)    S(metal)    S(lipo)     H(rot)  DE(clash)    DE(int)     intcor
     13.98     -17.58       1.74        0.00      83.82       1.38       1.61       1.99       ----

> <Gold.Chemscore.Fitness>
13.9775

> <Gold.Chemscore.DG>
-17.5818

> <Gold.Chemscore.ZeroCoef>
-5.4800

> <Gold.Chemscore.Hbond>
1.7448

> <Gold.Chemscore.Metal>
0.0000

> <Gold.Chemscore.Lipo>
83.8223

> <Gold.Chemscore.Internal_Hbond>
0.0000

> <Gold.Chemscore.DEClash>
1.6096

> <Gold.Chemscore.DEInternal>
1.9947

> <Gold.Chemscore.Rot>
1.3802

> <Gold.Chemscore.Internal.Correction>
   9.000000E+99

> <Gold.Chemscore.Hbonds>
donor molecule, donor type, donor heavy atom, donor atom, acceptor molecule, acceptor atom, score
      L1  H     3    27       P1  7948  0.71
      L1  H     6    28       P1  7948  0.34

> <Gold.Chemscore.Hbond.Weighted>
-5.8277

> <Gold.Chemscore.Metal.Weighted>
-0.0000

> <Gold.Chemscore.Lipo.Weighted>
-9.8072

> <Gold.Chemscore.Internal_Hbond.Weighted>
0.0000

> <Gold.Chemscore.DEClash.Weighted>
1.6096

> <Gold.Chemscore.DEInternal.Weighted>
1.9947

> <Gold.Chemscore.Rot.Weighted>
3.5332

> <Gold.Chemscore.Internal.Correction.Weighted>
   9.000000E+99

> <Gold.Protein.RotatedTorsions>
[ 6907 6896 6895 6894 ] final  102.44 input  -60.11 | X-H torsion
[ 7974 7965 7964 7962 ] final  173.86 input  175.53 | X-H torsion
[ 8008 7997 7996 7995 ] final   75.23 input   59.86 | X-H torsion
[ 10167 10162 10161 10158 ] final  134.79 input  -65.29 | X-H torsion
[ 10718 10713 10712 10709 ] final   43.82 input   66.30 | X-H torsion
[ 10763 10752 10751 10750 ] final -170.39 input  -60.55 | X-H torsion
[ 11005 11000 10999 10996 ] final  176.27 input  -57.11 | X-H torsion

> <Gold.Protein.ActiveResidues>
 VAL166  LYS551  ARG553  GLY616  TRP617  ASP618  TYR619  PRO620  LYS621  CYS622 
 ASP623  PHE694  ASN695  SER759  ASP760  ASP761  ALA762  ILE779  LEU786  VAL792 
 PHE793  MET794  SER795  GLU796  ALA797  LYS798  CYS799  TRP800  GLU811  SER814 

> <Gold.Protein.RotatedAtoms>
  152.5323  133.9975  159.7879 H   0  0  0  0  0  0  0  0  0  0  0  0  # atno 6907 bound_to 6896
  151.0200  133.5877  159.2679 H   0  0  0  0  0  0  0  0  0  0  0  0  # atno 6908 bound_to 6896
  151.2920  135.0751  159.9261 H   0  0  0  0  0  0  0  0  0  0  0  0  # atno 6909 bound_to 6896
  144.7234  139.9711  143.6437 H   0  0  0  0  0  0  0  0  0  0  0  0  # atno 7974 bound_to 7965
  155.8098  140.3473  155.5451 H   0  0  0  0  0  0  0  0  0  0  0  0  # atno 8008 bound_to 7997
  155.8452  140.0947  157.1730 H   0  0  0  0  0  0  0  0  0  0  0  0  # atno 8009 bound_to 7997
  154.4006  140.1387  156.3764 H   0  0  0  0  0  0  0  0  0  0  0  0  # atno 8010 bound_to 7997
  139.5242  144.6550  151.5190 H   0  0  0  0  0  0  0  0  0  0  0  0  # atno 10167 bound_to 10162
  157.4201  130.7964  149.7508 H   0  0  0  0  0  0  0  0  0  0  0  0  # atno 10718 bound_to 10713
  154.6420  135.2900  155.0092 H   0  0  0  0  0  0  0  0  0  0  0  0  # atno 10763 bound_to 10752
  154.1215  135.6547  153.4908 H   0  0  0  0  0  0  0  0  0  0  0  0  # atno 10764 bound_to 10752
  153.0331  135.5289  154.7291 H   0  0  0  0  0  0  0  0  0  0  0  0  # atno 10765 bound_to 10752
  140.3713  134.7027  157.4394 H   0  0  0  0  0  0  0  0  0  0  0  0  # atno 11005 bound_to 11000
  146.0562  139.3559  143.0609 LP  0  0  0  0  0  0  0  0  0  0  0  0  # atno 17320 bound_to 7965
  145.8152  140.9706  143.0928 LP  0  0  0  0  0  0  0  0  0  0  0  0  # atno 17321 bound_to 7965
  140.6371  143.8962  150.6657 LP  0  0  0  0  0  0  0  0  0  0  0  0  # atno 17342 bound_to 10162
  140.2285  143.3754  152.1585 LP  0  0  0  0  0  0  0  0  0  0  0  0  # atno 17343 bound_to 10162
  155.9878  130.3964  150.3149 LP  0  0  0  0  0  0  0  0  0  0  0  0  # atno 17370 bound_to 10713
  157.1296  131.0268  151.2975 LP  0  0  0  0  0  0  0  0  0  0  0  0  # atno 17371 bound_to 10713
  140.0550  134.6077  155.8816 LP  0  0  0  0  0  0  0  0  0  0  0  0  # atno 17394 bound_to 11000
  141.1953  133.6587  156.5639 LP  0  0  0  0  0  0  0  0  0  0  0  0  # atno 17395 bound_to 11000

$$$$
