AV-unprocessed.smi:2520|AV-procd|sdf|9912|dock3
  -GOLD-   2272013553D 1   1.00000     0.00000
 Structure written by MMmdl.
 41 44  0  0  0  0  0  0  0  0  1 V2000
  149.4560  135.9867  156.8326 O   0  0  0  0  0  0  0  0  0  0  0  0
  149.3379  136.2929  155.6474 C   0  0  0  0  0  0  0  0  0  0  0  0
  149.4488  135.3648  154.6729 N   0  0  0  0  0  0  0  0  0  0  0  0
  149.7031  133.9624  154.7316 C   0  0  0  0  0  0  0  0  0  0  0  0
  149.0418  133.1998  153.7452 C   0  0  0  0  0  0  0  0  0  0  0  0
  149.2341  131.8077  153.7334 C   0  0  0  0  0  0  0  0  0  0  0  0
  150.0786  131.2661  154.7172 C   0  0  0  0  0  0  0  0  0  0  0  0
  150.6907  132.0312  155.6462 N   0  0  0  0  0  0  0  0  0  0  0  0
  150.5023  133.3546  155.6489 N   0  0  0  0  0  0  0  0  0  0  0  0
  149.0905  137.5464  155.2405 N   0  0  0  0  0  0  0  0  0  0  0  0
  148.9361  138.7195  156.0996 C   0  0  1  0  0  0  0  0  0  0  0  0
  150.2925  139.3158  156.5417 C   0  0  1  0  0  0  0  0  0  0  0  0
  151.6007  138.5830  156.3665 C   0  0  0  0  0  0  0  0  0  0  0  0
  152.1421  139.1597  155.0548 C   0  0  0  0  0  0  0  0  0  0  0  0
  151.0044  139.7157  154.3982 O   0  0  0  0  0  0  0  0  0  0  0  0
  150.1670  140.3026  155.3918 C   0  0  1  0  0  0  0  0  0  0  0  0
  148.6573  140.0023  155.2813 C   0  0  0  0  0  0  0  0  0  0  0  0
  147.7404  141.0412  155.9247 C   0  0  0  0  0  0  0  0  0  0  0  0
  147.3459  142.0394  154.8313 C   0  0  0  0  0  0  0  0  0  0  0  0
  147.5880  141.3177  153.5022 C   0  0  0  0  0  0  0  0  0  0  0  0
  148.0527  139.9098  153.8796 C   0  0  0  0  0  0  0  0  0  0  0  0
  149.3160  135.7243  153.7390 H   0  0  0  0  0  0  0  0  0  0  0  0
  148.4014  133.6682  153.0120 H   0  0  0  0  0  0  0  0  0  0  0  0
  148.7528  131.1797  152.9988 H   0  0  0  0  0  0  0  0  0  0  0  0
  150.2661  130.2036  154.7618 H   0  0  0  0  0  0  0  0  0  0  0  0
  149.0071  137.7067  154.2461 H   0  0  0  0  0  0  0  0  0  0  0  0
  148.2447  138.5849  156.9332 H   0  0  0  0  0  0  0  0  0  0  0  0
  150.1967  139.8219  157.5039 H   0  0  0  0  0  0  0  0  0  0  0  0
  152.2902  138.7685  157.1902 H   0  0  0  0  0  0  0  0  0  0  0  0
  151.4618  137.5042  156.2975 H   0  0  0  0  0  0  0  0  0  0  0  0
  152.8594  139.9566  155.2554 H   0  0  0  0  0  0  0  0  0  0  0  0
  152.6312  138.4074  154.4357 H   0  0  0  0  0  0  0  0  0  0  0  0
  150.4416  141.3269  155.6477 H   0  0  0  0  0  0  0  0  0  0  0  0
  146.8419  140.5551  156.3076 H   0  0  0  0  0  0  0  0  0  0  0  0
  148.2078  141.5448  156.7716 H   0  0  0  0  0  0  0  0  0  0  0  0
  146.3082  142.3563  154.9400 H   0  0  0  0  0  0  0  0  0  0  0  0
  147.9694  142.9323  154.8878 H   0  0  0  0  0  0  0  0  0  0  0  0
  146.6956  141.2936  152.8763 H   0  0  0  0  0  0  0  0  0  0  0  0
  148.3702  141.8313  152.9418 H   0  0  0  0  0  0  0  0  0  0  0  0
  148.7504  139.5128  153.1417 H   0  0  0  0  0  0  0  0  0  0  0  0
  147.1933  139.2379  153.8908 H   0  0  0  0  0  0  0  0  0  0  0  0
  1  2  2  0  0  0  0
  2  3  1  0  0  0  0
  2 10  1  0  0  0  0
  3  4  1  0  0  0  0
  3 22  1  0  0  0  0
  4  9  1  0  0  0  0
  4  5  2  0  0  0  0
  5  6  1  0  0  0  0
  5 23  1  0  0  0  0
  6  7  2  0  0  0  0
  6 24  1  0  0  0  0
  7  8  1  0  0  0  0
  7 25  1  0  0  0  0
  8  9  2  0  0  0  0
 10 11  1  0  0  0  0
 10 26  1  0  0  0  0
 11 17  1  0  0  0  0
 11 12  1  0  0  0  0
 11 27  1  0  0  0  0
 12 16  1  0  0  0  0
 12 13  1  0  0  0  0
 12 28  1  0  0  0  0
 13 14  1  0  0  0  0
 13 29  1  0  0  0  0
 13 30  1  0  0  0  0
 14 15  1  0  0  0  0
 14 31  1  0  0  0  0
 14 32  1  0  0  0  0
 15 16  1  0  0  0  0
 16 17  1  0  0  0  0
 16 33  1  0  0  0  0
 17 21  1  0  0  0  0
 17 18  1  0  0  0  0
 18 19  1  0  0  0  0
 18 34  1  0  0  0  0
 18 35  1  0  0  0  0
 19 20  1  0  0  0  0
 19 36  1  0  0  0  0
 19 37  1  0  0  0  0
 20 21  1  0  0  0  0
 20 38  1  0  0  0  0
 20 39  1  0  0  0  0
 21 40  1  0  0  0  0
 21 41  1  0  0  0  0
M  END
> <s_m_source_file>
AV-unprocessed.smi

> <i_m_source_file_index>
2520

> <i_lp_mmshare_version>
43012

> <i_f3d_flags>
0

> <s_epik_input>
bjFuW2NIXVtjSF1bY0hdYzFbTkhdQyg9TylbTkhdW0NAQEhdMltDQEBIXShbQ0gyXVtDSDJdTzMpW0NASF0zQzI0W0NIMl1bQ0gyXVtDSDJdW0NIMl00

> <s_epik_cmdline>
J2VwaWtfcHl0aG9uJywgJy1waCcsICc3LjAnLCAnLXRuJywgJzgnLCAnLW1hJywgJzIwMCcsICctbWV0YWxfYmluZGluZycsICctaW1hZScsICc8aW5maWxlLm1hZT4nLCAnLW9tYWUnLCAnPG91dGZpbGUubWFlPic=

> <r_lp_tautomer_probability>
1

> <r_epik_Ionization_Penalty>
0.00552561

> <r_epik_Ionization_Penalty_Charging>
0

> <r_epik_Ionization_Penalty_Neutral>
0.00552561

> <r_epik_State_Penalty>
-0

> <r_epik_Charging_Adjusted_Penalty>
0

> <i_epik_Tot_Q>
0

> <i_epik_Tot_abs_Q>
0

> <r_epik_Metal_State_Penalty>
-0

> <b_epik_Metal_Only>
0

> <s_lp_Force_Field>
OPLS_2005

> <r_lp_Energy>
62.4045

> <b_lp_Chiralities_Consistent>
1

> <s_lp_Variant>
AV-unprocessed.smi:2520-6

> <Gold.Version>
5.8.1

> <Gold.Id.Protein>
6NUR|6NUR_protein|mol2

> <Gold.PLP.Fitness>
34.7466

> <Gold.PLP.PLP>
-29.3218

> <Gold.PLP.part.hbond>
-2.0000

> <Gold.PLP.part.metal>
0.0000

> <Gold.PLP.part.buried>
-3.3914

> <Gold.PLP.part.nonpolar>
-23.7309

> <Gold.PLP.part.repulsive>
0.1497

> <Gold.PLP.ligand.clash>
0.0000

> <Gold.PLP.ligand.torsion>
0.3904

> <Gold.PLP.Chemscore.Hbond>
2.0000

> <Gold.PLP.Chemscore.CHOScore>
0.0000

> <Gold.PLP.Chemscore.Metal>
0.0000

> <Gold.Chemscore.Hbonds>
donor molecule, donor type, donor heavy atom, donor atom, acceptor molecule, acceptor atom, score
      L1  H     3    22       P1  7948  1.00
      P1  H  7989  7998       L1    15  1.00

> <Gold.PLP.Chemscore.Internal.Correction>
0.2057

> <Gold.Rescore>
     Score         DG    S(hbond)    S(metal)    S(lipo)     H(rot)  DE(clash)    DE(int)     intcor
     13.91     -15.08       1.30        0.00      66.77       1.00       0.12       1.05       ----

> <Gold.Chemscore.Fitness>
13.9131

> <Gold.Chemscore.DG>
-15.0816

> <Gold.Chemscore.ZeroCoef>
-5.4800

> <Gold.Chemscore.Hbond>
1.3022

> <Gold.Chemscore.Metal>
0.0000

> <Gold.Chemscore.Lipo>
66.7712

> <Gold.Chemscore.Internal_Hbond>
0.0000

> <Gold.Chemscore.DEClash>
0.1235

> <Gold.Chemscore.DEInternal>
1.0451

> <Gold.Chemscore.Rot>
1.0000

> <Gold.Chemscore.Internal.Correction>
   9.000000E+99

> <Gold.Chemscore.Hbonds>
donor molecule, donor type, donor heavy atom, donor atom, acceptor molecule, acceptor atom, score
      L1  H     3    22       P1  7948  0.60
      P1  H  7989  7998       L1    15  0.29

> <Gold.Chemscore.Hbond.Weighted>
-4.3494

> <Gold.Chemscore.Metal.Weighted>
-0.0000

> <Gold.Chemscore.Lipo.Weighted>
-7.8122

> <Gold.Chemscore.Internal_Hbond.Weighted>
0.0000

> <Gold.Chemscore.DEClash.Weighted>
0.1235

> <Gold.Chemscore.DEInternal.Weighted>
1.0451

> <Gold.Chemscore.Rot.Weighted>
2.5600

> <Gold.Chemscore.Internal.Correction.Weighted>
   9.000000E+99

> <Gold.Protein.RotatedTorsions>
[ 6907 6896 6895 6894 ] final -169.85 input  -60.11 | X-H torsion
[ 7974 7965 7964 7962 ] final  -24.50 input  175.53 | X-H torsion
[ 8008 7997 7996 7995 ] final  -50.82 input   59.86 | X-H torsion
[ 10167 10162 10161 10158 ] final  -20.86 input  -65.29 | X-H torsion
[ 10718 10713 10712 10709 ] final  137.19 input   66.30 | X-H torsion
[ 10763 10752 10751 10750 ] final -153.58 input  -60.55 | X-H torsion
[ 11005 11000 10999 10996 ] final -114.41 input  -57.11 | X-H torsion

> <Gold.Protein.ActiveResidues>
 VAL166  LYS551  ARG553  GLY616  TRP617  ASP618  TYR619  PRO620  LYS621  CYS622 
 ASP623  PHE694  ASN695  SER759  ASP760  ASP761  ALA762  ILE779  LEU786  VAL792 
 PHE793  MET794  SER795  GLU796  ALA797  LYS798  CYS799  TRP800  GLU811  SER814 

> <Gold.Protein.RotatedAtoms>
  151.4982  133.3510  159.2864 H   0  0  0  0  0  0  0  0  0  0  0  0  # atno 6907 bound_to 6896
  150.8790  134.8180  159.7222 H   0  0  0  0  0  0  0  0  0  0  0  0  # atno 6908 bound_to 6896
  152.4750  134.4877  159.9737 H   0  0  0  0  0  0  0  0  0  0  0  0  # atno 6909 bound_to 6896
  146.1550  140.4760  142.8595 H   0  0  0  0  0  0  0  0  0  0  0  0  # atno 7974 bound_to 7965
  154.4070  140.1263  156.4727 H   0  0  0  0  0  0  0  0  0  0  0  0  # atno 8008 bound_to 7997
  155.7163  140.3493  155.4976 H   0  0  0  0  0  0  0  0  0  0  0  0  # atno 8009 bound_to 7997
  155.9255  140.1060  157.1163 H   0  0  0  0  0  0  0  0  0  0  0  0  # atno 8010 bound_to 7997
  140.7279  143.4682  151.0283 H   0  0  0  0  0  0  0  0  0  0  0  0  # atno 10167 bound_to 10162
  157.4387  131.1055  151.0168 H   0  0  0  0  0  0  0  0  0  0  0  0  # atno 10718 bound_to 10713
  154.7918  135.3209  154.7760 H   0  0  0  0  0  0  0  0  0  0  0  0  # atno 10763 bound_to 10752
  153.8447  135.6867  153.4803 H   0  0  0  0  0  0  0  0  0  0  0  0  # atno 10764 bound_to 10752
  153.1591  135.4668  154.9687 H   0  0  0  0  0  0  0  0  0  0  0  0  # atno 10765 bound_to 10752
  141.0554  133.9621  157.2764 H   0  0  0  0  0  0  0  0  0  0  0  0  # atno 11005 bound_to 11000
  144.7952  140.6109  143.6515 LP  0  0  0  0  0  0  0  0  0  0  0  0  # atno 17320 bound_to 7965
  145.4729  139.1502  143.3804 LP  0  0  0  0  0  0  0  0  0  0  0  0  # atno 17321 bound_to 7965
  139.8372  143.7612  152.3180 LP  0  0  0  0  0  0  0  0  0  0  0  0  # atno 17342 bound_to 10162
  139.7748  144.7464  151.0172 LP  0  0  0  0  0  0  0  0  0  0  0  0  # atno 17343 bound_to 10162
  157.1039  130.5993  149.5466 LP  0  0  0  0  0  0  0  0  0  0  0  0  # atno 17370 bound_to 10713
  155.9940  130.5003  150.7404 LP  0  0  0  0  0  0  0  0  0  0  0  0  # atno 17371 bound_to 10713
  139.9385  135.0194  156.8634 LP  0  0  0  0  0  0  0  0  0  0  0  0  # atno 17394 bound_to 11000
  140.5975  134.0203  155.7524 LP  0  0  0  0  0  0  0  0  0  0  0  0  # atno 17395 bound_to 11000

$$$$
