AV-unprocessed.smi:109|AV-procd|sdf|1043|dock3
  -GOLD-   2262018 73D 1   1.00000     0.00000
 Structure written by MMmdl.
 58 61  0  0  0  0  0  0  0  0  1 V2000
  152.8948  139.1457  155.9622 O   0  0  0  0  0  0  0  0  0  0  0  0
  151.9497  139.7102  156.8454 C   0  0  0  0  0  0  0  0  0  0  0  0
  151.0759  140.7289  156.0939 C   0  0  0  0  0  0  0  0  0  0  0  0
  150.1430  141.5633  157.0064 C   0  0  2  0  0  0  0  0  0  0  0  0
  149.1915  142.3085  156.1792 N   0  0  0  0  0  0  0  0  0  0  0  0
  148.2305  141.6892  155.4578 C   0  0  0  0  0  0  0  0  0  0  0  0
  148.3932  141.4221  154.1359 N   0  0  0  0  0  0  0  0  0  0  0  0
  147.4170  140.8210  153.4493 C   0  0  0  0  0  0  0  0  0  0  0  0
  146.2241  140.4072  153.8834 N   0  0  0  0  0  0  0  0  0  0  0  0
  146.0589  140.6670  155.2130 C   0  0  0  0  0  0  0  0  0  0  0  0
  147.0064  141.3034  156.0614 C   0  0  0  0  0  0  0  0  0  0  0  0
  146.4918  141.4059  157.3462 N   0  0  0  0  0  0  0  0  0  0  0  0
  145.3080  140.8622  157.2558 C   0  0  0  0  0  0  0  0  0  0  0  0
  144.9690  140.3786  156.0069 N   0  0  0  0  0  0  0  0  0  0  0  0
  143.6985  139.7321  155.5307 C   0  0  2  0  0  0  0  0  0  0  0  0
  142.8813  139.5249  156.6374 O   0  0  0  0  0  0  0  0  0  0  0  0
  143.1936  138.2679  157.2193 C   0  0  1  0  0  0  0  0  0  0  0  0
  142.0125  137.7958  158.0804 C   0  0  0  0  0  0  0  0  0  0  0  0
  141.0415  137.1617  157.2761 O   0  0  0  0  0  0  0  0  0  0  0  0
  143.5079  137.3736  156.0070 C   0  0  2  0  0  0  0  0  0  0  0  0
  144.5506  136.4728  156.3244 O   0  0  0  0  0  0  0  0  0  0  0  0
  143.9543  138.3482  154.9105 C   0  0  1  0  0  0  0  0  0  0  0  0
  143.1851  138.1691  153.7386 O   0  0  0  0  0  0  0  0  0  0  0  0
  150.9097  142.5522  157.9322 C   0  0  0  0  0  0  0  0  0  0  0  0
  149.9689  143.3970  158.8284 C   0  0  0  0  0  0  0  0  0  0  0  0
  150.7362  144.3924  159.7147 C   0  0  0  0  0  0  0  0  0  0  0  0
  151.6328  145.3150  158.8803 C   0  0  0  0  0  0  0  0  0  0  0  0
  152.5879  144.4927  158.0077 C   0  0  0  0  0  0  0  0  0  0  0  0
  151.8155  143.5098  157.1144 C   0  0  0  0  0  0  0  0  0  0  0  0
  143.2643  140.4522  154.8362 H   0  0  0  0  0  0  0  0  0  0  0  0
  144.0760  138.4042  157.8466 H   0  0  0  0  0  0  0  0  0  0  0  0
  142.6229  136.8150  155.6976 H   0  0  0  0  0  0  0  0  0  0  0  0
  145.0049  138.2399  154.6375 H   0  0  0  0  0  0  0  0  0  0  0  0
  153.0557  138.2529  156.2262 H   0  0  0  0  0  0  0  0  0  0  0  0
  151.3471  138.9056  157.2667 H   0  0  0  0  0  0  0  0  0  0  0  0
  152.4782  140.1912  157.6688 H   0  0  0  0  0  0  0  0  0  0  0  0
  151.7559  141.3871  155.5563 H   0  0  0  0  0  0  0  0  0  0  0  0
  150.4828  140.2159  155.3356 H   0  0  0  0  0  0  0  0  0  0  0  0
  149.6152  140.8726  157.6639 H   0  0  0  0  0  0  0  0  0  0  0  0
  149.2083  143.3108  156.3022 H   0  0  0  0  0  0  0  0  0  0  0  0
  147.6212  140.6464  152.4031 H   0  0  0  0  0  0  0  0  0  0  0  0
  144.6520  140.8056  158.1111 H   0  0  0  0  0  0  0  0  0  0  0  0
  142.3574  137.0781  158.8251 H   0  0  0  0  0  0  0  0  0  0  0  0
  141.5599  138.6282  158.6200 H   0  0  0  0  0  0  0  0  0  0  0  0
  140.5610  137.8251  156.8049 H   0  0  0  0  0  0  0  0  0  0  0  0
  144.4380  136.1817  157.2158 H   0  0  0  0  0  0  0  0  0  0  0  0
  143.1370  138.9953  153.2822 H   0  0  0  0  0  0  0  0  0  0  0  0
  151.5539  141.9653  158.5892 H   0  0  0  0  0  0  0  0  0  0  0  0
  149.2563  143.9385  158.2046 H   0  0  0  0  0  0  0  0  0  0  0  0
  149.3824  142.7606  159.4885 H   0  0  0  0  0  0  0  0  0  0  0  0
  150.0327  144.9883  160.2968 H   0  0  0  0  0  0  0  0  0  0  0  0
  151.3458  143.8444  160.4343 H   0  0  0  0  0  0  0  0  0  0  0  0
  151.0163  145.9558  158.2486 H   0  0  0  0  0  0  0  0  0  0  0  0
  152.2004  145.9767  159.5353 H   0  0  0  0  0  0  0  0  0  0  0  0
  153.1927  145.1581  157.3909 H   0  0  0  0  0  0  0  0  0  0  0  0
  153.2833  143.9417  158.6421 H   0  0  0  0  0  0  0  0  0  0  0  0
  152.5406  142.9498  156.5237 H   0  0  0  0  0  0  0  0  0  0  0  0
  151.2078  144.0685  156.4011 H   0  0  0  0  0  0  0  0  0  0  0  0
  1  2  1  0  0  0  0
  1 34  1  0  0  0  0
  2  3  1  0  0  0  0
  2 35  1  0  0  0  0
  2 36  1  0  0  0  0
  3  4  1  0  0  0  0
  3 37  1  0  0  0  0
  3 38  1  0  0  0  0
  4  5  1  0  0  0  0
  4 24  1  0  0  0  0
  4 39  1  0  0  0  0
  5  6  1  0  0  0  0
  5 40  1  0  0  0  0
  6 11  1  0  0  0  0
  6  7  2  0  0  0  0
  7  8  1  0  0  0  0
  8  9  2  0  0  0  0
  8 41  1  0  0  0  0
  9 10  1  0  0  0  0
 10 14  1  0  0  0  0
 10 11  2  0  0  0  0
 11 12  1  0  0  0  0
 12 13  2  0  0  0  0
 13 14  1  0  0  0  0
 13 42  1  0  0  0  0
 14 15  1  0  0  0  0
 15 30  1  0  0  0  0
 15 22  1  0  0  0  0
 15 16  1  0  0  0  0
 16 17  1  0  0  0  0
 17 31  1  0  0  0  0
 17 18  1  0  0  0  0
 17 20  1  0  0  0  0
 18 19  1  0  0  0  0
 18 43  1  0  0  0  0
 18 44  1  0  0  0  0
 19 45  1  0  0  0  0
 20 32  1  0  0  0  0
 20 21  1  0  0  0  0
 20 22  1  0  0  0  0
 21 46  1  0  0  0  0
 22 33  1  0  0  0  0
 22 23  1  0  0  0  0
 23 47  1  0  0  0  0
 24 29  1  0  0  0  0
 24 25  1  0  0  0  0
 24 48  1  0  0  0  0
 25 26  1  0  0  0  0
 25 49  1  0  0  0  0
 25 50  1  0  0  0  0
 26 27  1  0  0  0  0
 26 51  1  0  0  0  0
 26 52  1  0  0  0  0
 27 28  1  0  0  0  0
 27 53  1  0  0  0  0
 27 54  1  0  0  0  0
 28 29  1  0  0  0  0
 28 55  1  0  0  0  0
 28 56  1  0  0  0  0
 29 57  1  0  0  0  0
 29 58  1  0  0  0  0
M  END
> <s_m_source_file>
AV-unprocessed.smi

> <i_m_source_file_index>
109

> <i_lp_mmshare_version>
43012

> <i_f3d_flags>
0

> <s_epik_input>
W0NIMl0xW0NIMl1bQ0gyXVtDSDJdW0NIMl1bQ0hdMVtDQEhdKFtDSDJdW0NIMl1bT0hdKVtOSF1jKG5bY0hdbjIpYyhjMjMpbltjSF1uM1tDQEBIXTRPW0NASF0oW0NIMl1bT0hdKVtDQEBIXShbT0hdKVtDQEhdNFtPSF0=

> <s_epik_cmdline>
J2VwaWtfcHl0aG9uJywgJy1waCcsICc3LjAnLCAnLXRuJywgJzgnLCAnLW1hJywgJzIwMCcsICctbWV0YWxfYmluZGluZycsICctaW1hZScsICc8aW5maWxlLm1hZT4nLCAnLW9tYWUnLCAnPG91dGZpbGUubWFlPic=

> <r_lp_tautomer_probability>
1

> <r_epik_Ionization_Penalty>
0.000793976

> <r_epik_Ionization_Penalty_Charging>
0

> <r_epik_Ionization_Penalty_Neutral>
0.000793976

> <r_epik_State_Penalty>
-0

> <r_epik_Charging_Adjusted_Penalty>
0

> <i_epik_Tot_Q>
0

> <i_epik_Tot_abs_Q>
0

> <r_epik_Metal_State_Penalty>
-0

> <b_epik_Metal_Only>
0

> <s_epik_Chemistry_Notes>
This compound contains an acetal/aminal-like group ( X-CH(R)-Y where X, Y are N, S, or O) that may be acid/base labile, releasing an aldehyde.

> <s_lp_Force_Field>
OPLS_2005

> <r_lp_Energy>
47.5794

> <b_lp_Chiralities_Consistent>
1

> <s_lp_Variant>
AV-unprocessed.smi:109-13

> <Gold.Version>
5.8.1

> <Gold.Id.Protein>
6NUR|6NUR_protein|mol2

> <Gold.PLP.Fitness>
45.3930

> <Gold.PLP.PLP>
-34.5697

> <Gold.PLP.part.hbond>
-4.1547

> <Gold.PLP.part.metal>
0.0000

> <Gold.PLP.part.buried>
-5.7803

> <Gold.PLP.part.nonpolar>
-27.3440

> <Gold.PLP.part.repulsive>
1.5960

> <Gold.PLP.ligand.clash>
0.0000

> <Gold.PLP.ligand.torsion>
1.2338

> <Gold.PLP.Chemscore.Hbond>
3.3262

> <Gold.PLP.Chemscore.CHOScore>
1.0000

> <Gold.PLP.Chemscore.Metal>
0.0000

> <Gold.Chemscore.Hbonds>
donor molecule, donor type, donor heavy atom, donor atom, acceptor molecule, acceptor atom, score
      L1  H     5    40       P1  8028  0.93
      L1  H    23    47       P1 10175  1.00
      P1  H  7997  8008       L1     1  1.00
      P1  H 11000 11005       L1    19  0.08
      L1  C     8    41       P1  7957  1.00

> <Gold.PLP.Chemscore.Internal.Correction>
0.3123

> <Gold.Rescore>
     Score         DG    S(hbond)    S(metal)    S(lipo)     H(rot)  DE(clash)    DE(int)     intcor
      9.83     -11.30       3.23        0.00      77.10       5.47       0.10       1.36       ----

> <Gold.Chemscore.Fitness>
9.8319

> <Gold.Chemscore.DG>
-11.2985

> <Gold.Chemscore.ZeroCoef>
-5.4800

> <Gold.Chemscore.Hbond>
3.2310

> <Gold.Chemscore.Metal>
0.0000

> <Gold.Chemscore.Lipo>
77.0988

> <Gold.Chemscore.Internal_Hbond>
0.0000

> <Gold.Chemscore.DEClash>
0.1023

> <Gold.Chemscore.DEInternal>
1.3643

> <Gold.Chemscore.Rot>
5.4662

> <Gold.Chemscore.Internal.Correction>
   9.000000E+99

> <Gold.Chemscore.Hbonds>
donor molecule, donor type, donor heavy atom, donor atom, acceptor molecule, acceptor atom, score
      L1  H     5    40       P1  8028  0.88
      L1  H    23    47       P1 10175  1.00
      P1  H  7997  8008       L1     1  0.24
      P1  H  8011  8017       L1     7  0.01
      P1  H 11000 11005       L1    19  0.09

> <Gold.Chemscore.Hbond.Weighted>
-10.7914

> <Gold.Chemscore.Metal.Weighted>
-0.0000

> <Gold.Chemscore.Lipo.Weighted>
-9.0206

> <Gold.Chemscore.Internal_Hbond.Weighted>
0.0000

> <Gold.Chemscore.DEClash.Weighted>
0.1023

> <Gold.Chemscore.DEInternal.Weighted>
1.3643

> <Gold.Chemscore.Rot.Weighted>
13.9935

> <Gold.Chemscore.Internal.Correction.Weighted>
   9.000000E+99

> <Gold.Protein.RotatedTorsions>
[ 6907 6896 6895 6894 ] final -177.22 input  -60.11 | X-H torsion
[ 7974 7965 7964 7962 ] final   79.50 input  175.53 | X-H torsion
[ 8008 7997 7996 7995 ] final  -40.04 input   59.86 | X-H torsion
[ 10167 10162 10161 10158 ] final -100.22 input  -65.29 | X-H torsion
[ 10718 10713 10712 10709 ] final  -42.38 input   66.30 | X-H torsion
[ 10763 10752 10751 10750 ] final  -37.26 input  -60.55 | X-H torsion
[ 11005 11000 10999 10996 ] final  151.73 input  -57.11 | X-H torsion

> <Gold.Protein.ActiveResidues>
 VAL166  LYS551  ARG553  GLY616  TRP617  ASP618  TYR619  PRO620  LYS621  CYS622 
 ASP623  PHE694  ASN695  SER759  ASP760  ASP761  ALA762  ILE779  LEU786  VAL792 
 PHE793  MET794  SER795  GLU796  ALA797  LYS798  CYS799  TRP800  GLU811  SER814 

> <Gold.Protein.RotatedAtoms>
  151.6175  133.3342  159.3080 H   0  0  0  0  0  0  0  0  0  0  0  0  # atno 6907 bound_to 6896
  150.8124  134.7290  159.6711 H   0  0  0  0  0  0  0  0  0  0  0  0  # atno 6908 bound_to 6896
  152.4220  134.5942  160.0034 H   0  0  0  0  0  0  0  0  0  0  0  0  # atno 6909 bound_to 6896
  145.6634  139.2477  143.1909 H   0  0  0  0  0  0  0  0  0  0  0  0  # atno 7974 bound_to 7965
  154.4016  140.1536  156.2962 H   0  0  0  0  0  0  0  0  0  0  0  0  # atno 8008 bound_to 7997
  155.8741  140.3447  155.5820 H   0  0  0  0  0  0  0  0  0  0  0  0  # atno 8009 bound_to 7997
  155.7741  140.0834  157.2083 H   0  0  0  0  0  0  0  0  0  0  0  0  # atno 8010 bound_to 7997
  140.2542  143.3451  152.0686 H   0  0  0  0  0  0  0  0  0  0  0  0  # atno 10167 bound_to 10162
  156.2602  130.4196  149.8550 H   0  0  0  0  0  0  0  0  0  0  0  0  # atno 10718 bound_to 10713
  153.8933  135.6810  153.4759 H   0  0  0  0  0  0  0  0  0  0  0  0  # atno 10763 bound_to 10752
  153.1169  135.4757  154.9128 H   0  0  0  0  0  0  0  0  0  0  0  0  # atno 10764 bound_to 10752
  154.7612  135.3211  154.8328 H   0  0  0  0  0  0  0  0  0  0  0  0  # atno 10765 bound_to 10752
  140.1245  134.8842  157.2118 H   0  0  0  0  0  0  0  0  0  0  0  0  # atno 11005 bound_to 11000
  146.1106  140.7433  142.9505 LP  0  0  0  0  0  0  0  0  0  0  0  0  # atno 17320 bound_to 7965
  144.7081  140.3932  143.7102 LP  0  0  0  0  0  0  0  0  0  0  0  0  # atno 17321 bound_to 7965
  139.5036  144.6760  151.6128 LP  0  0  0  0  0  0  0  0  0  0  0  0  # atno 17342 bound_to 10162
  140.6016  143.9599  150.6390 LP  0  0  0  0  0  0  0  0  0  0  0  0  # atno 17343 bound_to 10162
  156.6068  130.8570  151.3445 LP  0  0  0  0  0  0  0  0  0  0  0  0  # atno 17370 bound_to 10713
  157.7248  130.9607  150.1587 LP  0  0  0  0  0  0  0  0  0  0  0  0  # atno 17371 bound_to 10713
  140.2922  134.3227  155.7312 LP  0  0  0  0  0  0  0  0  0  0  0  0  # atno 17394 bound_to 11000
  141.2158  133.7541  156.9520 LP  0  0  0  0  0  0  0  0  0  0  0  0  # atno 17395 bound_to 11000

$$$$
