AV-unprocessed.smi:2583|AV-procd|sdf|10141|dock3
  -GOLD-   2272014153D 1   1.00000     0.00000
 Structure written by MMmdl.
 54 56  0  0  0  0  0  0  0  0  2 V2000
  143.0314  134.7895  153.2474 C   0  0  0  0  0  0  0  0  0  0  0  0
  144.2426  135.2111  152.4418 C   0  0  0  0  0  0  0  0  0  0  0  0
  144.5479  134.5917  151.2125 C   0  0  0  0  0  0  0  0  0  0  0  0
  145.6220  134.9205  150.4647 N   0  0  0  0  0  0  0  0  0  0  0  0
  146.4354  135.8961  150.9217 C   0  0  0  0  0  0  0  0  0  0  0  0
  146.2192  136.5946  152.1285 C   0  0  0  0  0  0  0  0  0  0  0  0
  147.1611  137.5906  152.5028 N   0  0  0  0  0  0  0  0  0  0  0  0
  147.6311  137.8728  153.7299 C   0  0  0  0  0  0  0  0  0  0  0  0
  147.2924  137.3076  154.7696 O   0  0  0  0  0  0  0  0  0  0  0  0
  148.5133  138.8821  153.6932 N   0  0  0  0  0  0  0  0  0  0  0  0
  149.1875  139.4483  154.8583 C   0  0  2  0  0  0  0  0  0  0  0  0
  148.6284  140.8397  155.1928 C   0  0  0  0  0  0  0  0  0  0  0  0
  149.3933  141.4745  156.3645 C   0  0  0  0  0  0  0  0  0  0  0  0
  150.8542  141.5826  156.0833 N   0  3  1  0  0  0  0  0  0  0  0  0
  151.5812  142.3478  157.1493 C   0  0  0  0  0  0  0  0  0  0  0  0
  151.4288  141.6607  158.5264 C   0  0  0  0  0  0  0  0  0  0  0  0
  152.1204  142.4557  159.6469 C   0  0  0  0  0  0  0  0  0  0  0  0
  151.5565  143.8005  159.7291 N   0  0  0  0  0  0  0  0  0  0  0  0
  152.1771  144.5169  160.8348 C   0  0  0  0  0  0  0  0  0  0  0  0
  151.8147  144.5179  158.4832 C   0  0  0  0  0  0  0  0  0  0  0  0
  151.1101  143.8139  157.3105 C   0  0  0  0  0  0  0  0  0  0  0  0
  151.4259  140.2410  155.7636 C   0  0  0  0  0  0  0  0  0  0  0  0
  150.6927  139.5688  154.5891 C   0  0  0  0  0  0  0  0  0  0  0  0
  145.0973  136.2290  152.9107 C   0  0  0  0  0  0  0  0  0  0  0  0
  142.3418  134.1993  152.6431 H   0  0  0  0  0  0  0  0  0  0  0  0
  142.4955  135.6645  153.6166 H   0  0  0  0  0  0  0  0  0  0  0  0
  143.3395  134.1880  154.1028 H   0  0  0  0  0  0  0  0  0  0  0  0
  143.9187  133.8064  150.8199 H   0  0  0  0  0  0  0  0  0  0  0  0
  147.2861  136.1304  150.2982 H   0  0  0  0  0  0  0  0  0  0  0  0
  147.4650  138.1997  151.7573 H   0  0  0  0  0  0  0  0  0  0  0  0
  148.7307  139.2901  152.7956 H   0  0  0  0  0  0  0  0  0  0  0  0
  149.0420  138.7860  155.7143 H   0  0  0  0  0  0  0  0  0  0  0  0
  148.6939  141.4901  154.3192 H   0  0  0  0  0  0  0  0  0  0  0  0
  147.5698  140.7686  155.4463 H   0  0  0  0  0  0  0  0  0  0  0  0
  148.9567  142.4526  156.5558 H   0  0  0  0  0  0  0  0  0  0  0  0
  149.2411  140.8840  157.2694 H   0  0  0  0  0  0  0  0  0  0  0  0
  152.6392  142.3743  156.8826 H   0  0  0  0  0  0  0  0  0  0  0  0
  150.3707  141.5428  158.7662 H   0  0  0  0  0  0  0  0  0  0  0  0
  151.8539  140.6587  158.5212 H   0  0  0  0  0  0  0  0  0  0  0  0
  151.9741  141.9421  160.5981 H   0  0  0  0  0  0  0  0  0  0  0  0
  153.1965  142.5045  159.4711 H   0  0  0  0  0  0  0  0  0  0  0  0
  151.7632  145.5225  160.9189 H   0  0  0  0  0  0  0  0  0  0  0  0
  153.2566  144.6019  160.7003 H   0  0  0  0  0  0  0  0  0  0  0  0
  151.9900  144.0026  161.7782 H   0  0  0  0  0  0  0  0  0  0  0  0
  151.4427  145.5397  158.5685 H   0  0  0  0  0  0  0  0  0  0  0  0
  152.8882  144.5828  158.2980 H   0  0  0  0  0  0  0  0  0  0  0  0
  151.3231  144.3895  156.4096 H   0  0  0  0  0  0  0  0  0  0  0  0
  150.0302  143.8485  157.4638 H   0  0  0  0  0  0  0  0  0  0  0  0
  152.4715  140.3229  155.4713 H   0  0  0  0  0  0  0  0  0  0  0  0
  151.3856  139.6056  156.6498 H   0  0  0  0  0  0  0  0  0  0  0  0
  151.1193  138.5812  154.4085 H   0  0  0  0  0  0  0  0  0  0  0  0
  150.8621  140.1483  153.6800 H   0  0  0  0  0  0  0  0  0  0  0  0
  144.8874  136.6960  153.8605 H   0  0  0  0  0  0  0  0  0  0  0  0
  150.9497  142.1277  155.2382 H   0  0  0  0  0  0  0  0  0  0  0  0
  1  2  1  0  0  0  0
  1 25  1  0  0  0  0
  1 26  1  0  0  0  0
  1 27  1  0  0  0  0
  2 24  1  0  0  0  0
  2  3  2  0  0  0  0
  3  4  1  0  0  0  0
  3 28  1  0  0  0  0
  4  5  2  0  0  0  0
  5  6  1  0  0  0  0
  5 29  1  0  0  0  0
  6  7  1  0  0  0  0
  6 24  2  0  0  0  0
  7  8  1  0  0  0  0
  7 30  1  0  0  0  0
  8  9  2  0  0  0  0
  8 10  1  0  0  0  0
 10 11  1  0  0  0  0
 10 31  1  0  0  0  0
 11 23  1  0  0  0  0
 11 12  1  0  0  0  0
 11 32  1  0  0  0  0
 12 13  1  0  0  0  0
 12 33  1  0  0  0  0
 12 34  1  0  0  0  0
 13 14  1  0  0  0  0
 13 35  1  0  0  0  0
 13 36  1  0  0  0  0
 14 15  1  0  0  0  0
 14 22  1  0  0  0  0
 14 54  1  0  0  0  0
 15 21  1  0  0  0  0
 15 16  1  0  0  0  0
 15 37  1  0  0  0  0
 16 17  1  0  0  0  0
 16 38  1  0  0  0  0
 16 39  1  0  0  0  0
 17 18  1  0  0  0  0
 17 40  1  0  0  0  0
 17 41  1  0  0  0  0
 18 19  1  0  0  0  0
 18 20  1  0  0  0  0
 19 42  1  0  0  0  0
 19 43  1  0  0  0  0
 19 44  1  0  0  0  0
 20 21  1  0  0  0  0
 20 45  1  0  0  0  0
 20 46  1  0  0  0  0
 21 47  1  0  0  0  0
 21 48  1  0  0  0  0
 22 23  1  0  0  0  0
 22 49  1  0  0  0  0
 22 50  1  0  0  0  0
 23 51  1  0  0  0  0
 23 52  1  0  0  0  0
 24 53  1  0  0  0  0
M  CHG  1  14   1
M  END
> <s_m_source_file>
AV-unprocessed.smi

> <i_m_source_file_index>
2583

> <i_lp_mmshare_version>
43012

> <i_f3d_flags>
0

> <s_epik_input>
W0NIM11jMVtjSF1uW2NIXWMoW2NIXTEpW05IXUMoPU8pW05IXVtDSF0yW0NIMl1bQ0gyXU4oW0NIMl1bQ0gyXTIpW0NIXTNbQ0gyXVtDSDJdTihbQ0gzXSlbQ0gyXVtDSDJdMw==

> <s_epik_cmdline>
J2VwaWtfcHl0aG9uJywgJy1waCcsICc3LjAnLCAnLXRuJywgJzgnLCAnLW1hJywgJzIwMCcsICctbWV0YWxfYmluZGluZycsICctaW1hZScsICc8aW5maWxlLm1hZT4nLCAnLW9tYWUnLCAnPG91dGZpbGUubWFlPic=

> <r_epik_Ionization_Penalty>
1.38006

> <r_epik_Ionization_Penalty_Charging>
0.00081195

> <r_epik_Ionization_Penalty_Neutral>
1.37925

> <r_epik_State_Penalty>
1.55585

> <r_epik_Charging_Adjusted_Penalty>
1.55666

> <i_epik_Tot_Q>
1

> <i_epik_Tot_abs_Q>
1

> <r_epik_Metal_State_Penalty>
1.55173

> <b_epik_Metal_Only>
0

> <s_lp_Force_Field>
OPLS_2005

> <r_lp_Energy>
35.6185

> <b_lp_Chiralities_Consistent>
1

> <s_lp_Variant>
AV-unprocessed.smi:2583-7

> <Gold.Version>
5.8.1

> <Gold.Id.Protein>
6NUR|6NUR_protein|mol2

> <Gold.PLP.Fitness>
47.3018

> <Gold.PLP.PLP>
-40.0090

> <Gold.PLP.part.hbond>
-2.0000

> <Gold.PLP.part.metal>
0.0000

> <Gold.PLP.part.buried>
-3.2448

> <Gold.PLP.part.nonpolar>
-36.1977

> <Gold.PLP.part.repulsive>
0.5862

> <Gold.PLP.ligand.clash>
0.0000

> <Gold.PLP.ligand.torsion>
0.4503

> <Gold.PLP.Chemscore.Hbond>
1.0000

> <Gold.PLP.Chemscore.CHOScore>
1.7208

> <Gold.PLP.Chemscore.Metal>
0.0000

> <Gold.Chemscore.Hbonds>
donor molecule, donor type, donor heavy atom, donor atom, acceptor molecule, acceptor atom, score
      L1  H    10    31       P1  7957  1.00
      L1  C     5    29       P1  7948  0.45

> <Gold.PLP.Chemscore.Internal.Correction>
0.0310

> <Gold.Rescore>
     Score         DG    S(hbond)    S(metal)    S(lipo)     H(rot)  DE(clash)    DE(int)     intcor
     18.01     -19.66       0.93        0.00     120.61       1.19       0.44       1.21       ----

> <Gold.Chemscore.Fitness>
18.0066

> <Gold.Chemscore.DG>
-19.6641

> <Gold.Chemscore.ZeroCoef>
-5.4800

> <Gold.Chemscore.Hbond>
0.9347

> <Gold.Chemscore.Metal>
0.0000

> <Gold.Chemscore.Lipo>
120.6087

> <Gold.Chemscore.Internal_Hbond>
0.0000

> <Gold.Chemscore.DEClash>
0.4432

> <Gold.Chemscore.DEInternal>
1.2143

> <Gold.Chemscore.Rot>
1.1910

> <Gold.Chemscore.Internal.Correction>
   9.000000E+99

> <Gold.Chemscore.Hbonds>
donor molecule, donor type, donor heavy atom, donor atom, acceptor molecule, acceptor atom, score
      L1  H    10    31       P1  7957  0.97

> <Gold.Chemscore.Hbond.Weighted>
-3.1218

> <Gold.Chemscore.Metal.Weighted>
-0.0000

> <Gold.Chemscore.Lipo.Weighted>
-14.1112

> <Gold.Chemscore.Internal_Hbond.Weighted>
0.0000

> <Gold.Chemscore.DEClash.Weighted>
0.4432

> <Gold.Chemscore.DEInternal.Weighted>
1.2143

> <Gold.Chemscore.Rot.Weighted>
3.0489

> <Gold.Chemscore.Internal.Correction.Weighted>
   9.000000E+99

> <Gold.Protein.RotatedTorsions>
[ 6907 6896 6895 6894 ] final  108.67 input  -60.11 | X-H torsion
[ 7974 7965 7964 7962 ] final  160.02 input  175.53 | X-H torsion
[ 8008 7997 7996 7995 ] final  -18.64 input   59.86 | X-H torsion
[ 10167 10162 10161 10158 ] final -175.93 input  -65.29 | X-H torsion
[ 10718 10713 10712 10709 ] final  -13.34 input   66.30 | X-H torsion
[ 10763 10752 10751 10750 ] final -179.16 input  -60.55 | X-H torsion
[ 11005 11000 10999 10996 ] final  -40.54 input  -57.11 | X-H torsion

> <Gold.Protein.ActiveResidues>
 VAL166  LYS551  ARG553  GLY616  TRP617  ASP618  TYR619  PRO620  LYS621  CYS622 
 ASP623  PHE694  ASN695  SER759  ASP760  ASP761  ALA762  ILE779  LEU786  VAL792 
 PHE793  MET794  SER795  GLU796  ALA797  LYS798  CYS799  TRP800  GLU811  SER814 

> <Gold.Protein.RotatedAtoms>
  152.5102  133.9055  159.7461 H   0  0  0  0  0  0  0  0  0  0  0  0  # atno 6907 bound_to 6896
  150.9461  133.6593  159.2788 H   0  0  0  0  0  0  0  0  0  0  0  0  # atno 6908 bound_to 6896
  151.3888  135.0957  159.9572 H   0  0  0  0  0  0  0  0  0  0  0  0  # atno 6909 bound_to 6896
  144.7759  139.7698  143.6279 H   0  0  0  0  0  0  0  0  0  0  0  0  # atno 7974 bound_to 7965
  154.4892  140.2110  155.9586 H   0  0  0  0  0  0  0  0  0  0  0  0  # atno 8008 bound_to 7997
  156.1281  140.3202  155.8276 H   0  0  0  0  0  0  0  0  0  0  0  0  # atno 8009 bound_to 7997
  155.4347  140.0506  157.3006 H   0  0  0  0  0  0  0  0  0  0  0  0  # atno 8010 bound_to 7997
  139.5555  144.1999  152.1152 H   0  0  0  0  0  0  0  0  0  0  0  0  # atno 10167 bound_to 10162
  156.6317  130.4903  149.6127 H   0  0  0  0  0  0  0  0  0  0  0  0  # atno 10718 bound_to 10713
  154.5385  135.2804  155.1116 H   0  0  0  0  0  0  0  0  0  0  0  0  # atno 10763 bound_to 10752
  154.2608  135.6322  153.5278 H   0  0  0  0  0  0  0  0  0  0  0  0  # atno 10764 bound_to 10752
  152.9973  135.5605  154.5918 H   0  0  0  0  0  0  0  0  0  0  0  0  # atno 10765 bound_to 10752
  141.0182  133.6875  156.2335 H   0  0  0  0  0  0  0  0  0  0  0  0  # atno 11005 bound_to 11000
  146.1938  139.5193  142.9788 LP  0  0  0  0  0  0  0  0  0  0  0  0  # atno 17320 bound_to 7965
  145.6187  141.0326  143.1926 LP  0  0  0  0  0  0  0  0  0  0  0  0  # atno 17321 bound_to 7965
  140.1502  144.5121  150.6692 LP  0  0  0  0  0  0  0  0  0  0  0  0  # atno 17342 bound_to 10162
  140.6827  143.2335  151.5341 LP  0  0  0  0  0  0  0  0  0  0  0  0  # atno 17343 bound_to 10162
  156.2229  130.6748  151.1387 LP  0  0  0  0  0  0  0  0  0  0  0  0  # atno 17370 bound_to 10713
  157.7198  131.0688  150.6182 LP  0  0  0  0  0  0  0  0  0  0  0  0  # atno 17371 bound_to 10713
  140.6618  134.4959  157.5583 LP  0  0  0  0  0  0  0  0  0  0  0  0  # atno 17394 bound_to 11000
  139.9130  134.8305  156.1463 LP  0  0  0  0  0  0  0  0  0  0  0  0  # atno 17395 bound_to 11000

$$$$
