AV-unprocessed.smi:1622|AV-procd|sdf|6497|dock7
  -GOLD-   22720 7163D 1   1.00000     0.00000
 Structure written by MMmdl.
 41 42  0  0  0  0  0  0  0  0  2 V2000
  146.3284  143.1963  153.4625 C   0  0  0  0  0  0  0  0  0  0  0  0
  146.2400  142.1806  154.6132 C   0  0  0  0  0  0  0  0  0  0  0  0
  147.0364  140.8671  154.3860 C   0  0  2  0  0  0  0  0  0  0  0  0
  148.5451  141.1150  154.1209 C   0  0  0  0  0  0  0  0  0  0  0  0
  149.1472  142.0175  155.1002 N   0  0  0  0  0  0  0  0  0  0  0  0
  149.8961  141.6419  156.1477 C   0  0  0  0  0  0  0  0  0  0  0  0
  150.1590  140.4680  156.4083 O   0  0  0  0  0  0  0  0  0  0  0  0
  150.3121  142.7060  156.8571 N   0  0  0  0  0  0  0  0  0  0  0  0
  151.1488  142.7226  158.0046 C   0  0  0  0  0  0  0  0  0  0  0  0
  151.7338  143.8295  158.4827 N   0  0  0  0  0  0  0  0  0  0  0  0
  152.4909  143.5669  159.6156 N   0  0  0  0  0  0  0  0  0  0  0  0
  152.4577  142.2739  159.9595 C   0  0  0  0  0  0  0  0  0  0  0  0
  153.1876  141.7356  161.1423 C   0  0  0  0  0  0  0  0  0  0  0  0
  151.4780  141.2558  158.9108 S   0  0  0  0  0  0  0  0  0  0  0  0
  146.4204  140.0342  153.3097 N   0  3  0  0  0  0  0  0  0  0  0  0
  147.1417  140.0223  152.0192 C   0  0  0  0  0  0  0  0  0  0  0  0
  146.5988  138.8170  151.2513 C   0  0  0  0  0  0  0  0  0  0  0  0
  146.0690  137.8608  152.3225 C   0  0  0  0  0  0  0  0  0  0  0  0
  146.2144  138.6088  153.6516 C   0  0  0  0  0  0  0  0  0  0  0  0
  145.7524  144.0914  153.6977 H   0  0  0  0  0  0  0  0  0  0  0  0
  145.9315  142.7872  152.5335 H   0  0  0  0  0  0  0  0  0  0  0  0
  147.3542  143.5106  153.2768 H   0  0  0  0  0  0  0  0  0  0  0  0
  146.5760  142.6624  155.5312 H   0  0  0  0  0  0  0  0  0  0  0  0
  145.1905  141.9521  154.7991 H   0  0  0  0  0  0  0  0  0  0  0  0
  146.9666  140.2911  155.3104 H   0  0  0  0  0  0  0  0  0  0  0  0
  149.1029  140.1820  154.1957 H   0  0  0  0  0  0  0  0  0  0  0  0
  148.6970  141.4720  153.1012 H   0  0  0  0  0  0  0  0  0  0  0  0
  148.9811  143.0048  154.9685 H   0  0  0  0  0  0  0  0  0  0  0  0
  150.0032  143.6113  156.5350 H   0  0  0  0  0  0  0  0  0  0  0  0
  154.0192  142.3890  161.4084 H   0  0  0  0  0  0  0  0  0  0  0  0
  153.5821  140.7438  160.9206 H   0  0  0  0  0  0  0  0  0  0  0  0
  152.5120  141.6627  161.9945 H   0  0  0  0  0  0  0  0  0  0  0  0
  147.0018  140.9485  151.4608 H   0  0  0  0  0  0  0  0  0  0  0  0
  148.2099  139.8908  152.2004 H   0  0  0  0  0  0  0  0  0  0  0  0
  145.7808  139.1275  150.5999 H   0  0  0  0  0  0  0  0  0  0  0  0
  147.3626  138.3568  150.6236 H   0  0  0  0  0  0  0  0  0  0  0  0
  145.0230  137.6217  152.1269 H   0  0  0  0  0  0  0  0  0  0  0  0
  146.6227  136.9215  152.3376 H   0  0  0  0  0  0  0  0  0  0  0  0
  147.0885  138.2319  154.1853 H   0  0  0  0  0  0  0  0  0  0  0  0
  145.3425  138.4668  154.2907 H   0  0  0  0  0  0  0  0  0  0  0  0
  145.5054  140.4176  153.1196 H   0  0  0  0  0  0  0  0  0  0  0  0
  1  2  1  0  0  0  0
  1 20  1  0  0  0  0
  1 21  1  0  0  0  0
  1 22  1  0  0  0  0
  2  3  1  0  0  0  0
  2 23  1  0  0  0  0
  2 24  1  0  0  0  0
  3  4  1  0  0  0  0
  3 15  1  0  0  0  0
  3 25  1  0  0  0  0
  4  5  1  0  0  0  0
  4 26  1  0  0  0  0
  4 27  1  0  0  0  0
  5  6  1  0  0  0  0
  5 28  1  0  0  0  0
  6  7  2  0  0  0  0
  6  8  1  0  0  0  0
  8  9  1  0  0  0  0
  8 29  1  0  0  0  0
  9 14  1  0  0  0  0
  9 10  2  0  0  0  0
 10 11  1  0  0  0  0
 11 12  2  0  0  0  0
 12 13  1  0  0  0  0
 12 14  1  0  0  0  0
 13 30  1  0  0  0  0
 13 31  1  0  0  0  0
 13 32  1  0  0  0  0
 15 19  1  0  0  0  0
 15 16  1  0  0  0  0
 15 41  1  0  0  0  0
 16 17  1  0  0  0  0
 16 33  1  0  0  0  0
 16 34  1  0  0  0  0
 17 18  1  0  0  0  0
 17 35  1  0  0  0  0
 17 36  1  0  0  0  0
 18 19  1  0  0  0  0
 18 37  1  0  0  0  0
 18 38  1  0  0  0  0
 19 39  1  0  0  0  0
 19 40  1  0  0  0  0
M  CHG  1  15   1
M  END
> <s_m_source_file>
AV-unprocessed.smi

> <i_m_source_file_index>
1622

> <i_lp_mmshare_version>
43012

> <i_f3d_flags>
0

> <s_epik_input>
W0NIMl0xW0NIMl1bQ0gyXVtDSDJdTjFbQ0BIXShbQ0gyXVtDSDNdKVtDSDJdW05IXUMoPU8pW05IXWMybm5jKHMyKVtDSDNd

> <s_epik_cmdline>
J2VwaWtfcHl0aG9uJywgJy1waCcsICc3LjAnLCAnLXRuJywgJzgnLCAnLW1hJywgJzIwMCcsICctbWV0YWxfYmluZGluZycsICctaW1hZScsICc8aW5maWxlLm1hZT4nLCAnLW9tYWUnLCAnPG91dGZpbGUubWFlPic=

> <r_lp_tautomer_probability>
1

> <r_epik_Ionization_Penalty>
0.00164835

> <r_epik_Ionization_Penalty_Charging>
0.00115997

> <r_epik_Ionization_Penalty_Neutral>
0.00048838

> <r_epik_State_Penalty>
-0

> <r_epik_Charging_Adjusted_Penalty>
0.00115997

> <i_epik_Tot_Q>
1

> <i_epik_Tot_abs_Q>
1

> <r_epik_Metal_State_Penalty>
0.216651

> <b_epik_Metal_Only>
0

> <s_lp_Force_Field>
OPLS_2005

> <r_lp_Energy>
32.351

> <b_lp_Chiralities_Consistent>
1

> <s_lp_Variant>
AV-unprocessed.smi:1622-1

> <Gold.Version>
5.8.1

> <Gold.Id.Protein>
6NUR|6NUR_protein|mol2

> <Gold.PLP.Fitness>
47.9874

> <Gold.PLP.PLP>
-38.8522

> <Gold.PLP.part.hbond>
-3.0000

> <Gold.PLP.part.metal>
0.0000

> <Gold.PLP.part.buried>
0.3807

> <Gold.PLP.part.nonpolar>
-35.2728

> <Gold.PLP.part.repulsive>
0.3580

> <Gold.PLP.ligand.clash>
0.0000

> <Gold.PLP.ligand.torsion>
1.4713

> <Gold.PLP.Chemscore.Hbond>
4.0000

> <Gold.PLP.Chemscore.CHOScore>
0.0000

> <Gold.PLP.Chemscore.Metal>
0.0000

> <Gold.Chemscore.Hbonds>
donor molecule, donor type, donor heavy atom, donor atom, acceptor molecule, acceptor atom, score
      L1  H     5    28       P1  8028  1.00
      L1  H     8    29       P1  8028  1.00
      L1  H    15    41       P1 10175  2.00

> <Gold.PLP.Chemscore.Internal.Correction>
0.0778

> <Gold.Rescore>
     Score         DG    S(hbond)    S(metal)    S(lipo)     H(rot)  DE(clash)    DE(int)     intcor
     16.40     -20.69       2.93        0.00      85.17       1.77       1.46       2.84       ----

> <Gold.Chemscore.Fitness>
16.3970

> <Gold.Chemscore.DG>
-20.6933

> <Gold.Chemscore.ZeroCoef>
-5.4800

> <Gold.Chemscore.Hbond>
2.9309

> <Gold.Chemscore.Metal>
0.0000

> <Gold.Chemscore.Lipo>
85.1730

> <Gold.Chemscore.Internal_Hbond>
0.0000

> <Gold.Chemscore.DEClash>
1.4595

> <Gold.Chemscore.DEInternal>
2.8368

> <Gold.Chemscore.Rot>
1.7738

> <Gold.Chemscore.Internal.Correction>
   9.000000E+99

> <Gold.Chemscore.Hbonds>
donor molecule, donor type, donor heavy atom, donor atom, acceptor molecule, acceptor atom, score
      L1  H     5    28       P1  8028  0.95
      L1  H     8    29       P1  8028  0.98
      L1  H    15    41       P1 10175  0.93

> <Gold.Chemscore.Hbond.Weighted>
-9.7891

> <Gold.Chemscore.Metal.Weighted>
-0.0000

> <Gold.Chemscore.Lipo.Weighted>
-9.9652

> <Gold.Chemscore.Internal_Hbond.Weighted>
0.0000

> <Gold.Chemscore.DEClash.Weighted>
1.4595

> <Gold.Chemscore.DEInternal.Weighted>
2.8368

> <Gold.Chemscore.Rot.Weighted>
4.5411

> <Gold.Chemscore.Internal.Correction.Weighted>
   9.000000E+99

> <Gold.Protein.RotatedTorsions>
[ 6907 6896 6895 6894 ] final  110.81 input  -60.11 | X-H torsion
[ 7974 7965 7964 7962 ] final -124.66 input  175.53 | X-H torsion
[ 8008 7997 7996 7995 ] final  176.48 input   59.86 | X-H torsion
[ 10167 10162 10161 10158 ] final -121.32 input  -65.29 | X-H torsion
[ 10718 10713 10712 10709 ] final  -20.64 input   66.30 | X-H torsion
[ 10763 10752 10751 10750 ] final  -56.48 input  -60.55 | X-H torsion
[ 11005 11000 10999 10996 ] final  -52.78 input  -57.11 | X-H torsion

> <Gold.Protein.ActiveResidues>
 VAL166  LYS551  ARG553  GLY616  TRP617  ASP618  TYR619  PRO620  LYS621  CYS622 
 ASP623  PHE694  ASN695  SER759  ASP760  ASP761  ALA762  ILE779  LEU786  VAL792 
 PHE793  MET794  SER795  GLU796  ALA797  LYS798  CYS799  TRP800  GLU811  SER814 

> <Gold.Protein.RotatedAtoms>
  152.5001  133.8747  159.7316 H   0  0  0  0  0  0  0  0  0  0  0  0  # atno 6907 bound_to 6896
  150.9225  133.6854  159.2835 H   0  0  0  0  0  0  0  0  0  0  0  0  # atno 6908 bound_to 6896
  151.4227  135.1004  159.9671 H   0  0  0  0  0  0  0  0  0  0  0  0  # atno 6909 bound_to 6896
  145.0057  140.7861  143.4469 H   0  0  0  0  0  0  0  0  0  0  0  0  # atno 7974 bound_to 7965
  156.0760  140.1382  156.9771 H   0  0  0  0  0  0  0  0  0  0  0  0  # atno 8008 bound_to 7997
  154.4558  140.0962  156.6803 H   0  0  0  0  0  0  0  0  0  0  0  0  # atno 8009 bound_to 7997
  155.5152  140.3455  155.4398 H   0  0  0  0  0  0  0  0  0  0  0  0  # atno 8010 bound_to 7997
  140.0263  143.5294  152.2197 H   0  0  0  0  0  0  0  0  0  0  0  0  # atno 10167 bound_to 10162
  156.5291  130.4651  149.6556 H   0  0  0  0  0  0  0  0  0  0  0  0  # atno 10718 bound_to 10713
  154.2073  135.6400  153.5104 H   0  0  0  0  0  0  0  0  0  0  0  0  # atno 10763 bound_to 10752
  152.9998  135.5465  154.6252 H   0  0  0  0  0  0  0  0  0  0  0  0  # atno 10764 bound_to 10752
  154.5680  135.2914  155.0828 H   0  0  0  0  0  0  0  0  0  0  0  0  # atno 10765 bound_to 10752
  141.0942  133.6627  156.4075 H   0  0  0  0  0  0  0  0  0  0  0  0  # atno 11005 bound_to 11000
  145.2092  139.2213  143.5152 LP  0  0  0  0  0  0  0  0  0  0  0  0  # atno 17320 bound_to 7965
  146.3460  140.1926  142.8589 LP  0  0  0  0  0  0  0  0  0  0  0  0  # atno 17321 bound_to 7965
  139.6106  144.7607  151.2961 LP  0  0  0  0  0  0  0  0  0  0  0  0  # atno 17342 bound_to 10162
  140.7321  143.6832  150.7983 LP  0  0  0  0  0  0  0  0  0  0  0  0  # atno 17343 bound_to 10162
  156.3077  130.7212  151.2097 LP  0  0  0  0  0  0  0  0  0  0  0  0  # atno 17370 bound_to 10713
  157.7424  131.0489  150.5022 LP  0  0  0  0  0  0  0  0  0  0  0  0  # atno 17371 bound_to 10713
  140.5179  134.6332  157.5308 LP  0  0  0  0  0  0  0  0  0  0  0  0  # atno 17394 bound_to 11000
  139.9775  134.7191  155.9922 LP  0  0  0  0  0  0  0  0  0  0  0  0  # atno 17395 bound_to 11000

$$$$
