AV-unprocessed.smi:168|AV-procd|sdf|1396|dock10
  -GOLD-   2262019143D 1   1.00000     0.00000
 Structure written by MMmdl.
 62 66  0  0  0  0  0  0  0  0  1 V2000
  146.3158  142.5505  154.4173 C   0  0  0  0  0  0  0  0  0  0  0  0
  146.0151  141.1660  155.0176 C   0  0  0  0  0  0  0  0  0  0  0  0
  145.4202  141.3508  156.4239 C   0  0  0  0  0  0  0  0  0  0  0  0
  147.2633  140.2683  155.0530 C   0  0  2  0  0  0  0  0  0  0  0  0
  147.1281  139.1075  155.9288 N   0  0  0  0  0  0  0  0  0  0  0  0
  146.6692  137.9063  155.3231 C   0  0  0  0  0  0  0  0  0  0  0  0
  146.5072  136.8418  156.1487 N   0  0  0  0  0  0  0  0  0  0  0  0
  146.0700  135.6675  155.6866 C   0  0  0  0  0  0  0  0  0  0  0  0
  145.7431  135.3336  154.4385 N   0  0  0  0  0  0  0  0  0  0  0  0
  145.9106  136.3872  153.5904 C   0  0  0  0  0  0  0  0  0  0  0  0
  146.3582  137.6931  153.9453 C   0  0  0  0  0  0  0  0  0  0  0  0
  146.3856  138.4982  152.8115 N   0  0  0  0  0  0  0  0  0  0  0  0
  145.9717  137.7196  151.8503 C   0  0  0  0  0  0  0  0  0  0  0  0
  145.6946  136.4249  152.2235 N   0  0  0  0  0  0  0  0  0  0  0  0
  145.1918  135.3787  151.3808 C   0  0  0  0  0  0  0  0  0  0  0  0
  144.5089  134.1419  151.9767 C   0  0  0  0  0  0  0  0  0  0  0  0
  145.1613  133.2493  150.8966 C   0  0  0  0  0  0  0  0  0  0  0  0
  145.7767  131.9251  151.3869 C   0  0  0  0  0  0  0  0  0  0  0  0
  146.4185  131.2019  150.3550 O   0  0  0  0  0  0  0  0  0  0  0  0
  144.2642  132.8578  149.7035 C   0  0  0  0  0  0  0  0  0  0  0  0
  143.7394  133.9695  149.0064 O   0  0  0  0  0  0  0  0  0  0  0  0
  146.1449  134.4182  150.6587 C   0  0  0  0  0  0  0  0  0  0  0  0
  148.5541  139.1226  156.2131 C   0  0  0  0  0  0  0  0  0  0  0  0
  148.5218  140.6237  155.8826 C   0  0  0  0  0  0  0  0  0  0  0  0
  148.3486  141.5552  157.1045 C   0  0  0  0  0  0  0  0  0  0  0  0
  149.6161  141.6436  157.9720 C   0  0  0  0  0  0  0  0  0  0  0  0
  150.8223  142.1077  157.1454 C   0  0  0  0  0  0  0  0  0  0  0  0
  151.0089  141.2356  155.8970 C   0  0  0  0  0  0  0  0  0  0  0  0
  149.7132  141.1587  155.0723 C   0  0  0  0  0  0  0  0  0  0  0  0
  147.1157  143.0534  154.9615 H   0  0  0  0  0  0  0  0  0  0  0  0
  145.4357  143.1931  154.4500 H   0  0  0  0  0  0  0  0  0  0  0  0
  146.6176  142.4788  153.3732 H   0  0  0  0  0  0  0  0  0  0  0  0
  145.2494  140.6970  154.3986 H   0  0  0  0  0  0  0  0  0  0  0  0
  146.1289  141.8471  157.0874 H   0  0  0  0  0  0  0  0  0  0  0  0
  145.1518  140.4030  156.8860 H   0  0  0  0  0  0  0  0  0  0  0  0
  144.5161  141.9593  156.3906 H   0  0  0  0  0  0  0  0  0  0  0  0
  147.5666  139.9741  154.0482 H   0  0  0  0  0  0  0  0  0  0  0  0
  145.9699  134.8834  156.4224 H   0  0  0  0  0  0  0  0  0  0  0  0
  145.8639  138.0711  150.8345 H   0  0  0  0  0  0  0  0  0  0  0  0
  144.5312  135.8705  150.6659 H   0  0  0  0  0  0  0  0  0  0  0  0
  144.8553  133.9282  152.9887 H   0  0  0  0  0  0  0  0  0  0  0  0
  143.4195  134.1770  151.9441 H   0  0  0  0  0  0  0  0  0  0  0  0
  146.5126  132.1070  152.1709 H   0  0  0  0  0  0  0  0  0  0  0  0
  145.0116  131.2785  151.8182 H   0  0  0  0  0  0  0  0  0  0  0  0
  147.3440  131.3914  150.3853 H   0  0  0  0  0  0  0  0  0  0  0  0
  144.8183  132.2513  148.9863 H   0  0  0  0  0  0  0  0  0  0  0  0
  143.4216  132.2517  150.0383 H   0  0  0  0  0  0  0  0  0  0  0  0
  142.8592  134.1278  149.3119 H   0  0  0  0  0  0  0  0  0  0  0  0
  146.3160  134.6658  149.6106 H   0  0  0  0  0  0  0  0  0  0  0  0
  147.0933  134.3024  151.1849 H   0  0  0  0  0  0  0  0  0  0  0  0
  148.7916  138.8864  157.2504 H   0  0  0  0  0  0  0  0  0  0  0  0
  149.1568  138.5383  155.5165 H   0  0  0  0  0  0  0  0  0  0  0  0
  148.0815  142.5615  156.7859 H   0  0  0  0  0  0  0  0  0  0  0  0
  147.5207  141.2174  157.7290 H   0  0  0  0  0  0  0  0  0  0  0  0
  149.4510  142.3290  158.8035 H   0  0  0  0  0  0  0  0  0  0  0  0
  149.8291  140.6703  158.4148 H   0  0  0  0  0  0  0  0  0  0  0  0
  150.6752  143.1452  156.8431 H   0  0  0  0  0  0  0  0  0  0  0  0
  151.7256  142.0877  157.7559 H   0  0  0  0  0  0  0  0  0  0  0  0
  151.8174  141.6342  155.2835 H   0  0  0  0  0  0  0  0  0  0  0  0
  151.3131  140.2315  156.1942 H   0  0  0  0  0  0  0  0  0  0  0  0
  149.8891  140.5286  154.1997 H   0  0  0  0  0  0  0  0  0  0  0  0
  149.4811  142.1480  154.6761 H   0  0  0  0  0  0  0  0  0  0  0  0
  1  2  1  0  0  0  0
  1 30  1  0  0  0  0
  1 31  1  0  0  0  0
  1 32  1  0  0  0  0
  2  3  1  0  0  0  0
  2  4  1  0  0  0  0
  2 33  1  0  0  0  0
  3 34  1  0  0  0  0
  3 35  1  0  0  0  0
  3 36  1  0  0  0  0
  4 24  1  0  0  0  0
  4  5  1  0  0  0  0
  4 37  1  0  0  0  0
  5  6  1  0  0  0  0
  5 23  1  0  0  0  0
  6 11  1  0  0  0  0
  6  7  2  0  0  0  0
  7  8  1  0  0  0  0
  8  9  2  0  0  0  0
  8 38  1  0  0  0  0
  9 10  1  0  0  0  0
 10 14  1  0  0  0  0
 10 11  2  0  0  0  0
 11 12  1  0  0  0  0
 12 13  2  0  0  0  0
 13 14  1  0  0  0  0
 13 39  1  0  0  0  0
 14 15  1  0  0  0  0
 15 22  1  0  0  0  0
 15 16  1  0  0  0  0
 15 40  1  0  0  0  0
 16 17  1  0  0  0  0
 16 41  1  0  0  0  0
 16 42  1  0  0  0  0
 17 18  1  0  0  0  0
 17 20  1  0  0  0  0
 17 22  1  0  0  0  0
 18 19  1  0  0  0  0
 18 43  1  0  0  0  0
 18 44  1  0  0  0  0
 19 45  1  0  0  0  0
 20 21  1  0  0  0  0
 20 46  1  0  0  0  0
 20 47  1  0  0  0  0
 21 48  1  0  0  0  0
 22 49  1  0  0  0  0
 22 50  1  0  0  0  0
 23 24  1  0  0  0  0
 23 51  1  0  0  0  0
 23 52  1  0  0  0  0
 24 29  1  0  0  0  0
 24 25  1  0  0  0  0
 25 26  1  0  0  0  0
 25 53  1  0  0  0  0
 25 54  1  0  0  0  0
 26 27  1  0  0  0  0
 26 55  1  0  0  0  0
 26 56  1  0  0  0  0
 27 28  1  0  0  0  0
 27 57  1  0  0  0  0
 27 58  1  0  0  0  0
 28 29  1  0  0  0  0
 28 59  1  0  0  0  0
 28 60  1  0  0  0  0
 29 61  1  0  0  0  0
 29 62  1  0  0  0  0
M  END
> <s_m_source_file>
AV-unprocessed.smi

> <i_m_source_file_index>
168

> <i_lp_mmshare_version>
43012

> <i_f3d_flags>
0

> <s_epik_input>
W0NIMl0xW0NIMl1bQ0gyXVtDSDJdW0NIMl1DMTJbQ0BIXShbQ0hdKFtDSDNdKVtDSDNdKU4oW0NIMl0yKWMobltjSF1uMyljKGMzNCluW2NIXW40W0NIXShbQ0gyXTUpW0NIMl1DNShbQ0gyXVtPSF0pW0NIMl1bT0hd

> <s_epik_cmdline>
J2VwaWtfcHl0aG9uJywgJy1waCcsICc3LjAnLCAnLXRuJywgJzgnLCAnLW1hJywgJzIwMCcsICctbWV0YWxfYmluZGluZycsICctaW1hZScsICc8aW5maWxlLm1hZT4nLCAnLW9tYWUnLCAnPG91dGZpbGUubWFlPic=

> <r_lp_tautomer_probability>
1

> <r_epik_Ionization_Penalty>
0.00324652

> <r_epik_Ionization_Penalty_Charging>
0

> <r_epik_Ionization_Penalty_Neutral>
0.00324652

> <r_epik_State_Penalty>
0.00223464

> <r_epik_Charging_Adjusted_Penalty>
0.00223464

> <i_epik_Tot_Q>
0

> <i_epik_Tot_abs_Q>
0

> <r_epik_Metal_State_Penalty>
-0

> <b_epik_Metal_Only>
0

> <s_lp_Force_Field>
OPLS_2005

> <r_lp_Energy>
66.0346

> <b_lp_Chiralities_Consistent>
1

> <s_lp_Variant>
AV-unprocessed.smi:168-1

> <Gold.Version>
5.8.1

> <Gold.Id.Protein>
6NUR|6NUR_protein|mol2

> <Gold.PLP.Fitness>
47.6262

> <Gold.PLP.PLP>
-40.9223

> <Gold.PLP.part.hbond>
-3.0000

> <Gold.PLP.part.metal>
0.0000

> <Gold.PLP.part.buried>
-5.2228

> <Gold.PLP.part.nonpolar>
-32.6029

> <Gold.PLP.part.repulsive>
0.3366

> <Gold.PLP.ligand.clash>
0.0000

> <Gold.PLP.ligand.torsion>
1.1538

> <Gold.PLP.Chemscore.Hbond>
2.0000

> <Gold.PLP.Chemscore.CHOScore>
0.7175

> <Gold.PLP.Chemscore.Metal>
0.0000

> <Gold.Chemscore.Hbonds>
donor molecule, donor type, donor heavy atom, donor atom, acceptor molecule, acceptor atom, score
      L1  H    19    45       P1 10747  0.99
      L1  H    21    48       P1 10186  1.00
      L1  C    13    39       P1 10171  0.92

> <Gold.PLP.Chemscore.Internal.Correction>
0.8590

> <Gold.Rescore>
     Score         DG    S(hbond)    S(metal)    S(lipo)     H(rot)  DE(clash)    DE(int)     intcor
     11.67     -15.33       1.99        0.00      95.44       3.12       0.34       3.32       ----

> <Gold.Chemscore.Fitness>
11.6666

> <Gold.Chemscore.DG>
-15.3257

> <Gold.Chemscore.ZeroCoef>
-5.4800

> <Gold.Chemscore.Hbond>
1.9946

> <Gold.Chemscore.Metal>
0.0000

> <Gold.Chemscore.Lipo>
95.4362

> <Gold.Chemscore.Internal_Hbond>
0.0000

> <Gold.Chemscore.DEClash>
0.3377

> <Gold.Chemscore.DEInternal>
3.3214

> <Gold.Chemscore.Rot>
3.1181

> <Gold.Chemscore.Internal.Correction>
   9.000000E+99

> <Gold.Chemscore.Hbonds>
donor molecule, donor type, donor heavy atom, donor atom, acceptor molecule, acceptor atom, score
      L1  H    19    45       P1 10747  0.93
      L1  H    21    48       P1 10186  1.00

> <Gold.Chemscore.Hbond.Weighted>
-6.6619

> <Gold.Chemscore.Metal.Weighted>
-0.0000

> <Gold.Chemscore.Lipo.Weighted>
-11.1660

> <Gold.Chemscore.Internal_Hbond.Weighted>
0.0000

> <Gold.Chemscore.DEClash.Weighted>
0.3377

> <Gold.Chemscore.DEInternal.Weighted>
3.3214

> <Gold.Chemscore.Rot.Weighted>
7.9823

> <Gold.Chemscore.Internal.Correction.Weighted>
   9.000000E+99

> <Gold.Protein.RotatedTorsions>
[ 6907 6896 6895 6894 ] final  166.25 input  -60.11 | X-H torsion
[ 7974 7965 7964 7962 ] final -116.98 input  175.53 | X-H torsion
[ 8008 7997 7996 7995 ] final  -44.87 input   59.86 | X-H torsion
[ 10167 10162 10161 10158 ] final   -8.87 input  -65.29 | X-H torsion
[ 10718 10713 10712 10709 ] final  -26.07 input   66.30 | X-H torsion
[ 10763 10752 10751 10750 ] final  166.54 input  -60.55 | X-H torsion
[ 11005 11000 10999 10996 ] final  -53.45 input  -57.11 | X-H torsion

> <Gold.Protein.ActiveResidues>
 VAL166  LYS551  ARG553  GLY616  TRP617  ASP618  TYR619  PRO620  LYS621  CYS622 
 ASP623  PHE694  ASN695  SER759  ASP760  ASP761  ALA762  ILE779  LEU786  VAL792 
 PHE793  MET794  SER795  GLU796  ALA797  LYS798  CYS799  TRP800  GLU811  SER814 

> <Gold.Protein.RotatedAtoms>
  151.8818  133.3497  159.3768 H   0  0  0  0  0  0  0  0  0  0  0  0  # atno 6907 bound_to 6896
  150.7125  134.5011  159.5571 H   0  0  0  0  0  0  0  0  0  0  0  0  # atno 6908 bound_to 6896
  152.2564  134.8080  160.0489 H   0  0  0  0  0  0  0  0  0  0  0  0  # atno 6909 bound_to 6896
  145.0905  140.8486  143.3985 H   0  0  0  0  0  0  0  0  0  0  0  0  # atno 7974 bound_to 7965
  154.3998  140.1411  156.3753 H   0  0  0  0  0  0  0  0  0  0  0  0  # atno 8008 bound_to 7997
  155.8054  140.3474  155.5406 H   0  0  0  0  0  0  0  0  0  0  0  0  # atno 8009 bound_to 7997
  155.8441  140.0931  157.1706 H   0  0  0  0  0  0  0  0  0  0  0  0  # atno 8010 bound_to 7997
  140.7071  143.5921  150.8883 H   0  0  0  0  0  0  0  0  0  0  0  0  # atno 10167 bound_to 10162
  156.4560  130.4494  149.6959 H   0  0  0  0  0  0  0  0  0  0  0  0  # atno 10718 bound_to 10713
  154.3404  135.2754  155.2425 H   0  0  0  0  0  0  0  0  0  0  0  0  # atno 10763 bound_to 10752
  154.4698  135.5886  153.6317 H   0  0  0  0  0  0  0  0  0  0  0  0  # atno 10764 bound_to 10752
  152.9858  135.6085  154.3605 H   0  0  0  0  0  0  0  0  0  0  0  0  # atno 10765 bound_to 10752
  141.0976  133.6622  156.4173 H   0  0  0  0  0  0  0  0  0  0  0  0  # atno 11005 bound_to 11000
  145.1072  139.2782  143.5656 LP  0  0  0  0  0  0  0  0  0  0  0  0  # atno 17320 bound_to 7965
  146.3531  140.0657  142.8626 LP  0  0  0  0  0  0  0  0  0  0  0  0  # atno 17321 bound_to 7965
  139.9646  143.6125  152.2992 LP  0  0  0  0  0  0  0  0  0  0  0  0  # atno 17342 bound_to 10162
  139.6690  144.7661  151.1819 LP  0  0  0  0  0  0  0  0  0  0  0  0  # atno 17343 bound_to 10162
  156.3766  130.7558  151.2546 LP  0  0  0  0  0  0  0  0  0  0  0  0  # atno 17370 bound_to 10713
  157.7500  131.0308  150.4152 LP  0  0  0  0  0  0  0  0  0  0  0  0  # atno 17371 bound_to 10713
  140.5101  134.6403  157.5281 LP  0  0  0  0  0  0  0  0  0  0  0  0  # atno 17394 bound_to 11000
  139.9818  134.7126  155.9846 LP  0  0  0  0  0  0  0  0  0  0  0  0  # atno 17395 bound_to 11000

$$$$
