AV-unprocessed.smi:364|AV-procd|sdf|2426|dock2
  -GOLD-   2262022363D 1   1.00000     0.00000
 Structure written by MMmdl.
 37 38  0  0  0  0  0  0  0  0  1 V2000
  150.3811  145.2833  160.3939 C   0  0  0  0  0  0  0  0  0  0  0  0
  151.7379  144.5702  160.3070 C   0  0  2  0  0  0  0  0  0  0  0  0
  152.0589  144.1541  158.8580 C   0  0  0  0  0  0  0  0  0  0  0  0
  153.4020  143.4065  158.7617 C   0  0  0  0  0  0  0  0  0  0  0  0
  153.4551  142.1880  159.7024 C   0  0  2  0  0  0  0  0  0  0  0  0
  152.5003  141.1800  159.2552 N   0  0  0  0  0  0  0  0  0  0  0  0
  152.7681  139.9424  158.8098 C   0  0  0  0  0  0  0  0  0  0  0  0
  153.9094  139.4950  158.7093 O   0  0  0  0  0  0  0  0  0  0  0  0
  151.5717  139.0537  158.4250 C   0  0  0  0  0  0  0  0  0  0  0  0
  151.5827  138.5908  157.0242 N   0  0  0  0  0  0  0  0  0  0  0  0
  151.5430  139.5749  156.0222 C   0  0  0  0  0  0  0  0  0  0  0  0
  151.5903  139.2398  154.7251 C   0  0  0  0  0  0  0  0  0  0  0  0
  151.6844  137.8053  154.4252 C   0  0  0  0  0  0  0  0  0  0  0  0
  151.7209  136.9054  155.3358 N   0  0  0  0  0  0  0  0  0  0  0  0
  151.6727  137.2601  156.6973 C   0  0  0  0  0  0  0  0  0  0  0  0
  151.7222  136.4015  157.5780 O   0  0  0  0  0  0  0  0  0  0  0  0
  153.1383  142.6105  161.1498 C   0  0  0  0  0  0  0  0  0  0  0  0
  151.7929  143.3535  161.2521 C   0  0  0  0  0  0  0  0  0  0  0  0
  149.5680  144.6254  160.0847 H   0  0  0  0  0  0  0  0  0  0  0  0
  150.3584  146.1644  159.7521 H   0  0  0  0  0  0  0  0  0  0  0  0
  150.1742  145.6121  161.4126 H   0  0  0  0  0  0  0  0  0  0  0  0
  152.5037  145.2776  160.6288 H   0  0  0  0  0  0  0  0  0  0  0  0
  151.2582  143.5240  158.4678 H   0  0  0  0  0  0  0  0  0  0  0  0
  152.0898  145.0361  158.2174 H   0  0  0  0  0  0  0  0  0  0  0  0
  153.5808  143.0946  157.7320 H   0  0  0  0  0  0  0  0  0  0  0  0
  154.2120  144.0914  159.0157 H   0  0  0  0  0  0  0  0  0  0  0  0
  154.4650  141.7761  159.6701 H   0  0  0  0  0  0  0  0  0  0  0  0
  151.5273  141.4461  159.2984 H   0  0  0  0  0  0  0  0  0  0  0  0
  151.5371  138.2041  159.1091 H   0  0  0  0  0  0  0  0  0  0  0  0
  150.6559  139.6128  158.6225 H   0  0  0  0  0  0  0  0  0  0  0  0
  151.4827  140.5951  156.3731 H   0  0  0  0  0  0  0  0  0  0  0  0
  151.5687  139.9449  153.9074 H   0  0  0  0  0  0  0  0  0  0  0  0
  151.7223  137.5518  153.3628 H   0  0  0  0  0  0  0  0  0  0  0  0
  153.1329  141.7377  161.8041 H   0  0  0  0  0  0  0  0  0  0  0  0
  153.9343  143.2600  161.5163 H   0  0  0  0  0  0  0  0  0  0  0  0
  151.6345  143.6761  162.2817 H   0  0  0  0  0  0  0  0  0  0  0  0
  150.9763  142.6683  161.0197 H   0  0  0  0  0  0  0  0  0  0  0  0
  1  2  1  0  0  0  0
  1 19  1  0  0  0  0
  1 20  1  0  0  0  0
  1 21  1  0  0  0  0
  2 18  1  0  0  0  0
  2  3  1  0  0  0  0
  2 22  1  0  0  0  0
  3  4  1  0  0  0  0
  3 23  1  0  0  0  0
  3 24  1  0  0  0  0
  4  5  1  0  0  0  0
  4 25  1  0  0  0  0
  4 26  1  0  0  0  0
  5  6  1  0  0  0  0
  5 17  1  0  0  0  0
  5 27  1  0  0  0  0
  6  7  1  0  0  0  0
  6 28  1  0  0  0  0
  7  8  2  0  0  0  0
  7  9  1  0  0  0  0
  9 10  1  0  0  0  0
  9 29  1  0  0  0  0
  9 30  1  0  0  0  0
 10 15  1  0  0  0  0
 10 11  1  0  0  0  0
 11 12  2  0  0  0  0
 11 31  1  0  0  0  0
 12 13  1  0  0  0  0
 12 32  1  0  0  0  0
 13 14  2  0  0  0  0
 13 33  1  0  0  0  0
 14 15  1  0  0  0  0
 15 16  2  0  0  0  0
 17 18  1  0  0  0  0
 17 34  1  0  0  0  0
 17 35  1  0  0  0  0
 18 36  1  0  0  0  0
 18 37  1  0  0  0  0
M  END
> <s_m_source_file>
AV-unprocessed.smi

> <i_m_source_file_index>
364

> <i_lp_mmshare_version>
43012

> <i_f3d_flags>
0

> <s_epik_input>
W0NIM11bQ0BASF0xW0NIMl1bQ0gyXVtDQEhdKFtDSDJdW0NIMl0xKVtOSF1DKD1PKVtDSDJdbjJbY0hdW2NIXVtjSF1uYzI9Tw==

> <s_epik_cmdline>
J2VwaWtfcHl0aG9uJywgJy1waCcsICc3LjAnLCAnLXRuJywgJzgnLCAnLW1hJywgJzIwMCcsICctbWV0YWxfYmluZGluZycsICctaW1hZScsICc8aW5maWxlLm1hZT4nLCAnLW9tYWUnLCAnPG91dGZpbGUubWFlPic=

> <r_lp_tautomer_probability>
1

> <r_epik_Ionization_Penalty>
7.65306e-06

> <r_epik_Ionization_Penalty_Charging>
1.81354e-08

> <r_epik_Ionization_Penalty_Neutral>
7.63492e-06

> <r_epik_State_Penalty>
-0

> <r_epik_Charging_Adjusted_Penalty>
1.81354e-08

> <i_epik_Tot_Q>
0

> <i_epik_Tot_abs_Q>
0

> <r_epik_Metal_State_Penalty>
-0

> <b_epik_Metal_Only>
0

> <s_lp_Force_Field>
OPLS_2005

> <r_lp_Energy>
9.99244

> <b_lp_Chiralities_Consistent>
1

> <s_lp_Variant>
AV-unprocessed.smi:364-2

> <Gold.Version>
5.8.1

> <Gold.Id.Protein>
6NUR|6NUR_protein|mol2

> <Gold.PLP.Fitness>
45.8340

> <Gold.PLP.PLP>
-36.9043

> <Gold.PLP.part.hbond>
-2.4924

> <Gold.PLP.part.metal>
0.0000

> <Gold.PLP.part.buried>
-2.4668

> <Gold.PLP.part.nonpolar>
-32.3585

> <Gold.PLP.part.repulsive>
0.1891

> <Gold.PLP.ligand.clash>
0.0000

> <Gold.PLP.ligand.torsion>
0.0161

> <Gold.PLP.Chemscore.Hbond>
2.0000

> <Gold.PLP.Chemscore.CHOScore>
0.9846

> <Gold.PLP.Chemscore.Metal>
0.0000

> <Gold.Chemscore.Hbonds>
donor molecule, donor type, donor heavy atom, donor atom, acceptor molecule, acceptor atom, score
      P1  H  7997  8010       L1     8  1.00
      P1  H 10752 10764       L1    14  0.99
      L1  C    13    33       P1  7949  1.00

> <Gold.PLP.Chemscore.Internal.Correction>
0.0082

> <Gold.Rescore>
     Score         DG    S(hbond)    S(metal)    S(lipo)     H(rot)  DE(clash)    DE(int)     intcor
     20.01     -20.32       1.80        0.00     108.24       1.50       0.21       0.11       ----

> <Gold.Chemscore.Fitness>
20.0070

> <Gold.Chemscore.DG>
-20.3235

> <Gold.Chemscore.ZeroCoef>
-5.4800

> <Gold.Chemscore.Hbond>
1.8006

> <Gold.Chemscore.Metal>
0.0000

> <Gold.Chemscore.Lipo>
108.2367

> <Gold.Chemscore.Internal_Hbond>
0.0000

> <Gold.Chemscore.DEClash>
0.2096

> <Gold.Chemscore.DEInternal>
0.1069

> <Gold.Chemscore.Rot>
1.4977

> <Gold.Chemscore.Internal.Correction>
   9.000000E+99

> <Gold.Chemscore.Hbonds>
donor molecule, donor type, donor heavy atom, donor atom, acceptor molecule, acceptor atom, score
      P1  H  7997  8010       L1     8  0.94
      P1  H 10752 10764       L1    14  0.63

> <Gold.Chemscore.Hbond.Weighted>
-6.0139

> <Gold.Chemscore.Metal.Weighted>
-0.0000

> <Gold.Chemscore.Lipo.Weighted>
-12.6637

> <Gold.Chemscore.Internal_Hbond.Weighted>
0.0000

> <Gold.Chemscore.DEClash.Weighted>
0.2096

> <Gold.Chemscore.DEInternal.Weighted>
0.1069

> <Gold.Chemscore.Rot.Weighted>
3.8341

> <Gold.Chemscore.Internal.Correction.Weighted>
   9.000000E+99

> <Gold.Protein.RotatedTorsions>
[ 6907 6896 6895 6894 ] final -114.74 input  -60.11 | X-H torsion
[ 7974 7965 7964 7962 ] final  117.23 input  175.53 | X-H torsion
[ 8008 7997 7996 7995 ] final   14.32 input   59.86 | X-H torsion
[ 10167 10162 10161 10158 ] final   76.93 input  -65.29 | X-H torsion
[ 10718 10713 10712 10709 ] final   47.85 input   66.30 | X-H torsion
[ 10763 10752 10751 10750 ] final  -37.82 input  -60.55 | X-H torsion
[ 11005 11000 10999 10996 ] final   63.06 input  -57.11 | X-H torsion

> <Gold.Protein.ActiveResidues>
 VAL166  LYS551  ARG553  GLY616  TRP617  ASP618  TYR619  PRO620  LYS621  CYS622 
 ASP623  PHE694  ASN695  SER759  ASP760  ASP761  ALA762  ILE779  LEU786  VAL792 
 PHE793  MET794  SER795  GLU796  ALA797  LYS798  CYS799  TRP800  GLU811  SER814 

> <Gold.Protein.RotatedAtoms>
  150.7925  133.8758  159.3271 H   0  0  0  0  0  0  0  0  0  0  0  0  # atno 6907 bound_to 6896
  151.6592  135.0990  160.0185 H   0  0  0  0  0  0  0  0  0  0  0  0  # atno 6908 bound_to 6896
  152.4001  133.6766  159.6344 H   0  0  0  0  0  0  0  0  0  0  0  0  # atno 6909 bound_to 6896
  145.1699  139.3107  143.4473 H   0  0  0  0  0  0  0  0  0  0  0  0  # atno 7974 bound_to 7965
  154.8468  140.2923  155.5624 H   0  0  0  0  0  0  0  0  0  0  0  0  # atno 8008 bound_to 7997
  156.3014  140.2503  156.3352 H   0  0  0  0  0  0  0  0  0  0  0  0  # atno 8009 bound_to 7997
  154.9065  140.0390  157.1912 H   0  0  0  0  0  0  0  0  0  0  0  0  # atno 8010 bound_to 7997
  139.9870  144.5785  150.7851 H   0  0  0  0  0  0  0  0  0  0  0  0  # atno 10167 bound_to 10162
  157.4627  130.8206  149.7903 H   0  0  0  0  0  0  0  0  0  0  0  0  # atno 10718 bound_to 10713
  153.9026  135.6801  153.4754 H   0  0  0  0  0  0  0  0  0  0  0  0  # atno 10763 bound_to 10752
  153.1121  135.4778  154.9050 H   0  0  0  0  0  0  0  0  0  0  0  0  # atno 10764 bound_to 10752
  154.7567  135.3199  154.8410 H   0  0  0  0  0  0  0  0  0  0  0  0  # atno 10765 bound_to 10752
  140.0050  134.6384  155.9870 H   0  0  0  0  0  0  0  0  0  0  0  0  # atno 11005 bound_to 11000
  146.3470  140.1840  142.8589 LP  0  0  0  0  0  0  0  0  0  0  0  0  # atno 17320 bound_to 7965
  145.0244  140.8820  143.5147 LP  0  0  0  0  0  0  0  0  0  0  0  0  # atno 17321 bound_to 7965
  140.7468  143.2897  151.3364 LP  0  0  0  0  0  0  0  0  0  0  0  0  # atno 17342 bound_to 10162
  139.6368  144.0615  152.2522 LP  0  0  0  0  0  0  0  0  0  0  0  0  # atno 17343 bound_to 10162
  156.0036  130.3867  150.2513 LP  0  0  0  0  0  0  0  0  0  0  0  0  # atno 17370 bound_to 10713
  157.0692  131.0112  151.3196 LP  0  0  0  0  0  0  0  0  0  0  0  0  # atno 17371 bound_to 10713
  141.1670  133.6537  156.4515 LP  0  0  0  0  0  0  0  0  0  0  0  0  # atno 17394 bound_to 11000
  140.4658  134.6799  157.5106 LP  0  0  0  0  0  0  0  0  0  0  0  0  # atno 17395 bound_to 11000

$$$$
