AV-unprocessed.smi:605|AV-procd|sdf|3039|dock7
  -GOLD-   2262023553D 1   1.00000     0.00000
 Structure written by MMmdl.
 35 36  0  0  0  0  0  0  0  0  1 V2000
  152.0990  144.6812  161.0116 C   0  0  0  0  0  0  0  0  0  0  0  0
  152.2355  144.3522  159.5177 C   0  0  0  0  0  0  0  0  0  0  0  0
  150.9711  144.6783  158.7099 C   0  0  0  0  0  0  0  0  0  0  0  0
  152.7047  142.9491  159.2886 C   0  0  0  0  0  0  0  0  0  0  0  0
  152.0254  142.0647  158.5462 N   0  0  0  0  0  0  0  0  0  0  0  0
  152.6617  140.8345  158.4773 N   0  0  0  0  0  0  0  0  0  0  0  0
  153.8055  140.8188  159.1764 C   0  0  0  0  0  0  0  0  0  0  0  0
  154.6797  139.6970  159.2737 N   0  0  0  0  0  0  0  0  0  0  0  0
  155.7553  139.4631  160.0559 C   0  0  0  0  0  0  0  0  0  0  0  0
  156.1312  140.2981  160.8768 O   0  0  0  0  0  0  0  0  0  0  0  0
  156.3638  138.2772  159.8895 N   0  0  0  0  0  0  0  0  0  0  0  0
  157.5353  137.7955  160.6170 C   0  0  0  0  0  0  0  0  0  0  0  0
  157.5966  136.2551  160.5954 C   0  0  0  0  0  0  0  0  0  0  0  0
  157.7274  135.8111  162.0544 C   0  0  0  0  0  0  0  0  0  0  0  0
  157.0651  136.9281  162.8547 C   0  0  0  0  0  0  0  0  0  0  0  0
  157.4474  138.2000  162.0992 C   0  0  0  0  0  0  0  0  0  0  0  0
  154.2078  142.3337  159.9674 S   0  0  0  0  0  0  0  0  0  0  0  0
  153.0422  144.5244  161.5358 H   0  0  0  0  0  0  0  0  0  0  0  0
  151.3442  144.0550  161.4887 H   0  0  0  0  0  0  0  0  0  0  0  0
  151.8078  145.7212  161.1601 H   0  0  0  0  0  0  0  0  0  0  0  0
  153.0202  145.0047  159.1327 H   0  0  0  0  0  0  0  0  0  0  0  0
  151.1341  144.5155  157.6441 H   0  0  0  0  0  0  0  0  0  0  0  0
  150.6780  145.7199  158.8435 H   0  0  0  0  0  0  0  0  0  0  0  0
  150.1312  144.0548  159.0179 H   0  0  0  0  0  0  0  0  0  0  0  0
  154.4434  138.9344  158.6557 H   0  0  0  0  0  0  0  0  0  0  0  0
  155.9825  137.6540  159.1916 H   0  0  0  0  0  0  0  0  0  0  0  0
  158.4542  138.2058  160.1950 H   0  0  0  0  0  0  0  0  0  0  0  0
  156.6803  135.8368  160.1750 H   0  0  0  0  0  0  0  0  0  0  0  0
  158.4237  135.8876  159.9871 H   0  0  0  0  0  0  0  0  0  0  0  0
  157.2743  134.8365  162.2388 H   0  0  0  0  0  0  0  0  0  0  0  0
  158.7820  135.7443  162.3248 H   0  0  0  0  0  0  0  0  0  0  0  0
  155.9818  136.8012  162.8377 H   0  0  0  0  0  0  0  0  0  0  0  0
  157.3842  136.9460  163.8971 H   0  0  0  0  0  0  0  0  0  0  0  0
  158.4287  138.5350  162.4382 H   0  0  0  0  0  0  0  0  0  0  0  0
  156.7498  139.0177  162.2855 H   0  0  0  0  0  0  0  0  0  0  0  0
  1  2  1  0  0  0  0
  1 18  1  0  0  0  0
  1 19  1  0  0  0  0
  1 20  1  0  0  0  0
  2  3  1  0  0  0  0
  2  4  1  0  0  0  0
  2 21  1  0  0  0  0
  3 22  1  0  0  0  0
  3 23  1  0  0  0  0
  3 24  1  0  0  0  0
  4 17  1  0  0  0  0
  4  5  2  0  0  0  0
  5  6  1  0  0  0  0
  6  7  2  0  0  0  0
  7  8  1  0  0  0  0
  7 17  1  0  0  0  0
  8  9  1  0  0  0  0
  8 25  1  0  0  0  0
  9 10  2  0  0  0  0
  9 11  1  0  0  0  0
 11 12  1  0  0  0  0
 11 26  1  0  0  0  0
 12 16  1  0  0  0  0
 12 13  1  0  0  0  0
 12 27  1  0  0  0  0
 13 14  1  0  0  0  0
 13 28  1  0  0  0  0
 13 29  1  0  0  0  0
 14 15  1  0  0  0  0
 14 30  1  0  0  0  0
 14 31  1  0  0  0  0
 15 16  1  0  0  0  0
 15 32  1  0  0  0  0
 15 33  1  0  0  0  0
 16 34  1  0  0  0  0
 16 35  1  0  0  0  0
M  END
> <s_m_source_file>
AV-unprocessed.smi

> <i_m_source_file_index>
605

> <i_lp_mmshare_version>
43012

> <i_f3d_flags>
0

> <s_epik_input>
W0NIM11bQ0hdKFtDSDNdKWMxbm5jKHMxKVtOSF1DKD1PKVtOSF1bQ0hdMltDSDJdW0NIMl1bQ0gyXVtDSDJdMg==

> <s_epik_cmdline>
J2VwaWtfcHl0aG9uJywgJy1waCcsICc3LjAnLCAnLXRuJywgJzgnLCAnLW1hJywgJzIwMCcsICctbWV0YWxfYmluZGluZycsICctaW1hZScsICc8aW5maWxlLm1hZT4nLCAnLW9tYWUnLCAnPG91dGZpbGUubWFlPic=

> <r_lp_tautomer_probability>
1

> <r_epik_Ionization_Penalty>
0.000375049

> <r_epik_Ionization_Penalty_Charging>
0

> <r_epik_Ionization_Penalty_Neutral>
0.000375049

> <r_epik_State_Penalty>
-0

> <r_epik_Charging_Adjusted_Penalty>
0

> <i_epik_Tot_Q>
0

> <i_epik_Tot_abs_Q>
0

> <r_epik_Metal_State_Penalty>
0.186879

> <b_epik_Metal_Only>
0

> <s_lp_Force_Field>
OPLS_2005

> <r_lp_Energy>
14.8416

> <b_lp_Chiralities_Consistent>
1

> <s_lp_Variant>
AV-unprocessed.smi:605-1

> <Gold.Version>
5.8.1

> <Gold.Id.Protein>
6NUR|6NUR_protein|mol2

> <Gold.PLP.Fitness>
37.4002

> <Gold.PLP.PLP>
-38.0687

> <Gold.PLP.part.hbond>
0.0000

> <Gold.PLP.part.metal>
0.0000

> <Gold.PLP.part.buried>
-4.9736

> <Gold.PLP.part.nonpolar>
-33.2746

> <Gold.PLP.part.repulsive>
0.0714

> <Gold.PLP.ligand.clash>
0.0000

> <Gold.PLP.ligand.torsion>
0.3747

> <Gold.PLP.Chemscore.Hbond>
0.0000

> <Gold.PLP.Chemscore.CHOScore>
0.0000

> <Gold.PLP.Chemscore.Metal>
0.0000

> <Gold.PLP.Chemscore.Internal.Correction>
0.0810

> <Gold.Rescore>
     Score         DG    S(hbond)    S(metal)    S(lipo)     H(rot)  DE(clash)    DE(int)     intcor
     11.37     -14.74       0.34        0.00      95.59       1.20       0.31       3.06       ----

> <Gold.Chemscore.Fitness>
11.3675

> <Gold.Chemscore.DG>
-14.7378

> <Gold.Chemscore.ZeroCoef>
-5.4800

> <Gold.Chemscore.Hbond>
0.3409

> <Gold.Chemscore.Metal>
0.0000

> <Gold.Chemscore.Lipo>
95.5881

> <Gold.Chemscore.Internal_Hbond>
0.0000

> <Gold.Chemscore.DEClash>
0.3111

> <Gold.Chemscore.DEInternal>
3.0592

> <Gold.Chemscore.Rot>
1.1971

> <Gold.Chemscore.Internal.Correction>
   9.000000E+99

> <Gold.Chemscore.Hbond.Weighted>
-1.1387

> <Gold.Chemscore.Metal.Weighted>
-0.0000

> <Gold.Chemscore.Lipo.Weighted>
-11.1838

> <Gold.Chemscore.Internal_Hbond.Weighted>
0.0000

> <Gold.Chemscore.DEClash.Weighted>
0.3111

> <Gold.Chemscore.DEInternal.Weighted>
3.0592

> <Gold.Chemscore.Rot.Weighted>
3.0647

> <Gold.Chemscore.Internal.Correction.Weighted>
   9.000000E+99

> <Gold.Protein.RotatedTorsions>
[ 6907 6896 6895 6894 ] final -137.59 input  -60.11 | X-H torsion
[ 7974 7965 7964 7962 ] final -163.14 input  175.53 | X-H torsion
[ 8008 7997 7996 7995 ] final   34.43 input   59.86 | X-H torsion
[ 10167 10162 10161 10158 ] final  104.54 input  -65.29 | X-H torsion
[ 10718 10713 10712 10709 ] final  153.37 input   66.30 | X-H torsion
[ 10763 10752 10751 10750 ] final -155.81 input  -60.55 | X-H torsion
[ 11005 11000 10999 10996 ] final  110.31 input  -57.11 | X-H torsion

> <Gold.Protein.ActiveResidues>
 VAL166  LYS551  ARG553  GLY616  TRP617  ASP618  TYR619  PRO620  LYS621  CYS622 
 ASP623  PHE694  ASN695  SER759  ASP760  ASP761  ALA762  ILE779  LEU786  VAL792 
 PHE793  MET794  SER795  GLU796  ALA797  LYS798  CYS799  TRP800  GLU811  SER814 

> <Gold.Protein.RotatedAtoms>
  151.0244  133.5847  159.2667 H   0  0  0  0  0  0  0  0  0  0  0  0  # atno 6907 bound_to 6896
  151.2952  135.0752  159.9228 H   0  0  0  0  0  0  0  0  0  0  0  0  # atno 6908 bound_to 6896
  152.5330  133.9935  159.7916 H   0  0  0  0  0  0  0  0  0  0  0  0  # atno 6909 bound_to 6896
  144.7335  140.3151  143.6181 H   0  0  0  0  0  0  0  0  0  0  0  0  # atno 7974 bound_to 7965
  155.1547  140.3278  155.4424 H   0  0  0  0  0  0  0  0  0  0  0  0  # atno 8008 bound_to 7997
  156.2562  140.1971  156.6607 H   0  0  0  0  0  0  0  0  0  0  0  0  # atno 8009 bound_to 7997
  154.6448  140.0566  156.9874 H   0  0  0  0  0  0  0  0  0  0  0  0  # atno 8010 bound_to 7997
  139.7168  144.7066  151.0937 H   0  0  0  0  0  0  0  0  0  0  0  0  # atno 10167 bound_to 10162
  157.2456  131.0768  151.1764 H   0  0  0  0  0  0  0  0  0  0  0  0  # atno 10718 bound_to 10713
  154.7759  135.3159  154.8092 H   0  0  0  0  0  0  0  0  0  0  0  0  # atno 10763 bound_to 10752
  153.8815  135.6834  153.4771 H   0  0  0  0  0  0  0  0  0  0  0  0  # atno 10764 bound_to 10752
  153.1383  135.4750  154.9393 H   0  0  0  0  0  0  0  0  0  0  0  0  # atno 10765 bound_to 10752
  139.8879  134.9481  156.6260 H   0  0  0  0  0  0  0  0  0  0  0  0  # atno 11005 bound_to 11000
  145.7626  139.1830  143.2258 LP  0  0  0  0  0  0  0  0  0  0  0  0  # atno 17320 bound_to 7965
  146.0975  140.7584  142.9565 LP  0  0  0  0  0  0  0  0  0  0  0  0  # atno 17321 bound_to 7965
  140.7745  143.5219  150.9526 LP  0  0  0  0  0  0  0  0  0  0  0  0  # atno 17342 bound_to 10162
  139.8905  143.6959  152.3146 LP  0  0  0  0  0  0  0  0  0  0  0  0  # atno 17343 bound_to 10162
  157.3332  130.6996  149.6337 LP  0  0  0  0  0  0  0  0  0  0  0  0  # atno 17370 bound_to 10713
  155.9668  130.4301  150.4862 LP  0  0  0  0  0  0  0  0  0  0  0  0  # atno 17371 bound_to 10713
  140.7703  133.8744  155.8487 LP  0  0  0  0  0  0  0  0  0  0  0  0  # atno 17394 bound_to 11000
  140.9847  134.1358  157.4462 LP  0  0  0  0  0  0  0  0  0  0  0  0  # atno 17395 bound_to 11000

$$$$
