#       Name:                AV-unprocessed.smi:2004
#       Creating user name   scv26
#       Creation time:       Fri Mar 27 10:35:27 2020


#       File generated by GOLD software.
#

@<TRIPOS>MOLECULE
AV-unprocessed.smi:2004
    44    46     1
SMALL
NO_CHARGES


@<TRIPOS>ATOM
      1 ****        -2.6793  -0.2562   2.0005 O.3            1 S1                 0.0000
      2 ****        -2.0678   0.1784   0.8038 C.3            1 S1                 0.0000
      3 ****        -0.5429   0.0347   0.9602 C.3            1 S1                 0.0000
      4 ****        -0.1927  -1.3299   0.7979 O.3            1 S1                 0.0000
      5 ****         1.1991  -1.5617   0.9443 C.3            1 S1                 0.0000
      6 ****         1.5468  -3.0272   0.7681 C.ar           1 S1                 0.0000
      7 ****         1.0263  -3.7514  -0.3254 C.ar           1 S1                 0.0000
      8 ****         1.3600  -5.1088  -0.4996 C.ar           1 S1                 0.0000
      9 ****         2.2197  -5.7461   0.4159 C.ar           1 S1                 0.0000
     10 ****         2.7474  -5.0249   1.5044 C.ar           1 S1                 0.0000
     11 ****         2.4142  -3.6673   1.6787 C.ar           1 S1                 0.0000
     12 ****        -2.5329   1.6272   0.5564 C.3            1 S1                 0.0000
     13 ****        -2.0143   2.1810  -0.6814 N.pl3          1 S1                 0.0000
     14 ****        -2.4279   1.8923  -1.9303 C.2            1 S1                 0.0000
     15 ****        -1.8185   2.5160  -2.9343 N.2            1 S1                 0.0000
     16 ****        -0.9048   3.3062  -2.2583 C.ar           1 S1                 0.0000
     17 ****         0.0569   4.2188  -2.7481 C.ar           1 S1                 0.0000
     18 ****         0.8923   4.9233  -1.8567 C.ar           1 S1                 0.0000
     19 ****         0.7801   4.7270  -0.4650 C.ar           1 S1                 0.0000
     20 ****        -0.1700   3.8224   0.0469 C.ar           1 S1                 0.0000
     21 ****        -1.0027   3.1218  -0.8458 C.ar           1 S1                 0.0000
     22 ****        -2.4241  -1.1530   2.1557 H              1 S1                 0.0000
     23 ****        -2.4152  -0.4524  -0.0156 H              1 S1                 0.0000
     24 ****        -0.0253   0.6057   0.1890 H              1 S1                 0.0000
     25 ****        -0.2102   0.4211   1.9252 H              1 S1                 0.0000
     26 ****         1.7539  -0.9855   0.2024 H              1 S1                 0.0000
     27 ****         1.5253  -1.2232   1.9292 H              1 S1                 0.0000
     28 ****         0.3693  -3.2670  -1.0329 H              1 S1                 0.0000
     29 ****         0.9577  -5.6605  -1.3364 H              1 S1                 0.0000
     30 ****         2.4761  -6.7867   0.2820 H              1 S1                 0.0000
     31 ****         3.4092  -5.5122   2.2051 H              1 S1                 0.0000
     32 ****         2.8258  -3.1211   2.5148 H              1 S1                 0.0000
     33 ****        -3.6222   1.6705   0.5125 H              1 S1                 0.0000
     34 ****        -2.2303   2.2708   1.3833 H              1 S1                 0.0000
     35 ****        -3.2209   1.1816  -2.1118 H              1 S1                 0.0000
     36 ****         0.1515   4.3775  -3.8121 H              1 S1                 0.0000
     37 ****         1.6231   5.6185  -2.2431 H              1 S1                 0.0000
     38 ****         1.4245   5.2713   0.2100 H              1 S1                 0.0000
     39 ****        -0.2563   3.6694   1.1123 H              1 S1                 0.0000
     40 ****        -3.6737  -0.1981   1.9125 LP             1 S1                 0.0000
     41 ****        -2.3779   0.3177   2.7619 LP             1 S1                 0.0000
     42 ****        -0.4713  -1.6247  -0.1162 LP             1 S1                 0.0000
     43 ****        -0.6803  -1.8687   1.4848 LP             1 S1                 0.0000
     44 ****        -1.9782   2.4354  -3.9182 LP             1 S1                 0.0000
@<TRIPOS>BOND
    1    1    2 1     
    2    1   22 1     
    3    2    3 1     
    4    2   12 1     
    5    2   23 1     
    6    3    4 1     
    7    3   24 1     
    8    3   25 1     
    9    4    5 1     
   10    5    6 1     
   11    5   26 1     
   12    5   27 1     
   13    6   11 ar    
   14    6    7 ar    
   15    7    8 ar    
   16    7   28 1     
   17    8    9 ar    
   18    8   29 1     
   19    9   10 ar    
   20    9   30 1     
   21   10   11 ar    
   22   10   31 1     
   23   11   32 1     
   24   12   13 1     
   25   12   33 1     
   26   12   34 1     
   27   13   21 1     
   28   13   14 1     
   29   14   15 2     
   30   14   35 1     
   31   15   16 1     
   32   16   21 ar    
   33   16   17 ar    
   34   17   18 ar    
   35   17   36 1     
   36   18   19 ar    
   37   18   37 1     
   38   19   20 ar    
   39   19   38 1     
   40   20   21 ar    
   41   20   39 1     
   42    1   40 1     
   43    1   41 1     
   44    4   42 1     
   45    4   43 1     
   46   15   44 1     
@<TRIPOS>SUBSTRUCTURE
      1 S1             1
@<TRIPOS>SET
LONE_PAIRS      STATIC     ATOMS    <user>   **** ""
5 40 41 42 43 44
DONOR_HYDROGENS      STATIC     ATOMS    <user>   **** ""
1 22
ATOM$BLUE        STATIC     ATOMS    COLORGROUP SYSTEM
5 40 41 42 43 44
ATOM$RED        STATIC     ATOMS    COLORGROUP SYSTEM
1 22
