AV-unprocessed.smi:2204|AV-procd|sdf|8940|dock1
  -GOLD-   2272012153D 1   1.00000     0.00000
 Structure written by MMmdl.
 39 40  0  0  0  0  0  0  0  0  1 V2000
  154.6858  140.1847  160.4410 C   0  0  0  0  0  0  0  0  0  0  0  0
  153.8362  141.4132  160.3018 C   0  0  0  0  0  0  0  0  0  0  0  0
  153.4863  142.3604  161.3040 C   0  0  0  0  0  0  0  0  0  0  0  0
  152.6987  143.2668  160.6520 C   0  0  0  0  0  0  0  0  0  0  0  0
  152.0131  144.4913  161.1627 C   0  0  0  0  0  0  0  0  0  0  0  0
  152.6115  142.8490  159.3358 N   0  0  0  0  0  0  0  0  0  0  0  0
  151.8700  143.4415  158.2318 C   0  0  0  0  0  0  0  0  0  0  0  0
  150.7565  142.5057  157.7579 C   0  0  0  0  0  0  0  0  0  0  0  0
  149.7845  142.2866  158.4799 O   0  0  0  0  0  0  0  0  0  0  0  0
  150.9271  141.9477  156.5497 N   0  0  0  0  0  0  0  0  0  0  0  0
  150.0832  140.9155  155.9566 C   0  0  1  0  0  0  0  0  0  0  0  0
  149.3243  141.4858  154.7484 C   0  0  0  0  0  0  0  0  0  0  0  0
  150.9562  139.7048  155.5754 C   0  0  1  0  0  0  0  0  0  0  0  0
  150.2652  138.6742  154.6765 C   0  0  0  0  0  0  0  0  0  0  0  0
  151.4100  138.0346  153.9050 C   0  0  0  0  0  0  0  0  0  0  0  0
  152.6141  138.9292  154.2093 C   0  0  0  0  0  0  0  0  0  0  0  0
  152.0605  140.1057  154.7798 O   0  0  0  0  0  0  0  0  0  0  0  0
  153.3131  141.7135  159.1246 N   0  0  0  0  0  0  0  0  0  0  0  0
  154.8307  139.9238  161.4895 H   0  0  0  0  0  0  0  0  0  0  0  0
  155.6698  140.3385  159.9977 H   0  0  0  0  0  0  0  0  0  0  0  0
  154.2263  139.3277  159.9475 H   0  0  0  0  0  0  0  0  0  0  0  0
  153.7672  142.3700  162.3467 H   0  0  0  0  0  0  0  0  0  0  0  0
  152.2228  144.6417  162.2218 H   0  0  0  0  0  0  0  0  0  0  0  0
  150.9324  144.4103  161.0441 H   0  0  0  0  0  0  0  0  0  0  0  0
  152.3492  145.3783  160.6255 H   0  0  0  0  0  0  0  0  0  0  0  0
  151.4517  144.3956  158.5543 H   0  0  0  0  0  0  0  0  0  0  0  0
  152.5505  143.6538  157.4056 H   0  0  0  0  0  0  0  0  0  0  0  0
  151.7573  142.2019  156.0332 H   0  0  0  0  0  0  0  0  0  0  0  0
  149.3543  140.5828  156.6983 H   0  0  0  0  0  0  0  0  0  0  0  0
  148.6763  140.7316  154.3012 H   0  0  0  0  0  0  0  0  0  0  0  0
  150.0107  141.8347  153.9761 H   0  0  0  0  0  0  0  0  0  0  0  0
  148.6942  142.3266  155.0400 H   0  0  0  0  0  0  0  0  0  0  0  0
  151.3319  139.2107  156.4739 H   0  0  0  0  0  0  0  0  0  0  0  0
  149.6812  137.9492  155.2448 H   0  0  0  0  0  0  0  0  0  0  0  0
  149.5899  139.1711  153.9783 H   0  0  0  0  0  0  0  0  0  0  0  0
  151.5948  137.0094  154.2273 H   0  0  0  0  0  0  0  0  0  0  0  0
  151.1874  138.0161  152.8375 H   0  0  0  0  0  0  0  0  0  0  0  0
  153.2707  138.4534  154.9392 H   0  0  0  0  0  0  0  0  0  0  0  0
  153.2027  139.1585  153.3208 H   0  0  0  0  0  0  0  0  0  0  0  0
  1  2  1  0  0  0  0
  1 19  1  0  0  0  0
  1 20  1  0  0  0  0
  1 21  1  0  0  0  0
  2 18  2  0  0  0  0
  2  3  1  0  0  0  0
  3  4  2  0  0  0  0
  3 22  1  0  0  0  0
  4  5  1  0  0  0  0
  4  6  1  0  0  0  0
  5 23  1  0  0  0  0
  5 24  1  0  0  0  0
  5 25  1  0  0  0  0
  6  7  1  0  0  0  0
  6 18  1  0  0  0  0
  7  8  1  0  0  0  0
  7 26  1  0  0  0  0
  7 27  1  0  0  0  0
  8  9  2  0  0  0  0
  8 10  1  0  0  0  0
 10 11  1  0  0  0  0
 10 28  1  0  0  0  0
 11 12  1  0  0  0  0
 11 13  1  0  0  0  0
 11 29  1  0  0  0  0
 12 30  1  0  0  0  0
 12 31  1  0  0  0  0
 12 32  1  0  0  0  0
 13 17  1  0  0  0  0
 13 14  1  0  0  0  0
 13 33  1  0  0  0  0
 14 15  1  0  0  0  0
 14 34  1  0  0  0  0
 14 35  1  0  0  0  0
 15 16  1  0  0  0  0
 15 36  1  0  0  0  0
 15 37  1  0  0  0  0
 16 17  1  0  0  0  0
 16 38  1  0  0  0  0
 16 39  1  0  0  0  0
M  END
> <s_m_source_file>
AV-unprocessed.smi

> <i_m_source_file_index>
2204

> <i_lp_mmshare_version>
43012

> <i_f3d_flags>
0

> <s_epik_input>
W0NIM11jMVtjSF1jKFtDSDNdKW4objEpW0NIMl1DKD1PKVtOSF1bQ0BIXShbQ0gzXSlbQ0BASF0yW0NIMl1bQ0gyXVtDSDJdTzI=

> <s_epik_cmdline>
J2VwaWtfcHl0aG9uJywgJy1waCcsICc3LjAnLCAnLXRuJywgJzgnLCAnLW1hJywgJzIwMCcsICctbWV0YWxfYmluZGluZycsICctaW1hZScsICc8aW5maWxlLm1hZT4nLCAnLW9tYWUnLCAnPG91dGZpbGUubWFlPic=

> <r_lp_tautomer_probability>
1

> <r_epik_Ionization_Penalty>
0.000433354

> <r_epik_Ionization_Penalty_Charging>
0

> <r_epik_Ionization_Penalty_Neutral>
0.000433354

> <r_epik_State_Penalty>
-0

> <r_epik_Charging_Adjusted_Penalty>
0

> <i_epik_Tot_Q>
0

> <i_epik_Tot_abs_Q>
0

> <r_epik_Metal_State_Penalty>
-0

> <b_epik_Metal_Only>
0

> <s_lp_Force_Field>
OPLS_2005

> <r_lp_Energy>
15.4652

> <b_lp_Chiralities_Consistent>
1

> <s_lp_Variant>
AV-unprocessed.smi:2204-4

> <Gold.Version>
5.8.1

> <Gold.Id.Protein>
6NUR|6NUR_protein|mol2

> <Gold.PLP.Fitness>
46.7504

> <Gold.PLP.PLP>
-44.8454

> <Gold.PLP.part.hbond>
-1.0000

> <Gold.PLP.part.metal>
0.0000

> <Gold.PLP.part.buried>
-4.7154

> <Gold.PLP.part.nonpolar>
-40.2096

> <Gold.PLP.part.repulsive>
0.2406

> <Gold.PLP.ligand.clash>
0.0000

> <Gold.PLP.ligand.torsion>
0.2741

> <Gold.PLP.Chemscore.Hbond>
0.8000

> <Gold.PLP.Chemscore.CHOScore>
0.0000

> <Gold.PLP.Chemscore.Metal>
0.0000

> <Gold.Chemscore.Hbonds>
donor molecule, donor type, donor heavy atom, donor atom, acceptor molecule, acceptor atom, score
      P1  H  7989  7998       L1    17  0.78

> <Gold.PLP.Chemscore.Internal.Correction>
0.0531

> <Gold.Rescore>
     Score         DG    S(hbond)    S(metal)    S(lipo)     H(rot)  DE(clash)    DE(int)     intcor
     17.18     -17.42       0.93        0.00     108.26       1.50       0.08       0.15       ----

> <Gold.Chemscore.Fitness>
17.1831

> <Gold.Chemscore.DG>
-17.4188

> <Gold.Chemscore.ZeroCoef>
-5.4800

> <Gold.Chemscore.Hbond>
0.9321

> <Gold.Chemscore.Metal>
0.0000

> <Gold.Chemscore.Lipo>
108.2625

> <Gold.Chemscore.Internal_Hbond>
0.0000

> <Gold.Chemscore.DEClash>
0.0832

> <Gold.Chemscore.DEInternal>
0.1525

> <Gold.Chemscore.Rot>
1.5005

> <Gold.Chemscore.Internal.Correction>
   9.000000E+99

> <Gold.Chemscore.Hbonds>
donor molecule, donor type, donor heavy atom, donor atom, acceptor molecule, acceptor atom, score
      P1  H  7989  7998       L1    17  0.16

> <Gold.Chemscore.Hbond.Weighted>
-3.1133

> <Gold.Chemscore.Metal.Weighted>
-0.0000

> <Gold.Chemscore.Lipo.Weighted>
-12.6667

> <Gold.Chemscore.Internal_Hbond.Weighted>
0.0000

> <Gold.Chemscore.DEClash.Weighted>
0.0832

> <Gold.Chemscore.DEInternal.Weighted>
0.1525

> <Gold.Chemscore.Rot.Weighted>
3.8412

> <Gold.Chemscore.Internal.Correction.Weighted>
   9.000000E+99

> <Gold.Protein.RotatedTorsions>
[ 6907 6896 6895 6894 ] final  -37.16 input  -60.11 | X-H torsion
[ 7974 7965 7964 7962 ] final  103.33 input  175.53 | X-H torsion
[ 8008 7997 7996 7995 ] final  166.98 input   59.86 | X-H torsion
[ 10167 10162 10161 10158 ] final   -3.66 input  -65.29 | X-H torsion
[ 10718 10713 10712 10709 ] final  105.45 input   66.30 | X-H torsion
[ 10763 10752 10751 10750 ] final  -96.54 input  -60.55 | X-H torsion
[ 11005 11000 10999 10996 ] final   55.11 input  -57.11 | X-H torsion

> <Gold.Protein.ActiveResidues>
 VAL166  LYS551  ARG553  GLY616  TRP617  ASP618  TYR619  PRO620  LYS621  CYS622 
 ASP623  PHE694  ASN695  SER759  ASP760  ASP761  ALA762  ILE779  LEU786  VAL792 
 PHE793  MET794  SER795  GLU796  ALA797  LYS798  CYS799  TRP800  GLU811  SER814 

> <Gold.Protein.RotatedAtoms>
  151.0182  134.9449  159.8044 H   0  0  0  0  0  0  0  0  0  0  0  0  # atno 6907 bound_to 6896
  152.5319  134.2938  159.9063 H   0  0  0  0  0  0  0  0  0  0  0  0  # atno 6908 bound_to 6896
  151.2945  133.4108  159.2669 H   0  0  0  0  0  0  0  0  0  0  0  0  # atno 6909 bound_to 6896
  145.3473  139.2447  143.3577 H   0  0  0  0  0  0  0  0  0  0  0  0  # atno 7974 bound_to 7965
  156.1672  140.1629  156.8510 H   0  0  0  0  0  0  0  0  0  0  0  0  # atno 8008 bound_to 7997
  154.5220  140.0776  156.8224 H   0  0  0  0  0  0  0  0  0  0  0  0  # atno 8009 bound_to 7997
  155.3586  140.3394  155.4242 H   0  0  0  0  0  0  0  0  0  0  0  0  # atno 8010 bound_to 7997
  140.6898  143.6514  150.8346 H   0  0  0  0  0  0  0  0  0  0  0  0  # atno 10167 bound_to 10162
  157.6705  131.0828  150.5859 H   0  0  0  0  0  0  0  0  0  0  0  0  # atno 10718 bound_to 10713
  154.7248  135.5080  153.8869 H   0  0  0  0  0  0  0  0  0  0  0  0  # atno 10763 bound_to 10752
  153.0895  135.6655  153.9891 H   0  0  0  0  0  0  0  0  0  0  0  0  # atno 10764 bound_to 10752
  153.9705  135.3039  155.3407 H   0  0  0  0  0  0  0  0  0  0  0  0  # atno 10765 bound_to 10752
  140.0633  134.5572  155.9128 H   0  0  0  0  0  0  0  0  0  0  0  0  # atno 11005 bound_to 11000
  146.2982  140.4082  142.8713 LP  0  0  0  0  0  0  0  0  0  0  0  0  # atno 17320 bound_to 7965
  144.8744  140.7316  143.6026 LP  0  0  0  0  0  0  0  0  0  0  0  0  # atno 17321 bound_to 7965
  140.0226  143.5527  152.2794 LP  0  0  0  0  0  0  0  0  0  0  0  0  # atno 17342 bound_to 10162
  139.6290  144.7641  151.2576 LP  0  0  0  0  0  0  0  0  0  0  0  0  # atno 17343 bound_to 10162
  156.6159  130.4392  149.5841 LP  0  0  0  0  0  0  0  0  0  0  0  0  # atno 17370 bound_to 10713
  156.2394  130.6842  151.1541 LP  0  0  0  0  0  0  0  0  0  0  0  0  # atno 17371 bound_to 10713
  141.1982  133.6600  156.5781 LP  0  0  0  0  0  0  0  0  0  0  0  0  # atno 17394 bound_to 11000
  140.3737  134.7583  157.4616 LP  0  0  0  0  0  0  0  0  0  0  0  0  # atno 17395 bound_to 11000

$$$$
