AV-unprocessed.smi:2999|AV-procd|sdf|11419|dock4
  -GOLD-   2272016343D 1   1.00000     0.00000
 Structure written by MMmdl.
 38 40  0  0  0  0  0  0  0  0  2 V2000
  150.8429  134.1931  156.1152 O   0  0  0  0  0  0  0  0  0  0  0  0
  150.1788  134.5151  155.1298 C   0  0  0  0  0  0  0  0  0  0  0  0
  149.4070  133.6561  154.4515 N   0  0  0  0  0  0  0  0  0  0  0  0
  149.2678  132.2434  154.7798 C   0  0  0  0  0  0  0  0  0  0  0  0
  148.6628  131.4673  153.6015 C   0  0  2  0  0  0  0  0  0  0  0  0
  147.4636  132.2081  152.9776 C   0  0  0  0  0  0  0  0  0  0  0  0
  146.8673  131.3994  151.8899 N   0  3  2  0  0  0  0  0  0  0  0  0
  145.7380  132.0860  151.2267 C   0  0  0  0  0  0  0  0  0  0  0  0
  145.8944  132.1985  149.7285 C   0  0  0  0  0  0  0  0  0  0  0  0
  146.1119  133.4114  150.6060 C   0  0  0  0  0  0  0  0  0  0  0  0
  146.4989  130.0533  152.3835 C   0  0  0  0  0  0  0  0  0  0  0  0
  147.7148  129.3739  153.0333 C   0  0  0  0  0  0  0  0  0  0  0  0
  148.2182  130.1993  154.0767 O   0  0  0  0  0  0  0  0  0  0  0  0
  150.1257  135.7466  154.5929 N   0  0  0  0  0  0  0  0  0  0  0  0
  150.8007  136.9202  155.0194 C   0  0  0  0  0  0  0  0  0  0  0  0
  151.9918  136.9272  155.6290 N   0  0  0  0  0  0  0  0  0  0  0  0
  152.4165  138.2228  155.9346 C   0  0  0  0  0  0  0  0  0  0  0  0
  151.5299  139.1968  155.5481 C   0  0  0  0  0  0  0  0  0  0  0  0
  150.1175  138.5220  154.7808 S   0  0  0  0  0  0  0  0  0  0  0  0
  148.8954  133.9963  153.6506 H   0  0  0  0  0  0  0  0  0  0  0  0
  150.2426  131.8307  155.0452 H   0  0  0  0  0  0  0  0  0  0  0  0
  148.6270  132.1447  155.6574 H   0  0  0  0  0  0  0  0  0  0  0  0
  149.4334  131.3203  152.8419 H   0  0  0  0  0  0  0  0  0  0  0  0
  146.7068  132.4119  153.7373 H   0  0  0  0  0  0  0  0  0  0  0  0
  147.7860  133.1715  152.5807 H   0  0  0  0  0  0  0  0  0  0  0  0
  144.7543  131.9417  151.6703 H   0  0  0  0  0  0  0  0  0  0  0  0
  146.7718  131.7502  149.2655 H   0  0  0  0  0  0  0  0  0  0  0  0
  144.9880  132.1744  149.1267 H   0  0  0  0  0  0  0  0  0  0  0  0
  145.3491  134.1871  150.5817 H   0  0  0  0  0  0  0  0  0  0  0  0
  147.1335  133.7677  150.7260 H   0  0  0  0  0  0  0  0  0  0  0  0
  145.6870  130.1380  153.1077 H   0  0  0  0  0  0  0  0  0  0  0  0
  146.1296  129.4444  151.5576 H   0  0  0  0  0  0  0  0  0  0  0  0
  147.4271  128.4097  153.4526 H   0  0  0  0  0  0  0  0  0  0  0  0
  148.4958  129.1809  152.2960 H   0  0  0  0  0  0  0  0  0  0  0  0
  149.5360  135.8584  153.7814 H   0  0  0  0  0  0  0  0  0  0  0  0
  153.3663  138.3614  156.4295 H   0  0  0  0  0  0  0  0  0  0  0  0
  151.6218  140.2660  155.6684 H   0  0  0  0  0  0  0  0  0  0  0  0
  147.5849  131.2713  151.1905 H   0  0  0  0  0  0  0  0  0  0  0  0
  1  2  2  0  0  0  0
  2  3  1  0  0  0  0
  2 14  1  0  0  0  0
  3  4  1  0  0  0  0
  3 20  1  0  0  0  0
  4  5  1  0  0  0  0
  4 21  1  0  0  0  0
  4 22  1  0  0  0  0
  5 13  1  0  0  0  0
  5  6  1  0  0  0  0
  5 23  1  0  0  0  0
  6  7  1  0  0  0  0
  6 24  1  0  0  0  0
  6 25  1  0  0  0  0
  7  8  1  0  0  0  0
  7 11  1  0  0  0  0
  7 38  1  0  0  0  0
  8 10  1  0  0  0  0
  8  9  1  0  0  0  0
  8 26  1  0  0  0  0
  9 10  1  0  0  0  0
  9 27  1  0  0  0  0
  9 28  1  0  0  0  0
 10 29  1  0  0  0  0
 10 30  1  0  0  0  0
 11 12  1  0  0  0  0
 11 31  1  0  0  0  0
 11 32  1  0  0  0  0
 12 13  1  0  0  0  0
 12 33  1  0  0  0  0
 12 34  1  0  0  0  0
 14 15  1  0  0  0  0
 14 35  1  0  0  0  0
 15 19  1  0  0  0  0
 15 16  2  0  0  0  0
 16 17  1  0  0  0  0
 17 18  2  0  0  0  0
 17 36  1  0  0  0  0
 18 19  1  0  0  0  0
 18 37  1  0  0  0  0
M  CHG  1   7   1
M  END
> <s_m_source_file>
AV-unprocessed.smi

> <i_m_source_file_index>
2999

> <i_lp_mmshare_version>
43012

> <i_f3d_flags>
0

> <s_epik_input>
czFbY0hdW2NIXW5jMVtOSF1DKD1PKVtOSF1bQ0gyXVtDQEBIXTJbQ0gyXU4oW0NIMl1bQ0gyXU8yKVtDSF0zW0NIMl1bQ0gyXTM=

> <s_epik_cmdline>
J2VwaWtfcHl0aG9uJywgJy1waCcsICc3LjAnLCAnLXRuJywgJzgnLCAnLW1hJywgJzIwMCcsICctbWV0YWxfYmluZGluZycsICctaW1hZScsICc8aW5maWxlLm1hZT4nLCAnLW9tYWUnLCAnPG91dGZpbGUubWFlPic=

> <r_lp_tautomer_probability>
0.999

> <r_epik_Ionization_Penalty>
1.55235

> <r_epik_Ionization_Penalty_Charging>
1.55221

> <r_epik_Ionization_Penalty_Neutral>
0.000139685

> <r_epik_State_Penalty>
1.64652

> <r_epik_Charging_Adjusted_Penalty>
3.19873

> <i_epik_Tot_Q>
1

> <i_epik_Tot_abs_Q>
1

> <r_epik_Metal_State_Penalty>
1.68612

> <b_epik_Metal_Only>
0

> <s_lp_Force_Field>
OPLS_2005

> <r_lp_Energy>
22.0843

> <b_lp_Chiralities_Consistent>
1

> <s_lp_Variant>
AV-unprocessed.smi:2999-3

> <Gold.Version>
5.8.1

> <Gold.Id.Protein>
6NUR|6NUR_protein|mol2

> <Gold.PLP.Fitness>
44.9083

> <Gold.PLP.PLP>
-36.9784

> <Gold.PLP.part.hbond>
-4.0000

> <Gold.PLP.part.metal>
0.0000

> <Gold.PLP.part.buried>
-3.9954

> <Gold.PLP.part.nonpolar>
-29.9122

> <Gold.PLP.part.repulsive>
0.2268

> <Gold.PLP.ligand.clash>
0.0000

> <Gold.PLP.ligand.torsion>
1.1297

> <Gold.PLP.Chemscore.Hbond>
2.9760

> <Gold.PLP.Chemscore.CHOScore>
0.0000

> <Gold.PLP.Chemscore.Metal>
0.0000

> <Gold.Chemscore.Hbonds>
donor molecule, donor type, donor heavy atom, donor atom, acceptor molecule, acceptor atom, score
      L1  H     7    38       P1 10747  1.00
      L1  H    14    35       P1  7948  1.00
      P1  H 10752 10765       L1    16  0.99

> <Gold.PLP.Chemscore.Internal.Correction>
1.2613

> <Gold.Rescore>
     Score         DG    S(hbond)    S(metal)    S(lipo)     H(rot)  DE(clash)    DE(int)     intcor
     17.93     -19.35       2.58        0.00      79.42       1.58       0.06       1.36       ----

> <Gold.Chemscore.Fitness>
17.9304

> <Gold.Chemscore.DG>
-19.3506

> <Gold.Chemscore.ZeroCoef>
-5.4800

> <Gold.Chemscore.Hbond>
2.5816

> <Gold.Chemscore.Metal>
0.0000

> <Gold.Chemscore.Lipo>
79.4151

> <Gold.Chemscore.Internal_Hbond>
0.0000

> <Gold.Chemscore.DEClash>
0.0576

> <Gold.Chemscore.DEInternal>
1.3627

> <Gold.Chemscore.Rot>
1.5795

> <Gold.Chemscore.Internal.Correction>
   9.000000E+99

> <Gold.Chemscore.Hbonds>
donor molecule, donor type, donor heavy atom, donor atom, acceptor molecule, acceptor atom, score
      L1  H     7    38       P1 10747  1.00
      L1  H    14    35       P1  7948  0.38
      P1  H 10752 10765       L1    16  0.37

> <Gold.Chemscore.Hbond.Weighted>
-8.6225

> <Gold.Chemscore.Metal.Weighted>
-0.0000

> <Gold.Chemscore.Lipo.Weighted>
-9.2916

> <Gold.Chemscore.Internal_Hbond.Weighted>
0.0000

> <Gold.Chemscore.DEClash.Weighted>
0.0576

> <Gold.Chemscore.DEInternal.Weighted>
1.3627

> <Gold.Chemscore.Rot.Weighted>
4.0434

> <Gold.Chemscore.Internal.Correction.Weighted>
   9.000000E+99

> <Gold.Protein.RotatedTorsions>
[ 6907 6896 6895 6894 ] final -112.31 input  -60.11 | X-H torsion
[ 7974 7965 7964 7962 ] final  144.23 input  175.53 | X-H torsion
[ 8008 7997 7996 7995 ] final  -16.27 input   59.86 | X-H torsion
[ 10167 10162 10161 10158 ] final   73.05 input  -65.29 | X-H torsion
[ 10718 10713 10712 10709 ] final  -69.49 input   66.30 | X-H torsion
[ 10763 10752 10751 10750 ] final -176.13 input  -60.55 | X-H torsion
[ 11005 11000 10999 10996 ] final   77.71 input  -57.11 | X-H torsion

> <Gold.Protein.ActiveResidues>
 VAL166  LYS551  ARG553  GLY616  TRP617  ASP618  TYR619  PRO620  LYS621  CYS622 
 ASP623  PHE694  ASN695  SER759  ASP760  ASP761  ALA762  ILE779  LEU786  VAL792 
 PHE793  MET794  SER795  GLU796  ALA797  LYS798  CYS799  TRP800  GLU811  SER814 

> <Gold.Protein.RotatedAtoms>
  150.7750  133.9108  159.3368 H   0  0  0  0  0  0  0  0  0  0  0  0  # atno 6907 bound_to 6896
  151.6985  135.0932  160.0256 H   0  0  0  0  0  0  0  0  0  0  0  0  # atno 6908 bound_to 6896
  152.3782  133.6472  159.6176 H   0  0  0  0  0  0  0  0  0  0  0  0  # atno 6909 bound_to 6896
  144.8853  139.5637  143.5823 H   0  0  0  0  0  0  0  0  0  0  0  0  # atno 7974 bound_to 7965
  154.5066  140.2174  155.9239 H   0  0  0  0  0  0  0  0  0  0  0  0  # atno 8008 bound_to 7997
  156.1501  140.3163  155.8601 H   0  0  0  0  0  0  0  0  0  0  0  0  # atno 8009 bound_to 7997
  155.3955  140.0481  157.3029 H   0  0  0  0  0  0  0  0  0  0  0  0  # atno 8010 bound_to 7997
  140.0287  144.5483  150.7524 H   0  0  0  0  0  0  0  0  0  0  0  0  # atno 10167 bound_to 10162
  156.0453  130.4313  150.2155 H   0  0  0  0  0  0  0  0  0  0  0  0  # atno 10718 bound_to 10713
  154.5761  135.2832  155.0779 H   0  0  0  0  0  0  0  0  0  0  0  0  # atno 10763 bound_to 10752
  154.2133  135.6404  153.5126 H   0  0  0  0  0  0  0  0  0  0  0  0  # atno 10764 bound_to 10752
  153.0073  135.5497  154.6400 H   0  0  0  0  0  0  0  0  0  0  0  0  # atno 10765 bound_to 10752
  139.9243  134.7705  156.1557 H   0  0  0  0  0  0  0  0  0  0  0  0  # atno 11005 bound_to 11000
  146.3021  139.7459  142.9084 LP  0  0  0  0  0  0  0  0  0  0  0  0  # atno 17320 bound_to 7965
  145.3880  141.0368  143.3140 LP  0  0  0  0  0  0  0  0  0  0  0  0  # atno 17321 bound_to 7965
  140.7311  143.2691  151.3947 LP  0  0  0  0  0  0  0  0  0  0  0  0  # atno 17342 bound_to 10162
  139.6091  144.1136  152.2280 LP  0  0  0  0  0  0  0  0  0  0  0  0  # atno 17343 bound_to 10162
  157.0245  130.9989  151.3330 LP  0  0  0  0  0  0  0  0  0  0  0  0  # atno 17370 bound_to 10713
  157.5321  130.8065  149.7929 LP  0  0  0  0  0  0  0  0  0  0  0  0  # atno 17371 bound_to 10713
  141.0788  133.6763  156.2293 LP  0  0  0  0  0  0  0  0  0  0  0  0  # atno 17394 bound_to 11000
  140.6383  134.5193  157.5567 LP  0  0  0  0  0  0  0  0  0  0  0  0  # atno 17395 bound_to 11000

$$$$
