#       Name:                AV-unprocessed.smi:1768
#       Creating user name   scv26
#       Creation time:       Fri Mar 27 08:38:20 2020


#       File generated by GOLD software.
#

@<TRIPOS>MOLECULE
AV-unprocessed.smi:1768
    39    40     1
SMALL
NO_CHARGES


@<TRIPOS>ATOM
      1 ****        -6.4748   2.7278   0.6699 C.3            1 S1                 0.0000
      2 ****        -5.0494   2.2923   0.6664 C.2            1 S1                 0.0000
      3 ****        -4.0262   3.1553   0.6838 N.2            1 S1                 0.0000
      4 ****        -2.7963   2.5127   0.6805 N.2            1 S1                 0.0000
      5 ****        -2.9290   1.1794   0.6607 C.2            1 S1                 0.0000
      6 ****        -1.8331   0.2770   0.6595 N.am           1 S1                 0.0000
      7 ****        -0.5195   0.5615   0.6905 C.2            1 S1                 0.0000
      8 ****        -0.0378   1.6945   0.7037 O.2            1 S1                 0.0000
      9 ****         0.2148  -0.5603   0.7048 N.am           1 S1                 0.0000
     10 ****         1.6746  -0.6273   0.7209 C.3            1 S1                 0.0000
     11 ****         2.1205  -1.3588   1.9965 C.3            1 S1                 0.0000
     12 ****         2.1674  -1.3211  -0.5641 C.3            1 S1                 0.0000
     13 ****         3.6891  -1.3977  -0.7038 C.3            1 S1                 0.0000
     14 ****         3.8558  -1.5041  -2.2019 C.3            1 S1                 0.0000
     15 ****         2.7684  -0.5584  -2.6997 C.3            1 S1                 0.0000
     16 ****         1.7369  -0.5987  -1.7174 O.3            1 S1                 0.0000
     17 ****        -4.5843   0.5958   0.6407 S.3            1 S1                 0.0000
     18 ****        -6.5455   3.8161   0.6706 H              1 S1                 0.0000
     19 ****        -6.9782   2.3441   1.5572 H              1 S1                 0.0000
     20 ****        -6.9832   2.3447  -0.2148 H              1 S1                 0.0000
     21 ****        -2.0786  -0.7018   0.6428 H              1 S1                 0.0000
     22 ****        -0.2741  -1.4431   0.6885 H              1 S1                 0.0000
     23 ****         2.0991   0.3778   0.7481 H              1 S1                 0.0000
     24 ****         3.2070  -1.3944   2.0756 H              1 S1                 0.0000
     25 ****         1.7504  -2.3844   2.0172 H              1 S1                 0.0000
     26 ****         1.7477  -0.8521   2.8873 H              1 S1                 0.0000
     27 ****         1.7524  -2.3283  -0.6333 H              1 S1                 0.0000
     28 ****         4.1569  -0.4805  -0.3426 H              1 S1                 0.0000
     29 ****         4.1250  -2.2401  -0.1660 H              1 S1                 0.0000
     30 ****         4.8528  -1.2276  -2.5460 H              1 S1                 0.0000
     31 ****         3.6487  -2.5234  -2.5306 H              1 S1                 0.0000
     32 ****         3.1487   0.4621  -2.7591 H              1 S1                 0.0000
     33 ****         2.3928  -0.8376  -3.6844 H              1 S1                 0.0000
     34 ****        -4.1356   4.1492   0.6976 LP             1 S1                 0.0000
     35 ****        -1.9163   2.9876   0.6915 LP             1 S1                 0.0000
     36 ****        -0.6389   2.4935   0.6911 LP             1 S1                 0.0000
     37 ****         0.9546   1.8156   0.7269 LP             1 S1                 0.0000
     38 ****         1.5010   0.3356  -1.4505 LP             1 S1                 0.0000
     39 ****         0.9319  -1.0481  -2.1048 LP             1 S1                 0.0000
@<TRIPOS>BOND
    1    1    2 1     
    2    1   18 1     
    3    1   19 1     
    4    1   20 1     
    5    2   17 1     
    6    2    3 2     
    7    3    4 1     
    8    4    5 2     
    9    5    6 1     
   10    5   17 1     
   11    6    7 am    
   12    6   21 1     
   13    7    8 2     
   14    7    9 am    
   15    9   10 1     
   16    9   22 1     
   17   10   11 1     
   18   10   12 1     
   19   10   23 1     
   20   11   24 1     
   21   11   25 1     
   22   11   26 1     
   23   12   16 1     
   24   12   13 1     
   25   12   27 1     
   26   13   14 1     
   27   13   28 1     
   28   13   29 1     
   29   14   15 1     
   30   14   30 1     
   31   14   31 1     
   32   15   16 1     
   33   15   32 1     
   34   15   33 1     
   35    3   34 1     
   36    4   35 1     
   37    8   36 1     
   38    8   37 1     
   39   16   38 1     
   40   16   39 1     
@<TRIPOS>SUBSTRUCTURE
      1 S1             1
@<TRIPOS>SET
LONE_PAIRS      STATIC     ATOMS    <user>   **** ""
6 34 35 36 37 38 39
DONOR_HYDROGENS      STATIC     ATOMS    <user>   **** ""
2 21 22
ATOM$BLUE        STATIC     ATOMS    COLORGROUP SYSTEM
6 34 35 36 37 38 39
ATOM$RED        STATIC     ATOMS    COLORGROUP SYSTEM
2 21 22
