AV-unprocessed.smi:598|AV-procd|sdf|3026|dock3
  -GOLD-   2262023533D 1   1.00000     0.00000
 Structure written by MMmdl.
 43 44  0  0  0  0  0  0  0  0  3 V2000
  152.0932  143.9191  160.0683 C   0  0  0  0  0  0  0  0  0  0  0  0
  152.6596  142.6893  159.3349 C   0  0  1  0  0  0  0  0  0  0  0  0
  153.3823  141.7766  160.3456 C   0  0  0  0  0  0  0  0  0  0  0  0
  153.9977  140.5487  159.6666 C   0  0  0  0  0  0  0  0  0  0  0  0
  152.9241  139.7515  158.9207 C   0  0  0  0  0  0  0  0  0  0  0  0
  152.1892  140.6284  157.8885 C   0  0  1  0  0  0  0  0  0  0  0  0
  151.1484  139.8342  157.2378 N   0  0  0  0  0  0  0  0  0  0  0  0
  150.8572  139.8545  155.9282 C   0  0  0  0  0  0  0  0  0  0  0  0
  151.4631  140.5507  155.1123 O   0  0  0  0  0  0  0  0  0  0  0  0
  149.7186  138.9269  155.4810 C   0  0  0  0  0  0  0  0  0  0  0  0
  150.0124  137.4999  155.6954 N   0  0  0  0  0  0  0  0  0  0  0  0
  149.3377  136.8598  156.7538 C   0  0  0  0  0  0  0  0  0  0  0  0
  149.5352  135.5594  157.0463 C   0  0  0  0  0  0  0  0  0  0  0  0
  148.8401  134.9206  158.1422 N   0  3  0  0  0  0  0  0  0  0  0  0
  149.2891  133.8712  158.5923 O   0  0  0  0  0  0  0  0  0  0  0  0
  147.8244  135.4448  158.5894 O   0  5  0  0  0  0  0  0  0  0  0  0
  150.4758  134.8196  156.2272 C   0  0  0  0  0  0  0  0  0  0  0  0
  151.1279  135.4273  155.2166 C   0  0  0  0  0  0  0  0  0  0  0  0
  150.9161  136.8446  154.9041 C   0  0  0  0  0  0  0  0  0  0  0  0
  151.5146  137.4077  153.9872 O   0  0  0  0  0  0  0  0  0  0  0  0
  151.5806  141.9013  158.5381 C   0  0  2  0  0  0  0  0  0  0  0  0
  150.8853  142.7850  157.4788 C   0  0  0  0  0  0  0  0  0  0  0  0
  151.2740  143.6426  160.7325 H   0  0  0  0  0  0  0  0  0  0  0  0
  151.7253  144.6742  159.3744 H   0  0  0  0  0  0  0  0  0  0  0  0
  152.8612  144.4002  160.6745 H   0  0  0  0  0  0  0  0  0  0  0  0
  153.4069  143.0479  158.6255 H   0  0  0  0  0  0  0  0  0  0  0  0
  154.1679  142.3340  160.8571 H   0  0  0  0  0  0  0  0  0  0  0  0
  152.6834  141.4523  161.1177 H   0  0  0  0  0  0  0  0  0  0  0  0
  154.7770  140.8613  158.9705 H   0  0  0  0  0  0  0  0  0  0  0  0
  154.4810  139.9157  160.4111 H   0  0  0  0  0  0  0  0  0  0  0  0
  153.3865  138.8955  158.4275 H   0  0  0  0  0  0  0  0  0  0  0  0
  152.2099  139.3452  159.6384 H   0  0  0  0  0  0  0  0  0  0  0  0
  152.9116  140.9524  157.1364 H   0  0  0  0  0  0  0  0  0  0  0  0
  150.6029  139.2283  157.8336 H   0  0  0  0  0  0  0  0  0  0  0  0
  148.8146  139.2151  156.0195 H   0  0  0  0  0  0  0  0  0  0  0  0
  149.4936  139.1124  154.4290 H   0  0  0  0  0  0  0  0  0  0  0  0
  148.6650  137.4989  157.3076 H   0  0  0  0  0  0  0  0  0  0  0  0
  150.6650  133.7736  156.4189 H   0  0  0  0  0  0  0  0  0  0  0  0
  151.8255  134.8573  154.6204 H   0  0  0  0  0  0  0  0  0  0  0  0
  150.8162  141.5784  159.2469 H   0  0  0  0  0  0  0  0  0  0  0  0
  151.6062  143.1874  156.7666 H   0  0  0  0  0  0  0  0  0  0  0  0
  150.3590  143.6237  157.9326 H   0  0  0  0  0  0  0  0  0  0  0  0
  150.1379  142.2305  156.9117 H   0  0  0  0  0  0  0  0  0  0  0  0
  1  2  1  0  0  0  0
  1 23  1  0  0  0  0
  1 24  1  0  0  0  0
  1 25  1  0  0  0  0
  2 21  1  0  0  0  0
  2  3  1  0  0  0  0
  2 26  1  0  0  0  0
  3  4  1  0  0  0  0
  3 27  1  0  0  0  0
  3 28  1  0  0  0  0
  4  5  1  0  0  0  0
  4 29  1  0  0  0  0
  4 30  1  0  0  0  0
  5  6  1  0  0  0  0
  5 31  1  0  0  0  0
  5 32  1  0  0  0  0
  6  7  1  0  0  0  0
  6 21  1  0  0  0  0
  6 33  1  0  0  0  0
  7  8  1  0  0  0  0
  7 34  1  0  0  0  0
  8  9  2  0  0  0  0
  8 10  1  0  0  0  0
 10 11  1  0  0  0  0
 10 35  1  0  0  0  0
 10 36  1  0  0  0  0
 11 19  1  0  0  0  0
 11 12  1  0  0  0  0
 12 13  2  0  0  0  0
 12 37  1  0  0  0  0
 13 14  1  0  0  0  0
 13 17  1  0  0  0  0
 14 15  2  0  0  0  0
 14 16  1  0  0  0  0
 17 18  2  0  0  0  0
 17 38  1  0  0  0  0
 18 19  1  0  0  0  0
 18 39  1  0  0  0  0
 19 20  2  0  0  0  0
 21 22  1  0  0  0  0
 21 40  1  0  0  0  0
 22 41  1  0  0  0  0
 22 42  1  0  0  0  0
 22 43  1  0  0  0  0
M  CHG  1  14   1
M  CHG  1  16  -1
M  END
> <s_m_source_file>
AV-unprocessed.smi

> <i_m_source_file_index>
598

> <i_lp_mmshare_version>
43012

> <i_f3d_flags>
0

> <s_epik_input>
W0NIM11bQ0BASF0xW0NIMl1bQ0gyXVtDSDJdW0NASF0oW0NASF0xW0NIM10pW05IXUMoPU8pW0NIMl1uMltjSF1jKFtOK10oPU8pW08tXSlbY0hdW2NIXWMyPU8=

> <s_epik_cmdline>
J2VwaWtfcHl0aG9uJywgJy1waCcsICc3LjAnLCAnLXRuJywgJzgnLCAnLW1hJywgJzIwMCcsICctbWV0YWxfYmluZGluZycsICctaW1hZScsICc8aW5maWxlLm1hZT4nLCAnLW9tYWUnLCAnPG91dGZpbGUubWFlPic=

> <r_lp_tautomer_probability>
1

> <r_epik_Ionization_Penalty>
1.91291e-08

> <r_epik_Ionization_Penalty_Charging>
8.21931e-11

> <r_epik_Ionization_Penalty_Neutral>
1.90469e-08

> <r_epik_State_Penalty>
-0

> <r_epik_Charging_Adjusted_Penalty>
8.21931e-11

> <i_epik_Tot_Q>
0

> <i_epik_Tot_abs_Q>
2

> <r_epik_Metal_State_Penalty>
-0

> <b_epik_Metal_Only>
0

> <s_lp_Force_Field>
OPLS_2005

> <r_lp_Energy>
23.592

> <b_lp_Chiralities_Consistent>
1

> <s_lp_Variant>
AV-unprocessed.smi:598-6

> <Gold.Version>
5.8.1

> <Gold.Id.Protein>
6NUR|6NUR_protein|mol2

> <Gold.PLP.Fitness>
42.6632

> <Gold.PLP.PLP>
-35.1229

> <Gold.PLP.part.hbond>
-3.0000

> <Gold.PLP.part.metal>
0.0000

> <Gold.PLP.part.buried>
-4.9590

> <Gold.PLP.part.nonpolar>
-27.8349

> <Gold.PLP.part.repulsive>
0.4588

> <Gold.PLP.ligand.clash>
0.0000

> <Gold.PLP.ligand.torsion>
0.6035

> <Gold.PLP.Chemscore.Hbond>
2.9120

> <Gold.PLP.Chemscore.CHOScore>
0.0000

> <Gold.PLP.Chemscore.Metal>
0.0000

> <Gold.Chemscore.Hbonds>
donor molecule, donor type, donor heavy atom, donor atom, acceptor molecule, acceptor atom, score
      P1  H  6896  6908       L1    15  1.00
      P1  H  7989  7998       L1     9  0.86
      P1  H 10752 10763       L1    20  0.02

> <Gold.PLP.Chemscore.Internal.Correction>
0.0114

> <Gold.Rescore>
     Score         DG    S(hbond)    S(metal)    S(lipo)     H(rot)  DE(clash)    DE(int)     intcor
     20.09     -20.59       2.59        0.00      88.77       1.54       0.02       0.47       ----

> <Gold.Chemscore.Fitness>
20.0931

> <Gold.Chemscore.DG>
-20.5869

> <Gold.Chemscore.ZeroCoef>
-5.4800

> <Gold.Chemscore.Hbond>
2.5932

> <Gold.Chemscore.Metal>
0.0000

> <Gold.Chemscore.Lipo>
88.7721

> <Gold.Chemscore.Internal_Hbond>
0.0000

> <Gold.Chemscore.DEClash>
0.0204

> <Gold.Chemscore.DEInternal>
0.4735

> <Gold.Chemscore.Rot>
1.5393

> <Gold.Chemscore.Internal.Correction>
   9.000000E+99

> <Gold.Chemscore.Hbonds>
donor molecule, donor type, donor heavy atom, donor atom, acceptor molecule, acceptor atom, score
      P1  H  6896  6908       L1    15  0.64
      P1  H  7989  7998       L1     9  0.85

> <Gold.Chemscore.Hbond.Weighted>
-8.6613

> <Gold.Chemscore.Metal.Weighted>
-0.0000

> <Gold.Chemscore.Lipo.Weighted>
-10.3863

> <Gold.Chemscore.Internal_Hbond.Weighted>
0.0000

> <Gold.Chemscore.DEClash.Weighted>
0.0204

> <Gold.Chemscore.DEInternal.Weighted>
0.4735

> <Gold.Chemscore.Rot.Weighted>
3.9407

> <Gold.Chemscore.Internal.Correction.Weighted>
   9.000000E+99

> <Gold.Protein.RotatedTorsions>
[ 6907 6896 6895 6894 ] final  148.58 input  -60.11 | X-H torsion
[ 7974 7965 7964 7962 ] final  -98.05 input  175.53 | X-H torsion
[ 8008 7997 7996 7995 ] final  -30.40 input   59.86 | X-H torsion
[ 10167 10162 10161 10158 ] final  -84.09 input  -65.29 | X-H torsion
[ 10718 10713 10712 10709 ] final    9.27 input   66.30 | X-H torsion
[ 10763 10752 10751 10750 ] final   45.30 input  -60.55 | X-H torsion
[ 11005 11000 10999 10996 ] final  -46.75 input  -57.11 | X-H torsion

> <Gold.Protein.ActiveResidues>
 VAL166  LYS551  ARG553  GLY616  TRP617  ASP618  TYR619  PRO620  LYS621  CYS622 
 ASP623  PHE694  ASN695  SER759  ASP760  ASP761  ALA762  ILE779  LEU786  VAL792 
 PHE793  MET794  SER795  GLU796  ALA797  LYS798  CYS799  TRP800  GLU811  SER814 

> <Gold.Protein.RotatedAtoms>
  152.1396  133.4456  159.4760 H   0  0  0  0  0  0  0  0  0  0  0  0  # atno 6907 bound_to 6896
  150.6885  134.2321  159.4448 H   0  0  0  0  0  0  0  0  0  0  0  0  # atno 6908 bound_to 6896
  152.0211  134.9822  160.0621 H   0  0  0  0  0  0  0  0  0  0  0  0  # atno 6909 bound_to 6896
  145.3257  140.9431  143.2690 H   0  0  0  0  0  0  0  0  0  0  0  0  # atno 7974 bound_to 7965
  154.4252  140.1792  156.1401 H   0  0  0  0  0  0  0  0  0  0  0  0  # atno 8008 bound_to 7997
  155.9998  140.3361  155.6809 H   0  0  0  0  0  0  0  0  0  0  0  0  # atno 8009 bound_to 7997
  155.6258  140.0664  157.2655 H   0  0  0  0  0  0  0  0  0  0  0  0  # atno 8010 bound_to 7997
  140.4165  143.2601  151.8947 H   0  0  0  0  0  0  0  0  0  0  0  0  # atno 10167 bound_to 10162
  156.9639  130.5943  149.5664 H   0  0  0  0  0  0  0  0  0  0  0  0  # atno 10718 bound_to 10713
  152.9827  135.6044  154.3414 H   0  0  0  0  0  0  0  0  0  0  0  0  # atno 10763 bound_to 10752
  154.3110  135.2771  155.2567 H   0  0  0  0  0  0  0  0  0  0  0  0  # atno 10764 bound_to 10752
  154.4777  135.5925  153.6422 H   0  0  0  0  0  0  0  0  0  0  0  0  # atno 10765 bound_to 10752
  141.0598  133.6713  156.3199 H   0  0  0  0  0  0  0  0  0  0  0  0  # atno 11005 bound_to 11000
  144.8904  139.4782  143.6680 LP  0  0  0  0  0  0  0  0  0  0  0  0  # atno 17320 bound_to 7965
  146.3065  139.7598  142.9052 LP  0  0  0  0  0  0  0  0  0  0  0  0  # atno 17321 bound_to 7965
  139.4782  144.5482  151.8426 LP  0  0  0  0  0  0  0  0  0  0  0  0  # atno 17342 bound_to 10162
  140.4580  144.1762  150.5903 LP  0  0  0  0  0  0  0  0  0  0  0  0  # atno 17343 bound_to 10162
  156.0310  130.5402  150.8535 LP  0  0  0  0  0  0  0  0  0  0  0  0  # atno 17370 bound_to 10713
  157.5639  131.0946  150.9519 LP  0  0  0  0  0  0  0  0  0  0  0  0  # atno 17371 bound_to 10713
  140.5891  134.5668  157.5496 LP  0  0  0  0  0  0  0  0  0  0  0  0  # atno 17394 bound_to 11000
  139.9422  134.7766  156.0649 LP  0  0  0  0  0  0  0  0  0  0  0  0  # atno 17395 bound_to 11000

$$$$
