#       Name:                AV-unprocessed.smi:3289
#       Creating user name   scv26
#       Creation time:       Fri Mar 27 18:53:54 2020


#       File generated by GOLD software.
#

@<TRIPOS>MOLECULE
AV-unprocessed.smi:3289
    44    45     1
SMALL
NO_CHARGES


@<TRIPOS>ATOM
      1 ****        -2.5035   3.1520   2.9299 C.3            1 S1                 0.0000
      2 ****        -1.9809   2.4495   1.6687 C.3            1 S1                 0.0000
      3 ****        -2.3075   3.2406   0.3930 C.3            1 S1                 0.0000
      4 ****        -2.4756   1.0305   1.5825 C.2            1 S1                 0.0000
      5 ****        -3.7571   0.7171   1.4049 N.2            1 S1                 0.0000
      6 ****        -3.7912  -0.6714   1.3834 C.2            1 S1                 0.0000
      7 ****        -2.5198  -1.1584   1.5592 C.2            1 S1                 0.0000
      8 ****        -1.6814  -0.0581   1.6949 N.pl3          1 S1                 0.0000
      9 ****        -0.2421  -0.1291   1.9142 C.3            1 S1                 0.0000
     10 ****         0.5660   0.0322   0.6203 C.2            1 S1                 0.0000
     11 ****         0.1064   0.6496  -0.3414 O.2            1 S1                 0.0000
     12 ****         1.7842  -0.5299   0.6167 N.am           1 S1                 0.0000
     13 ****         2.7165  -0.5096  -0.5049 C.3            1 S1                 0.0000
     14 ****         2.5260  -1.7302  -1.4209 C.3            1 S1                 0.0000
     15 ****         3.5625  -1.8214  -2.5400 C.3            1 S1                 0.0000
     16 ****         2.8264  -2.6422  -3.5738 C.3            1 S1                 0.0000
     17 ****         1.4085  -2.0944  -3.4486 C.3            1 S1                 0.0000
     18 ****         1.2683  -1.6796  -2.0924 O.3            1 S1                 0.0000
     19 ****        -2.2083   2.6108   3.8293 H              1 S1                 0.0000
     20 ****        -3.5918   3.2211   2.9242 H              1 S1                 0.0000
     21 ****        -2.1067   4.1644   3.0089 H              1 S1                 0.0000
     22 ****        -0.8953   2.4384   1.7447 H              1 S1                 0.0000
     23 ****        -1.8786   2.7590  -0.4863 H              1 S1                 0.0000
     24 ****        -1.9040   4.2521   0.4440 H              1 S1                 0.0000
     25 ****        -3.3838   3.3202   0.2372 H              1 S1                 0.0000
     26 ****        -4.7188  -1.2070   1.2454 H              1 S1                 0.0000
     27 ****        -2.1509  -2.1726   1.6014 H              1 S1                 0.0000
     28 ****         0.0555   0.6293   2.6382 H              1 S1                 0.0000
     29 ****        -0.0120  -1.0943   2.3680 H              1 S1                 0.0000
     30 ****         2.0841  -1.0159   1.4493 H              1 S1                 0.0000
     31 ****         2.6243   0.4177  -1.0729 H              1 S1                 0.0000
     32 ****         3.7259  -0.5180  -0.0929 H              1 S1                 0.0000
     33 ****         2.5562  -2.6504  -0.8351 H              1 S1                 0.0000
     34 ****         3.7849  -0.8316  -2.9416 H              1 S1                 0.0000
     35 ****         4.4987  -2.2779  -2.2172 H              1 S1                 0.0000
     36 ****         3.2365  -2.5393  -4.5786 H              1 S1                 0.0000
     37 ****         2.8488  -3.6978  -3.2998 H              1 S1                 0.0000
     38 ****         1.2778  -1.2227  -4.0910 H              1 S1                 0.0000
     39 ****         0.6525  -2.8315  -3.7200 H              1 S1                 0.0000
     40 ****        -4.5288   1.3456   1.3079 LP             1 S1                 0.0000
     41 ****        -0.8062   1.0545  -0.2857 LP             1 S1                 0.0000
     42 ****         0.6459   0.7458  -1.1779 LP             1 S1                 0.0000
     43 ****         0.9206  -0.7423  -2.0694 LP             1 S1                 0.0000
     44 ****         0.6228  -2.2860  -1.6280 LP             1 S1                 0.0000
@<TRIPOS>BOND
    1    1    2 1     
    2    1   19 1     
    3    1   20 1     
    4    1   21 1     
    5    2    3 1     
    6    2    4 1     
    7    2   22 1     
    8    3   23 1     
    9    3   24 1     
   10    3   25 1     
   11    4    8 1     
   12    4    5 2     
   13    5    6 1     
   14    6    7 2     
   15    6   26 1     
   16    7    8 1     
   17    7   27 1     
   18    8    9 1     
   19    9   10 1     
   20    9   28 1     
   21    9   29 1     
   22   10   11 2     
   23   10   12 am    
   24   12   13 1     
   25   12   30 1     
   26   13   14 1     
   27   13   31 1     
   28   13   32 1     
   29   14   18 1     
   30   14   15 1     
   31   14   33 1     
   32   15   16 1     
   33   15   34 1     
   34   15   35 1     
   35   16   17 1     
   36   16   36 1     
   37   16   37 1     
   38   17   18 1     
   39   17   38 1     
   40   17   39 1     
   41    5   40 1     
   42   11   41 1     
   43   11   42 1     
   44   18   43 1     
   45   18   44 1     
@<TRIPOS>SUBSTRUCTURE
      1 S1             1
@<TRIPOS>SET
LONE_PAIRS      STATIC     ATOMS    <user>   **** ""
5 40 41 42 43 44
DONOR_HYDROGENS      STATIC     ATOMS    <user>   **** ""
1 30
ATOM$BLUE        STATIC     ATOMS    COLORGROUP SYSTEM
5 40 41 42 43 44
ATOM$RED        STATIC     ATOMS    COLORGROUP SYSTEM
1 30
