AV-unprocessed.smi:2878|AV-procd|sdf|11045|dock1
  -GOLD-   2272015513D 1   1.00000     0.00000
 Structure written by MMmdl.
 42 43  0  0  0  0  0  0  0  0  1 V2000
  143.5507  135.2921  153.0432 C   0  0  0  0  0  0  0  0  0  0  0  0
  144.8282  135.9323  151.9263 S   0  0  0  0  0  0  0  0  0  0  0  0
  145.3837  134.4018  151.1090 C   0  0  2  0  0  0  0  0  0  0  0  0
  144.1689  133.6793  150.4963 C   0  0  0  0  0  0  0  0  0  0  0  0
  144.5676  132.3593  149.8211 C   0  0  0  0  0  0  0  0  0  0  0  0
  145.2909  131.4364  150.8106 C   0  0  0  0  0  0  0  0  0  0  0  0
  146.5178  132.1333  151.4156 C   0  0  0  0  0  0  0  0  0  0  0  0
  146.1478  133.4727  152.0852 C   0  0  1  0  0  0  0  0  0  0  0  0
  147.3711  134.1200  152.5545 N   0  0  0  0  0  0  0  0  0  0  0  0
  148.3572  133.5239  153.2386 C   0  0  0  0  0  0  0  0  0  0  0  0
  148.3702  132.3303  153.5394 O   0  0  0  0  0  0  0  0  0  0  0  0
  149.3265  134.3900  153.5653 N   0  0  0  0  0  0  0  0  0  0  0  0
  150.5208  134.0537  154.3317 C   0  0  0  0  0  0  0  0  0  0  0  0
  150.6822  134.9676  155.5571 C   0  0  0  0  0  0  0  0  0  0  0  0
  151.3140  136.2743  155.2124 C   0  0  0  0  0  0  0  0  0  0  0  0
  151.3694  137.3662  155.9718 N   0  0  0  0  0  0  0  0  0  0  0  0
  151.9951  138.2359  155.1319 C   0  0  0  0  0  0  0  0  0  0  0  0
  152.3114  139.6418  155.5132 C   0  0  0  0  0  0  0  0  0  0  0  0
  152.3027  137.7631  153.9302 N   0  0  0  0  0  0  0  0  0  0  0  0
  151.8355  136.4417  153.9734 O   0  0  0  0  0  0  0  0  0  0  0  0
  143.1292  136.1068  153.6318 H   0  0  0  0  0  0  0  0  0  0  0  0
  143.9757  134.5581  153.7277 H   0  0  0  0  0  0  0  0  0  0  0  0
  142.7421  134.8216  152.4851 H   0  0  0  0  0  0  0  0  0  0  0  0
  146.0470  134.6820  150.2895 H   0  0  0  0  0  0  0  0  0  0  0  0
  143.4306  133.4778  151.2740 H   0  0  0  0  0  0  0  0  0  0  0  0
  143.6794  134.3273  149.7685 H   0  0  0  0  0  0  0  0  0  0  0  0
  143.6816  131.8609  149.4272 H   0  0  0  0  0  0  0  0  0  0  0  0
  145.2143  132.5636  148.9668 H   0  0  0  0  0  0  0  0  0  0  0  0
  144.6066  131.1428  151.6074 H   0  0  0  0  0  0  0  0  0  0  0  0
  145.5948  130.5174  150.3086 H   0  0  0  0  0  0  0  0  0  0  0  0
  146.9911  131.4719  152.1426 H   0  0  0  0  0  0  0  0  0  0  0  0
  147.2551  132.3042  150.6296 H   0  0  0  0  0  0  0  0  0  0  0  0
  145.4881  133.2613  152.9291 H   0  0  0  0  0  0  0  0  0  0  0  0
  147.4619  135.1060  152.3587 H   0  0  0  0  0  0  0  0  0  0  0  0
  149.2275  135.3507  153.2719 H   0  0  0  0  0  0  0  0  0  0  0  0
  150.4866  133.0065  154.6375 H   0  0  0  0  0  0  0  0  0  0  0  0
  151.3857  134.1576  153.6759 H   0  0  0  0  0  0  0  0  0  0  0  0
  149.7101  135.1598  156.0130 H   0  0  0  0  0  0  0  0  0  0  0  0
  151.2932  134.4807  156.3180 H   0  0  0  0  0  0  0  0  0  0  0  0
  153.1805  140.0052  154.9637 H   0  0  0  0  0  0  0  0  0  0  0  0
  152.5280  139.7087  156.5797 H   0  0  0  0  0  0  0  0  0  0  0  0
  151.4638  140.2901  155.2898 H   0  0  0  0  0  0  0  0  0  0  0  0
  1  2  1  0  0  0  0
  1 21  1  0  0  0  0
  1 22  1  0  0  0  0
  1 23  1  0  0  0  0
  2  3  1  0  0  0  0
  3  8  1  0  0  0  0
  3  4  1  0  0  0  0
  3 24  1  0  0  0  0
  4  5  1  0  0  0  0
  4 25  1  0  0  0  0
  4 26  1  0  0  0  0
  5  6  1  0  0  0  0
  5 27  1  0  0  0  0
  5 28  1  0  0  0  0
  6  7  1  0  0  0  0
  6 29  1  0  0  0  0
  6 30  1  0  0  0  0
  7  8  1  0  0  0  0
  7 31  1  0  0  0  0
  7 32  1  0  0  0  0
  8  9  1  0  0  0  0
  8 33  1  0  0  0  0
  9 10  1  0  0  0  0
  9 34  1  0  0  0  0
 10 11  2  0  0  0  0
 10 12  1  0  0  0  0
 12 13  1  0  0  0  0
 12 35  1  0  0  0  0
 13 14  1  0  0  0  0
 13 36  1  0  0  0  0
 13 37  1  0  0  0  0
 14 15  1  0  0  0  0
 14 38  1  0  0  0  0
 14 39  1  0  0  0  0
 15 20  1  0  0  0  0
 15 16  2  0  0  0  0
 16 17  1  0  0  0  0
 17 18  1  0  0  0  0
 17 19  2  0  0  0  0
 18 40  1  0  0  0  0
 18 41  1  0  0  0  0
 18 42  1  0  0  0  0
 19 20  1  0  0  0  0
M  END
> <s_m_source_file>
AV-unprocessed.smi

> <i_m_source_file_index>
2878

> <i_lp_mmshare_version>
43012

> <i_f3d_flags>
0

> <s_epik_input>
W0NIM11TW0NAQEhdMVtDSDJdW0NIMl1bQ0gyXVtDSDJdW0NASF0xW05IXUMoPU8pW05IXVtDSDJdW0NIMl1jMm5jKFtDSDNdKW5vMg==

> <s_epik_cmdline>
J2VwaWtfcHl0aG9uJywgJy1waCcsICc3LjAnLCAnLXRuJywgJzgnLCAnLW1hJywgJzIwMCcsICctbWV0YWxfYmluZGluZycsICctaW1hZScsICc8aW5maWxlLm1hZT4nLCAnLW9tYWUnLCAnPG91dGZpbGUubWFlPic=

> <r_lp_tautomer_probability>
1

> <r_epik_Ionization_Penalty>
4.9299e-05

> <r_epik_Ionization_Penalty_Charging>
0

> <r_epik_Ionization_Penalty_Neutral>
4.9299e-05

> <r_epik_State_Penalty>
-0

> <r_epik_Charging_Adjusted_Penalty>
0

> <i_epik_Tot_Q>
0

> <i_epik_Tot_abs_Q>
0

> <r_epik_Metal_State_Penalty>
-0

> <b_epik_Metal_Only>
0

> <s_lp_Force_Field>
OPLS_2005

> <r_lp_Energy>
1.6378

> <b_lp_Chiralities_Consistent>
1

> <s_lp_Variant>
AV-unprocessed.smi:2878-1

> <Gold.Version>
5.8.1

> <Gold.Id.Protein>
6NUR|6NUR_protein|mol2

> <Gold.PLP.Fitness>
43.1240

> <Gold.PLP.PLP>
-36.1061

> <Gold.PLP.part.hbond>
-3.9039

> <Gold.PLP.part.metal>
0.0000

> <Gold.PLP.part.buried>
-5.0267

> <Gold.PLP.part.nonpolar>
-27.9867

> <Gold.PLP.part.repulsive>
1.0478

> <Gold.PLP.ligand.clash>
0.0000

> <Gold.PLP.ligand.torsion>
0.4131

> <Gold.PLP.Chemscore.Hbond>
2.6000

> <Gold.PLP.Chemscore.CHOScore>
0.0000

> <Gold.PLP.Chemscore.Metal>
0.0000

> <Gold.Chemscore.Hbonds>
donor molecule, donor type, donor heavy atom, donor atom, acceptor molecule, acceptor atom, score
      L1  H     9    34       P1  7948  0.64
      L1  H    12    35       P1  7948  0.71

> <Gold.PLP.Chemscore.Internal.Correction>
0.0442

> <Gold.Rescore>
     Score         DG    S(hbond)    S(metal)    S(lipo)     H(rot)  DE(clash)    DE(int)     intcor
     13.52     -15.29       1.99        0.00      72.82       2.09       1.46       0.32       ----

> <Gold.Chemscore.Fitness>
13.5153

> <Gold.Chemscore.DG>
-15.2910

> <Gold.Chemscore.ZeroCoef>
-5.4800

> <Gold.Chemscore.Hbond>
1.9901

> <Gold.Chemscore.Metal>
0.0000

> <Gold.Chemscore.Lipo>
72.8238

> <Gold.Chemscore.Internal_Hbond>
0.0000

> <Gold.Chemscore.DEClash>
1.4552

> <Gold.Chemscore.DEInternal>
0.3205

> <Gold.Chemscore.Rot>
2.0923

> <Gold.Chemscore.Internal.Correction>
   9.000000E+99

> <Gold.Chemscore.Hbonds>
donor molecule, donor type, donor heavy atom, donor atom, acceptor molecule, acceptor atom, score
      L1  H     9    34       P1  7948  0.63
      L1  H    12    35       P1  7948  0.16

> <Gold.Chemscore.Hbond.Weighted>
-6.6469

> <Gold.Chemscore.Metal.Weighted>
-0.0000

> <Gold.Chemscore.Lipo.Weighted>
-8.5204

> <Gold.Chemscore.Internal_Hbond.Weighted>
0.0000

> <Gold.Chemscore.DEClash.Weighted>
1.4552

> <Gold.Chemscore.DEInternal.Weighted>
0.3205

> <Gold.Chemscore.Rot.Weighted>
5.3562

> <Gold.Chemscore.Internal.Correction.Weighted>
   9.000000E+99

> <Gold.Protein.RotatedTorsions>
[ 6907 6896 6895 6894 ] final -104.69 input  -60.11 | X-H torsion
[ 7974 7965 7964 7962 ] final  -56.55 input  175.53 | X-H torsion
[ 8008 7997 7996 7995 ] final   71.37 input   59.86 | X-H torsion
[ 10167 10162 10161 10158 ] final -169.18 input  -65.29 | X-H torsion
[ 10718 10713 10712 10709 ] final -168.62 input   66.30 | X-H torsion
[ 10763 10752 10751 10750 ] final  -53.67 input  -60.55 | X-H torsion
[ 11005 11000 10999 10996 ] final  -98.89 input  -57.11 | X-H torsion

> <Gold.Protein.ActiveResidues>
 VAL166  LYS551  ARG553  GLY616  TRP617  ASP618  TYR619  PRO620  LYS621  CYS622 
 ASP623  PHE694  ASN695  SER759  ASP760  ASP761  ALA762  ILE779  LEU786  VAL792 
 PHE793  MET794  SER795  GLU796  ALA797  LYS798  CYS799  TRP800  GLU811  SER814 

> <Gold.Protein.RotatedAtoms>
  150.7300  134.0239  159.3710 H   0  0  0  0  0  0  0  0  0  0  0  0  # atno 6907 bound_to 6896
  151.8205  135.0651  160.0434 H   0  0  0  0  0  0  0  0  0  0  0  0  # atno 6908 bound_to 6896
  152.3007  133.5616  159.5653 H   0  0  0  0  0  0  0  0  0  0  0  0  # atno 6909 bound_to 6896
  145.8614  140.8283  142.9935 H   0  0  0  0  0  0  0  0  0  0  0  0  # atno 7974 bound_to 7965
  155.7529  140.3488  155.5159 H   0  0  0  0  0  0  0  0  0  0  0  0  # atno 8008 bound_to 7997
  155.8987  140.1030  157.1387 H   0  0  0  0  0  0  0  0  0  0  0  0  # atno 8009 bound_to 7997
  154.4041  140.1290  156.4396 H   0  0  0  0  0  0  0  0  0  0  0  0  # atno 8010 bound_to 7997
  139.5938  144.1155  152.1666 H   0  0  0  0  0  0  0  0  0  0  0  0  # atno 10167 bound_to 10162
  156.6996  130.9191  151.3078 H   0  0  0  0  0  0  0  0  0  0  0  0  # atno 10718 bound_to 10713
  154.1626  135.6472  153.4989 H   0  0  0  0  0  0  0  0  0  0  0  0  # atno 10763 bound_to 10752
  153.0106  135.5364  154.6695 H   0  0  0  0  0  0  0  0  0  0  0  0  # atno 10764 bound_to 10752
  154.6013  135.2944  155.0504 H   0  0  0  0  0  0  0  0  0  0  0  0  # atno 10765 bound_to 10752
  141.1328  133.8280  157.0900 H   0  0  0  0  0  0  0  0  0  0  0  0  # atno 11005 bound_to 11000
  144.6726  140.1101  143.7456 LP  0  0  0  0  0  0  0  0  0  0  0  0  # atno 17320 bound_to 7965
  145.9244  139.2566  143.1362 LP  0  0  0  0  0  0  0  0  0  0  0  0  # atno 17321 bound_to 7965
  140.0736  144.5759  150.7174 LP  0  0  0  0  0  0  0  0  0  0  0  0  # atno 17342 bound_to 10162
  140.7195  143.2575  151.4324 LP  0  0  0  0  0  0  0  0  0  0  0  0  # atno 17343 bound_to 10162
  157.6978  130.9300  150.0695 LP  0  0  0  0  0  0  0  0  0  0  0  0  # atno 17370 bound_to 10713
  156.1738  130.3647  149.9128 LP  0  0  0  0  0  0  0  0  0  0  0  0  # atno 17371 bound_to 10713
  140.0398  134.9860  157.0941 LP  0  0  0  0  0  0  0  0  0  0  0  0  # atno 17394 bound_to 11000
  140.4153  134.1938  155.7163 LP  0  0  0  0  0  0  0  0  0  0  0  0  # atno 17395 bound_to 11000

$$$$
