#       Name:                AV-unprocessed.smi:634
#       Creating user name   scv26
#       Creation time:       Fri Mar 27 00:05:53 2020


#       File generated by GOLD software.
#

@<TRIPOS>MOLECULE
AV-unprocessed.smi:634
    38    39     1
SMALL
NO_CHARGES


@<TRIPOS>ATOM
      1 ****        -5.9053  -2.0351   0.8321 C.3            1 S1                 0.0000
      2 ****        -4.6198  -1.2992   0.6679 C.2            1 S1                 0.0000
      3 ****        -3.3114  -1.6725   0.7955 C.2            1 S1                 0.0000
      4 ****        -2.6069  -0.4770   0.4925 C.2            1 S1                 0.0000
      5 ****        -1.1892  -0.4448   0.5081 N.am           1 S1                 0.0000
      6 ****        -0.3899   0.5953   0.2169 C.2            1 S1                 0.0000
      7 ****        -0.7805   1.7176  -0.1047 O.2            1 S1                 0.0000
      8 ****         0.9049   0.2507   0.3178 N.am           1 S1                 0.0000
      9 ****         2.0909   1.0799   0.0614 C.3            1 S1                 0.0000
     10 ****         2.1303   2.2808   1.0303 C.3            1 S1                 0.0000
     11 ****         3.3325   0.1827   0.2830 C.3            1 S1                 0.0000
     12 ****         3.5045  -0.7685  -0.9082 C.3            1 S1                 0.0000
     13 ****         2.8838   0.1463  -2.3661 S.o2           1 S1                 0.0000
     14 ****         4.0187   0.6508  -3.1537 O.2            1 S1                 0.0000
     15 ****         1.8120  -0.6384  -2.9975 O.2            1 S1                 0.0000
     16 ****         2.1484   1.5321  -1.4169 C.3            1 S1                 0.0000
     17 ****        -3.4122   0.5356   0.2104 N.2            1 S1                 0.0000
     18 ****        -4.7064   0.0139   0.3219 O.3            1 S1                 0.0000
     19 ****        -5.7341  -3.1101   0.8913 H              1 S1                 0.0000
     20 ****        -6.5702  -1.8462  -0.0108 H              1 S1                 0.0000
     21 ****        -6.4150  -1.7223   1.7433 H              1 S1                 0.0000
     22 ****        -2.9245  -2.6453   1.0599 H              1 S1                 0.0000
     23 ****        -0.7351  -1.3116   0.7543 H              1 S1                 0.0000
     24 ****         1.0973  -0.7018   0.5913 H              1 S1                 0.0000
     25 ****         3.0544   2.8487   0.9184 H              1 S1                 0.0000
     26 ****         2.0714   1.9533   2.0688 H              1 S1                 0.0000
     27 ****         1.3087   2.9750   0.8549 H              1 S1                 0.0000
     28 ****         4.2209   0.8132   0.3397 H              1 S1                 0.0000
     29 ****         3.2836  -0.3643   1.2256 H              1 S1                 0.0000
     30 ****         4.5395  -1.0720  -1.0654 H              1 S1                 0.0000
     31 ****         2.8930  -1.6626  -0.7853 H              1 S1                 0.0000
     32 ****         1.1874   1.8110  -1.8480 H              1 S1                 0.0000
     33 ****         2.8168   2.3863  -1.5282 H              1 S1                 0.0000
     34 ****        -1.7604   1.9078  -0.1646 LP             1 S1                 0.0000
     35 ****        -0.1178   2.4389  -0.3060 LP             1 S1                 0.0000
     36 ****        -3.1520   1.4707  -0.0303 LP             1 S1                 0.0000
     37 ****        -5.2114   0.5144   1.0250 LP             1 S1                 0.0000
     38 ****        -5.1805   0.1003  -0.5543 LP             1 S1                 0.0000
@<TRIPOS>BOND
    1    1    2 1     
    2    1   19 1     
    3    1   20 1     
    4    1   21 1     
    5    2   18 1     
    6    2    3 2     
    7    3    4 1     
    8    3   22 1     
    9    4    5 1     
   10    4   17 2     
   11    5    6 am    
   12    5   23 1     
   13    6    7 2     
   14    6    8 am    
   15    8    9 1     
   16    8   24 1     
   17    9   16 1     
   18    9   10 1     
   19    9   11 1     
   20   10   25 1     
   21   10   26 1     
   22   10   27 1     
   23   11   12 1     
   24   11   28 1     
   25   11   29 1     
   26   12   13 1     
   27   12   30 1     
   28   12   31 1     
   29   13   14 2     
   30   13   15 2     
   31   13   16 1     
   32   16   32 1     
   33   16   33 1     
   34   17   18 1     
   35    7   34 1     
   36    7   35 1     
   37   17   36 1     
   38   18   37 1     
   39   18   38 1     
@<TRIPOS>SUBSTRUCTURE
      1 S1             1
@<TRIPOS>SET
LONE_PAIRS      STATIC     ATOMS    <user>   **** ""
7 34 35 14 15 36 37 38
DONOR_HYDROGENS      STATIC     ATOMS    <user>   **** ""
2 23 24
ATOM$BLUE        STATIC     ATOMS    COLORGROUP SYSTEM
7 34 35 14 15 36 37 38
ATOM$RED        STATIC     ATOMS    COLORGROUP SYSTEM
2 23 24
