#       Name:                AV-unprocessed.smi:1552
#       Creating user name   scv26
#       Creation time:       Fri Mar 27 06:41:23 2020


#       File generated by GOLD software.
#

@<TRIPOS>MOLECULE
AV-unprocessed.smi:1552
    56    57     1
SMALL
NO_CHARGES


@<TRIPOS>ATOM
      1 ****        -0.1340   1.8143  -1.8044 C.3            1 S1                 0.0000
      2 ****        -1.2604   2.1794  -0.9126 N.4            1 S1                 1.0000
      3 ****        -1.1490   3.5723  -0.4200 C.3            1 S1                 0.0000
      4 ****        -1.5951   1.1873   0.1567 C.3            1 S1                 0.0000
      5 ****        -0.3846   0.8520   1.0729 C.3            1 S1                 0.0000
      6 ****         0.4964  -0.1665   0.5069 N.am           1 S1                 0.0000
      7 ****         1.7119  -0.5169   0.9551 C.2            1 S1                 0.0000
      8 ****         2.1899   0.0238   1.9511 O.2            1 S1                 0.0000
      9 ****         2.4915  -1.6223   0.2165 C.3            1 S1                 0.0000
     10 ****         3.8990  -1.7154   0.6324 N.am           1 S1                 0.0000
     11 ****         4.2873  -2.6444   1.5877 C.2            1 S1                 0.0000
     12 ****         5.5625  -2.7774   2.0236 C.2            1 S1                 0.0000
     13 ****         6.6181  -1.9223   1.4916 C.2            1 S1                 0.0000
     14 ****         7.8011  -1.9673   1.8216 O.2            1 S1                 0.0000
     15 ****         6.1875  -0.9988   0.5351 N.am           1 S1                 0.0000
     16 ****         4.8749  -0.8550   0.0830 C.2            1 S1                 0.0000
     17 ****         4.6012  -0.0033  -0.7619 O.2            1 S1                 0.0000
     18 ****        -2.3421  -0.0534  -0.4202 C.3            1 S1                 0.0000
     19 ****        -3.5792   0.3558  -1.2581 C.3            1 S1                 0.0000
     20 ****        -4.3215  -0.8628  -1.8293 C.3            1 S1                 0.0000
     21 ****        -4.7443  -1.8288  -0.7151 C.3            1 S1                 0.0000
     22 ****        -3.5326  -2.2554   0.1237 C.3            1 S1                 0.0000
     23 ****        -2.7879  -1.0360   0.6907 C.3            1 S1                 0.0000
     24 ****         6.8836  -0.3831   0.1403 H              1 S1                 0.0000
     25 ****         0.8229   1.8776  -1.2858 H              1 S1                 0.0000
     26 ****        -0.0935   2.4951  -2.6551 H              1 S1                 0.0000
     27 ****        -0.2474   0.8063  -2.2021 H              1 S1                 0.0000
     28 ****        -0.2741   3.7055   0.2164 H              1 S1                 0.0000
     29 ****        -2.0346   3.8600   0.1472 H              1 S1                 0.0000
     30 ****        -1.0611   4.2643  -1.2581 H              1 S1                 0.0000
     31 ****        -2.3227   1.6865   0.7986 H              1 S1                 0.0000
     32 ****         0.1801   1.7540   1.3080 H              1 S1                 0.0000
     33 ****        -0.7526   0.4769   2.0286 H              1 S1                 0.0000
     34 ****         0.1481  -0.6620  -0.3012 H              1 S1                 0.0000
     35 ****         1.9886  -2.5742   0.3936 H              1 S1                 0.0000
     36 ****         2.4392  -1.4621  -0.8619 H              1 S1                 0.0000
     37 ****         3.5382  -3.2966   2.0135 H              1 S1                 0.0000
     38 ****         5.8029  -3.5199   2.7710 H              1 S1                 0.0000
     39 ****        -1.6657  -0.5961  -1.0811 H              1 S1                 0.0000
     40 ****        -4.2642   0.9410  -0.6431 H              1 S1                 0.0000
     41 ****        -3.2876   0.9981  -2.0890 H              1 S1                 0.0000
     42 ****        -5.1987  -0.5353  -2.3880 H              1 S1                 0.0000
     43 ****        -3.6786  -1.3826  -2.5408 H              1 S1                 0.0000
     44 ****        -5.4843  -1.3486  -0.0734 H              1 S1                 0.0000
     45 ****        -5.2290  -2.7058  -1.1452 H              1 S1                 0.0000
     46 ****        -3.8563  -2.9042   0.9382 H              1 S1                 0.0000
     47 ****        -2.8517  -2.8472  -0.4898 H              1 S1                 0.0000
     48 ****        -1.9295  -1.3961   1.2571 H              1 S1                 0.0000
     49 ****        -3.4306  -0.5189   1.4044 H              1 S1                 0.0000
     50 ****        -2.0760   2.1871  -1.5086 H              1 S1                 0.0000
     51 ****         1.6721   0.7303   2.4335 LP             1 S1                 0.0000
     52 ****         3.0963  -0.2432   2.2785 LP             1 S1                 0.0000
     53 ****         8.1042  -2.6296   2.5069 LP             1 S1                 0.0000
     54 ****         8.4606  -1.3417   1.4049 LP             1 S1                 0.0000
     55 ****         3.6596   0.0979  -1.0830 LP             1 S1                 0.0000
     56 ****         5.3204   0.5876  -1.1273 LP             1 S1                 0.0000
@<TRIPOS>BOND
    1    1    2 1     
    2    1   25 1     
    3    1   26 1     
    4    1   27 1     
    5    2    3 1     
    6    2    4 1     
    7    2   50 1     
    8    3   28 1     
    9    3   29 1     
   10    3   30 1     
   11    4    5 1     
   12    4   18 1     
   13    4   31 1     
   14    5    6 1     
   15    5   32 1     
   16    5   33 1     
   17    6    7 am    
   18    6   34 1     
   19    7    8 2     
   20    7    9 1     
   21    9   10 1     
   22    9   35 1     
   23    9   36 1     
   24   10   16 1     
   25   10   11 1     
   26   11   12 2     
   27   11   37 1     
   28   12   13 1     
   29   12   38 1     
   30   13   14 2     
   31   13   15 1     
   32   15   24 1     
   33   15   16 1     
   34   16   17 2     
   35   18   23 1     
   36   18   19 1     
   37   18   39 1     
   38   19   20 1     
   39   19   40 1     
   40   19   41 1     
   41   20   21 1     
   42   20   42 1     
   43   20   43 1     
   44   21   22 1     
   45   21   44 1     
   46   21   45 1     
   47   22   23 1     
   48   22   46 1     
   49   22   47 1     
   50   23   48 1     
   51   23   49 1     
   52    8   51 1     
   53    8   52 1     
   54   14   53 1     
   55   14   54 1     
   56   17   55 1     
   57   17   56 1     
@<TRIPOS>SUBSTRUCTURE
      1 S1             1
@<TRIPOS>SET
LONE_PAIRS      STATIC     ATOMS    <user>   **** ""
6 51 52 53 54 55 56
DONOR_HYDROGENS      STATIC     ATOMS    <user>   **** ""
3 50 34 24
ATOM$BLUE        STATIC     ATOMS    COLORGROUP SYSTEM
6 51 52 53 54 55 56
ATOM$RED        STATIC     ATOMS    COLORGROUP SYSTEM
3 50 34 24
