#       Name:                AV-unprocessed.smi:114
#       Creating user name   scv26
#       Creation time:       Thu Mar 26 18:24:02 2020


#       File generated by GOLD software.
#

@<TRIPOS>MOLECULE
AV-unprocessed.smi:114
    43    45     1
SMALL
NO_CHARGES


@<TRIPOS>ATOM
      1 ****        -4.8277  -0.5078  -1.4375 N.pl3          1 S1                 0.0000
      2 ****        -3.6411  -0.0948  -0.9700 C.ar           1 S1                 0.0000
      3 ****        -3.5907   1.0661  -0.2761 N.ar           1 S1                 0.0000
      4 ****        -2.4258   1.5142   0.2079 C.ar           1 S1                 0.0000
      5 ****        -2.4674   2.6826   0.8905 F              1 S1                 0.0000
      6 ****        -1.2253   0.9368   0.0934 N.ar           1 S1                 0.0000
      7 ****        -1.2708  -0.2347  -0.6046 C.ar           1 S1                 0.0000
      8 ****        -2.4383  -0.8159  -1.1681 C.ar           1 S1                 0.0000
      9 ****        -2.1151  -2.0045  -1.8087 N.2            1 S1                 0.0000
     10 ****        -0.8257  -2.1150  -1.6313 C.2            1 S1                 0.0000
     11 ****        -0.2373  -1.0970  -0.9131 N.pl3          1 S1                 0.0000
     12 ****         1.2081  -0.9567  -0.5477 C.3            1 S1                 0.0000
     13 ****         1.5736   0.3796  -0.6887 O.3            1 S1                 0.0000
     14 ****         2.5291   0.7083   0.3128 C.3            1 S1                 0.0000
     15 ****         2.6289   2.2323   0.5033 C.3            1 S1                 0.0000
     16 ****         3.5005   2.7864  -0.4596 O.3            1 S1                 0.0000
     17 ****         2.0416  -0.0846   1.5349 C.3            1 S1                 0.0000
     18 ****         1.0432   0.6295   2.2434 O.3            1 S1                 0.0000
     19 ****         1.5122  -1.3732   0.9074 C.3            1 S1                 0.0000
     20 ****         0.4344  -1.9548   1.6240 O.3            1 S1                 0.0000
     21 ****         1.7373  -1.5696  -1.2785 H              1 S1                 0.0000
     22 ****         3.4975   0.3033   0.0113 H              1 S1                 0.0000
     23 ****         2.8573  -0.2880   2.2293 H              1 S1                 0.0000
     24 ****         2.3207  -2.1041   0.8622 H              1 S1                 0.0000
     25 ****        -4.8902  -1.3709  -1.9582 H              1 S1                 0.0000
     26 ****        -5.6560   0.0447  -1.2690 H              1 S1                 0.0000
     27 ****        -0.2639  -2.9523  -2.0191 H              1 S1                 0.0000
     28 ****         1.6478   2.7050   0.4432 H              1 S1                 0.0000
     29 ****         3.0425   2.4626   1.4856 H              1 S1                 0.0000
     30 ****         3.5368   3.7214  -0.3279 H              1 S1                 0.0000
     31 ****         0.6529   0.0459   2.8762 H              1 S1                 0.0000
     32 ****         0.1121  -2.6949   1.1326 H              1 S1                 0.0000
     33 ****        -4.4278   1.5917  -0.1242 LP             1 S1                 0.0000
     34 ****        -0.3859   1.3215   0.4773 LP             1 S1                 0.0000
     35 ****        -2.7268  -2.6301  -2.2930 LP             1 S1                 0.0000
     36 ****         0.7662   0.9605  -0.5849 LP             1 S1                 0.0000
     37 ****         1.9738   0.5237  -1.5937 LP             1 S1                 0.0000
     38 ****         3.1584   2.5881  -1.3781 LP             1 S1                 0.0000
     39 ****         4.4144   2.3948  -0.3525 LP             1 S1                 0.0000
     40 ****         0.3438   0.9543   1.6067 LP             1 S1                 0.0000
     41 ****         1.4551   1.4105   2.7128 LP             1 S1                 0.0000
     42 ****        -0.2965  -1.2820   1.7387 LP             1 S1                 0.0000
     43 ****         0.7516  -2.2587   2.5223 LP             1 S1                 0.0000
@<TRIPOS>BOND
    1    1    2 1     
    2    1   25 1     
    3    1   26 1     
    4    2    8 ar    
    5    2    3 ar    
    6    3    4 ar    
    7    4    5 1     
    8    4    6 ar    
    9    6    7 ar    
   10    7   11 1     
   11    7    8 ar    
   12    8    9 1     
   13    9   10 2     
   14   10   11 1     
   15   10   27 1     
   16   11   12 1     
   17   12   21 1     
   18   12   19 1     
   19   12   13 1     
   20   13   14 1     
   21   14   22 1     
   22   14   15 1     
   23   14   17 1     
   24   15   16 1     
   25   15   28 1     
   26   15   29 1     
   27   16   30 1     
   28   17   23 1     
   29   17   18 1     
   30   17   19 1     
   31   18   31 1     
   32   19   24 1     
   33   19   20 1     
   34   20   32 1     
   35    3   33 1     
   36    6   34 1     
   37    9   35 1     
   38   13   36 1     
   39   13   37 1     
   40   16   38 1     
   41   16   39 1     
   42   18   40 1     
   43   18   41 1     
   44   20   42 1     
   45   20   43 1     
@<TRIPOS>SUBSTRUCTURE
      1 S1             1
@<TRIPOS>SET
LONE_PAIRS      STATIC     ATOMS    <user>   **** ""
11 33 34 35 36 37 38 39 40 41 42 43
DONOR_HYDROGENS      STATIC     ATOMS    <user>   **** ""
5 25 26 30 31 32
ATOM$BLUE        STATIC     ATOMS    COLORGROUP SYSTEM
11 33 34 35 36 37 38 39 40 41 42 43
ATOM$RED        STATIC     ATOMS    COLORGROUP SYSTEM
5 25 26 30 31 32
