AV-unprocessed.smi:399|AV-procd|sdf|2491|dock8
  -GOLD-   2262022433D 1   1.00000     0.00000
 Structure written by MMmdl.
 47 48  0  0  0  0  0  0  0  0  4 V2000
  149.1369  133.4066  153.4644 C   0  0  0  0  0  0  0  0  0  0  0  0
  148.1374  132.2426  153.6819 C   0  0  0  0  0  0  0  0  0  0  0  0
  148.9955  130.9736  153.9121 C   0  0  0  0  0  0  0  0  0  0  0  0
  147.2657  132.5218  154.9397 C   0  0  0  0  0  0  0  0  0  0  0  0
  148.0162  132.3946  156.1854 N   0  0  0  0  0  0  0  0  0  0  0  0
  147.4728  132.4679  157.4085 C   0  0  0  0  0  0  0  0  0  0  0  0
  146.2670  132.6338  157.5978 O   0  0  0  0  0  0  0  0  0  0  0  0
  148.4461  132.3169  158.5867 C   0  0  0  0  0  0  0  0  0  0  0  0
  148.0107  133.0266  159.8019 N   0  0  0  0  0  0  0  0  0  0  0  0
  148.0281  134.4350  159.7618 C   0  0  0  0  0  0  0  0  0  0  0  0
  147.6578  135.1858  160.8177 C   0  0  0  0  0  0  0  0  0  0  0  0
  147.6827  136.6309  160.7597 N   0  3  0  0  0  0  0  0  0  0  0  0
  147.3452  137.2655  161.7538 O   0  0  0  0  0  0  0  0  0  0  0  0
  148.0378  137.1792  159.7206 O   0  5  0  0  0  0  0  0  0  0  0  0
  147.2326  134.4955  162.0199 C   0  0  0  0  0  0  0  0  0  0  0  0
  147.2148  133.1488  162.0651 C   0  0  0  0  0  0  0  0  0  0  0  0
  147.6192  132.3337  160.9150 C   0  0  0  0  0  0  0  0  0  0  0  0
  147.6080  131.1031  160.9502 O   0  0  0  0  0  0  0  0  0  0  0  0
  147.2853  132.0612  152.4509 N   0  3  0  0  0  0  0  0  0  0  0  0
  146.2802  130.9619  152.5141 C   0  0  0  0  0  0  0  0  0  0  0  0
  145.6080  130.7611  151.1458 C   0  0  0  0  0  0  0  0  0  0  0  0
  144.9975  131.9746  150.7314 O   0  0  0  0  0  0  0  0  0  0  0  0
  145.9527  133.0138  150.5740 C   0  0  0  0  0  0  0  0  0  0  0  0
  146.6399  133.2962  151.9205 C   0  0  0  0  0  0  0  0  0  0  0  0
  149.9010  133.4355  154.2421 H   0  0  0  0  0  0  0  0  0  0  0  0
  148.6489  134.3810  153.4864 H   0  0  0  0  0  0  0  0  0  0  0  0
  149.6575  133.3110  152.5107 H   0  0  0  0  0  0  0  0  0  0  0  0
  149.7619  131.1352  154.6710 H   0  0  0  0  0  0  0  0  0  0  0  0
  149.5094  130.6705  152.9990 H   0  0  0  0  0  0  0  0  0  0  0  0
  148.4020  130.1287  154.2604 H   0  0  0  0  0  0  0  0  0  0  0  0
  146.8488  133.5286  154.9084 H   0  0  0  0  0  0  0  0  0  0  0  0
  146.4220  131.8322  154.9787 H   0  0  0  0  0  0  0  0  0  0  0  0
  149.0135  132.2531  156.1120 H   0  0  0  0  0  0  0  0  0  0  0  0
  148.5717  131.2524  158.7896 H   0  0  0  0  0  0  0  0  0  0  0  0
  149.4344  132.6669  158.2822 H   0  0  0  0  0  0  0  0  0  0  0  0
  148.3657  134.8534  158.8245 H   0  0  0  0  0  0  0  0  0  0  0  0
  146.9252  135.0527  162.8924 H   0  0  0  0  0  0  0  0  0  0  0  0
  146.8953  132.6554  162.9712 H   0  0  0  0  0  0  0  0  0  0  0  0
  146.7368  130.0171  152.8018 H   0  0  0  0  0  0  0  0  0  0  0  0
  145.5151  131.1899  153.2562 H   0  0  0  0  0  0  0  0  0  0  0  0
  146.3308  130.4267  150.3997 H   0  0  0  0  0  0  0  0  0  0  0  0
  144.8422  129.9885  151.2147 H   0  0  0  0  0  0  0  0  0  0  0  0
  146.6846  132.7416  149.8116 H   0  0  0  0  0  0  0  0  0  0  0  0
  145.4428  133.9094  150.2187 H   0  0  0  0  0  0  0  0  0  0  0  0
  145.9020  133.6719  152.6295 H   0  0  0  0  0  0  0  0  0  0  0  0
  147.3659  134.0905  151.7591 H   0  0  0  0  0  0  0  0  0  0  0  0
  147.9367  131.7792  151.7323 H   0  0  0  0  0  0  0  0  0  0  0  0
  1  2  1  0  0  0  0
  1 25  1  0  0  0  0
  1 26  1  0  0  0  0
  1 27  1  0  0  0  0
  2  3  1  0  0  0  0
  2  4  1  0  0  0  0
  2 19  1  0  0  0  0
  3 28  1  0  0  0  0
  3 29  1  0  0  0  0
  3 30  1  0  0  0  0
  4  5  1  0  0  0  0
  4 31  1  0  0  0  0
  4 32  1  0  0  0  0
  5  6  1  0  0  0  0
  5 33  1  0  0  0  0
  6  7  2  0  0  0  0
  6  8  1  0  0  0  0
  8  9  1  0  0  0  0
  8 34  1  0  0  0  0
  8 35  1  0  0  0  0
  9 17  1  0  0  0  0
  9 10  1  0  0  0  0
 10 11  2  0  0  0  0
 10 36  1  0  0  0  0
 11 12  1  0  0  0  0
 11 15  1  0  0  0  0
 12 13  2  0  0  0  0
 12 14  1  0  0  0  0
 15 16  2  0  0  0  0
 15 37  1  0  0  0  0
 16 17  1  0  0  0  0
 16 38  1  0  0  0  0
 17 18  2  0  0  0  0
 19 24  1  0  0  0  0
 19 20  1  0  0  0  0
 19 47  1  0  0  0  0
 20 21  1  0  0  0  0
 20 39  1  0  0  0  0
 20 40  1  0  0  0  0
 21 22  1  0  0  0  0
 21 41  1  0  0  0  0
 21 42  1  0  0  0  0
 22 23  1  0  0  0  0
 23 24  1  0  0  0  0
 23 43  1  0  0  0  0
 23 44  1  0  0  0  0
 24 45  1  0  0  0  0
 24 46  1  0  0  0  0
M  CHG  1  12   1
M  CHG  1  14  -1
M  CHG  1  19   1
M  END
> <s_m_source_file>
AV-unprocessed.smi

> <i_m_source_file_index>
399

> <i_lp_mmshare_version>
43012

> <i_f3d_flags>
0

> <s_epik_input>
W0NIMl0xW0NIMl1PW0NIMl1bQ0gyXU4xQyhbQ0gzXSkoW0NIM10pW0NIMl1bTkhdQyg9TylbQ0gyXW4yW2NIXWMoW04rXSg9TylbTy1dKVtjSF1bY0hdYzI9Tw==

> <s_epik_cmdline>
J2VwaWtfcHl0aG9uJywgJy1waCcsICc3LjAnLCAnLXRuJywgJzgnLCAnLW1hJywgJzIwMCcsICctbWV0YWxfYmluZGluZycsICctaW1hZScsICc8aW5maWxlLm1hZT4nLCAnLW9tYWUnLCAnPG91dGZpbGUubWFlPic=

> <r_lp_tautomer_probability>
1

> <r_epik_Ionization_Penalty>
0.656654

> <r_epik_Ionization_Penalty_Charging>
0.656653

> <r_epik_Ionization_Penalty_Neutral>
9.12373e-08

> <r_epik_State_Penalty>
0.675641

> <r_epik_Charging_Adjusted_Penalty>
1.33229

> <i_epik_Tot_Q>
1

> <i_epik_Tot_abs_Q>
3

> <r_epik_Metal_State_Penalty>
0.675694

> <b_epik_Metal_Only>
0

> <s_lp_Force_Field>
OPLS_2005

> <r_lp_Energy>
37.786

> <b_lp_Chiralities_Consistent>
1

> <s_lp_Variant>
AV-unprocessed.smi:399-2

> <Gold.Version>
5.8.1

> <Gold.Id.Protein>
6NUR|6NUR_protein|mol2

> <Gold.PLP.Fitness>
44.3161

> <Gold.PLP.PLP>
-37.4251

> <Gold.PLP.part.hbond>
-3.4205

> <Gold.PLP.part.metal>
0.0000

> <Gold.PLP.part.buried>
-5.3262

> <Gold.PLP.part.nonpolar>
-29.2628

> <Gold.PLP.part.repulsive>
0.1387

> <Gold.PLP.ligand.clash>
0.0000

> <Gold.PLP.ligand.torsion>
0.6987

> <Gold.PLP.Chemscore.Hbond>
2.7120

> <Gold.PLP.Chemscore.CHOScore>
0.0000

> <Gold.PLP.Chemscore.Metal>
0.0000

> <Gold.Chemscore.Hbonds>
donor molecule, donor type, donor heavy atom, donor atom, acceptor molecule, acceptor atom, score
      L1  H    19    47       P1 10747  1.00
      P1  H  6931  6943       L1    13  0.69
      P1  H  6934  6947       L1    13  0.76

> <Gold.PLP.Chemscore.Internal.Correction>
0.1525

> <Gold.Rescore>
     Score         DG    S(hbond)    S(metal)    S(lipo)     H(rot)  DE(clash)    DE(int)     intcor
     17.62     -18.34       2.70        0.00      80.63       2.18       0.13       0.59       ----

> <Gold.Chemscore.Fitness>
17.6180

> <Gold.Chemscore.DG>
-18.3379

> <Gold.Chemscore.ZeroCoef>
-5.4800

> <Gold.Chemscore.Hbond>
2.6967

> <Gold.Chemscore.Metal>
0.0000

> <Gold.Chemscore.Lipo>
80.6261

> <Gold.Chemscore.Internal_Hbond>
0.0000

> <Gold.Chemscore.DEClash>
0.1264

> <Gold.Chemscore.DEInternal>
0.5936

> <Gold.Chemscore.Rot>
2.1806

> <Gold.Chemscore.Internal.Correction>
   9.000000E+99

> <Gold.Chemscore.Hbonds>
donor molecule, donor type, donor heavy atom, donor atom, acceptor molecule, acceptor atom, score
      L1  H    19    47       P1 10747  0.95
      P1  H  6931  6943       L1    13  0.10
      P1  H  6934  6947       L1    13  0.17

> <Gold.Chemscore.Hbond.Weighted>
-9.0071

> <Gold.Chemscore.Metal.Weighted>
-0.0000

> <Gold.Chemscore.Lipo.Weighted>
-9.4333

> <Gold.Chemscore.Internal_Hbond.Weighted>
0.0000

> <Gold.Chemscore.DEClash.Weighted>
0.1264

> <Gold.Chemscore.DEInternal.Weighted>
0.5936

> <Gold.Chemscore.Rot.Weighted>
5.5825

> <Gold.Chemscore.Internal.Correction.Weighted>
   9.000000E+99

> <Gold.Protein.RotatedTorsions>
[ 6907 6896 6895 6894 ] final   32.94 input  -60.11 | X-H torsion
[ 7974 7965 7964 7962 ] final   63.42 input  175.53 | X-H torsion
[ 8008 7997 7996 7995 ] final  -83.54 input   59.86 | X-H torsion
[ 10167 10162 10161 10158 ] final  119.13 input  -65.29 | X-H torsion
[ 10718 10713 10712 10709 ] final  144.07 input   66.30 | X-H torsion
[ 10763 10752 10751 10750 ] final  -71.92 input  -60.55 | X-H torsion
[ 11005 11000 10999 10996 ] final   82.04 input  -57.11 | X-H torsion

> <Gold.Protein.ActiveResidues>
 VAL166  LYS551  ARG553  GLY616  TRP617  ASP618  TYR619  PRO620  LYS621  CYS622 
 ASP623  PHE694  ASN695  SER759  ASP760  ASP761  ALA762  ILE779  LEU786  VAL792 
 PHE793  MET794  SER795  GLU796  ALA797  LYS798  CYS799  TRP800  GLU811  SER814 

> <Gold.Protein.RotatedAtoms>
  152.0816  134.9467  160.0573 H   0  0  0  0  0  0  0  0  0  0  0  0  # atno 6907 bound_to 6896
  152.0754  133.4122  159.4486 H   0  0  0  0  0  0  0  0  0  0  0  0  # atno 6908 bound_to 6896
  150.6836  134.2964  159.4731 H   0  0  0  0  0  0  0  0  0  0  0  0  # atno 6909 bound_to 6896
  145.8620  139.3321  143.0813 H   0  0  0  0  0  0  0  0  0  0  0  0  # atno 7974 bound_to 7965
  154.6202  140.0617  156.9605 H   0  0  0  0  0  0  0  0  0  0  0  0  # atno 8008 bound_to 7997
  155.1830  140.3301  155.4353 H   0  0  0  0  0  0  0  0  0  0  0  0  # atno 8009 bound_to 7997
  156.2427  140.1894  156.6925 H   0  0  0  0  0  0  0  0  0  0  0  0  # atno 8010 bound_to 7997
  139.6066  144.7071  151.2939 H   0  0  0  0  0  0  0  0  0  0  0  0  # atno 10167 bound_to 10162
  157.3615  131.0966  151.0911 H   0  0  0  0  0  0  0  0  0  0  0  0  # atno 10718 bound_to 10713
  154.4385  135.5946  153.6114 H   0  0  0  0  0  0  0  0  0  0  0  0  # atno 10763 bound_to 10752
  152.9803  135.5992  154.3752 H   0  0  0  0  0  0  0  0  0  0  0  0  # atno 10764 bound_to 10752
  154.3599  135.2841  155.2304 H   0  0  0  0  0  0  0  0  0  0  0  0  # atno 10765 bound_to 10752
  139.9077  134.8042  156.2121 H   0  0  0  0  0  0  0  0  0  0  0  0  # atno 11005 bound_to 11000
  145.9237  140.9097  143.0392 LP  0  0  0  0  0  0  0  0  0  0  0  0  # atno 17320 bound_to 7965
  144.6726  140.1323  143.7443 LP  0  0  0  0  0  0  0  0  0  0  0  0  # atno 17321 bound_to 7965
  140.7289  143.6922  150.7913 LP  0  0  0  0  0  0  0  0  0  0  0  0  # atno 17342 bound_to 10162
  140.0509  143.5251  152.2674 LP  0  0  0  0  0  0  0  0  0  0  0  0  # atno 17343 bound_to 10162
  157.2049  130.6411  149.5752 LP  0  0  0  0  0  0  0  0  0  0  0  0  # atno 17370 bound_to 10713
  155.9738  130.4679  150.6340 LP  0  0  0  0  0  0  0  0  0  0  0  0  # atno 17371 bound_to 10713
  141.0458  133.6914  156.1681 LP  0  0  0  0  0  0  0  0  0  0  0  0  # atno 17394 bound_to 11000
  140.6885  134.4691  157.5589 LP  0  0  0  0  0  0  0  0  0  0  0  0  # atno 17395 bound_to 11000

$$$$
