AV-unprocessed.smi:532|AV-procd|sdf|2853|dock9
  -GOLD-   2262023343D 1   1.00000     0.00000
 Structure written by MMmdl.
 48 50  0  0  0  0  0  0  0  0  2 V2000
  150.6158  138.0674  158.4750 C   0  0  0  0  0  0  0  0  0  0  0  0
  150.4065  137.4495  157.2177 O   0  0  0  0  0  0  0  0  0  0  0  0
  149.9645  138.3669  156.2320 C   0  0  0  0  0  0  0  0  0  0  0  0
  151.0666  139.4038  155.9855 C   0  0  0  0  0  0  0  0  0  0  0  0
  150.8894  140.5814  156.8247 N   0  0  0  0  0  0  0  0  0  0  0  0
  149.9577  141.5594  156.6928 C   0  0  0  0  0  0  0  0  0  0  0  0
  149.0231  141.5357  155.6609 N   0  0  0  0  0  0  0  0  0  0  0  0
  149.3886  141.2420  154.2747 C   0  0  0  0  0  0  0  0  0  0  0  0
  148.2770  140.5280  153.4729 C   0  0  1  0  0  0  0  0  0  0  0  0
  148.1326  139.0401  153.8323 C   0  0  0  0  0  0  0  0  0  0  0  0
  146.9489  141.2965  153.5821 C   0  0  0  0  0  0  0  0  0  0  0  0
  146.6075  141.6113  155.0477 C   0  0  2  0  0  0  0  0  0  0  0  0
  145.3223  142.4426  155.1581 C   0  0  0  0  0  0  0  0  0  0  0  0
  147.7967  142.3269  155.7133 C   0  0  0  0  0  0  0  0  0  0  0  0
  150.0126  142.5172  157.6200 N   0  0  0  0  0  0  0  0  0  0  0  0
  151.0873  142.1195  158.4021 C   0  0  0  0  0  0  0  0  0  0  0  0
  151.6351  140.9633  157.9424 C   0  0  0  0  0  0  0  0  0  0  0  0
  152.8006  140.3004  158.5635 C   0  0  0  0  0  0  0  0  0  0  0  0
  153.2648  139.2633  158.0939 O   0  0  0  0  0  0  0  0  0  0  0  0
  153.2523  140.9797  159.6652 N   0  5  0  0  0  0  0  0  0  0  0  0
  152.7269  142.1515  160.1688 C   0  0  0  0  0  0  0  0  0  0  0  0
  153.2020  142.6935  161.1669 O   0  0  0  0  0  0  0  0  0  0  0  0
  151.6501  142.7357  159.5506 N   0  0  0  0  0  0  0  0  0  0  0  0
  151.0354  143.9814  160.0195 C   0  0  0  0  0  0  0  0  0  0  0  0
  150.9525  137.3245  159.1978 H   0  0  0  0  0  0  0  0  0  0  0  0
  149.6945  138.5122  158.8535 H   0  0  0  0  0  0  0  0  0  0  0  0
  151.3794  138.8435  158.4104 H   0  0  0  0  0  0  0  0  0  0  0  0
  149.7263  137.8409  155.3065 H   0  0  0  0  0  0  0  0  0  0  0  0
  149.0527  138.8621  156.5676 H   0  0  0  0  0  0  0  0  0  0  0  0
  152.0478  138.9736  156.1806 H   0  0  0  0  0  0  0  0  0  0  0  0
  151.0881  139.7046  154.9387 H   0  0  0  0  0  0  0  0  0  0  0  0
  149.6381  142.1856  153.7877 H   0  0  0  0  0  0  0  0  0  0  0  0
  150.3007  140.6443  154.2599 H   0  0  0  0  0  0  0  0  0  0  0  0
  148.5767  140.5514  152.4245 H   0  0  0  0  0  0  0  0  0  0  0  0
  147.8227  138.8967  154.8654 H   0  0  0  0  0  0  0  0  0  0  0  0
  149.0740  138.5096  153.6896 H   0  0  0  0  0  0  0  0  0  0  0  0
  147.3889  138.5564  153.1990 H   0  0  0  0  0  0  0  0  0  0  0  0
  147.0343  142.2316  153.0266 H   0  0  0  0  0  0  0  0  0  0  0  0
  146.1418  140.7342  153.1110 H   0  0  0  0  0  0  0  0  0  0  0  0
  146.4355  140.6729  155.5764 H   0  0  0  0  0  0  0  0  0  0  0  0
  145.4294  143.4075  154.6614 H   0  0  0  0  0  0  0  0  0  0  0  0
  145.0663  142.6311  156.2011 H   0  0  0  0  0  0  0  0  0  0  0  0
  144.4792  141.9240  154.7009 H   0  0  0  0  0  0  0  0  0  0  0  0
  147.5597  142.5381  156.7570 H   0  0  0  0  0  0  0  0  0  0  0  0
  147.9764  143.2909  155.2353 H   0  0  0  0  0  0  0  0  0  0  0  0
  151.5005  144.4079  160.9084 H   0  0  0  0  0  0  0  0  0  0  0  0
  149.9846  143.8095  160.2547 H   0  0  0  0  0  0  0  0  0  0  0  0
  151.0837  144.7361  159.2341 H   0  0  0  0  0  0  0  0  0  0  0  0
  1  2  1  0  0  0  0
  1 25  1  0  0  0  0
  1 26  1  0  0  0  0
  1 27  1  0  0  0  0
  2  3  1  0  0  0  0
  3  4  1  0  0  0  0
  3 28  1  0  0  0  0
  3 29  1  0  0  0  0
  4  5  1  0  0  0  0
  4 30  1  0  0  0  0
  4 31  1  0  0  0  0
  5 17  1  0  0  0  0
  5  6  1  0  0  0  0
  6  7  1  0  0  0  0
  6 15  2  0  0  0  0
  7 14  1  0  0  0  0
  7  8  1  0  0  0  0
  8  9  1  0  0  0  0
  8 32  1  0  0  0  0
  8 33  1  0  0  0  0
  9 10  1  0  0  0  0
  9 11  1  0  0  0  0
  9 34  1  0  0  0  0
 10 35  1  0  0  0  0
 10 36  1  0  0  0  0
 10 37  1  0  0  0  0
 11 12  1  0  0  0  0
 11 38  1  0  0  0  0
 11 39  1  0  0  0  0
 12 13  1  0  0  0  0
 12 14  1  0  0  0  0
 12 40  1  0  0  0  0
 13 41  1  0  0  0  0
 13 42  1  0  0  0  0
 13 43  1  0  0  0  0
 14 44  1  0  0  0  0
 14 45  1  0  0  0  0
 15 16  1  0  0  0  0
 16 23  1  0  0  0  0
 16 17  2  0  0  0  0
 17 18  1  0  0  0  0
 18 19  2  0  0  0  0
 18 20  1  0  0  0  0
 20 21  1  0  0  0  0
 21 22  2  0  0  0  0
 21 23  1  0  0  0  0
 23 24  1  0  0  0  0
 24 46  1  0  0  0  0
 24 47  1  0  0  0  0
 24 48  1  0  0  0  0
M  CHG  1  20  -1
M  END
> <s_m_source_file>
AV-unprocessed.smi

> <i_m_source_file_index>
532

> <i_lp_mmshare_version>
43012

> <i_f3d_flags>
0

> <s_epik_input>
W0NIM11uMWMoPU8pW25IXWMoPU8pYyhjMTIpbihbQ0gyXVtDSDJdT1tDSDNdKWMobjIpTjNbQ0gyXVtDQEBIXShbQ0gzXSlbQ0gyXVtDQEBIXShbQ0gzXSlbQ0gyXTM=

> <s_epik_cmdline>
J2VwaWtfcHl0aG9uJywgJy1waCcsICc3LjAnLCAnLXRuJywgJzgnLCAnLW1hJywgJzIwMCcsICctbWV0YWxfYmluZGluZycsICctaW1hZScsICc8aW5maWxlLm1hZT4nLCAnLW9tYWUnLCAnPG91dGZpbGUubWFlPic=

> <r_lp_tautomer_probability>
1

> <r_epik_Ionization_Penalty>
5.12128

> <r_epik_Ionization_Penalty_Charging>
0.0789629

> <r_epik_Ionization_Penalty_Neutral>
5.04232

> <r_epik_State_Penalty>
5.03111

> <r_epik_Charging_Adjusted_Penalty>
5.11007

> <i_epik_Tot_Q>
-1

> <i_epik_Tot_abs_Q>
1

> <r_epik_Metal_State_Penalty>
1.14201

> <b_epik_Metal_Only>
1

> <s_lp_Force_Field>
OPLS_2005

> <r_lp_Energy>
48.0239

> <b_lp_Chiralities_Consistent>
1

> <s_lp_Variant>
AV-unprocessed.smi:532-6

> <Gold.Version>
5.8.1

> <Gold.Id.Protein>
6NUR|6NUR_protein|mol2

> <Gold.PLP.Fitness>
34.9021

> <Gold.PLP.PLP>
-32.6850

> <Gold.PLP.part.hbond>
-1.0000

> <Gold.PLP.part.metal>
0.0000

> <Gold.PLP.part.buried>
2.3912

> <Gold.PLP.part.nonpolar>
-34.1143

> <Gold.PLP.part.repulsive>
0.1600

> <Gold.PLP.ligand.clash>
0.0000

> <Gold.PLP.ligand.torsion>
0.8193

> <Gold.PLP.Chemscore.Hbond>
1.0000

> <Gold.PLP.Chemscore.CHOScore>
0.0000

> <Gold.PLP.Chemscore.Metal>
0.0000

> <Gold.Chemscore.Hbonds>
donor molecule, donor type, donor heavy atom, donor atom, acceptor molecule, acceptor atom, score
      P1  H  7997  8009       L1    19  0.94

> <Gold.PLP.Chemscore.Internal.Correction>
0.8557

> <Gold.Rescore>
     Score         DG    S(hbond)    S(metal)    S(lipo)     H(rot)  DE(clash)    DE(int)     intcor
     11.03     -12.19       0.88        0.00      63.13       1.41       0.10       1.07       ----

> <Gold.Chemscore.Fitness>
11.0254

> <Gold.Chemscore.DG>
-12.1872

> <Gold.Chemscore.ZeroCoef>
-5.4800

> <Gold.Chemscore.Hbond>
0.8812

> <Gold.Chemscore.Metal>
0.0000

> <Gold.Chemscore.Lipo>
63.1254

> <Gold.Chemscore.Internal_Hbond>
0.0000

> <Gold.Chemscore.DEClash>
0.0960

> <Gold.Chemscore.DEInternal>
1.0659

> <Gold.Chemscore.Rot>
1.4147

> <Gold.Chemscore.Internal.Correction>
   9.000000E+99

> <Gold.Chemscore.Hbonds>
donor molecule, donor type, donor heavy atom, donor atom, acceptor molecule, acceptor atom, score
      P1  H  7997  8009       L1    19  0.20

> <Gold.Chemscore.Hbond.Weighted>
-2.9431

> <Gold.Chemscore.Metal.Weighted>
-0.0000

> <Gold.Chemscore.Lipo.Weighted>
-7.3857

> <Gold.Chemscore.Internal_Hbond.Weighted>
0.0000

> <Gold.Chemscore.DEClash.Weighted>
0.0960

> <Gold.Chemscore.DEInternal.Weighted>
1.0659

> <Gold.Chemscore.Rot.Weighted>
3.6216

> <Gold.Chemscore.Internal.Correction.Weighted>
   9.000000E+99

> <Gold.Protein.RotatedTorsions>
[ 6907 6896 6895 6894 ] final   88.26 input  -60.11 | X-H torsion
[ 7974 7965 7964 7962 ] final  121.02 input  175.53 | X-H torsion
[ 8008 7997 7996 7995 ] final  134.03 input   59.86 | X-H torsion
[ 10167 10162 10161 10158 ] final  100.87 input  -65.29 | X-H torsion
[ 10718 10713 10712 10709 ] final  179.95 input   66.30 | X-H torsion
[ 10763 10752 10751 10750 ] final -112.04 input  -60.55 | X-H torsion
[ 11005 11000 10999 10996 ] final  103.00 input  -57.11 | X-H torsion

> <Gold.Protein.ActiveResidues>
 VAL166  LYS551  ARG553  GLY616  TRP617  ASP618  TYR619  PRO620  LYS621  CYS622 
 ASP623  PHE694  ASN695  SER759  ASP760  ASP761  ALA762  ILE779  LEU786  VAL792 
 PHE793  MET794  SER795  GLU796  ALA797  LYS798  CYS799  TRP800  GLU811  SER814 

> <Gold.Protein.RotatedAtoms>
  152.5423  134.2149  159.8764 H   0  0  0  0  0  0  0  0  0  0  0  0  # atno 6907 bound_to 6896
  151.2129  133.4539  159.2606 H   0  0  0  0  0  0  0  0  0  0  0  0  # atno 6908 bound_to 6896
  151.0879  134.9911  159.8444 H   0  0  0  0  0  0  0  0  0  0  0  0  # atno 6909 bound_to 6896
  145.1242  139.3369  143.4698 H   0  0  0  0  0  0  0  0  0  0  0  0  # atno 7974 bound_to 7965
  156.2996  140.2506  156.3350 H   0  0  0  0  0  0  0  0  0  0  0  0  # atno 8008 bound_to 7997
  154.9109  140.0403  157.1965 H   0  0  0  0  0  0  0  0  0  0  0  0  # atno 8009 bound_to 7997
  154.8406  140.2890  155.5666 H   0  0  0  0  0  0  0  0  0  0  0  0  # atno 8010 bound_to 7997
  139.7488  144.6990  151.0463 H   0  0  0  0  0  0  0  0  0  0  0  0  # atno 10167 bound_to 10162
  156.8681  130.9774  151.3076 H   0  0  0  0  0  0  0  0  0  0  0  0  # atno 10718 bound_to 10713
  154.8330  135.4505  154.1132 H   0  0  0  0  0  0  0  0  0  0  0  0  # atno 10763 bound_to 10752
  153.2388  135.6914  153.7812 H   0  0  0  0  0  0  0  0  0  0  0  0  # atno 10764 bound_to 10752
  153.7167  135.3348  155.3234 H   0  0  0  0  0  0  0  0  0  0  0  0  # atno 10765 bound_to 10752
  139.8781  134.9246  156.5143 H   0  0  0  0  0  0  0  0  0  0  0  0  # atno 11005 bound_to 11000
  146.3519  140.1215  142.8600 LP  0  0  0  0  0  0  0  0  0  0  0  0  # atno 17320 bound_to 7965
  145.0706  140.9153  143.4884 LP  0  0  0  0  0  0  0  0  0  0  0  0  # atno 17321 bound_to 7965
  140.7795  143.4834  150.9988 LP  0  0  0  0  0  0  0  0  0  0  0  0  # atno 17342 bound_to 10162
  139.8522  143.7423  152.3177 LP  0  0  0  0  0  0  0  0  0  0  0  0  # atno 17343 bound_to 10162
  157.6211  130.8656  149.9111 LP  0  0  0  0  0  0  0  0  0  0  0  0  # atno 17370 bound_to 10713
  156.0741  130.3681  150.0715 LP  0  0  0  0  0  0  0  0  0  0  0  0  # atno 17371 bound_to 10713
  140.8497  133.8141  155.9157 LP  0  0  0  0  0  0  0  0  0  0  0  0  # atno 17394 bound_to 11000
  140.9156  134.2206  157.4959 LP  0  0  0  0  0  0  0  0  0  0  0  0  # atno 17395 bound_to 11000

$$$$
