AV-unprocessed.smi:812|AV-procd|sdf|3816|dock6
  -GOLD-   22720 1253D 1   1.00000     0.00000
 Structure written by MMmdl.
 38 40  0  0  0  0  0  0  0  0  1 V2000
  155.1870  132.5292  161.1340 C   0  0  0  0  0  0  0  0  0  0  0  0
  154.7416  133.7392  161.8500 N   0  0  0  0  0  0  0  0  0  0  0  0
  154.4695  134.8646  161.1172 C   0  0  0  0  0  0  0  0  0  0  0  0
  154.5690  134.9462  159.8923 O   0  0  0  0  0  0  0  0  0  0  0  0
  154.0374  136.0107  161.9258 C   0  0  0  0  0  0  0  0  0  0  0  0
  153.9224  135.9597  163.2759 C   0  0  0  0  0  0  0  0  0  0  0  0
  153.5040  137.1812  163.7927 N   0  0  0  0  0  0  0  0  0  0  0  0
  153.3873  137.9254  162.6926 C   0  0  0  0  0  0  0  0  0  0  0  0
  153.6883  137.3035  161.5349 N   0  0  0  0  0  0  0  0  0  0  0  0
  153.6451  137.8999  160.2076 C   0  0  0  0  0  0  0  0  0  0  0  0
  154.6255  139.0807  160.0521 C   0  0  1  0  0  0  0  0  0  0  0  0
  155.4230  138.9134  158.8958 O   0  0  0  0  0  0  0  0  0  0  0  0
  153.8901  140.4114  160.0469 C   0  0  0  0  0  0  0  0  0  0  0  0
  153.4682  140.9998  161.2596 C   0  0  0  0  0  0  0  0  0  0  0  0
  152.7898  142.2339  161.2519 C   0  0  0  0  0  0  0  0  0  0  0  0
  152.5311  142.8879  160.0321 C   0  0  0  0  0  0  0  0  0  0  0  0
  151.8793  144.0746  160.0246 F   0  0  0  0  0  0  0  0  0  0  0  0
  152.9524  142.3076  158.8202 C   0  0  0  0  0  0  0  0  0  0  0  0
  153.6311  141.0733  158.8274 C   0  0  0  0  0  0  0  0  0  0  0  0
  154.2313  134.7420  163.9355 N   0  0  0  0  0  0  0  0  0  0  0  0
  154.1153  134.6711  165.3947 C   0  0  0  0  0  0  0  0  0  0  0  0
  154.6419  133.6406  163.2272 C   0  0  0  0  0  0  0  0  0  0  0  0
  154.9161  132.5895  163.8138 O   0  0  0  0  0  0  0  0  0  0  0  0
  155.1993  132.6171  160.0472 H   0  0  0  0  0  0  0  0  0  0  0  0
  154.5352  131.6845  161.3641 H   0  0  0  0  0  0  0  0  0  0  0  0
  156.2005  132.2628  161.4382 H   0  0  0  0  0  0  0  0  0  0  0  0
  153.0752  138.9588  162.7301 H   0  0  0  0  0  0  0  0  0  0  0  0
  153.8308  137.1316  159.4585 H   0  0  0  0  0  0  0  0  0  0  0  0
  152.6262  138.2462  160.0290 H   0  0  0  0  0  0  0  0  0  0  0  0
  155.3112  139.0727  160.9006 H   0  0  0  0  0  0  0  0  0  0  0  0
  155.2077  138.0824  158.5006 H   0  0  0  0  0  0  0  0  0  0  0  0
  153.6651  140.5058  162.2001 H   0  0  0  0  0  0  0  0  0  0  0  0
  152.4687  142.6786  162.1822 H   0  0  0  0  0  0  0  0  0  0  0  0
  152.7552  142.8095  157.8843 H   0  0  0  0  0  0  0  0  0  0  0  0
  153.9513  140.6379  157.8921 H   0  0  0  0  0  0  0  0  0  0  0  0
  153.4124  133.8894  165.6867 H   0  0  0  0  0  0  0  0  0  0  0  0
  153.7637  135.6028  165.8369 H   0  0  0  0  0  0  0  0  0  0  0  0
  155.0830  134.4440  165.8435 H   0  0  0  0  0  0  0  0  0  0  0  0
  1  2  1  0  0  0  0
  1 24  1  0  0  0  0
  1 25  1  0  0  0  0
  1 26  1  0  0  0  0
  2 22  1  0  0  0  0
  2  3  1  0  0  0  0
  3  4  2  0  0  0  0
  3  5  1  0  0  0  0
  5  9  1  0  0  0  0
  5  6  2  0  0  0  0
  6  7  1  0  0  0  0
  6 20  1  0  0  0  0
  7  8  2  0  0  0  0
  8  9  1  0  0  0  0
  8 27  1  0  0  0  0
  9 10  1  0  0  0  0
 10 11  1  0  0  0  0
 10 28  1  0  0  0  0
 10 29  1  0  0  0  0
 11 12  1  0  0  0  0
 11 13  1  0  0  0  0
 11 30  1  0  0  0  0
 12 31  1  0  0  0  0
 13 19  1  0  0  0  0
 13 14  2  0  0  0  0
 14 15  1  0  0  0  0
 14 32  1  0  0  0  0
 15 16  2  0  0  0  0
 15 33  1  0  0  0  0
 16 17  1  0  0  0  0
 16 18  1  0  0  0  0
 18 19  2  0  0  0  0
 18 34  1  0  0  0  0
 19 35  1  0  0  0  0
 20 21  1  0  0  0  0
 20 22  1  0  0  0  0
 21 36  1  0  0  0  0
 21 37  1  0  0  0  0
 21 38  1  0  0  0  0
 22 23  2  0  0  0  0
M  END
> <s_m_source_file>
AV-unprocessed.smi

> <i_m_source_file_index>
812

> <i_lp_mmshare_version>
43012

> <i_f3d_flags>
0

> <s_epik_input>
Tz1jMW4oW0NIM10pYyg9TyluKFtDSDNdKWMoYzEyKW5bY0hdbjJbQ0gyXVtDQEhdKFtPSF0pYzNbY0hdW2NIXWMoRilbY0hdW2NIXTM=

> <s_epik_cmdline>
J2VwaWtfcHl0aG9uJywgJy1waCcsICc3LjAnLCAnLXRuJywgJzgnLCAnLW1hJywgJzIwMCcsICctbWV0YWxfYmluZGluZycsICctaW1hZScsICc8aW5maWxlLm1hZT4nLCAnLW9tYWUnLCAnPG91dGZpbGUubWFlPic=

> <r_lp_tautomer_probability>
1

> <r_epik_Ionization_Penalty>
1.45649e-06

> <r_epik_Ionization_Penalty_Charging>
3.74189e-09

> <r_epik_Ionization_Penalty_Neutral>
1.45275e-06

> <r_epik_State_Penalty>
-0

> <r_epik_Charging_Adjusted_Penalty>
3.74189e-09

> <i_epik_Tot_Q>
0

> <i_epik_Tot_abs_Q>
0

> <r_epik_Metal_State_Penalty>
-0

> <b_epik_Metal_Only>
0

> <s_lp_Force_Field>
OPLS_2005

> <r_lp_Energy>
35.4349

> <b_lp_Chiralities_Consistent>
1

> <s_lp_Variant>
AV-unprocessed.smi:812-2

> <Gold.Version>
5.8.1

> <Gold.Id.Protein>
6NUR|6NUR_protein|mol2

> <Gold.PLP.Fitness>
46.3789

> <Gold.PLP.PLP>
-43.3981

> <Gold.PLP.part.hbond>
-2.0000

> <Gold.PLP.part.metal>
0.0000

> <Gold.PLP.part.buried>
-4.4397

> <Gold.PLP.part.nonpolar>
-37.2393

> <Gold.PLP.part.repulsive>
0.0554

> <Gold.PLP.ligand.clash>
0.0000

> <Gold.PLP.ligand.torsion>
1.2970

> <Gold.PLP.Chemscore.Hbond>
1.8500

> <Gold.PLP.Chemscore.CHOScore>
0.0000

> <Gold.PLP.Chemscore.Metal>
0.0000

> <Gold.Chemscore.Hbonds>
donor molecule, donor type, donor heavy atom, donor atom, acceptor molecule, acceptor atom, score
      P1  H  6896  6907       L1     4  0.22
      P1  H  7997  8010       L1    12  1.00

> <Gold.PLP.Chemscore.Internal.Correction>
0.0249

> <Gold.Rescore>
     Score         DG    S(hbond)    S(metal)    S(lipo)     H(rot)  DE(clash)    DE(int)     intcor
     14.86     -15.65       1.94        0.00      80.45       2.24       0.01       0.77       ----

> <Gold.Chemscore.Fitness>
14.8625

> <Gold.Chemscore.DG>
-15.6451

> <Gold.Chemscore.ZeroCoef>
-5.4800

> <Gold.Chemscore.Hbond>
1.9405

> <Gold.Chemscore.Metal>
0.0000

> <Gold.Chemscore.Lipo>
80.4482

> <Gold.Chemscore.Internal_Hbond>
0.0000

> <Gold.Chemscore.DEClash>
0.0110

> <Gold.Chemscore.DEInternal>
0.7716

> <Gold.Chemscore.Rot>
2.2377

> <Gold.Chemscore.Internal.Correction>
   9.000000E+99

> <Gold.Chemscore.Hbonds>
donor molecule, donor type, donor heavy atom, donor atom, acceptor molecule, acceptor atom, score
      P1  H  7997  8010       L1    12  0.26

> <Gold.Chemscore.Hbond.Weighted>
-6.4813

> <Gold.Chemscore.Metal.Weighted>
-0.0000

> <Gold.Chemscore.Lipo.Weighted>
-9.4124

> <Gold.Chemscore.Internal_Hbond.Weighted>
0.0000

> <Gold.Chemscore.DEClash.Weighted>
0.0110

> <Gold.Chemscore.DEInternal.Weighted>
0.7716

> <Gold.Chemscore.Rot.Weighted>
5.7286

> <Gold.Chemscore.Internal.Correction.Weighted>
   9.000000E+99

> <Gold.Protein.RotatedTorsions>
[ 6907 6896 6895 6894 ] final   88.87 input  -60.11 | X-H torsion
[ 7974 7965 7964 7962 ] final  179.38 input  175.53 | X-H torsion
[ 8008 7997 7996 7995 ] final  -22.88 input   59.86 | X-H torsion
[ 10167 10162 10161 10158 ] final   -0.93 input  -65.29 | X-H torsion
[ 10718 10713 10712 10709 ] final  100.99 input   66.30 | X-H torsion
[ 10763 10752 10751 10750 ] final  111.17 input  -60.55 | X-H torsion
[ 11005 11000 10999 10996 ] final  -22.37 input  -57.11 | X-H torsion

> <Gold.Protein.ActiveResidues>
 VAL166  LYS551  ARG553  GLY616  TRP617  ASP618  TYR619  PRO620  LYS621  CYS622 
 ASP623  PHE694  ASN695  SER759  ASP760  ASP761  ALA762  ILE779  LEU786  VAL792 
 PHE793  MET794  SER795  GLU796  ALA797  LYS798  CYS799  TRP800  GLU811  SER814 

> <Gold.Protein.RotatedAtoms>
  152.5430  134.2054  159.8728 H   0  0  0  0  0  0  0  0  0  0  0  0  # atno 6907 bound_to 6896
  151.2040  133.4587  159.2604 H   0  0  0  0  0  0  0  0  0  0  0  0  # atno 6908 bound_to 6896
  151.0961  134.9957  159.8482 H   0  0  0  0  0  0  0  0  0  0  0  0  # atno 6909 bound_to 6896
  144.7146  140.0539  143.6434 H   0  0  0  0  0  0  0  0  0  0  0  0  # atno 7974 bound_to 7965
  154.4618  140.1996  156.0225 H   0  0  0  0  0  0  0  0  0  0  0  0  # atno 8008 bound_to 7997
  156.0854  140.3265  155.7718 H   0  0  0  0  0  0  0  0  0  0  0  0  # atno 8009 bound_to 7997
  155.5044  140.0556  157.2924 H   0  0  0  0  0  0  0  0  0  0  0  0  # atno 8010 bound_to 7997
  140.6789  143.6835  150.8086 H   0  0  0  0  0  0  0  0  0  0  0  0  # atno 10167 bound_to 10162
  157.6841  131.0713  150.5184 H   0  0  0  0  0  0  0  0  0  0  0  0  # atno 10718 bound_to 10713
  153.4595  135.3725  155.2330 H   0  0  0  0  0  0  0  0  0  0  0  0  # atno 10763 bound_to 10752
  154.8757  135.3905  154.3941 H   0  0  0  0  0  0  0  0  0  0  0  0  # atno 10764 bound_to 10752
  153.4513  135.7085  153.6171 H   0  0  0  0  0  0  0  0  0  0  0  0  # atno 10765 bound_to 10752
  140.8650  133.7761  156.0119 H   0  0  0  0  0  0  0  0  0  0  0  0  # atno 11005 bound_to 11000
  145.9921  139.3023  143.0978 LP  0  0  0  0  0  0  0  0  0  0  0  0  # atno 17320 bound_to 7965
  145.8891  140.9315  143.0561 LP  0  0  0  0  0  0  0  0  0  0  0  0  # atno 17321 bound_to 7965
  140.0532  143.5228  152.2663 LP  0  0  0  0  0  0  0  0  0  0  0  0  # atno 17342 bound_to 10162
  139.6098  144.7606  151.2978 LP  0  0  0  0  0  0  0  0  0  0  0  0  # atno 17343 bound_to 10162
  156.5498  130.4229  149.6113 LP  0  0  0  0  0  0  0  0  0  0  0  0  # atno 17370 bound_to 10713
  156.2912  130.7125  151.1975 LP  0  0  0  0  0  0  0  0  0  0  0  0  # atno 17371 bound_to 10713
  140.8639  134.2807  157.5222 LP  0  0  0  0  0  0  0  0  0  0  0  0  # atno 17394 bound_to 11000
  139.8709  134.9532  156.4139 LP  0  0  0  0  0  0  0  0  0  0  0  0  # atno 17395 bound_to 11000

$$$$
