#       Name:                AV-unprocessed.smi:798
#       Creating user name   scv26
#       Creation time:       Fri Mar 27 01:21:50 2020


#       File generated by GOLD software.
#

@<TRIPOS>MOLECULE
AV-unprocessed.smi:798
    40    42     1
SMALL
NO_CHARGES


@<TRIPOS>ATOM
      1 ****        -1.0112   2.0609  -0.8739 O.2            1 S1                 0.0000
      2 ****        -1.5486   0.9696  -0.6716 C.2            1 S1                 0.0000
      3 ****        -2.8769   0.7369  -0.5694 N.pl3          1 S1                -1.0000
      4 ****        -3.7469   1.7542  -0.6805 C.2            1 S1                 0.0000
      5 ****        -4.2733   2.3690   0.3909 N.2            1 S1                 0.0000
      6 ****        -5.1521   3.3908   0.0573 N.2            1 S1                 0.0000
      7 ****        -5.2742   3.5141  -1.2642 C.2            1 S1                 0.0000
      8 ****        -4.3284   2.3930  -2.2206 S.3            1 S1                 0.0000
      9 ****        -0.7966  -0.1301  -0.5200 N.am           1 S1                 0.0000
     10 ****         0.6653  -0.1938  -0.5762 C.3            1 S1                 0.0000
     11 ****         1.1193  -1.5983  -1.0297 C.3            1 S1                 0.0000
     12 ****         2.5968  -1.5362  -1.4578 C.3            1 S1                 0.0000
     13 ****         3.3267  -1.3642  -0.1119 C.3            1 S1                 0.0000
     14 ****         2.1704  -1.3555   0.9081 C.3            1 S1                 0.0000
     15 ****         1.2108  -2.3618   0.2860 C.3            1 S1                 0.0000
     16 ****         1.3918  -0.0216   0.7931 C.3            1 S1                 0.0000
     17 ****         0.4880   0.2661   2.0141 C.3            1 S1                 0.0000
     18 ****         1.2697   0.4730   3.1721 O.3            1 S1                 0.0000
     19 ****        -5.9274   4.2677  -1.6780 H              1 S1                 0.0000
     20 ****        -1.2818  -0.9996  -0.3547 H              1 S1                 0.0000
     21 ****         1.0221   0.5498  -1.2916 H              1 S1                 0.0000
     22 ****         0.4735  -2.0522  -1.7826 H              1 S1                 0.0000
     23 ****         2.8999  -2.4655  -1.9416 H              1 S1                 0.0000
     24 ****         2.7972  -0.7182  -2.1507 H              1 S1                 0.0000
     25 ****         3.9961  -2.2061   0.0690 H              1 S1                 0.0000
     26 ****         3.9225  -0.4515  -0.0738 H              1 S1                 0.0000
     27 ****         2.4940  -1.5985   1.9205 H              1 S1                 0.0000
     28 ****         0.2574  -2.4404   0.8103 H              1 S1                 0.0000
     29 ****         1.6397  -3.3596   0.1781 H              1 S1                 0.0000
     30 ****         2.0979   0.8067   0.7133 H              1 S1                 0.0000
     31 ****        -0.0995   1.1694   1.8505 H              1 S1                 0.0000
     32 ****        -0.2125  -0.5490   2.1967 H              1 S1                 0.0000
     33 ****         0.6900   0.6811   3.8888 H              1 S1                 0.0000
     34 ****        -1.5716   2.8824  -0.9792 LP             1 S1                 0.0000
     35 ****        -0.0149   2.1244  -0.9326 LP             1 S1                 0.0000
     36 ****        -3.2112  -0.1922  -0.4112 LP             1 S1                 0.0000
     37 ****        -4.0546   2.1165   1.3335 LP             1 S1                 0.0000
     38 ****        -5.6322   3.9614   0.7235 LP             1 S1                 0.0000
     39 ****         1.9049   1.2303   3.0203 LP             1 S1                 0.0000
     40 ****         1.7854  -0.3570   3.3845 LP             1 S1                 0.0000
@<TRIPOS>BOND
    1    1    2 2     
    2    2    3 1     
    3    2    9 am    
    4    3    4 1     
    5    4    8 1     
    6    4    5 2     
    7    5    6 1     
    8    6    7 2     
    9    7    8 1     
   10    7   19 1     
   11    9   10 1     
   12    9   20 1     
   13   10   16 1     
   14   10   11 1     
   15   10   21 1     
   16   11   15 1     
   17   11   12 1     
   18   11   22 1     
   19   12   13 1     
   20   12   23 1     
   21   12   24 1     
   22   13   14 1     
   23   13   25 1     
   24   13   26 1     
   25   14   15 1     
   26   14   16 1     
   27   14   27 1     
   28   15   28 1     
   29   15   29 1     
   30   16   17 1     
   31   16   30 1     
   32   17   18 1     
   33   17   31 1     
   34   17   32 1     
   35   18   33 1     
   36    1   34 1     
   37    1   35 1     
   38    3   36 1     
   39    5   37 1     
   40    6   38 1     
   41   18   39 1     
   42   18   40 1     
@<TRIPOS>SUBSTRUCTURE
      1 S1             1
@<TRIPOS>SET
LONE_PAIRS      STATIC     ATOMS    <user>   **** ""
7 34 35 36 37 38 39 40
DONOR_HYDROGENS      STATIC     ATOMS    <user>   **** ""
2 20 33
ATOM$BLUE        STATIC     ATOMS    COLORGROUP SYSTEM
7 34 35 36 37 38 39 40
ATOM$RED        STATIC     ATOMS    COLORGROUP SYSTEM
2 20 33
