AV-unprocessed.smi:1938|AV-procd|sdf|7834|dock3
  -GOLD-   22720 9583D 1   1.00000     0.00000
 Structure written by MMmdl.
 35 36  0  0  0  0  0  0  0  0  1 V2000
  151.6093  138.3176  154.5814 C   0  0  0  0  0  0  0  0  0  0  0  0
  150.2769  138.2375  154.0871 O   0  0  0  0  0  0  0  0  0  0  0  0
  149.4859  139.3698  154.1345 C   0  0  0  0  0  0  0  0  0  0  0  0
  150.0177  140.5070  154.6492 N   0  0  0  0  0  0  0  0  0  0  0  0
  149.2455  141.6117  154.7005 C   0  0  0  0  0  0  0  0  0  0  0  0
  147.9122  141.6412  154.2524 C   0  0  0  0  0  0  0  0  0  0  0  0
  147.3586  140.4634  153.7172 C   0  0  0  0  0  0  0  0  0  0  0  0
  148.1614  139.2992  153.6427 C   0  0  0  0  0  0  0  0  0  0  0  0
  147.6970  138.0527  153.1391 N   0  0  0  0  0  0  0  0  0  0  0  0
  146.4492  137.5548  153.1548 C   0  0  0  0  0  0  0  0  0  0  0  0
  145.4605  138.1223  153.6194 O   0  0  0  0  0  0  0  0  0  0  0  0
  146.4032  136.3499  152.5704 N   0  0  0  0  0  0  0  0  0  0  0  0
  145.1954  135.5544  152.3836 C   0  0  0  0  0  0  0  0  0  0  0  0
  145.2453  134.7526  151.0730 C   0  0  2  0  0  0  0  0  0  0  0  0
  144.1017  133.7537  150.9181 C   0  0  0  0  0  0  0  0  0  0  0  0
  144.6852  132.7836  149.9161 C   0  0  0  0  0  0  0  0  0  0  0  0
  146.1511  132.7240  150.3421 C   0  0  0  0  0  0  0  0  0  0  0  0
  146.4219  133.9509  151.0166 O   0  0  0  0  0  0  0  0  0  0  0  0
  152.0935  137.3475  154.4702 H   0  0  0  0  0  0  0  0  0  0  0  0
  151.6274  138.5764  155.6410 H   0  0  0  0  0  0  0  0  0  0  0  0
  152.1989  139.0466  154.0238 H   0  0  0  0  0  0  0  0  0  0  0  0
  149.7022  142.4968  155.1180 H   0  0  0  0  0  0  0  0  0  0  0  0
  147.3257  142.5453  154.3225 H   0  0  0  0  0  0  0  0  0  0  0  0
  146.3304  140.4729  153.3910 H   0  0  0  0  0  0  0  0  0  0  0  0
  148.3858  137.5066  152.6425 H   0  0  0  0  0  0  0  0  0  0  0  0
  147.2616  135.9627  152.2070 H   0  0  0  0  0  0  0  0  0  0  0  0
  145.0942  134.8784  153.2329 H   0  0  0  0  0  0  0  0  0  0  0  0
  144.3174  136.2027  152.3971 H   0  0  0  0  0  0  0  0  0  0  0  0
  145.2483  135.4230  150.2118 H   0  0  0  0  0  0  0  0  0  0  0  0
  143.9043  133.2428  151.8617 H   0  0  0  0  0  0  0  0  0  0  0  0
  143.1752  134.2161  150.5770 H   0  0  0  0  0  0  0  0  0  0  0  0
  144.1972  131.8087  149.9266 H   0  0  0  0  0  0  0  0  0  0  0  0
  144.6042  133.1956  148.9090 H   0  0  0  0  0  0  0  0  0  0  0  0
  146.3169  131.9025  151.0400 H   0  0  0  0  0  0  0  0  0  0  0  0
  146.8192  132.5853  149.4916 H   0  0  0  0  0  0  0  0  0  0  0  0
  1  2  1  0  0  0  0
  1 19  1  0  0  0  0
  1 20  1  0  0  0  0
  1 21  1  0  0  0  0
  2  3  1  0  0  0  0
  3  8  1  0  0  0  0
  3  4  2  0  0  0  0
  4  5  1  0  0  0  0
  5  6  2  0  0  0  0
  5 22  1  0  0  0  0
  6  7  1  0  0  0  0
  6 23  1  0  0  0  0
  7  8  2  0  0  0  0
  7 24  1  0  0  0  0
  8  9  1  0  0  0  0
  9 10  1  0  0  0  0
  9 25  1  0  0  0  0
 10 11  2  0  0  0  0
 10 12  1  0  0  0  0
 12 13  1  0  0  0  0
 12 26  1  0  0  0  0
 13 14  1  0  0  0  0
 13 27  1  0  0  0  0
 13 28  1  0  0  0  0
 14 18  1  0  0  0  0
 14 15  1  0  0  0  0
 14 29  1  0  0  0  0
 15 16  1  0  0  0  0
 15 30  1  0  0  0  0
 15 31  1  0  0  0  0
 16 17  1  0  0  0  0
 16 32  1  0  0  0  0
 16 33  1  0  0  0  0
 17 18  1  0  0  0  0
 17 34  1  0  0  0  0
 17 35  1  0  0  0  0
M  END
> <s_m_source_file>
AV-unprocessed.smi

> <i_m_source_file_index>
1938

> <i_lp_mmshare_version>
43012

> <i_f3d_flags>
0

> <s_epik_input>
W0NIM11PYzFuW2NIXVtjSF1bY0hdYzFbTkhdQyg9TylbTkhdW0NIMl1bQ0BASF0yW0NIMl1bQ0gyXVtDSDJdTzI=

> <s_epik_cmdline>
J2VwaWtfcHl0aG9uJywgJy1waCcsICc3LjAnLCAnLXRuJywgJzgnLCAnLW1hJywgJzIwMCcsICctbWV0YWxfYmluZGluZycsICctaW1hZScsICc8aW5maWxlLm1hZT4nLCAnLW9tYWUnLCAnPG91dGZpbGUubWFlPic=

> <r_lp_tautomer_probability>
1

> <r_epik_Ionization_Penalty>
9.01657e-05

> <r_epik_Ionization_Penalty_Charging>
0

> <r_epik_Ionization_Penalty_Neutral>
9.01657e-05

> <r_epik_State_Penalty>
-0

> <r_epik_Charging_Adjusted_Penalty>
0

> <i_epik_Tot_Q>
0

> <i_epik_Tot_abs_Q>
0

> <r_epik_Metal_State_Penalty>
-0

> <b_epik_Metal_Only>
0

> <s_lp_Force_Field>
OPLS_2005

> <r_lp_Energy>
19.3797

> <b_lp_Chiralities_Consistent>
1

> <s_lp_Variant>
AV-unprocessed.smi:1938-1

> <Gold.Version>
5.8.1

> <Gold.Id.Protein>
6NUR|6NUR_protein|mol2

> <Gold.PLP.Fitness>
41.9970

> <Gold.PLP.PLP>
-31.2043

> <Gold.PLP.part.hbond>
-3.0000

> <Gold.PLP.part.metal>
0.0000

> <Gold.PLP.part.buried>
-2.1192

> <Gold.PLP.part.nonpolar>
-26.9524

> <Gold.PLP.part.repulsive>
0.8048

> <Gold.PLP.ligand.clash>
0.0000

> <Gold.PLP.ligand.torsion>
0.3911

> <Gold.PLP.Chemscore.Hbond>
2.8560

> <Gold.PLP.Chemscore.CHOScore>
1.0000

> <Gold.PLP.Chemscore.Metal>
0.0000

> <Gold.Chemscore.Hbonds>
donor molecule, donor type, donor heavy atom, donor atom, acceptor molecule, acceptor atom, score
      L1  H     9    25       P1  7948  1.00
      L1  H    12    26       P1  7948  0.96
      P1  H  7989  7998       L1     4  0.90
      L1  C     5    22       P1  8028  1.00

> <Gold.PLP.Chemscore.Internal.Correction>
0.0068

> <Gold.Rescore>
     Score         DG    S(hbond)    S(metal)    S(lipo)     H(rot)  DE(clash)    DE(int)     intcor
     15.77     -17.44       2.34        0.00      68.16       1.50       0.31       1.36       ----

> <Gold.Chemscore.Fitness>
15.7729

> <Gold.Chemscore.DG>
-17.4404

> <Gold.Chemscore.ZeroCoef>
-5.4800

> <Gold.Chemscore.Hbond>
2.3409

> <Gold.Chemscore.Metal>
0.0000

> <Gold.Chemscore.Lipo>
68.1561

> <Gold.Chemscore.Internal_Hbond>
0.0000

> <Gold.Chemscore.DEClash>
0.3077

> <Gold.Chemscore.DEInternal>
1.3599

> <Gold.Chemscore.Rot>
1.4971

> <Gold.Chemscore.Internal.Correction>
   9.000000E+99

> <Gold.Chemscore.Hbonds>
donor molecule, donor type, donor heavy atom, donor atom, acceptor molecule, acceptor atom, score
      L1  H     9    25       P1  7948  0.97
      L1  H    12    26       P1  7948  0.92
      P1  H  7989  7998       L1     4  0.29

> <Gold.Chemscore.Hbond.Weighted>
-7.8187

> <Gold.Chemscore.Metal.Weighted>
-0.0000

> <Gold.Chemscore.Lipo.Weighted>
-7.9743

> <Gold.Chemscore.Internal_Hbond.Weighted>
0.0000

> <Gold.Chemscore.DEClash.Weighted>
0.3077

> <Gold.Chemscore.DEInternal.Weighted>
1.3599

> <Gold.Chemscore.Rot.Weighted>
3.8326

> <Gold.Chemscore.Internal.Correction.Weighted>
   9.000000E+99

> <Gold.Protein.RotatedTorsions>
[ 6907 6896 6895 6894 ] final   19.42 input  -60.11 | X-H torsion
[ 7974 7965 7964 7962 ] final  122.17 input  175.53 | X-H torsion
[ 8008 7997 7996 7995 ] final -134.31 input   59.86 | X-H torsion
[ 10167 10162 10161 10158 ] final   63.75 input  -65.29 | X-H torsion
[ 10718 10713 10712 10709 ] final -143.91 input   66.30 | X-H torsion
[ 10763 10752 10751 10750 ] final -161.44 input  -60.55 | X-H torsion
[ 11005 11000 10999 10996 ] final  -29.49 input  -57.11 | X-H torsion

> <Gold.Protein.ActiveResidues>
 VAL166  LYS551  ARG553  GLY616  TRP617  ASP618  TYR619  PRO620  LYS621  CYS622 
 ASP623  PHE694  ASN695  SER759  ASP760  ASP761  ALA762  ILE779  LEU786  VAL792 
 PHE793  MET794  SER795  GLU796  ALA797  LYS798  CYS799  TRP800  GLU811  SER814 

> <Gold.Protein.RotatedAtoms>
  151.8806  135.0455  160.0488 H   0  0  0  0  0  0  0  0  0  0  0  0  # atno 6907 bound_to 6896
  152.2516  133.5215  159.5337 H   0  0  0  0  0  0  0  0  0  0  0  0  # atno 6908 bound_to 6896
  150.7085  134.0869  159.3960 H   0  0  0  0  0  0  0  0  0  0  0  0  # atno 6909 bound_to 6896
  145.1107  139.3455  143.4764 H   0  0  0  0  0  0  0  0  0  0  0  0  # atno 7974 bound_to 7965
  155.3599  140.0482  157.3046 H   0  0  0  0  0  0  0  0  0  0  0  0  # atno 8008 bound_to 7997
  154.5183  140.2216  155.8987 H   0  0  0  0  0  0  0  0  0  0  0  0  # atno 8009 bound_to 7997
  156.1661  140.3106  155.8898 H   0  0  0  0  0  0  0  0  0  0  0  0  # atno 8010 bound_to 7997
  140.1297  144.4655  150.6872 H   0  0  0  0  0  0  0  0  0  0  0  0  # atno 10167 bound_to 10162
  156.3637  130.7751  151.1923 H   0  0  0  0  0  0  0  0  0  0  0  0  # atno 10718 bound_to 10713
  154.7303  135.3045  154.8902 H   0  0  0  0  0  0  0  0  0  0  0  0  # atno 10763 bound_to 10752
  153.9747  135.6737  153.4752 H   0  0  0  0  0  0  0  0  0  0  0  0  # atno 10764 bound_to 10752
  153.0912  135.4958  154.8614 H   0  0  0  0  0  0  0  0  0  0  0  0  # atno 10765 bound_to 10752
  140.9300  133.7344  156.0923 H   0  0  0  0  0  0  0  0  0  0  0  0  # atno 11005 bound_to 11000
  146.3526  140.1025  142.8607 LP  0  0  0  0  0  0  0  0  0  0  0  0  # atno 17320 bound_to 7965
  145.0850  140.9246  143.4803 LP  0  0  0  0  0  0  0  0  0  0  0  0  # atno 17321 bound_to 7965
  140.6824  143.2333  151.5349 LP  0  0  0  0  0  0  0  0  0  0  0  0  # atno 17342 bound_to 10162
  139.5526  144.2357  152.1557 LP  0  0  0  0  0  0  0  0  0  0  0  0  # atno 17343 bound_to 10162
  157.7476  131.0392  150.4541 LP  0  0  0  0  0  0  0  0  0  0  0  0  # atno 17370 bound_to 10713
  156.4757  130.4062  149.6491 LP  0  0  0  0  0  0  0  0  0  0  0  0  # atno 17371 bound_to 10713
  140.7874  134.3656  157.5473 LP  0  0  0  0  0  0  0  0  0  0  0  0  # atno 17394 bound_to 11000
  139.8794  134.9119  156.3048 LP  0  0  0  0  0  0  0  0  0  0  0  0  # atno 17395 bound_to 11000

$$$$
