#       Name:                AV-unprocessed.smi:1645
#       Creating user name   scv26
#       Creation time:       Fri Mar 27 07:32:03 2020


#       File generated by GOLD software.
#

@<TRIPOS>MOLECULE
AV-unprocessed.smi:1645
    59    62     1
SMALL
NO_CHARGES


@<TRIPOS>ATOM
      1 ****        -0.4111   1.7121   0.3031 O.2            1 S1                 0.0000
      2 ****        -0.9439   0.7548  -0.2697 C.2            1 S1                 0.0000
      3 ****        -0.1980  -0.2732  -0.7119 N.am           1 S1                 0.0000
      4 ****         1.1969  -0.4969  -0.5608 C.ar           1 S1                 0.0000
      5 ****         1.8376  -1.3282  -1.5013 C.ar           1 S1                 0.0000
      6 ****         3.2162  -1.5962  -1.3764 C.ar           1 S1                 0.0000
      7 ****         3.9492  -1.0398  -0.2975 C.ar           1 S1                 0.0000
      8 ****         5.3322  -1.2477  -0.0929 N.3            1 S1                 0.0000
      9 ****         6.0798  -1.9502  -1.1377 C.3            1 S1                 0.0000
     10 ****         7.5966  -1.7451  -0.9813 C.3            1 S1                 0.0000
     11 ****         8.0639  -2.1100   0.4339 C.3            1 S1                 0.0000
     12 ****         7.2626  -1.3082   1.4688 C.3            1 S1                 0.0000
     13 ****         5.7503  -1.5212   1.2859 C.3            1 S1                 0.0000
     14 ****         3.2836  -0.2596   0.5884 N.pl3          1 S1                 1.0000
     15 ****         1.9661   0.0244   0.5053 C.ar           1 S1                 0.0000
     16 ****        -2.2630   0.5913  -0.5580 N.pl3          1 S1                -1.0000
     17 ****        -3.3208   1.5361  -0.1920 C.3            1 S1                 0.0000
     18 ****        -3.5808   2.5530  -1.3058 C.3            1 S1                 0.0000
     19 ****        -5.0272   2.9787  -1.0561 C.3            1 S1                 0.0000
     20 ****        -5.7088   1.7556  -0.5822 N.4            1 S1                 1.0000
     21 ****        -6.9006   1.9962   0.2697 C.3            1 S1                 0.0000
     22 ****        -7.4739   0.6625   0.7790 C.3            1 S1                 0.0000
     23 ****        -6.4341  -0.1771   1.5504 C.3            1 S1                 0.0000
     24 ****        -5.0071   0.3889   1.4333 C.3            1 S1                 0.0000
     25 ****        -4.6848   0.8286  -0.0187 C.3            1 S1                 0.0000
     26 ****        -0.6924  -0.9593  -1.2632 H              1 S1                 0.0000
     27 ****         1.2780  -1.7578  -2.3197 H              1 S1                 0.0000
     28 ****         3.6816  -2.2373  -2.1095 H              1 S1                 0.0000
     29 ****         5.8380  -3.0131  -1.0955 H              1 S1                 0.0000
     30 ****         5.7854  -1.5866  -2.1225 H              1 S1                 0.0000
     31 ****         8.1318  -2.3445  -1.7181 H              1 S1                 0.0000
     32 ****         7.8467  -0.7039  -1.1894 H              1 S1                 0.0000
     33 ****         7.9267  -3.1784   0.6051 H              1 S1                 0.0000
     34 ****         9.1301  -1.9087   0.5428 H              1 S1                 0.0000
     35 ****         7.5594  -1.5972   2.4773 H              1 S1                 0.0000
     36 ****         7.4966  -0.2472   1.3695 H              1 S1                 0.0000
     37 ****         5.2252  -0.8877   2.0006 H              1 S1                 0.0000
     38 ****         5.4889  -2.5519   1.5292 H              1 S1                 0.0000
     39 ****         1.5822   0.6446   1.3014 H              1 S1                 0.0000
     40 ****        -3.0989   2.0882   0.7230 H              1 S1                 0.0000
     41 ****        -2.8849   3.3922  -1.2826 H              1 S1                 0.0000
     42 ****        -3.5046   2.0805  -2.2868 H              1 S1                 0.0000
     43 ****        -5.0718   3.7618  -0.2945 H              1 S1                 0.0000
     44 ****        -5.5037   3.3705  -1.9553 H              1 S1                 0.0000
     45 ****        -6.6350   2.6356   1.1130 H              1 S1                 0.0000
     46 ****        -7.6522   2.5337  -0.3090 H              1 S1                 0.0000
     47 ****        -8.3454   0.8461   1.4083 H              1 S1                 0.0000
     48 ****        -7.8353   0.0866  -0.0740 H              1 S1                 0.0000
     49 ****        -6.7096  -0.2393   2.6036 H              1 S1                 0.0000
     50 ****        -6.4533  -1.2005   1.1743 H              1 S1                 0.0000
     51 ****        -4.9163   1.2328   2.1209 H              1 S1                 0.0000
     52 ****        -4.2925  -0.3596   1.7807 H              1 S1                 0.0000
     53 ****        -4.7202  -0.0558  -0.6578 H              1 S1                 0.0000
     54 ****        -6.0429   1.2883  -1.4127 H              1 S1                 0.0000
     55 ****         3.8081   0.1386   1.3672 H              1 S1                 0.0000
     56 ****         0.5794   1.7248   0.4397 LP             1 S1                 0.0000
     57 ****        -0.9707   2.4738   0.6298 LP             1 S1                 0.0000
     58 ****         5.6607  -0.3147  -0.2401 LP             1 S1                 0.0000
     59 ****        -2.5301  -0.2338  -1.0560 LP             1 S1                 0.0000
@<TRIPOS>BOND
    1    1    2 2     
    2    2    3 am    
    3    2   16 1     
    4    3    4 1     
    5    3   26 1     
    6    4   15 ar    
    7    4    5 ar    
    8    5    6 ar    
    9    5   27 1     
   10    6    7 ar    
   11    6   28 1     
   12    7    8 1     
   13    7   14 ar    
   14    8   13 1     
   15    8    9 1     
   16    9   10 1     
   17    9   29 1     
   18    9   30 1     
   19   10   11 1     
   20   10   31 1     
   21   10   32 1     
   22   11   12 1     
   23   11   33 1     
   24   11   34 1     
   25   12   13 1     
   26   12   35 1     
   27   12   36 1     
   28   13   37 1     
   29   13   38 1     
   30   14   15 ar    
   31   14   55 1     
   32   15   39 1     
   33   16   17 1     
   34   17   25 1     
   35   17   18 1     
   36   17   40 1     
   37   18   19 1     
   38   18   41 1     
   39   18   42 1     
   40   19   20 1     
   41   19   43 1     
   42   19   44 1     
   43   20   25 1     
   44   20   21 1     
   45   20   54 1     
   46   21   22 1     
   47   21   45 1     
   48   21   46 1     
   49   22   23 1     
   50   22   47 1     
   51   22   48 1     
   52   23   24 1     
   53   23   49 1     
   54   23   50 1     
   55   24   25 1     
   56   24   51 1     
   57   24   52 1     
   58   25   53 1     
   59    1   56 1     
   60    1   57 1     
   61    8   58 1     
   62   16   59 1     
@<TRIPOS>SUBSTRUCTURE
      1 S1             1
@<TRIPOS>SET
LONE_PAIRS      STATIC     ATOMS    <user>   **** ""
4 56 57 58 59
DONOR_HYDROGENS      STATIC     ATOMS    <user>   **** ""
3 26 55 54
ATOM$BLUE        STATIC     ATOMS    COLORGROUP SYSTEM
4 56 57 58 59
ATOM$RED        STATIC     ATOMS    COLORGROUP SYSTEM
3 26 55 54
