AV-unprocessed.smi:37|AV-procd|sdf|308|dock9
  -GOLD-   2262016123D 1   1.00000     0.00000
 Structure written by MMmdl.
 44 45  0  0  0  0  0  0  0  0  1 V2000
  147.4864  134.6144  162.1934 C   0  0  0  0  0  0  0  0  0  0  0  0
  147.4182  136.1356  162.3800 C   0  0  0  0  0  0  0  0  0  0  0  0
  147.5074  136.8844  161.0524 C   0  0  0  0  0  0  0  0  0  0  0  0
  146.5613  137.5453  160.6243 O   0  0  0  0  0  0  0  0  0  0  0  0
  148.7036  136.7414  160.4588 O   0  0  0  0  0  0  0  0  0  0  0  0
  148.9893  137.4374  159.2556 C   0  0  0  0  0  0  0  0  0  0  0  0
  150.3910  137.0495  158.7519 C   0  0  1  0  0  0  0  0  0  0  0  0
  150.2713  135.7684  158.1285 O   0  0  0  0  0  0  0  0  0  0  0  0
  150.6043  135.8606  156.7777 C   0  0  1  0  0  0  0  0  0  0  0  0
  149.6370  135.0104  155.9901 N   0  0  0  0  0  0  0  0  0  0  0  0
  150.0744  133.8575  155.3531 C   0  0  0  0  0  0  0  0  0  0  0  0
  149.2606  133.0702  154.6111 C   0  0  0  0  0  0  0  0  0  0  0  0
  149.7574  131.9675  154.0254 F   0  0  0  0  0  0  0  0  0  0  0  0
  147.8515  133.4108  154.4385 C   0  0  0  0  0  0  0  0  0  0  0  0
  147.0350  132.7607  153.7887 O   0  0  0  0  0  0  0  0  0  0  0  0
  147.4584  134.5848  155.0877 N   0  0  0  0  0  0  0  0  0  0  0  0
  148.2873  135.4063  155.8547 C   0  0  0  0  0  0  0  0  0  0  0  0
  147.8254  136.4167  156.3825 O   0  0  0  0  0  0  0  0  0  0  0  0
  150.5088  137.3316  156.3929 C   0  0  2  0  0  0  0  0  0  0  0  0
  151.6925  137.7753  154.8553 Br  0  0  0  0  0  0  0  0  0  0  0  0
  150.9793  137.9824  157.6738 C   0  0  1  0  0  0  0  0  0  0  0  0
  150.5289  139.3298  157.7363 O   0  0  0  0  0  0  0  0  0  0  0  0
  151.2032  140.3016  157.0948 C   0  0  0  0  0  0  0  0  0  0  0  0
  152.3346  140.2035  156.6201 O   0  0  0  0  0  0  0  0  0  0  0  0
  150.4236  141.6128  157.0279 C   0  0  0  0  0  0  0  0  0  0  0  0
  151.2000  142.7838  157.6449 C   0  0  0  0  0  0  0  0  0  0  0  0
  146.4921  134.8621  154.9939 H   0  0  0  0  0  0  0  0  0  0  0  0
  147.3916  134.1065  163.1530 H   0  0  0  0  0  0  0  0  0  0  0  0
  148.4345  134.3072  161.7505 H   0  0  0  0  0  0  0  0  0  0  0  0
  146.6815  134.2574  161.5500 H   0  0  0  0  0  0  0  0  0  0  0  0
  146.4866  136.4068  162.8772 H   0  0  0  0  0  0  0  0  0  0  0  0
  148.2307  136.4687  163.0264 H   0  0  0  0  0  0  0  0  0  0  0  0
  148.2371  137.1526  158.5192 H   0  0  0  0  0  0  0  0  0  0  0  0
  148.9209  138.5184  159.3846 H   0  0  0  0  0  0  0  0  0  0  0  0
  151.0740  136.9635  159.5977 H   0  0  0  0  0  0  0  0  0  0  0  0
  151.6125  135.4609  156.6611 H   0  0  0  0  0  0  0  0  0  0  0  0
  151.1113  133.5692  155.4468 H   0  0  0  0  0  0  0  0  0  0  0  0
  149.4823  137.6091  156.1510 H   0  0  0  0  0  0  0  0  0  0  0  0
  152.0687  137.9241  157.7062 H   0  0  0  0  0  0  0  0  0  0  0  0
  150.1868  141.8294  155.9859 H   0  0  0  0  0  0  0  0  0  0  0  0
  149.4738  141.4839  157.5475 H   0  0  0  0  0  0  0  0  0  0  0  0
  150.5994  143.6933  157.6288 H   0  0  0  0  0  0  0  0  0  0  0  0
  152.1198  142.9877  157.0955 H   0  0  0  0  0  0  0  0  0  0  0  0
  151.4653  142.5815  158.6832 H   0  0  0  0  0  0  0  0  0  0  0  0
  1  2  1  0  0  0  0
  1 28  1  0  0  0  0
  1 29  1  0  0  0  0
  1 30  1  0  0  0  0
  2  3  1  0  0  0  0
  2 31  1  0  0  0  0
  2 32  1  0  0  0  0
  3  4  2  0  0  0  0
  3  5  1  0  0  0  0
  5  6  1  0  0  0  0
  6  7  1  0  0  0  0
  6 33  1  0  0  0  0
  6 34  1  0  0  0  0
  7 21  1  0  0  0  0
  7  8  1  0  0  0  0
  7 35  1  0  0  0  0
  8  9  1  0  0  0  0
  9 10  1  0  0  0  0
  9 19  1  0  0  0  0
  9 36  1  0  0  0  0
 10 17  1  0  0  0  0
 10 11  1  0  0  0  0
 11 12  2  0  0  0  0
 11 37  1  0  0  0  0
 12 13  1  0  0  0  0
 12 14  1  0  0  0  0
 14 15  2  0  0  0  0
 14 16  1  0  0  0  0
 16 27  1  0  0  0  0
 16 17  1  0  0  0  0
 17 18  2  0  0  0  0
 19 20  1  0  0  0  0
 19 21  1  0  0  0  0
 19 38  1  0  0  0  0
 21 22  1  0  0  0  0
 21 39  1  0  0  0  0
 22 23  1  0  0  0  0
 23 24  2  0  0  0  0
 23 25  1  0  0  0  0
 25 26  1  0  0  0  0
 25 40  1  0  0  0  0
 25 41  1  0  0  0  0
 26 42  1  0  0  0  0
 26 43  1  0  0  0  0
 26 44  1  0  0  0  0
M  END
> <s_m_source_file>
AV-unprocessed.smi

> <i_m_source_file_index>
37

> <i_lp_mmshare_version>
43012

> <i_f3d_flags>
0

> <s_epik_input>
W0NIM11bQ0gyXUMoPU8pT1tDSDJdW0NAQEhdMU9bQ0BASF0objJbY0hdYyhGKWMoPU8pW25IXWMyPU8pW0NAQEhdKEJyKVtDQEhdMU9DKD1PKVtDSDJdW0NIM10=

> <s_epik_cmdline>
J2VwaWtfcHl0aG9uJywgJy1waCcsICc3LjAnLCAnLXRuJywgJzgnLCAnLW1hJywgJzIwMCcsICctbWV0YWxfYmluZGluZycsICctaW1hZScsICc8aW5maWxlLm1hZT4nLCAnLW9tYWUnLCAnPG91dGZpbGUubWFlPic=

> <r_lp_tautomer_probability>
0.999537

> <r_epik_Ionization_Penalty>
0.104106

> <r_epik_Ionization_Penalty_Charging>
0.104106

> <r_epik_Ionization_Penalty_Neutral>
3.94675e-16

> <r_epik_State_Penalty>
0.0940182

> <r_epik_Charging_Adjusted_Penalty>
0.198124

> <i_epik_Tot_Q>
0

> <i_epik_Tot_abs_Q>
0

> <r_epik_Metal_State_Penalty>
3.05314

> <b_epik_Metal_Only>
0

> <s_epik_Chemistry_Notes>
This compound has an ester and may undergo hydrolysis at high or low pH. This compound contains an acetal/aminal-like group ( X-CH(R)-Y where X, Y are N, S, or O) that may be acid/base labile, releasing an aldehyde.

> <s_lp_Force_Field>
OPLS_2005

> <r_lp_Energy>
26.2696

> <b_lp_Chiralities_Consistent>
1

> <s_lp_Variant>
AV-unprocessed.smi:37-6

> <Gold.Version>
5.8.1

> <Gold.Id.Protein>
6NUR|6NUR_protein|mol2

> <Gold.PLP.Fitness>
43.0408

> <Gold.PLP.PLP>
-35.9190

> <Gold.PLP.part.hbond>
-3.9350

> <Gold.PLP.part.metal>
0.0000

> <Gold.PLP.part.buried>
-3.5616

> <Gold.PLP.part.nonpolar>
-28.5606

> <Gold.PLP.part.repulsive>
0.1022

> <Gold.PLP.ligand.clash>
0.0000

> <Gold.PLP.ligand.torsion>
0.7225

> <Gold.PLP.Chemscore.Hbond>
2.8000

> <Gold.PLP.Chemscore.CHOScore>
0.0000

> <Gold.PLP.Chemscore.Metal>
0.0000

> <Gold.Chemscore.Hbonds>
donor molecule, donor type, donor heavy atom, donor atom, acceptor molecule, acceptor atom, score
      P1  H  6896  6907       L1     8  0.74
      P1  H  6934  6947       L1     4  0.90
      P1  H  7997  8009       L1    24  1.00

> <Gold.PLP.Chemscore.Internal.Correction>
0.1668

> <Gold.Rescore>
     Score         DG    S(hbond)    S(metal)    S(lipo)     H(rot)  DE(clash)    DE(int)     intcor
      9.29     -11.45       2.00        0.00      66.73       3.33       0.03       2.13       ----

> <Gold.Chemscore.Fitness>
9.2903

> <Gold.Chemscore.DG>
-11.4530

> <Gold.Chemscore.ZeroCoef>
-5.4800

> <Gold.Chemscore.Hbond>
2.0032

> <Gold.Chemscore.Metal>
0.0000

> <Gold.Chemscore.Lipo>
66.7331

> <Gold.Chemscore.Internal_Hbond>
0.0000

> <Gold.Chemscore.DEClash>
0.0304

> <Gold.Chemscore.DEInternal>
2.1323

> <Gold.Chemscore.Rot>
3.3303

> <Gold.Chemscore.Internal.Correction>
   9.000000E+99

> <Gold.Chemscore.Hbonds>
donor molecule, donor type, donor heavy atom, donor atom, acceptor molecule, acceptor atom, score
      P1  H  6896  6907       L1     8  0.37
      P1  H  6934  6947       L1     4  0.18
      P1  H  7997  8009       L1    24  0.93

> <Gold.Chemscore.Hbond.Weighted>
-6.6908

> <Gold.Chemscore.Metal.Weighted>
-0.0000

> <Gold.Chemscore.Lipo.Weighted>
-7.8078

> <Gold.Chemscore.Internal_Hbond.Weighted>
0.0000

> <Gold.Chemscore.DEClash.Weighted>
0.0304

> <Gold.Chemscore.DEInternal.Weighted>
2.1323

> <Gold.Chemscore.Rot.Weighted>
8.5256

> <Gold.Chemscore.Internal.Correction.Weighted>
   9.000000E+99

> <Gold.Protein.RotatedTorsions>
[ 6907 6896 6895 6894 ] final  -75.94 input  -60.11 | X-H torsion
[ 7974 7965 7964 7962 ] final  161.81 input  175.53 | X-H torsion
[ 8008 7997 7996 7995 ] final -166.80 input   59.86 | X-H torsion
[ 10167 10162 10161 10158 ] final -115.07 input  -65.29 | X-H torsion
[ 10718 10713 10712 10709 ] final -159.74 input   66.30 | X-H torsion
[ 10763 10752 10751 10750 ] final  -21.05 input  -60.55 | X-H torsion
[ 11005 11000 10999 10996 ] final  -38.27 input  -57.11 | X-H torsion

> <Gold.Protein.ActiveResidues>
 VAL166  LYS551  ARG553  GLY616  TRP617  ASP618  TYR619  PRO620  LYS621  CYS622 
 ASP623  PHE694  ASN695  SER759  ASP760  ASP761  ALA762  ILE779  LEU786  VAL792 
 PHE793  MET794  SER795  GLU796  ALA797  LYS798  CYS799  TRP800  GLU811  SER814 

> <Gold.Protein.RotatedAtoms>
  150.7043  134.4646  159.5396 H   0  0  0  0  0  0  0  0  0  0  0  0  # atno 6907 bound_to 6896
  152.2314  134.8315  160.0482 H   0  0  0  0  0  0  0  0  0  0  0  0  # atno 6908 bound_to 6896
  151.9130  133.3531  159.3907 H   0  0  0  0  0  0  0  0  0  0  0  0  # atno 6909 bound_to 6896
  144.7667  139.7951  143.6312 H   0  0  0  0  0  0  0  0  0  0  0  0  # atno 7974 bound_to 7965
  155.8689  140.0990  157.1564 H   0  0  0  0  0  0  0  0  0  0  0  0  # atno 8008 bound_to 7997
  154.3995  140.1351  156.4116 H   0  0  0  0  0  0  0  0  0  0  0  0  # atno 8009 bound_to 7997
  155.7773  140.3459  155.5281 H   0  0  0  0  0  0  0  0  0  0  0  0  # atno 8010 bound_to 7997
  140.0941  143.4673  152.1852 H   0  0  0  0  0  0  0  0  0  0  0  0  # atno 10167 bound_to 10162
  156.5723  130.8694  151.2841 H   0  0  0  0  0  0  0  0  0  0  0  0  # atno 10718 bound_to 10713
  153.6301  135.6989  153.5279 H   0  0  0  0  0  0  0  0  0  0  0  0  # atno 10763 bound_to 10752
  153.2867  135.4169  155.1128 H   0  0  0  0  0  0  0  0  0  0  0  0  # atno 10764 bound_to 10752
  154.8524  135.3615  154.5843 H   0  0  0  0  0  0  0  0  0  0  0  0  # atno 10765 bound_to 10752
  141.0015  133.6953  156.2030 H   0  0  0  0  0  0  0  0  0  0  0  0  # atno 11005 bound_to 11000
  146.1781  139.4960  142.9884 LP  0  0  0  0  0  0  0  0  0  0  0  0  # atno 17320 bound_to 7965
  145.6448  141.0276  143.1792 LP  0  0  0  0  0  0  0  0  0  0  0  0  # atno 17321 bound_to 7965
  139.5708  144.7461  151.3896 LP  0  0  0  0  0  0  0  0  0  0  0  0  # atno 17342 bound_to 10162
  140.7013  143.7625  150.7407 LP  0  0  0  0  0  0  0  0  0  0  0  0  # atno 17343 bound_to 10162
  157.7345  130.9747  150.2033 LP  0  0  0  0  0  0  0  0  0  0  0  0  # atno 17370 bound_to 10713
  156.2703  130.3721  149.8038 LP  0  0  0  0  0  0  0  0  0  0  0  0  # atno 17371 bound_to 10713
  140.6882  134.4694  157.5589 LP  0  0  0  0  0  0  0  0  0  0  0  0  # atno 17394 bound_to 11000
  139.9041  134.8489  156.1776 LP  0  0  0  0  0  0  0  0  0  0  0  0  # atno 17395 bound_to 11000

$$$$
