AV-unprocessed.smi:1383|AV-procd|sdf|5625|dock2
  -GOLD-   22720 5243D 1   1.00000     0.00000
 Structure written by MMmdl.
 30 30  0  0  0  0  0  0  0  0  2 V2000
  151.8053  144.8235  158.5520 C   0  0  0  0  0  0  0  0  0  0  0  0
  151.3043  143.4812  157.9963 C   0  0  0  0  0  0  0  0  0  0  0  0
  152.2496  142.2892  158.2679 C   0  0  1  0  0  0  0  0  0  0  0  0
  152.5966  142.1846  159.7629 C   0  0  0  0  0  0  0  0  0  0  0  0
  151.6536  140.9574  157.7723 C   0  0  0  0  0  0  0  0  0  0  0  0
  150.6589  140.4955  158.3353 O   0  0  0  0  0  0  0  0  0  0  0  0
  152.3435  140.4470  156.7236 N   0  5  0  0  0  0  0  0  0  0  0  0
  151.7176  139.6486  155.8454 C   0  0  0  0  0  0  0  0  0  0  0  0
  150.3977  139.4339  155.8690 N   0  0  0  0  0  0  0  0  0  0  0  0
  149.9505  138.5784  154.8576 C   0  0  0  0  0  0  0  0  0  0  0  0
  148.4917  138.2372  154.7548 C   0  0  0  0  0  0  0  0  0  0  0  0
  147.9133  138.7304  153.4262 C   0  0  0  0  0  0  0  0  0  0  0  0
  148.1991  138.0185  152.3321 N   0  0  0  0  0  0  0  0  0  0  0  0
  147.2259  139.7488  153.3854 O   0  0  0  0  0  0  0  0  0  0  0  0
  150.9622  138.1330  154.0462 C   0  0  0  0  0  0  0  0  0  0  0  0
  152.5043  138.7838  154.5235 S   0  0  0  0  0  0  0  0  0  0  0  0
  151.0717  145.6110  158.3785 H   0  0  0  0  0  0  0  0  0  0  0  0
  152.7372  145.1339  158.0783 H   0  0  0  0  0  0  0  0  0  0  0  0
  151.9799  144.7624  159.6266 H   0  0  0  0  0  0  0  0  0  0  0  0
  150.3321  143.2690  158.4422 H   0  0  0  0  0  0  0  0  0  0  0  0
  151.1236  143.5794  156.9249 H   0  0  0  0  0  0  0  0  0  0  0  0
  153.1852  142.4905  157.7410 H   0  0  0  0  0  0  0  0  0  0  0  0
  153.2573  141.3389  159.9578 H   0  0  0  0  0  0  0  0  0  0  0  0
  151.7025  142.0576  160.3744 H   0  0  0  0  0  0  0  0  0  0  0  0
  153.1081  143.0835  160.1083 H   0  0  0  0  0  0  0  0  0  0  0  0
  148.3469  137.1591  154.8336 H   0  0  0  0  0  0  0  0  0  0  0  0
  147.9279  138.6826  155.5755 H   0  0  0  0  0  0  0  0  0  0  0  0
  147.8535  138.3230  151.4327 H   0  0  0  0  0  0  0  0  0  0  0  0
  148.7751  137.1927  152.4043 H   0  0  0  0  0  0  0  0  0  0  0  0
  150.8941  137.4690  153.1978 H   0  0  0  0  0  0  0  0  0  0  0  0
  1  2  1  0  0  0  0
  1 17  1  0  0  0  0
  1 18  1  0  0  0  0
  1 19  1  0  0  0  0
  2  3  1  0  0  0  0
  2 20  1  0  0  0  0
  2 21  1  0  0  0  0
  3  4  1  0  0  0  0
  3  5  1  0  0  0  0
  3 22  1  0  0  0  0
  4 23  1  0  0  0  0
  4 24  1  0  0  0  0
  4 25  1  0  0  0  0
  5  6  2  0  0  0  0
  5  7  1  0  0  0  0
  7  8  1  0  0  0  0
  8 16  1  0  0  0  0
  8  9  2  0  0  0  0
  9 10  1  0  0  0  0
 10 11  1  0  0  0  0
 10 15  2  0  0  0  0
 11 12  1  0  0  0  0
 11 26  1  0  0  0  0
 11 27  1  0  0  0  0
 12 13  1  0  0  0  0
 12 14  2  0  0  0  0
 13 28  1  0  0  0  0
 13 29  1  0  0  0  0
 15 16  1  0  0  0  0
 15 30  1  0  0  0  0
M  CHG  1   7  -1
M  END
> <s_m_source_file>
AV-unprocessed.smi

> <i_m_source_file_index>
1383

> <i_lp_mmshare_version>
43012

> <i_f3d_flags>
0

> <s_epik_input>
W0NIM11bQ0gyXVtDQEhdKFtDSDNdKUMoPU8pW05IXWMxbmMoW2NIXXMxKVtDSDJdQyg9TylbTkgyXQ==

> <s_epik_cmdline>
J2VwaWtfcHl0aG9uJywgJy1waCcsICc3LjAnLCAnLXRuJywgJzgnLCAnLW1hJywgJzIwMCcsICctbWV0YWxfYmluZGluZycsICctaW1hZScsICc8aW5maWxlLm1hZT4nLCAnLW9tYWUnLCAnPG91dGZpbGUubWFlPic=

> <r_lp_tautomer_probability>
1

> <r_epik_Ionization_Penalty>
5.3563

> <r_epik_Ionization_Penalty_Charging>
4.90463

> <r_epik_Ionization_Penalty_Neutral>
0.451677

> <r_epik_State_Penalty>
4.90447

> <r_epik_Charging_Adjusted_Penalty>
9.8091

> <i_epik_Tot_Q>
-1

> <i_epik_Tot_abs_Q>
1

> <r_epik_Metal_State_Penalty>
1.05508

> <b_epik_Metal_Only>
1

> <s_lp_Force_Field>
OPLS_2005

> <r_lp_Energy>
-0.48596

> <b_lp_Chiralities_Consistent>
1

> <s_lp_Variant>
AV-unprocessed.smi:1383-4

> <Gold.Version>
5.8.1

> <Gold.Id.Protein>
6NUR|6NUR_protein|mol2

> <Gold.PLP.Fitness>
42.9406

> <Gold.PLP.PLP>
-31.2624

> <Gold.PLP.part.hbond>
-2.9377

> <Gold.PLP.part.metal>
0.0000

> <Gold.PLP.part.buried>
-3.2383

> <Gold.PLP.part.nonpolar>
-24.7087

> <Gold.PLP.part.repulsive>
0.2284

> <Gold.PLP.ligand.clash>
0.0000

> <Gold.PLP.ligand.torsion>
0.4801

> <Gold.PLP.Chemscore.Hbond>
3.0000

> <Gold.PLP.Chemscore.CHOScore>
1.1406

> <Gold.PLP.Chemscore.Metal>
0.0000

> <Gold.Chemscore.Hbonds>
donor molecule, donor type, donor heavy atom, donor atom, acceptor molecule, acceptor atom, score
      P1  H  7997  8009       L1     7  1.63
      L1  C    15    30       P1  7948  0.16
      L1  C    15    30       P1  7949  0.93

> <Gold.PLP.Chemscore.Internal.Correction>
0.2167

> <Gold.Rescore>
     Score         DG    S(hbond)    S(metal)    S(lipo)     H(rot)  DE(clash)    DE(int)     intcor
     12.53     -14.45       1.91        0.00      69.25       2.15       0.01       1.91       ----

> <Gold.Chemscore.Fitness>
12.5266

> <Gold.Chemscore.DG>
-14.4479

> <Gold.Chemscore.ZeroCoef>
-5.4800

> <Gold.Chemscore.Hbond>
1.9095

> <Gold.Chemscore.Metal>
0.0000

> <Gold.Chemscore.Lipo>
69.2515

> <Gold.Chemscore.Internal_Hbond>
0.0000

> <Gold.Chemscore.DEClash>
0.0126

> <Gold.Chemscore.DEInternal>
1.9086

> <Gold.Chemscore.Rot>
2.1532

> <Gold.Chemscore.Internal.Correction>
   9.000000E+99

> <Gold.Chemscore.Hbonds>
donor molecule, donor type, donor heavy atom, donor atom, acceptor molecule, acceptor atom, score
      L1  H    13    29       P1  7948  0.02
      P1  H  7997  8009       L1     7  0.57

> <Gold.Chemscore.Hbond.Weighted>
-6.3777

> <Gold.Chemscore.Metal.Weighted>
-0.0000

> <Gold.Chemscore.Lipo.Weighted>
-8.1024

> <Gold.Chemscore.Internal_Hbond.Weighted>
0.0000

> <Gold.Chemscore.DEClash.Weighted>
0.0126

> <Gold.Chemscore.DEInternal.Weighted>
1.9086

> <Gold.Chemscore.Rot.Weighted>
5.5123

> <Gold.Chemscore.Internal.Correction.Weighted>
   9.000000E+99

> <Gold.Protein.RotatedTorsions>
[ 6907 6896 6895 6894 ] final   42.23 input  -60.11 | X-H torsion
[ 7974 7965 7964 7962 ] final -164.65 input  175.53 | X-H torsion
[ 8008 7997 7996 7995 ] final  178.70 input   59.86 | X-H torsion
[ 10167 10162 10161 10158 ] final -125.12 input  -65.29 | X-H torsion
[ 10718 10713 10712 10709 ] final  -97.56 input   66.30 | X-H torsion
[ 10763 10752 10751 10750 ] final   35.82 input  -60.55 | X-H torsion
[ 11005 11000 10999 10996 ] final   30.20 input  -57.11 | X-H torsion

> <Gold.Protein.ActiveResidues>
 VAL166  LYS551  ARG553  GLY616  TRP617  ASP618  TYR619  PRO620  LYS621  CYS622 
 ASP623  PHE694  ASN695  SER759  ASP760  ASP761  ALA762  ILE779  LEU786  VAL792 
 PHE793  MET794  SER795  GLU796  ALA797  LYS798  CYS799  TRP800  GLU811  SER814 

> <Gold.Protein.RotatedAtoms>
  152.2053  134.8551  160.0503 H   0  0  0  0  0  0  0  0  0  0  0  0  # atno 6907 bound_to 6896
  151.9390  133.3627  159.3966 H   0  0  0  0  0  0  0  0  0  0  0  0  # atno 6908 bound_to 6896
  150.6964  134.4384  159.5324 H   0  0  0  0  0  0  0  0  0  0  0  0  # atno 6909 bound_to 6896
  144.7291  140.2929  143.6217 H   0  0  0  0  0  0  0  0  0  0  0  0  # atno 7974 bound_to 7965
  156.0517  140.1327  157.0042 H   0  0  0  0  0  0  0  0  0  0  0  0  # atno 8008 bound_to 7997
  154.4438  140.1009  156.6457 H   0  0  0  0  0  0  0  0  0  0  0  0  # atno 8009 bound_to 7997
  155.5513  140.3463  155.4471 H   0  0  0  0  0  0  0  0  0  0  0  0  # atno 8010 bound_to 7997
  139.9855  143.5696  152.2362 H   0  0  0  0  0  0  0  0  0  0  0  0  # atno 10167 bound_to 10162
  156.0086  130.5200  150.6393 H   0  0  0  0  0  0  0  0  0  0  0  0  # atno 10718 bound_to 10713
  153.0102  135.6322  154.1888 H   0  0  0  0  0  0  0  0  0  0  0  0  # atno 10763 bound_to 10752
  154.1630  135.2822  155.3105 H   0  0  0  0  0  0  0  0  0  0  0  0  # atno 10764 bound_to 10752
  154.5967  135.5600  153.7393 H   0  0  0  0  0  0  0  0  0  0  0  0  # atno 10765 bound_to 10752
  140.2969  134.2801  155.7763 H   0  0  0  0  0  0  0  0  0  0  0  0  # atno 11005 bound_to 11000
  145.7837  139.1901  143.2143 LP  0  0  0  0  0  0  0  0  0  0  0  0  # atno 17320 bound_to 7965
  146.0813  140.7761  142.9640 LP  0  0  0  0  0  0  0  0  0  0  0  0  # atno 17321 bound_to 7965
  139.6378  144.7652  151.2401 LP  0  0  0  0  0  0  0  0  0  0  0  0  # atno 17342 bound_to 10162
  140.7474  143.6368  150.8371 LP  0  0  0  0  0  0  0  0  0  0  0  0  # atno 17343 bound_to 10162
  157.4176  131.0832  151.1162 LP  0  0  0  0  0  0  0  0  0  0  0  0  # atno 17370 bound_to 10713
  157.1774  130.6294  149.5660 LP  0  0  0  0  0  0  0  0  0  0  0  0  # atno 17371 bound_to 10713
  141.2136  133.7621  156.9708 LP  0  0  0  0  0  0  0  0  0  0  0  0  # atno 17394 bound_to 11000
  140.1145  134.9456  157.2113 LP  0  0  0  0  0  0  0  0  0  0  0  0  # atno 17395 bound_to 11000

$$$$
