AV-unprocessed.smi:1120|AV-procd|sdf|4823|dock9
  -GOLD-   22720 3383D 1   1.00000     0.00000
 Structure written by MMmdl.
 47 48  0  0  0  0  0  0  0  0  2 V2000
  152.5012  144.3892  159.6144 C   0  0  0  0  0  0  0  0  0  0  0  0
  151.9321  142.9705  159.4775 C   0  0  2  0  0  0  0  0  0  0  0  0
  153.0448  141.8980  159.5120 C   0  0  0  0  0  0  0  0  0  0  0  0
  152.5028  140.4562  159.3293 C   0  0  0  0  0  0  0  0  0  0  0  0
  151.6436  140.2555  158.0564 C   0  0  2  0  0  0  0  0  0  0  0  0
  152.4934  140.2982  156.8733 N   0  5  0  0  0  0  0  0  0  0  0  0
  152.1135  139.4172  155.5648 S   0  0  0  0  0  0  0  0  0  0  0  0
  151.0705  140.0625  154.7513 O   0  0  0  0  0  0  0  0  0  0  0  0
  153.2971  138.9105  154.8498 O   0  0  0  0  0  0  0  0  0  0  0  0
  151.2928  137.9579  156.3541 C   0  0  0  0  0  0  0  0  0  0  0  0
  151.2037  136.7746  155.3886 C   0  0  0  0  0  0  0  0  0  0  0  0
  151.7995  136.8119  154.3119 O   0  0  0  0  0  0  0  0  0  0  0  0
  150.4766  135.7217  155.7935 N   0  0  0  0  0  0  0  0  0  0  0  0
  150.2770  134.4956  155.0312 C   0  0  0  0  0  0  0  0  0  0  0  0
  150.4914  133.2476  155.9035 C   0  0  0  0  0  0  0  0  0  0  0  0
  150.1013  131.9700  155.1848 C   0  0  0  0  0  0  0  0  0  0  0  0
  150.5403  130.7148  155.6573 C   0  0  0  0  0  0  0  0  0  0  0  0
  150.1541  129.5593  154.9505 C   0  0  0  0  0  0  0  0  0  0  0  0
  149.3504  129.7029  153.8033 C   0  0  0  0  0  0  0  0  0  0  0  0
  148.9668  131.0011  153.4123 C   0  0  0  0  0  0  0  0  0  0  0  0
  149.3303  132.1151  154.0832 N   0  0  0  0  0  0  0  0  0  0  0  0
  150.5608  141.3637  157.9958 C   0  0  0  0  0  0  0  0  0  0  0  0
  151.1115  142.8017  158.1787 C   0  0  0  0  0  0  0  0  0  0  0  0
  153.1776  144.6255  158.7925 H   0  0  0  0  0  0  0  0  0  0  0  0
  153.0574  144.5004  160.5454 H   0  0  0  0  0  0  0  0  0  0  0  0
  151.7043  145.1331  159.6150 H   0  0  0  0  0  0  0  0  0  0  0  0
  151.2664  142.7948  160.3239 H   0  0  0  0  0  0  0  0  0  0  0  0
  153.7889  142.1167  158.7430 H   0  0  0  0  0  0  0  0  0  0  0  0
  153.5774  141.9589  160.4615 H   0  0  0  0  0  0  0  0  0  0  0  0
  153.3308  139.7460  159.3391 H   0  0  0  0  0  0  0  0  0  0  0  0
  151.8930  140.2083  160.1989 H   0  0  0  0  0  0  0  0  0  0  0  0
  151.1458  139.2888  158.1397 H   0  0  0  0  0  0  0  0  0  0  0  0
  151.8426  137.6894  157.2563 H   0  0  0  0  0  0  0  0  0  0  0  0
  150.2898  138.2590  156.6563 H   0  0  0  0  0  0  0  0  0  0  0  0
  150.0114  135.7836  156.6877 H   0  0  0  0  0  0  0  0  0  0  0  0
  149.2597  134.5077  154.6397 H   0  0  0  0  0  0  0  0  0  0  0  0
  150.9427  134.4781  154.1668 H   0  0  0  0  0  0  0  0  0  0  0  0
  151.5357  133.1779  156.2112 H   0  0  0  0  0  0  0  0  0  0  0  0
  149.9077  133.3286  156.8215 H   0  0  0  0  0  0  0  0  0  0  0  0
  151.1598  130.6378  156.5388 H   0  0  0  0  0  0  0  0  0  0  0  0
  150.4691  128.5810  155.2822 H   0  0  0  0  0  0  0  0  0  0  0  0
  149.0355  128.8393  153.2364 H   0  0  0  0  0  0  0  0  0  0  0  0
  148.3505  131.1484  152.5378 H   0  0  0  0  0  0  0  0  0  0  0  0
  149.9999  141.3009  157.0633 H   0  0  0  0  0  0  0  0  0  0  0  0
  149.8331  141.1750  158.7856 H   0  0  0  0  0  0  0  0  0  0  0  0
  150.2761  143.5026  158.1840 H   0  0  0  0  0  0  0  0  0  0  0  0
  151.7235  143.0792  157.3176 H   0  0  0  0  0  0  0  0  0  0  0  0
  1  2  1  0  0  0  0
  1 24  1  0  0  0  0
  1 25  1  0  0  0  0
  1 26  1  0  0  0  0
  2 23  1  0  0  0  0
  2  3  1  0  0  0  0
  2 27  1  0  0  0  0
  3  4  1  0  0  0  0
  3 28  1  0  0  0  0
  3 29  1  0  0  0  0
  4  5  1  0  0  0  0
  4 30  1  0  0  0  0
  4 31  1  0  0  0  0
  5  6  1  0  0  0  0
  5 22  1  0  0  0  0
  5 32  1  0  0  0  0
  6  7  1  0  0  0  0
  7  8  2  0  0  0  0
  7  9  2  0  0  0  0
  7 10  1  0  0  0  0
 10 11  1  0  0  0  0
 10 33  1  0  0  0  0
 10 34  1  0  0  0  0
 11 12  2  0  0  0  0
 11 13  1  0  0  0  0
 13 14  1  0  0  0  0
 13 35  1  0  0  0  0
 14 15  1  0  0  0  0
 14 36  1  0  0  0  0
 14 37  1  0  0  0  0
 15 16  1  0  0  0  0
 15 38  1  0  0  0  0
 15 39  1  0  0  0  0
 16 21  1  0  0  0  0
 16 17  2  0  0  0  0
 17 18  1  0  0  0  0
 17 40  1  0  0  0  0
 18 19  2  0  0  0  0
 18 41  1  0  0  0  0
 19 20  1  0  0  0  0
 19 42  1  0  0  0  0
 20 21  2  0  0  0  0
 20 43  1  0  0  0  0
 22 23  1  0  0  0  0
 22 44  1  0  0  0  0
 22 45  1  0  0  0  0
 23 46  1  0  0  0  0
 23 47  1  0  0  0  0
M  CHG  1   6  -1
M  END
> <s_m_source_file>
AV-unprocessed.smi

> <i_m_source_file_index>
1120

> <i_lp_mmshare_version>
43012

> <i_f3d_flags>
0

> <s_epik_input>
W0NIM11bQ0BASF0xW0NIMl1bQ0gyXVtDQEhdKFtDSDJdW0NIMl0xKVtOSF1TKD1PKSg9TylbQ0gyXUMoPU8pW05IXVtDSDJdW0NIMl1jMltjSF1bY0hdW2NIXVtjSF1uMg==

> <s_epik_cmdline>
J2VwaWtfcHl0aG9uJywgJy1waCcsICc3LjAnLCAnLXRuJywgJzgnLCAnLW1hJywgJzIwMCcsICctbWV0YWxfYmluZGluZycsICctaW1hZScsICc8aW5maWxlLm1hZT4nLCAnLW9tYWUnLCAnPG91dGZpbGUubWFlPic=

> <r_epik_Ionization_Penalty>
5.68623

> <r_epik_Ionization_Penalty_Charging>
5.66033

> <r_epik_Ionization_Penalty_Neutral>
0.0259005

> <r_epik_State_Penalty>
5.67764

> <r_epik_Charging_Adjusted_Penalty>
11.338

> <i_epik_Tot_Q>
-1

> <i_epik_Tot_abs_Q>
1

> <r_epik_Metal_State_Penalty>
1.68319

> <b_epik_Metal_Only>
1

> <s_lp_Force_Field>
OPLS_2005

> <r_lp_Energy>
10.049

> <b_lp_Chiralities_Consistent>
1

> <s_lp_Variant>
AV-unprocessed.smi:1120-6

> <Gold.Version>
5.8.1

> <Gold.Id.Protein>
6NUR|6NUR_protein|mol2

> <Gold.PLP.Fitness>
51.8346

> <Gold.PLP.PLP>
-40.9728

> <Gold.PLP.part.hbond>
-4.0000

> <Gold.PLP.part.metal>
0.0000

> <Gold.PLP.part.buried>
-4.6178

> <Gold.PLP.part.nonpolar>
-32.6027

> <Gold.PLP.part.repulsive>
0.9576

> <Gold.PLP.ligand.clash>
0.0000

> <Gold.PLP.ligand.torsion>
1.7047

> <Gold.PLP.Chemscore.Hbond>
3.4896

> <Gold.PLP.Chemscore.CHOScore>
0.9248

> <Gold.PLP.Chemscore.Metal>
0.0000

> <Gold.Chemscore.Hbonds>
donor molecule, donor type, donor heavy atom, donor atom, acceptor molecule, acceptor atom, score
      P1  H  7989  7998       L1     8  1.00
      P1  H  7997  8010       L1     6  1.46
      P1  H 10752 10763       L1    12  1.00
      L1  C    20    43       P1 10747  0.92

> <Gold.PLP.Chemscore.Internal.Correction>
1.0280

> <Gold.Rescore>
     Score         DG    S(hbond)    S(metal)    S(lipo)     H(rot)  DE(clash)    DE(int)     intcor
     16.01     -19.64       2.12        0.00     101.07       1.86       0.39       3.24       ----

> <Gold.Chemscore.Fitness>
16.0082

> <Gold.Chemscore.DG>
-19.6386

> <Gold.Chemscore.ZeroCoef>
-5.4800

> <Gold.Chemscore.Hbond>
2.1244

> <Gold.Chemscore.Metal>
0.0000

> <Gold.Chemscore.Lipo>
101.0721

> <Gold.Chemscore.Internal_Hbond>
0.0000

> <Gold.Chemscore.DEClash>
0.3896

> <Gold.Chemscore.DEInternal>
3.2408

> <Gold.Chemscore.Rot>
1.8602

> <Gold.Chemscore.Internal.Correction>
   9.000000E+99

> <Gold.Chemscore.Hbonds>
donor molecule, donor type, donor heavy atom, donor atom, acceptor molecule, acceptor atom, score
      P1  H  7989  7998       L1     8  0.87
      P1  H  7997  8010       L1     6  0.16
      P1  H 10752 10763       L1    12  0.92

> <Gold.Chemscore.Hbond.Weighted>
-7.0954

> <Gold.Chemscore.Metal.Weighted>
-0.0000

> <Gold.Chemscore.Lipo.Weighted>
-11.8254

> <Gold.Chemscore.Internal_Hbond.Weighted>
0.0000

> <Gold.Chemscore.DEClash.Weighted>
0.3896

> <Gold.Chemscore.DEInternal.Weighted>
3.2408

> <Gold.Chemscore.Rot.Weighted>
4.7622

> <Gold.Chemscore.Internal.Correction.Weighted>
   9.000000E+99

> <Gold.Protein.RotatedTorsions>
[ 6907 6896 6895 6894 ] final -157.63 input  -60.11 | X-H torsion
[ 7974 7965 7964 7962 ] final   14.20 input  175.53 | X-H torsion
[ 8008 7997 7996 7995 ] final   46.15 input   59.86 | X-H torsion
[ 10167 10162 10161 10158 ] final -132.97 input  -65.29 | X-H torsion
[ 10718 10713 10712 10709 ] final -105.10 input   66.30 | X-H torsion
[ 10763 10752 10751 10750 ] final   28.78 input  -60.55 | X-H torsion
[ 11005 11000 10999 10996 ] final -101.00 input  -57.11 | X-H torsion

> <Gold.Protein.ActiveResidues>
 VAL166  LYS551  ARG553  GLY616  TRP617  ASP618  TYR619  PRO620  LYS621  CYS622 
 ASP623  PHE694  ASN695  SER759  ASP760  ASP761  ALA762  ILE779  LEU786  VAL792 
 PHE793  MET794  SER795  GLU796  ALA797  LYS798  CYS799  TRP800  GLU811  SER814 

> <Gold.Protein.RotatedAtoms>
  151.3059  133.4102  159.2642 H   0  0  0  0  0  0  0  0  0  0  0  0  # atno 6907 bound_to 6896
  151.0156  134.9430  159.8041 H   0  0  0  0  0  0  0  0  0  0  0  0  # atno 6908 bound_to 6896
  152.5311  134.3022  159.9135 H   0  0  0  0  0  0  0  0  0  0  0  0  # atno 6909 bound_to 6896
  146.2311  139.9076  142.8529 H   0  0  0  0  0  0  0  0  0  0  0  0  # atno 7974 bound_to 7965
  155.3477  140.3411  155.4239 H   0  0  0  0  0  0  0  0  0  0  0  0  # atno 8008 bound_to 7997
  156.1780  140.1654  156.8362 H   0  0  0  0  0  0  0  0  0  0  0  0  # atno 8009 bound_to 7997
  154.5303  140.0747  156.8315 H   0  0  0  0  0  0  0  0  0  0  0  0  # atno 8010 bound_to 7997
  139.9031  143.6583  152.2591 H   0  0  0  0  0  0  0  0  0  0  0  0  # atno 10167 bound_to 10162
  156.0332  130.5547  150.7491 H   0  0  0  0  0  0  0  0  0  0  0  0  # atno 10718 bound_to 10713
  153.0470  135.6505  154.0790 H   0  0  0  0  0  0  0  0  0  0  0  0  # atno 10763 bound_to 10752
  154.0486  135.2897  155.3345 H   0  0  0  0  0  0  0  0  0  0  0  0  # atno 10764 bound_to 10752
  154.6735  135.5347  153.8235 H   0  0  0  0  0  0  0  0  0  0  0  0  # atno 10765 bound_to 10752
  141.1248  133.8443  157.1176 H   0  0  0  0  0  0  0  0  0  0  0  0  # atno 11005 bound_to 11000
  145.2261  140.9954  143.4017 LP  0  0  0  0  0  0  0  0  0  0  0  0  # atno 17320 bound_to 7965
  144.9569  139.4021  143.6375 LP  0  0  0  0  0  0  0  0  0  0  0  0  # atno 17321 bound_to 7965
  139.7008  144.7635  151.1277 LP  0  0  0  0  0  0  0  0  0  0  0  0  # atno 17342 bound_to 10162
  140.7702  143.5461  150.9257 LP  0  0  0  0  0  0  0  0  0  0  0  0  # atno 17343 bound_to 10162
  157.5040  131.0920  151.0280 LP  0  0  0  0  0  0  0  0  0  0  0  0  # atno 17370 bound_to 10713
  157.0653  130.5842  149.5393 LP  0  0  0  0  0  0  0  0  0  0  0  0  # atno 17371 bound_to 10713
  140.0237  134.9934  157.0643 LP  0  0  0  0  0  0  0  0  0  0  0  0  # atno 17394 bound_to 11000
  140.4398  134.1693  155.7173 LP  0  0  0  0  0  0  0  0  0  0  0  0  # atno 17395 bound_to 11000

$$$$
