AV-unprocessed.smi:160|AV-procd|sdf|1345|dock9
  -GOLD-   2262019 43D 1   1.00000     0.00000
 Structure written by MMmdl.
 29 30  0  0  0  0  0  0  0  0  1 V2000
  148.4037  135.3920  157.5623 N   0  0  0  0  0  0  0  0  0  0  0  0
  149.6187  135.1624  157.0536 C   0  0  0  0  0  0  0  0  0  0  0  0
  150.2763  134.1645  157.3442 O   0  0  0  0  0  0  0  0  0  0  0  0
  150.1459  136.1984  156.0997 C   0  0  0  0  0  0  0  0  0  0  0  0
  151.4149  136.1176  155.6007 N   0  0  0  0  0  0  0  0  0  0  0  0
  151.4127  137.2107  154.8488 C   0  0  0  0  0  0  0  0  0  0  0  0
  150.2603  137.8881  154.8673 N   0  0  0  0  0  0  0  0  0  0  0  0
  149.8963  139.1694  154.1815 C   0  0  2  0  0  0  0  0  0  0  0  0
  150.7935  140.1503  154.6101 O   0  0  0  0  0  0  0  0  0  0  0  0
  150.1861  140.9572  155.6147 C   0  0  1  0  0  0  0  0  0  0  0  0
  150.9214  142.2996  155.7748 C   0  0  0  0  0  0  0  0  0  0  0  0
  150.3256  143.0588  156.8053 O   0  0  0  0  0  0  0  0  0  0  0  0
  148.7363  141.0467  155.1207 C   0  0  1  0  0  0  0  0  0  0  0  0
  148.6143  142.0481  154.1227 O   0  0  0  0  0  0  0  0  0  0  0  0
  148.4823  139.6401  154.5761 C   0  0  1  0  0  0  0  0  0  0  0  0
  147.5683  139.6365  153.4946 O   0  0  0  0  0  0  0  0  0  0  0  0
  149.4091  137.2364  155.7000 N   0  0  0  0  0  0  0  0  0  0  0  0
  150.0248  138.9676  153.1172 H   0  0  0  0  0  0  0  0  0  0  0  0
  150.1909  140.4201  156.5647 H   0  0  0  0  0  0  0  0  0  0  0  0
  148.0483  141.2917  155.9305 H   0  0  0  0  0  0  0  0  0  0  0  0
  148.0844  139.0066  155.3695 H   0  0  0  0  0  0  0  0  0  0  0  0
  147.9977  134.7355  158.2126 H   0  0  0  0  0  0  0  0  0  0  0  0
  147.9019  136.2264  157.2949 H   0  0  0  0  0  0  0  0  0  0  0  0
  152.2707  137.5251  154.2727 H   0  0  0  0  0  0  0  0  0  0  0  0
  151.9822  142.1522  155.9796 H   0  0  0  0  0  0  0  0  0  0  0  0
  150.8437  142.8815  154.8560 H   0  0  0  0  0  0  0  0  0  0  0  0
  149.9125  143.8162  156.4198 H   0  0  0  0  0  0  0  0  0  0  0  0
  148.5312  142.8862  154.5523 H   0  0  0  0  0  0  0  0  0  0  0  0
  148.0236  139.3508  152.7172 H   0  0  0  0  0  0  0  0  0  0  0  0
  1  2  1  0  0  0  0
  1 22  1  0  0  0  0
  1 23  1  0  0  0  0
  2  3  2  0  0  0  0
  2  4  1  0  0  0  0
  4 17  2  0  0  0  0
  4  5  1  0  0  0  0
  5  6  2  0  0  0  0
  6  7  1  0  0  0  0
  6 24  1  0  0  0  0
  7  8  1  0  0  0  0
  7 17  1  0  0  0  0
  8 18  1  0  0  0  0
  8 15  1  0  0  0  0
  8  9  1  0  0  0  0
  9 10  1  0  0  0  0
 10 19  1  0  0  0  0
 10 11  1  0  0  0  0
 10 13  1  0  0  0  0
 11 12  1  0  0  0  0
 11 25  1  0  0  0  0
 11 26  1  0  0  0  0
 12 27  1  0  0  0  0
 13 20  1  0  0  0  0
 13 14  1  0  0  0  0
 13 15  1  0  0  0  0
 14 28  1  0  0  0  0
 15 21  1  0  0  0  0
 15 16  1  0  0  0  0
 16 29  1  0  0  0  0
M  END
> <s_m_source_file>
AV-unprocessed.smi

> <i_m_source_file_index>
160

> <i_lp_mmshare_version>
43012

> <i_f3d_flags>
0

> <s_epik_input>
W05IMl1DKD1PKWMxbltjSF1uKG4xKVtDQEBIXTJPW0NASF0oW0NIMl1bT0hdKVtDQEBIXShbT0hdKVtDQEhdMltPSF0=

> <s_epik_cmdline>
J2VwaWtfcHl0aG9uJywgJy1waCcsICc3LjAnLCAnLXRuJywgJzgnLCAnLW1hJywgJzIwMCcsICctbWV0YWxfYmluZGluZycsICctaW1hZScsICc8aW5maWxlLm1hZT4nLCAnLW9tYWUnLCAnPG91dGZpbGUubWFlPic=

> <r_lp_tautomer_probability>
1

> <r_epik_Ionization_Penalty>
1.06932e-05

> <r_epik_Ionization_Penalty_Charging>
0

> <r_epik_Ionization_Penalty_Neutral>
1.06932e-05

> <r_epik_State_Penalty>
-0

> <r_epik_Charging_Adjusted_Penalty>
0

> <i_epik_Tot_Q>
0

> <i_epik_Tot_abs_Q>
0

> <r_epik_Metal_State_Penalty>
0.0142097

> <b_epik_Metal_Only>
0

> <s_epik_Chemistry_Notes>
This compound contains an acetal/aminal-like group ( X-CH(R)-Y where X, Y are N, S, or O) that may be acid/base labile, releasing an aldehyde.

> <s_lp_Force_Field>
OPLS_2005

> <r_lp_Energy>
41.9483

> <b_lp_Chiralities_Consistent>
1

> <s_lp_Variant>
AV-unprocessed.smi:160-3

> <Gold.Version>
5.8.1

> <Gold.Id.Protein>
6NUR|6NUR_protein|mol2

> <Gold.PLP.Fitness>
39.8360

> <Gold.PLP.PLP>
-24.4470

> <Gold.PLP.part.hbond>
-6.0000

> <Gold.PLP.part.metal>
0.0000

> <Gold.PLP.part.buried>
-1.0517

> <Gold.PLP.part.nonpolar>
-17.9713

> <Gold.PLP.part.repulsive>
0.3671

> <Gold.PLP.ligand.clash>
0.0000

> <Gold.PLP.ligand.torsion>
0.0343

> <Gold.PLP.Chemscore.Hbond>
5.1456

> <Gold.PLP.Chemscore.CHOScore>
0.0000

> <Gold.PLP.Chemscore.Metal>
0.0000

> <Gold.Chemscore.Hbonds>
donor molecule, donor type, donor heavy atom, donor atom, acceptor molecule, acceptor atom, score
      L1  H    12    27       P1  8028  1.00
      L1  H    14    28       P1  8028  0.71
      L1  H    16    29       P1  7957  0.25
      P1  H  6896  6908       L1     3  0.75
      P1  H  7989  7998       L1     9  1.00
      P1  H  8011  8017       L1    14  0.25
      P1  H 10752 10765       L1     5  0.50

> <Gold.PLP.Chemscore.Internal.Correction>
0.0207

> <Gold.Rescore>
     Score         DG    S(hbond)    S(metal)    S(lipo)     H(rot)  DE(clash)    DE(int)     intcor
     10.46     -11.54       3.99        0.00      26.75       4.06       1.06       0.02       ----

> <Gold.Chemscore.Fitness>
10.4604

> <Gold.Chemscore.DG>
-11.5398

> <Gold.Chemscore.ZeroCoef>
-5.4800

> <Gold.Chemscore.Hbond>
3.9893

> <Gold.Chemscore.Metal>
0.0000

> <Gold.Chemscore.Lipo>
26.7463

> <Gold.Chemscore.Internal_Hbond>
0.0000

> <Gold.Chemscore.DEClash>
1.0590

> <Gold.Chemscore.DEInternal>
0.0203

> <Gold.Chemscore.Rot>
4.0600

> <Gold.Chemscore.Internal.Correction>
   9.000000E+99

> <Gold.Chemscore.Hbonds>
donor molecule, donor type, donor heavy atom, donor atom, acceptor molecule, acceptor atom, score
      L1  H    12    27       P1  8028  0.96
      L1  H    14    28       P1  8028  0.71
      L1  H    16    29       P1  7957  0.25
      P1  H  6896  6908       L1     3  0.69
      P1  H  7989  7998       L1     9  0.87
      P1  H  8011  8017       L1    14  0.13
      P1  H 10752 10765       L1     5  0.02

> <Gold.Chemscore.Hbond.Weighted>
-13.3241

> <Gold.Chemscore.Metal.Weighted>
-0.0000

> <Gold.Chemscore.Lipo.Weighted>
-3.1293

> <Gold.Chemscore.Internal_Hbond.Weighted>
0.0000

> <Gold.Chemscore.DEClash.Weighted>
1.0590

> <Gold.Chemscore.DEInternal.Weighted>
0.0203

> <Gold.Chemscore.Rot.Weighted>
10.3936

> <Gold.Chemscore.Internal.Correction.Weighted>
   9.000000E+99

> <Gold.Protein.RotatedTorsions>
[ 6907 6896 6895 6894 ] final  113.66 input  -60.11 | X-H torsion
[ 7974 7965 7964 7962 ] final -120.49 input  175.53 | X-H torsion
[ 8008 7997 7996 7995 ] final  -12.19 input   59.86 | X-H torsion
[ 10167 10162 10161 10158 ] final  -14.75 input  -65.29 | X-H torsion
[ 10718 10713 10712 10709 ] final -118.89 input   66.30 | X-H torsion
[ 10763 10752 10751 10750 ] final -169.06 input  -60.55 | X-H torsion
[ 11005 11000 10999 10996 ] final  -82.47 input  -57.11 | X-H torsion

> <Gold.Protein.ActiveResidues>
 VAL166  LYS551  ARG553  GLY616  TRP617  ASP618  TYR619  PRO620  LYS621  CYS622 
 ASP623  PHE694  ASN695  SER759  ASP760  ASP761  ALA762  ILE779  LEU786  VAL792 
 PHE793  MET794  SER795  GLU796  ALA797  LYS798  CYS799  TRP800  GLU811  SER814 

> <Gold.Protein.RotatedAtoms>
  152.4848  133.8344  159.7119 H   0  0  0  0  0  0  0  0  0  0  0  0  # atno 6907 bound_to 6896
  150.8925  133.7214  159.2907 H   0  0  0  0  0  0  0  0  0  0  0  0  # atno 6908 bound_to 6896
  151.4682  135.1047  159.9796 H   0  0  0  0  0  0  0  0  0  0  0  0  # atno 6909 bound_to 6896
  145.0508  140.8217  143.4210 H   0  0  0  0  0  0  0  0  0  0  0  0  # atno 7974 bound_to 7965
  154.5398  140.2282  155.8660 H   0  0  0  0  0  0  0  0  0  0  0  0  # atno 8008 bound_to 7997
  156.1847  140.3091  155.9179 H   0  0  0  0  0  0  0  0  0  0  0  0  # atno 8009 bound_to 7997
  155.3280  140.0444  157.3032 H   0  0  0  0  0  0  0  0  0  0  0  0  # atno 8010 bound_to 7997
  140.7207  143.5289  150.9543 H   0  0  0  0  0  0  0  0  0  0  0  0  # atno 10167 bound_to 10162
  156.1140  130.6271  150.9347 H   0  0  0  0  0  0  0  0  0  0  0  0  # atno 10718 bound_to 10713
  154.6563  135.2918  154.9924 H   0  0  0  0  0  0  0  0  0  0  0  0  # atno 10763 bound_to 10752
  154.0999  135.6578  153.4870 H   0  0  0  0  0  0  0  0  0  0  0  0  # atno 10764 bound_to 10752
  153.0404  135.5240  154.7493 H   0  0  0  0  0  0  0  0  0  0  0  0  # atno 10765 bound_to 10752
  141.1663  133.7246  156.8576 H   0  0  0  0  0  0  0  0  0  0  0  0  # atno 11005 bound_to 11000
  145.1530  139.2503  143.5431 LP  0  0  0  0  0  0  0  0  0  0  0  0  # atno 17320 bound_to 7965
  146.3518  140.1237  142.8599 LP  0  0  0  0  0  0  0  0  0  0  0  0  # atno 17321 bound_to 7965
  139.9009  143.6837  152.3131 LP  0  0  0  0  0  0  0  0  0  0  0  0  # atno 17342 bound_to 10162
  139.7186  144.7607  151.0992 LP  0  0  0  0  0  0  0  0  0  0  0  0  # atno 17343 bound_to 10162
  157.6322  131.0920  150.8419 LP  0  0  0  0  0  0  0  0  0  0  0  0  # atno 17370 bound_to 10713
  156.8525  130.5085  149.5310 LP  0  0  0  0  0  0  0  0  0  0  0  0  # atno 17371 bound_to 10713
  140.1871  134.8992  157.3017 LP  0  0  0  0  0  0  0  0  0  0  0  0  # atno 17394 bound_to 11000
  140.2331  134.3885  155.7513 LP  0  0  0  0  0  0  0  0  0  0  0  0  # atno 17395 bound_to 11000

$$$$
