AV-unprocessed.smi:714|AV-procd|sdf|3482|dock4
  -GOLD-   22720 0473D 1   1.00000     0.00000
 Structure written by MMmdl.
 38 39  0  0  0  0  0  0  0  0  1 V2000
  147.1539  134.3485  162.3708 C   0  0  0  0  0  0  0  0  0  0  0  0
  147.2560  134.6898  161.2027 C   0  0  0  0  0  0  0  0  0  0  0  0
  147.3909  135.0852  159.7906 C   0  0  0  0  0  0  0  0  0  0  0  0
  148.5550  135.9322  159.5566 N   0  0  0  0  0  0  0  0  0  0  0  0
  148.5265  137.2065  159.1263 C   0  0  0  0  0  0  0  0  0  0  0  0
  147.4661  137.7937  158.9049 O   0  0  0  0  0  0  0  0  0  0  0  0
  149.8553  137.7981  158.9489 C   0  0  0  0  0  0  0  0  0  0  0  0
  151.0584  137.2381  159.5421 C   0  0  0  0  0  0  0  0  0  0  0  0
  152.2573  137.8088  159.3215 C   0  0  0  0  0  0  0  0  0  0  0  0
  152.4047  139.0054  158.4890 C   0  0  0  0  0  0  0  0  0  0  0  0
  153.5115  139.5005  158.2740 O   0  0  0  0  0  0  0  0  0  0  0  0
  151.2439  139.5258  157.9681 N   0  0  0  0  0  0  0  0  0  0  0  0
  151.2101  140.7445  157.1196 C   0  0  2  0  0  0  0  0  0  0  0  0
  150.2278  141.8149  157.6372 C   0  0  0  0  0  0  0  0  0  0  0  0
  149.4043  142.2590  156.4189 C   0  0  0  0  0  0  0  0  0  0  0  0
  149.7669  141.3468  155.3463 N   0  0  0  0  0  0  0  0  0  0  0  0
  149.0813  141.4074  154.0572 C   0  0  0  0  0  0  0  0  0  0  0  0
  147.5586  141.2202  154.1914 C   0  0  0  0  0  0  0  0  0  0  0  0
  147.0954  140.6397  153.0852 F   0  0  0  0  0  0  0  0  0  0  0  0
  147.2550  140.4456  155.2326 F   0  0  0  0  0  0  0  0  0  0  0  0
  146.9571  142.4013  154.3345 F   0  0  0  0  0  0  0  0  0  0  0  0
  150.7551  140.5095  155.6798 C   0  0  0  0  0  0  0  0  0  0  0  0
  151.2642  139.6606  154.9486 O   0  0  0  0  0  0  0  0  0  0  0  0
  149.9960  138.9061  158.1951 C   0  0  0  0  0  0  0  0  0  0  0  0
  147.0679  134.0468  163.3906 H   0  0  0  0  0  0  0  0  0  0  0  0
  147.4202  134.1850  159.1748 H   0  0  0  0  0  0  0  0  0  0  0  0
  146.4935  135.6362  159.5098 H   0  0  0  0  0  0  0  0  0  0  0  0
  149.4587  135.5139  159.7218 H   0  0  0  0  0  0  0  0  0  0  0  0
  151.0219  136.3578  160.1669 H   0  0  0  0  0  0  0  0  0  0  0  0
  153.1377  137.3734  159.7712 H   0  0  0  0  0  0  0  0  0  0  0  0
  152.1987  141.1982  157.0374 H   0  0  0  0  0  0  0  0  0  0  0  0
  149.5647  141.4308  158.4129 H   0  0  0  0  0  0  0  0  0  0  0  0
  150.7636  142.6569  158.0769 H   0  0  0  0  0  0  0  0  0  0  0  0
  148.3340  142.2123  156.6230 H   0  0  0  0  0  0  0  0  0  0  0  0
  149.6519  143.2813  156.1304 H   0  0  0  0  0  0  0  0  0  0  0  0
  149.2914  142.3702  153.5896 H   0  0  0  0  0  0  0  0  0  0  0  0
  149.4938  140.6498  153.3890 H   0  0  0  0  0  0  0  0  0  0  0  0
  149.1587  139.3883  157.7109 H   0  0  0  0  0  0  0  0  0  0  0  0
  1  2  3  0  0  0  0
  1 25  1  0  0  0  0
  2  3  1  0  0  0  0
  3  4  1  0  0  0  0
  3 26  1  0  0  0  0
  3 27  1  0  0  0  0
  4  5  1  0  0  0  0
  4 28  1  0  0  0  0
  5  6  2  0  0  0  0
  5  7  1  0  0  0  0
  7 24  2  0  0  0  0
  7  8  1  0  0  0  0
  8  9  2  0  0  0  0
  8 29  1  0  0  0  0
  9 10  1  0  0  0  0
  9 30  1  0  0  0  0
 10 11  2  0  0  0  0
 10 12  1  0  0  0  0
 12 13  1  0  0  0  0
 12 24  1  0  0  0  0
 13 22  1  0  0  0  0
 13 14  1  0  0  0  0
 13 31  1  0  0  0  0
 14 15  1  0  0  0  0
 14 32  1  0  0  0  0
 14 33  1  0  0  0  0
 15 16  1  0  0  0  0
 15 34  1  0  0  0  0
 15 35  1  0  0  0  0
 16 17  1  0  0  0  0
 16 22  1  0  0  0  0
 17 18  1  0  0  0  0
 17 36  1  0  0  0  0
 17 37  1  0  0  0  0
 18 19  1  0  0  0  0
 18 20  1  0  0  0  0
 18 21  1  0  0  0  0
 22 23  2  0  0  0  0
 24 38  1  0  0  0  0
M  END
> <s_m_source_file>
AV-unprocessed.smi

> <i_m_source_file_index>
714

> <i_lp_mmshare_version>
43012

> <i_f3d_flags>
0

> <s_epik_input>
W0NIXSNDW0NIMl1bTkhdQyg9TyljMVtjSF1bY0hdYyg9TyluKFtjSF0xKVtDQEBIXTJbQ0gyXVtDSDJdTihDMj1PKVtDSDJdQyhGKShGKUY=

> <s_epik_cmdline>
J2VwaWtfcHl0aG9uJywgJy1waCcsICc3LjAnLCAnLXRuJywgJzgnLCAnLW1hJywgJzIwMCcsICctbWV0YWxfYmluZGluZycsICctaW1hZScsICc8aW5maWxlLm1hZT4nLCAnLW9tYWUnLCAnPG91dGZpbGUubWFlPic=

> <r_lp_tautomer_probability>
1

> <r_epik_Ionization_Penalty>
2.95503e-06

> <r_epik_Ionization_Penalty_Charging>
5.74209e-08

> <r_epik_Ionization_Penalty_Neutral>
2.89761e-06

> <r_epik_State_Penalty>
-0

> <r_epik_Charging_Adjusted_Penalty>
5.74209e-08

> <i_epik_Tot_Q>
0

> <i_epik_Tot_abs_Q>
0

> <r_epik_Metal_State_Penalty>
-0

> <b_epik_Metal_Only>
0

> <s_lp_Force_Field>
OPLS_2005

> <r_lp_Energy>
34.0974

> <b_lp_Chiralities_Consistent>
1

> <s_lp_Variant>
AV-unprocessed.smi:714-1

> <Gold.Version>
5.8.1

> <Gold.Id.Protein>
6NUR|6NUR_protein|mol2

> <Gold.PLP.Fitness>
43.9976

> <Gold.PLP.PLP>
-39.3481

> <Gold.PLP.part.hbond>
-3.0000

> <Gold.PLP.part.metal>
0.0000

> <Gold.PLP.part.buried>
1.4482

> <Gold.PLP.part.nonpolar>
-38.3179

> <Gold.PLP.part.repulsive>
0.2074

> <Gold.PLP.ligand.clash>
0.0000

> <Gold.PLP.ligand.torsion>
0.7872

> <Gold.PLP.Chemscore.Hbond>
1.9934

> <Gold.PLP.Chemscore.CHOScore>
0.0000

> <Gold.PLP.Chemscore.Metal>
0.0000

> <Gold.Chemscore.Hbonds>
donor molecule, donor type, donor heavy atom, donor atom, acceptor molecule, acceptor atom, score
      P1  H  6934  6947       L1     6  0.10
      P1  H  7989  7998       L1    23  0.80
      P1  H  7997  8008       L1    11  0.98

> <Gold.PLP.Chemscore.Internal.Correction>
0.2436

> <Gold.Rescore>
     Score         DG    S(hbond)    S(metal)    S(lipo)     H(rot)  DE(clash)    DE(int)     intcor
     14.42     -16.58       2.19        0.00      67.66       1.61       1.53       0.63       ----

> <Gold.Chemscore.Fitness>
14.4193

> <Gold.Chemscore.DG>
-16.5824

> <Gold.Chemscore.ZeroCoef>
-5.4800

> <Gold.Chemscore.Hbond>
2.1907

> <Gold.Chemscore.Metal>
0.0000

> <Gold.Chemscore.Lipo>
67.6590

> <Gold.Chemscore.Internal_Hbond>
0.0000

> <Gold.Chemscore.DEClash>
1.5302

> <Gold.Chemscore.DEInternal>
0.6329

> <Gold.Chemscore.Rot>
1.6136

> <Gold.Chemscore.Internal.Correction>
   9.000000E+99

> <Gold.Chemscore.Hbonds>
donor molecule, donor type, donor heavy atom, donor atom, acceptor molecule, acceptor atom, score
      P1  H  6934  6947       L1     6  0.03
      P1  H  7989  7998       L1    23  0.12
      P1  H  7997  8008       L1    11  0.93

> <Gold.Chemscore.Hbond.Weighted>
-7.3171

> <Gold.Chemscore.Metal.Weighted>
-0.0000

> <Gold.Chemscore.Lipo.Weighted>
-7.9161

> <Gold.Chemscore.Internal_Hbond.Weighted>
0.0000

> <Gold.Chemscore.DEClash.Weighted>
1.5302

> <Gold.Chemscore.DEInternal.Weighted>
0.6329

> <Gold.Chemscore.Rot.Weighted>
4.1308

> <Gold.Chemscore.Internal.Correction.Weighted>
   9.000000E+99

> <Gold.Protein.RotatedTorsions>
[ 6907 6896 6895 6894 ] final -173.61 input  -60.11 | X-H torsion
[ 7974 7965 7964 7962 ] final  -76.42 input  175.53 | X-H torsion
[ 8008 7997 7996 7995 ] final -110.86 input   59.86 | X-H torsion
[ 10167 10162 10161 10158 ] final -130.17 input  -65.29 | X-H torsion
[ 10718 10713 10712 10709 ] final  -41.89 input   66.30 | X-H torsion
[ 10763 10752 10751 10750 ] final  -63.20 input  -60.55 | X-H torsion
[ 11005 11000 10999 10996 ] final -166.28 input  -57.11 | X-H torsion

> <Gold.Protein.ActiveResidues>
 VAL166  LYS551  ARG553  GLY616  TRP617  ASP618  TYR619  PRO620  LYS621  CYS622 
 ASP623  PHE694  ASN695  SER759  ASP760  ASP761  ALA762  ILE779  LEU786  VAL792 
 PHE793  MET794  SER795  GLU796  ALA797  LYS798  CYS799  TRP800  GLU811  SER814 

> <Gold.Protein.RotatedAtoms>
  151.5589  133.3406  159.2967 H   0  0  0  0  0  0  0  0  0  0  0  0  # atno 6907 bound_to 6896
  150.8434  134.7737  159.6962 H   0  0  0  0  0  0  0  0  0  0  0  0  # atno 6908 bound_to 6896
  152.4497  134.5427  159.9895 H   0  0  0  0  0  0  0  0  0  0  0  0  # atno 6909 bound_to 6896
  145.6131  140.9382  143.1179 H   0  0  0  0  0  0  0  0  0  0  0  0  # atno 7974 bound_to 7965
  154.9810  140.0396  157.2277 H   0  0  0  0  0  0  0  0  0  0  0  0  # atno 8008 bound_to 7997
  154.7714  140.2802  155.6112 H   0  0  0  0  0  0  0  0  0  0  0  0  # atno 8009 bound_to 7997
  156.2921  140.2609  156.2518 H   0  0  0  0  0  0  0  0  0  0  0  0  # atno 8010 bound_to 7997
  139.9321  143.6259  152.2527 H   0  0  0  0  0  0  0  0  0  0  0  0  # atno 10167 bound_to 10162
  156.2654  130.4201  149.8496 H   0  0  0  0  0  0  0  0  0  0  0  0  # atno 10718 bound_to 10713
  154.3115  135.6214  153.5467 H   0  0  0  0  0  0  0  0  0  0  0  0  # atno 10763 bound_to 10752
  152.9829  135.5702  154.5172 H   0  0  0  0  0  0  0  0  0  0  0  0  # atno 10764 bound_to 10752
  154.4823  135.2863  155.1538 H   0  0  0  0  0  0  0  0  0  0  0  0  # atno 10765 bound_to 10752
  140.5663  134.5283  157.5153 H   0  0  0  0  0  0  0  0  0  0  0  0  # atno 11005 bound_to 11000
  144.7262  139.7870  143.7364 LP  0  0  0  0  0  0  0  0  0  0  0  0  # atno 17320 bound_to 7965
  146.1489  139.4566  143.0061 LP  0  0  0  0  0  0  0  0  0  0  0  0  # atno 17321 bound_to 7965
  139.6773  144.7658  151.1672 LP  0  0  0  0  0  0  0  0  0  0  0  0  # atno 17342 bound_to 10162
  140.7634  143.5776  150.8929 LP  0  0  0  0  0  0  0  0  0  0  0  0  # atno 17343 bound_to 10162
  156.5996  130.8541  151.3428 LP  0  0  0  0  0  0  0  0  0  0  0  0  # atno 17370 bound_to 10713
  157.7265  130.9631  150.1661 LP  0  0  0  0  0  0  0  0  0  0  0  0  # atno 17371 bound_to 10713
  139.9383  134.7834  156.0744 LP  0  0  0  0  0  0  0  0  0  0  0  0  # atno 17394 bound_to 11000
  141.1084  133.6652  156.2918 LP  0  0  0  0  0  0  0  0  0  0  0  0  # atno 17395 bound_to 11000

$$$$
