AV-unprocessed.smi:1720|AV-procd|sdf|6932|dock8
  -GOLD-   22720 8143D 1   1.00000     0.00000
 Structure written by MMmdl.
 32 33  0  0  0  0  0  0  0  0  1 V2000
  152.8193  144.6332  157.9773 C   0  0  0  0  0  0  0  0  0  0  0  0
  151.5201  144.1107  158.6078 C   0  0  1  0  0  0  0  0  0  0  0  0
  150.6560  143.5970  157.5461 N   0  0  0  0  0  0  0  0  0  0  0  0
  150.7014  142.3626  157.0238 C   0  0  0  0  0  0  0  0  0  0  0  0
  151.5015  141.4975  157.3800 O   0  0  0  0  0  0  0  0  0  0  0  0
  149.7707  142.2055  156.0685 N   0  0  0  0  0  0  0  0  0  0  0  0
  149.5191  141.0444  155.2945 C   0  0  0  0  0  0  0  0  0  0  0  0
  150.2916  139.8526  155.3486 C   0  0  0  0  0  0  0  0  0  0  0  0
  149.8234  138.9344  154.5155 N   0  0  0  0  0  0  0  0  0  0  0  0
  148.7603  139.5295  153.9285 N   0  0  0  0  0  0  0  0  0  0  0  0
  148.5380  140.8148  154.3710 C   0  0  0  0  0  0  0  0  0  0  0  0
  151.7915  143.0166  159.6611 C   0  0  2  0  0  0  0  0  0  0  0  0
  152.1160  143.5348  161.0648 C   0  0  0  0  0  0  0  0  0  0  0  0
  152.8983  142.3798  161.6449 C   0  0  0  0  0  0  0  0  0  0  0  0
  153.7168  141.9288  160.4398 C   0  0  0  0  0  0  0  0  0  0  0  0
  152.9299  142.2396  159.2928 O   0  0  0  0  0  0  0  0  0  0  0  0
  148.2022  139.0506  153.2360 H   0  0  0  0  0  0  0  0  0  0  0  0
  153.4742  145.0714  158.7311 H   0  0  0  0  0  0  0  0  0  0  0  0
  152.6129  145.4059  157.2361 H   0  0  0  0  0  0  0  0  0  0  0  0
  153.3714  143.8339  157.4815 H   0  0  0  0  0  0  0  0  0  0  0  0
  151.0369  144.9537  159.1053 H   0  0  0  0  0  0  0  0  0  0  0  0
  149.9635  144.2359  157.1837 H   0  0  0  0  0  0  0  0  0  0  0  0
  149.1822  143.0014  155.8709 H   0  0  0  0  0  0  0  0  0  0  0  0
  151.1582  139.6273  155.9529 H   0  0  0  0  0  0  0  0  0  0  0  0
  147.7278  141.4230  153.9969 H   0  0  0  0  0  0  0  0  0  0  0  0
  150.9386  142.3386  159.7256 H   0  0  0  0  0  0  0  0  0  0  0  0
  152.7487  144.4221  161.0122 H   0  0  0  0  0  0  0  0  0  0  0  0
  151.2265  143.7825  161.6447 H   0  0  0  0  0  0  0  0  0  0  0  0
  153.5151  142.6614  162.4989 H   0  0  0  0  0  0  0  0  0  0  0  0
  152.2181  141.5864  161.9581 H   0  0  0  0  0  0  0  0  0  0  0  0
  154.6490  142.4919  160.3806 H   0  0  0  0  0  0  0  0  0  0  0  0
  153.9647  140.8680  160.4785 H   0  0  0  0  0  0  0  0  0  0  0  0
  1  2  1  0  0  0  0
  1 18  1  0  0  0  0
  1 19  1  0  0  0  0
  1 20  1  0  0  0  0
  2  3  1  0  0  0  0
  2 12  1  0  0  0  0
  2 21  1  0  0  0  0
  3  4  1  0  0  0  0
  3 22  1  0  0  0  0
  4  5  2  0  0  0  0
  4  6  1  0  0  0  0
  6  7  1  0  0  0  0
  6 23  1  0  0  0  0
  7 11  2  0  0  0  0
  7  8  1  0  0  0  0
  8  9  2  0  0  0  0
  8 24  1  0  0  0  0
  9 10  1  0  0  0  0
 10 17  1  0  0  0  0
 10 11  1  0  0  0  0
 11 25  1  0  0  0  0
 12 16  1  0  0  0  0
 12 13  1  0  0  0  0
 12 26  1  0  0  0  0
 13 14  1  0  0  0  0
 13 27  1  0  0  0  0
 13 28  1  0  0  0  0
 14 15  1  0  0  0  0
 14 29  1  0  0  0  0
 14 30  1  0  0  0  0
 15 16  1  0  0  0  0
 15 31  1  0  0  0  0
 15 32  1  0  0  0  0
M  END
> <s_m_source_file>
AV-unprocessed.smi

> <i_m_source_file_index>
1720

> <i_lp_mmshare_version>
43012

> <i_f3d_flags>
0

> <s_epik_input>
TzFbQ0gyXVtDSDJdW0NIMl1bQ0BIXTFbQ0BIXShbQ0gzXSlbTkhdQyg9TylbTkhdYzJbY0hdbltuSF1bY0hdMg==

> <s_epik_cmdline>
J2VwaWtfcHl0aG9uJywgJy1waCcsICc3LjAnLCAnLXRuJywgJzgnLCAnLW1hJywgJzIwMCcsICctbWV0YWxfYmluZGluZycsICctaW1hZScsICc8aW5maWxlLm1hZT4nLCAnLW9tYWUnLCAnPG91dGZpbGUubWFlPic=

> <r_lp_tautomer_probability>
1

> <r_epik_Ionization_Penalty>
4.95841e-05

> <r_epik_Ionization_Penalty_Charging>
0

> <r_epik_Ionization_Penalty_Neutral>
4.95841e-05

> <r_epik_State_Penalty>
-0

> <r_epik_Charging_Adjusted_Penalty>
0

> <i_epik_Tot_Q>
0

> <i_epik_Tot_abs_Q>
0

> <r_epik_Metal_State_Penalty>
-0

> <b_epik_Metal_Only>
0

> <s_lp_Force_Field>
OPLS_2005

> <r_lp_Energy>
20.0519

> <b_lp_Chiralities_Consistent>
1

> <s_lp_Variant>
AV-unprocessed.smi:1720-2

> <Gold.Version>
5.8.1

> <Gold.Id.Protein>
6NUR|6NUR_protein|mol2

> <Gold.PLP.Fitness>
43.5142

> <Gold.PLP.PLP>
-39.5180

> <Gold.PLP.part.hbond>
-3.0000

> <Gold.PLP.part.metal>
0.0000

> <Gold.PLP.part.buried>
-5.4558

> <Gold.PLP.part.nonpolar>
-32.1925

> <Gold.PLP.part.repulsive>
0.4343

> <Gold.PLP.ligand.clash>
0.0000

> <Gold.PLP.ligand.torsion>
0.9464

> <Gold.PLP.Chemscore.Hbond>
1.9600

> <Gold.PLP.Chemscore.CHOScore>
0.0000

> <Gold.PLP.Chemscore.Metal>
0.0000

> <Gold.Chemscore.Hbonds>
donor molecule, donor type, donor heavy atom, donor atom, acceptor molecule, acceptor atom, score
      L1  H     3    22       P1  8028  0.94
      L1  H     6    23       P1  8028  1.00

> <Gold.PLP.Chemscore.Internal.Correction>
0.0089

> <Gold.Rescore>
     Score         DG    S(hbond)    S(metal)    S(lipo)     H(rot)  DE(clash)    DE(int)     intcor
     13.93     -19.47       1.89        0.00      94.19       1.31       0.05       5.49       ----

> <Gold.Chemscore.Fitness>
13.9347

> <Gold.Chemscore.DG>
-19.4738

> <Gold.Chemscore.ZeroCoef>
-5.4800

> <Gold.Chemscore.Hbond>
1.8928

> <Gold.Chemscore.Metal>
0.0000

> <Gold.Chemscore.Lipo>
94.1897

> <Gold.Chemscore.Internal_Hbond>
0.0000

> <Gold.Chemscore.DEClash>
0.0541

> <Gold.Chemscore.DEInternal>
5.4850

> <Gold.Chemscore.Rot>
1.3079

> <Gold.Chemscore.Internal.Correction>
   9.000000E+99

> <Gold.Chemscore.Hbonds>
donor molecule, donor type, donor heavy atom, donor atom, acceptor molecule, acceptor atom, score
      L1  H     3    22       P1  8028  0.59
      L1  H     6    23       P1  8028  0.98

> <Gold.Chemscore.Hbond.Weighted>
-6.3219

> <Gold.Chemscore.Metal.Weighted>
-0.0000

> <Gold.Chemscore.Lipo.Weighted>
-11.0202

> <Gold.Chemscore.Internal_Hbond.Weighted>
0.0000

> <Gold.Chemscore.DEClash.Weighted>
0.0541

> <Gold.Chemscore.DEInternal.Weighted>
5.4850

> <Gold.Chemscore.Rot.Weighted>
3.3483

> <Gold.Chemscore.Internal.Correction.Weighted>
   9.000000E+99

> <Gold.Protein.RotatedTorsions>
[ 6907 6896 6895 6894 ] final   -0.80 input  -60.11 | X-H torsion
[ 7974 7965 7964 7962 ] final   17.62 input  175.53 | X-H torsion
[ 8008 7997 7996 7995 ] final  127.30 input   59.86 | X-H torsion
[ 10167 10162 10161 10158 ] final -110.81 input  -65.29 | X-H torsion
[ 10718 10713 10712 10709 ] final  -30.42 input   66.30 | X-H torsion
[ 10763 10752 10751 10750 ] final  173.54 input  -60.55 | X-H torsion
[ 11005 11000 10999 10996 ] final -156.78 input  -57.11 | X-H torsion

> <Gold.Protein.ActiveResidues>
 VAL166  LYS551  ARG553  GLY616  TRP617  ASP618  TYR619  PRO620  LYS621  CYS622 
 ASP623  PHE694  ASN695  SER759  ASP760  ASP761  ALA762  ILE779  LEU786  VAL792 
 PHE793  MET794  SER795  GLU796  ALA797  LYS798  CYS799  TRP800  GLU811  SER814 

> <Gold.Protein.RotatedAtoms>
  151.5563  135.1066  159.9961 H   0  0  0  0  0  0  0  0  0  0  0  0  # atno 6907 bound_to 6896
  152.4468  133.7547  159.6724 H   0  0  0  0  0  0  0  0  0  0  0  0  # atno 6908 bound_to 6896
  150.8385  133.7907  159.3094 H   0  0  0  0  0  0  0  0  0  0  0  0  # atno 6909 bound_to 6896
  146.2212  139.8575  142.8611 H   0  0  0  0  0  0  0  0  0  0  0  0  # atno 7974 bound_to 7965
  156.2887  140.2672  156.2251 H   0  0  0  0  0  0  0  0  0  0  0  0  # atno 8008 bound_to 7997
  155.0129  140.0387  157.2424 H   0  0  0  0  0  0  0  0  0  0  0  0  # atno 8009 bound_to 7997
  154.7502  140.2741  155.6304 H   0  0  0  0  0  0  0  0  0  0  0  0  # atno 8010 bound_to 7997
  140.1404  143.4284  152.1566 H   0  0  0  0  0  0  0  0  0  0  0  0  # atno 10167 bound_to 10162
  156.4000  130.4388  149.7329 H   0  0  0  0  0  0  0  0  0  0  0  0  # atno 10718 bound_to 10713
  154.4415  135.2762  155.1844 H   0  0  0  0  0  0  0  0  0  0  0  0  # atno 10763 bound_to 10752
  154.3708  135.6109  153.5743 H   0  0  0  0  0  0  0  0  0  0  0  0  # atno 10764 bound_to 10752
  152.9841  135.5857  154.4744 H   0  0  0  0  0  0  0  0  0  0  0  0  # atno 10765 bound_to 10752
  140.6718  134.4239  157.5231 H   0  0  0  0  0  0  0  0  0  0  0  0  # atno 11005 bound_to 11000
  145.2738  141.0117  143.3756 LP  0  0  0  0  0  0  0  0  0  0  0  0  # atno 17320 bound_to 7965
  144.9203  139.4420  143.6544 LP  0  0  0  0  0  0  0  0  0  0  0  0  # atno 17321 bound_to 7965
  139.5475  144.7310  151.4539 LP  0  0  0  0  0  0  0  0  0  0  0  0  # atno 17342 bound_to 10162
  140.6764  143.8181  150.7063 LP  0  0  0  0  0  0  0  0  0  0  0  0  # atno 17343 bound_to 10162
  156.4349  130.7833  151.2853 LP  0  0  0  0  0  0  0  0  0  0  0  0  # atno 17370 bound_to 10713
  157.7503  131.0142  150.3457 LP  0  0  0  0  0  0  0  0  0  0  0  0  # atno 17371 bound_to 10713
  139.8979  134.8625  156.2024 LP  0  0  0  0  0  0  0  0  0  0  0  0  # atno 17394 bound_to 11000
  141.0386  133.6950  156.1557 LP  0  0  0  0  0  0  0  0  0  0  0  0  # atno 17395 bound_to 11000

$$$$
