#       Name:                AV-unprocessed.smi:2252
#       Creating user name   scv26
#       Creation time:       Fri Mar 27 12:30:57 2020


#       File generated by GOLD software.
#

@<TRIPOS>MOLECULE
AV-unprocessed.smi:2252
    48    50     1
SMALL
NO_CHARGES


@<TRIPOS>ATOM
      1 ****        -4.0638   1.8439  -1.0399 C.3            1 S1                 0.0000
      2 ****        -4.6643   1.0438   0.0299 N.pl3          1 S1                 0.0000
      3 ****        -6.0023   0.8180   0.2302 C.2            1 S1                 0.0000
      4 ****        -6.1042   0.0169   1.3376 C.2            1 S1                 0.0000
      5 ****        -4.8253  -0.2124   1.7679 N.pl3          1 S1                 1.0000
      6 ****        -3.9475   0.4149   0.9761 C.2            1 S1                 0.0000
      7 ****        -2.4594   0.3824   1.1287 C.3            1 S1                 0.0000
      8 ****        -1.8027  -0.7410   0.3101 C.3            1 S1                 0.0000
      9 ****        -0.3529  -0.7287   0.4560 N.am           1 S1                 0.0000
     10 ****         0.4733   0.1220  -0.1730 C.2            1 S1                 0.0000
     11 ****         0.0790   0.9839  -0.9597 O.2            1 S1                 0.0000
     12 ****         1.9766  -0.0310   0.1206 C.3            1 S1                 0.0000
     13 ****         2.5459   1.3146   0.6216 C.3            1 S1                 0.0000
     14 ****         3.3976   1.3829   1.8719 C.3            1 S1                 0.0000
     15 ****         2.0085   1.9608   1.8836 C.3            1 S1                 0.0000
     16 ****         2.7448  -0.5250  -1.0489 N.3            1 S1                 0.0000
     17 ****         2.2315  -1.7493  -1.6617 C.3            1 S1                 0.0000
     18 ****         3.3734  -2.2181  -2.5650 C.3            1 S1                 0.0000
     19 ****         4.6283  -1.5920  -1.9644 C.3            1 S1                 0.0000
     20 ****         4.1327  -0.8438  -0.7275 C.3            1 S1                 0.0000
     21 ****        -4.8453   2.2006  -1.7115 H              1 S1                 0.0000
     22 ****        -3.3590   1.2306  -1.6022 H              1 S1                 0.0000
     23 ****        -3.5447   2.6984  -0.6045 H              1 S1                 0.0000
     24 ****        -6.7642   1.2319  -0.4145 H              1 S1                 0.0000
     25 ****        -6.9677  -0.3972   1.8377 H              1 S1                 0.0000
     26 ****        -2.0817   1.3632   0.8384 H              1 S1                 0.0000
     27 ****        -2.2494   0.2599   2.1920 H              1 S1                 0.0000
     28 ****        -2.1720  -1.7107   0.6446 H              1 S1                 0.0000
     29 ****        -2.0664  -0.6566  -0.7453 H              1 S1                 0.0000
     30 ****         0.0533  -1.4131   1.0779 H              1 S1                 0.0000
     31 ****         2.0714  -0.7639   0.9246 H              1 S1                 0.0000
     32 ****         2.8034   2.0089  -0.1768 H              1 S1                 0.0000
     33 ****         3.5626   0.4608   2.4254 H              1 S1                 0.0000
     34 ****         4.2333   2.0798   1.8698 H              1 S1                 0.0000
     35 ****         1.9138   3.0447   1.8896 H              1 S1                 0.0000
     36 ****         1.2502   1.4240   2.4503 H              1 S1                 0.0000
     37 ****         2.0326  -2.4980  -0.8924 H              1 S1                 0.0000
     38 ****         1.3119  -1.5841  -2.2244 H              1 S1                 0.0000
     39 ****         3.4320  -3.3065  -2.5998 H              1 S1                 0.0000
     40 ****         3.2281  -1.8606  -3.5853 H              1 S1                 0.0000
     41 ****         5.3832  -2.3368  -1.7102 H              1 S1                 0.0000
     42 ****         5.0744  -0.8952  -2.6755 H              1 S1                 0.0000
     43 ****         4.7280   0.0463  -0.5219 H              1 S1                 0.0000
     44 ****         4.1801  -1.4960   0.1468 H              1 S1                 0.0000
     45 ****        -4.5752  -0.7750   2.5715 H              1 S1                 0.0000
     46 ****        -0.8977   1.0735  -1.1549 LP             1 S1                 0.0000
     47 ****         0.7355   1.5941  -1.4031 LP             1 S1                 0.0000
     48 ****         2.6572   0.2472  -1.6783 LP             1 S1                 0.0000
@<TRIPOS>BOND
    1    1    2 1     
    2    1   21 1     
    3    1   22 1     
    4    1   23 1     
    5    2    6 1     
    6    2    3 1     
    7    3    4 2     
    8    3   24 1     
    9    4    5 1     
   10    4   25 1     
   11    5    6 2     
   12    5   45 1     
   13    6    7 1     
   14    7    8 1     
   15    7   26 1     
   16    7   27 1     
   17    8    9 1     
   18    8   28 1     
   19    8   29 1     
   20    9   10 am    
   21    9   30 1     
   22   10   11 2     
   23   10   12 1     
   24   12   13 1     
   25   12   16 1     
   26   12   31 1     
   27   13   15 1     
   28   13   14 1     
   29   13   32 1     
   30   14   15 1     
   31   14   33 1     
   32   14   34 1     
   33   15   35 1     
   34   15   36 1     
   35   16   20 1     
   36   16   17 1     
   37   17   18 1     
   38   17   37 1     
   39   17   38 1     
   40   18   19 1     
   41   18   39 1     
   42   18   40 1     
   43   19   20 1     
   44   19   41 1     
   45   19   42 1     
   46   20   43 1     
   47   20   44 1     
   48   11   46 1     
   49   11   47 1     
   50   16   48 1     
@<TRIPOS>SUBSTRUCTURE
      1 S1             1
@<TRIPOS>SET
LONE_PAIRS      STATIC     ATOMS    <user>   **** ""
3 46 47 48
DONOR_HYDROGENS      STATIC     ATOMS    <user>   **** ""
2 45 30
ATOM$BLUE        STATIC     ATOMS    COLORGROUP SYSTEM
3 46 47 48
ATOM$RED        STATIC     ATOMS    COLORGROUP SYSTEM
2 45 30
