AV-unprocessed.smi:2922|AV-procd|sdf|11200|dock2
  -GOLD-   2272016 93D 1   1.00000     0.00000
 Structure written by MMmdl.
 30 31  0  0  0  0  0  0  0  0  1 V2000
  144.4133  141.3328  154.9831 N   0  0  0  0  0  0  0  0  0  0  0  0
  145.5978  141.5556  155.5596 C   0  0  0  0  0  0  0  0  0  0  0  0
  145.7252  141.6008  156.7817 O   0  0  0  0  0  0  0  0  0  0  0  0
  146.8159  141.7303  154.6397 C   0  0  2  0  0  0  0  0  0  0  0  0
  147.1156  140.5170  153.7385 C   0  0  0  0  0  0  0  0  0  0  0  0
  148.5212  140.1039  154.1363 C   0  0  0  0  0  0  0  0  0  0  0  0
  149.1008  141.3952  154.7064 C   0  0  2  0  0  0  0  0  0  0  0  0
  150.2951  141.1952  155.6484 C   0  0  0  0  0  0  0  0  0  0  0  0
  150.4796  142.3351  156.5338 N   0  0  0  0  0  0  0  0  0  0  0  0
  151.1495  142.2794  157.7411 C   0  0  0  0  0  0  0  0  0  0  0  0
  151.3568  141.0784  158.2961 N   0  0  0  0  0  0  0  0  0  0  0  0
  152.0131  141.0521  159.4769 C   0  0  0  0  0  0  0  0  0  0  0  0
  152.4592  142.2356  160.0983 C   0  0  0  0  0  0  0  0  0  0  0  0
  153.2962  142.2096  161.6065 Cl  0  0  0  0  0  0  0  0  0  0  0  0
  152.1857  143.4419  159.4230 C   0  0  0  0  0  0  0  0  0  0  0  0
  151.5294  143.4583  158.2416 N   0  0  0  0  0  0  0  0  0  0  0  0
  147.9950  141.9193  155.4222 O   0  0  0  0  0  0  0  0  0  0  0  0
  143.5889  141.2163  155.5541 H   0  0  0  0  0  0  0  0  0  0  0  0
  144.3490  141.2856  153.9763 H   0  0  0  0  0  0  0  0  0  0  0  0
  146.6645  142.6172  154.0227 H   0  0  0  0  0  0  0  0  0  0  0  0
  146.4157  139.6882  153.8539 H   0  0  0  0  0  0  0  0  0  0  0  0
  147.0919  140.8209  152.6911 H   0  0  0  0  0  0  0  0  0  0  0  0
  148.4738  139.3373  154.9111 H   0  0  0  0  0  0  0  0  0  0  0  0
  149.1008  139.7080  153.3019 H   0  0  0  0  0  0  0  0  0  0  0  0
  149.3556  142.0878  153.9016 H   0  0  0  0  0  0  0  0  0  0  0  0
  150.1342  140.3059  156.2588 H   0  0  0  0  0  0  0  0  0  0  0  0
  151.2061  141.0271  155.0727 H   0  0  0  0  0  0  0  0  0  0  0  0
  150.0784  143.2219  156.2658 H   0  0  0  0  0  0  0  0  0  0  0  0
  152.1807  140.0841  159.9253 H   0  0  0  0  0  0  0  0  0  0  0  0
  152.4923  144.3945  159.8291 H   0  0  0  0  0  0  0  0  0  0  0  0
  1  2  1  0  0  0  0
  1 18  1  0  0  0  0
  1 19  1  0  0  0  0
  2  3  2  0  0  0  0
  2  4  1  0  0  0  0
  4 17  1  0  0  0  0
  4  5  1  0  0  0  0
  4 20  1  0  0  0  0
  5  6  1  0  0  0  0
  5 21  1  0  0  0  0
  5 22  1  0  0  0  0
  6  7  1  0  0  0  0
  6 23  1  0  0  0  0
  6 24  1  0  0  0  0
  7  8  1  0  0  0  0
  7 17  1  0  0  0  0
  7 25  1  0  0  0  0
  8  9  1  0  0  0  0
  8 26  1  0  0  0  0
  8 27  1  0  0  0  0
  9 10  1  0  0  0  0
  9 28  1  0  0  0  0
 10 16  1  0  0  0  0
 10 11  2  0  0  0  0
 11 12  1  0  0  0  0
 12 13  2  0  0  0  0
 12 29  1  0  0  0  0
 13 14  1  0  0  0  0
 13 15  1  0  0  0  0
 15 16  2  0  0  0  0
 15 30  1  0  0  0  0
M  END
> <s_m_source_file>
AV-unprocessed.smi

> <i_m_source_file_index>
2922

> <i_lp_mmshare_version>
43012

> <i_f3d_flags>
0

> <s_epik_input>
W05IMl1DKD1PKVtDQEBIXTFbQ0gyXVtDSDJdW0NASF0oTzEpW0NIMl1bTkhdYzJuW2NIXWMoQ2wpW2NIXW4y

> <s_epik_cmdline>
J2VwaWtfcHl0aG9uJywgJy1waCcsICc3LjAnLCAnLXRuJywgJzgnLCAnLW1hJywgJzIwMCcsICctbWV0YWxfYmluZGluZycsICctaW1hZScsICc8aW5maWxlLm1hZT4nLCAnLW9tYWUnLCAnPG91dGZpbGUubWFlPic=

> <r_lp_tautomer_probability>
1

> <r_epik_Ionization_Penalty>
6.13883e-06

> <r_epik_Ionization_Penalty_Charging>
0

> <r_epik_Ionization_Penalty_Neutral>
6.13883e-06

> <r_epik_State_Penalty>
-0

> <r_epik_Charging_Adjusted_Penalty>
0

> <i_epik_Tot_Q>
0

> <i_epik_Tot_abs_Q>
0

> <r_epik_Metal_State_Penalty>
-0

> <b_epik_Metal_Only>
0

> <s_lp_Force_Field>
OPLS_2005

> <r_lp_Energy>
9.86342

> <b_lp_Chiralities_Consistent>
1

> <s_lp_Variant>
AV-unprocessed.smi:2922-3

> <Gold.Version>
5.8.1

> <Gold.Id.Protein>
6NUR|6NUR_protein|mol2

> <Gold.PLP.Fitness>
37.8929

> <Gold.PLP.PLP>
-32.6891

> <Gold.PLP.part.hbond>
-2.0000

> <Gold.PLP.part.metal>
0.0000

> <Gold.PLP.part.buried>
-5.3822

> <Gold.PLP.part.nonpolar>
-27.4626

> <Gold.PLP.part.repulsive>
2.0019

> <Gold.PLP.ligand.clash>
0.0000

> <Gold.PLP.ligand.torsion>
0.3965

> <Gold.PLP.Chemscore.Hbond>
1.9920

> <Gold.PLP.Chemscore.CHOScore>
0.0000

> <Gold.PLP.Chemscore.Metal>
0.0000

> <Gold.Chemscore.Hbonds>
donor molecule, donor type, donor heavy atom, donor atom, acceptor molecule, acceptor atom, score
      L1  H     1    19       P1 10175  0.99
      L1  H     9    28       P1  8028  1.00

> <Gold.PLP.Chemscore.Internal.Correction>
0.0208

> <Gold.Rescore>
     Score         DG    S(hbond)    S(metal)    S(lipo)     H(rot)  DE(clash)    DE(int)     intcor
     15.64     -16.16       1.99        0.00      76.24       1.91       0.14       0.37       ----

> <Gold.Chemscore.Fitness>
15.6428

> <Gold.Chemscore.DG>
-16.1587

> <Gold.Chemscore.ZeroCoef>
-5.4800

> <Gold.Chemscore.Hbond>
1.9938

> <Gold.Chemscore.Metal>
0.0000

> <Gold.Chemscore.Lipo>
76.2374

> <Gold.Chemscore.Internal_Hbond>
0.0000

> <Gold.Chemscore.DEClash>
0.1442

> <Gold.Chemscore.DEInternal>
0.3717

> <Gold.Chemscore.Rot>
1.9142

> <Gold.Chemscore.Internal.Correction>
   9.000000E+99

> <Gold.Chemscore.Hbonds>
donor molecule, donor type, donor heavy atom, donor atom, acceptor molecule, acceptor atom, score
      L1  H     1    19       P1 10175  0.42
      L1  H     9    28       P1  8028  0.96

> <Gold.Chemscore.Hbond.Weighted>
-6.6591

> <Gold.Chemscore.Metal.Weighted>
-0.0000

> <Gold.Chemscore.Lipo.Weighted>
-8.9198

> <Gold.Chemscore.Internal_Hbond.Weighted>
0.0000

> <Gold.Chemscore.DEClash.Weighted>
0.1442

> <Gold.Chemscore.DEInternal.Weighted>
0.3717

> <Gold.Chemscore.Rot.Weighted>
4.9002

> <Gold.Chemscore.Internal.Correction.Weighted>
   9.000000E+99

> <Gold.Protein.RotatedTorsions>
[ 6907 6896 6895 6894 ] final   92.51 input  -60.11 | X-H torsion
[ 7974 7965 7964 7962 ] final   16.75 input  175.53 | X-H torsion
[ 8008 7997 7996 7995 ] final    9.48 input   59.86 | X-H torsion
[ 10167 10162 10161 10158 ] final  149.80 input  -65.29 | X-H torsion
[ 10718 10713 10712 10709 ] final -146.05 input   66.30 | X-H torsion
[ 10763 10752 10751 10750 ] final  102.45 input  -60.55 | X-H torsion
[ 11005 11000 10999 10996 ] final  -19.30 input  -57.11 | X-H torsion

> <Gold.Protein.ActiveResidues>
 VAL166  LYS551  ARG553  GLY616  TRP617  ASP618  TYR619  PRO620  LYS621  CYS622 
 ASP623  PHE694  ASN695  SER759  ASP760  ASP761  ALA762  ILE779  LEU786  VAL792 
 PHE793  MET794  SER795  GLU796  ALA797  LYS798  CYS799  TRP800  GLU811  SER814 

> <Gold.Protein.RotatedAtoms>
  152.5452  134.1491  159.8510 H   0  0  0  0  0  0  0  0  0  0  0  0  # atno 6907 bound_to 6896
  151.1520  133.4894  159.2602 H   0  0  0  0  0  0  0  0  0  0  0  0  # atno 6908 bound_to 6896
  151.1462  135.0215  159.8703 H   0  0  0  0  0  0  0  0  0  0  0  0  # atno 6909 bound_to 6896
  146.2240  139.8703  142.8589 H   0  0  0  0  0  0  0  0  0  0  0  0  # atno 7974 bound_to 7965
  154.7806  140.2818  155.6067 H   0  0  0  0  0  0  0  0  0  0  0  0  # atno 8008 bound_to 7997
  156.2949  140.2624  156.2558 H   0  0  0  0  0  0  0  0  0  0  0  0  # atno 8009 bound_to 7997
  154.9789  140.0375  157.2258 H   0  0  0  0  0  0  0  0  0  0  0  0  # atno 8010 bound_to 7997
  139.4857  144.5573  151.7295 H   0  0  0  0  0  0  0  0  0  0  0  0  # atno 10167 bound_to 10162
  156.3901  130.7881  151.2082 H   0  0  0  0  0  0  0  0  0  0  0  0  # atno 10718 bound_to 10713
  153.3398  135.4010  155.1562 H   0  0  0  0  0  0  0  0  0  0  0  0  # atno 10763 bound_to 10752
  154.8641  135.3630  154.5361 H   0  0  0  0  0  0  0  0  0  0  0  0  # atno 10764 bound_to 10752
  153.5805  135.7076  153.5525 H   0  0  0  0  0  0  0  0  0  0  0  0  # atno 10765 bound_to 10752
  140.8353  133.7967  155.9802 H   0  0  0  0  0  0  0  0  0  0  0  0  # atno 11005 bound_to 11000
  145.2615  141.0078  143.3823 LP  0  0  0  0  0  0  0  0  0  0  0  0  # atno 17320 bound_to 7965
  144.9294  139.4316  143.6502 LP  0  0  0  0  0  0  0  0  0  0  0  0  # atno 17321 bound_to 7965
  140.5136  144.0987  150.6002 LP  0  0  0  0  0  0  0  0  0  0  0  0  # atno 17342 bound_to 10162
  140.3921  143.2747  152.0048 LP  0  0  0  0  0  0  0  0  0  0  0  0  # atno 17343 bound_to 10162
  157.7498  131.0318  150.4199 LP  0  0  0  0  0  0  0  0  0  0  0  0  # atno 17370 bound_to 10713
  156.4458  130.4001  149.6667 LP  0  0  0  0  0  0  0  0  0  0  0  0  # atno 17371 bound_to 10713
  140.8954  134.2444  157.5071 LP  0  0  0  0  0  0  0  0  0  0  0  0  # atno 17394 bound_to 11000
  139.8704  134.9681  156.4621 LP  0  0  0  0  0  0  0  0  0  0  0  0  # atno 17395 bound_to 11000

$$$$
