AV-unprocessed.smi:3028|AV-procd|sdf|11524|dock3
  -GOLD-   2272016463D 1   1.00000     0.00000
 Structure written by MMmdl.
 47 48  0  0  0  0  0  0  0  0  1 V2000
  151.2144  143.1868  157.5026 C   0  0  0  0  0  0  0  0  0  0  0  0
  151.0534  141.8580  156.8219 C   0  0  0  0  0  0  0  0  0  0  0  0
  151.3975  140.5707  157.3235 C   0  0  0  0  0  0  0  0  0  0  0  0
  151.1269  139.5974  156.4700 N   0  0  0  0  0  0  0  0  0  0  0  0
  150.5994  140.2244  155.3944 N   0  0  0  0  0  0  0  0  0  0  0  0
  150.1712  139.4561  154.2319 C   0  0  1  0  0  0  0  0  0  0  0  0
  150.6482  137.9963  154.3617 C   0  0  0  0  0  0  0  0  0  0  0  0
  148.6414  139.5751  153.9926 C   0  0  1  0  0  0  0  0  0  0  0  0
  148.1581  141.0276  153.8240 C   0  0  0  0  0  0  0  0  0  0  0  0
  148.2813  138.8648  152.7688 N   0  0  0  0  0  0  0  0  0  0  0  0
  146.8654  139.0461  152.4223 C   0  0  0  0  0  0  0  0  0  0  0  0
  146.0181  137.7883  152.6683 C   0  0  0  0  0  0  0  0  0  0  0  0
  144.9667  137.8615  153.3036 O   0  0  0  0  0  0  0  0  0  0  0  0
  146.4371  136.6122  152.1709 N   0  0  0  0  0  0  0  0  0  0  0  0
  145.7837  135.3101  152.2913 C   0  0  0  0  0  0  0  0  0  0  0  0
  146.5012  134.2841  151.4015 C   0  0  0  0  0  0  0  0  0  0  0  0
  145.7437  132.9460  151.3976 C   0  0  0  0  0  0  0  0  0  0  0  0
  144.4004  133.1478  150.9714 O   0  0  0  0  0  0  0  0  0  0  0  0
  143.6653  134.0047  151.8387 C   0  0  0  0  0  0  0  0  0  0  0  0
  144.3075  135.4010  151.8684 C   0  0  0  0  0  0  0  0  0  0  0  0
  150.5455  141.5902  155.5822 C   0  0  0  0  0  0  0  0  0  0  0  0
  151.7426  143.0948  158.4518 H   0  0  0  0  0  0  0  0  0  0  0  0
  150.2499  143.6483  157.7152 H   0  0  0  0  0  0  0  0  0  0  0  0
  151.7791  143.8880  156.8879 H   0  0  0  0  0  0  0  0  0  0  0  0
  151.8344  140.3163  158.2781 H   0  0  0  0  0  0  0  0  0  0  0  0
  150.6816  139.8912  153.3706 H   0  0  0  0  0  0  0  0  0  0  0  0
  150.4715  137.4356  153.4439 H   0  0  0  0  0  0  0  0  0  0  0  0
  150.1346  137.4773  155.1716 H   0  0  0  0  0  0  0  0  0  0  0  0
  151.7188  137.9514  154.5641 H   0  0  0  0  0  0  0  0  0  0  0  0
  148.1150  139.1573  154.8534 H   0  0  0  0  0  0  0  0  0  0  0  0
  148.3129  141.6118  154.7311 H   0  0  0  0  0  0  0  0  0  0  0  0
  147.0907  141.0629  153.6020 H   0  0  0  0  0  0  0  0  0  0  0  0
  148.6835  141.5306  153.0113 H   0  0  0  0  0  0  0  0  0  0  0  0
  148.5161  137.8873  152.8668 H   0  0  0  0  0  0  0  0  0  0  0  0
  146.4488  139.8638  153.0118 H   0  0  0  0  0  0  0  0  0  0  0  0
  146.7939  139.3265  151.3711 H   0  0  0  0  0  0  0  0  0  0  0  0
  147.3028  136.6241  151.6511 H   0  0  0  0  0  0  0  0  0  0  0  0
  145.8392  134.9499  153.3194 H   0  0  0  0  0  0  0  0  0  0  0  0
  146.5687  134.6596  150.3792 H   0  0  0  0  0  0  0  0  0  0  0  0
  147.5244  134.1329  151.7475 H   0  0  0  0  0  0  0  0  0  0  0  0
  146.2268  132.2441  150.7176 H   0  0  0  0  0  0  0  0  0  0  0  0
  145.7568  132.4887  152.3881 H   0  0  0  0  0  0  0  0  0  0  0  0
  142.6385  134.0729  151.4786 H   0  0  0  0  0  0  0  0  0  0  0  0
  143.6229  133.5756  152.8410 H   0  0  0  0  0  0  0  0  0  0  0  0
  143.7514  136.0501  152.5449 H   0  0  0  0  0  0  0  0  0  0  0  0
  144.2327  135.8495  150.8766 H   0  0  0  0  0  0  0  0  0  0  0  0
  150.1524  142.2529  154.8253 H   0  0  0  0  0  0  0  0  0  0  0  0
  1  2  1  0  0  0  0
  1 22  1  0  0  0  0
  1 23  1  0  0  0  0
  1 24  1  0  0  0  0
  2 21  2  0  0  0  0
  2  3  1  0  0  0  0
  3  4  2  0  0  0  0
  3 25  1  0  0  0  0
  4  5  1  0  0  0  0
  5  6  1  0  0  0  0
  5 21  1  0  0  0  0
  6  7  1  0  0  0  0
  6  8  1  0  0  0  0
  6 26  1  0  0  0  0
  7 27  1  0  0  0  0
  7 28  1  0  0  0  0
  7 29  1  0  0  0  0
  8  9  1  0  0  0  0
  8 10  1  0  0  0  0
  8 30  1  0  0  0  0
  9 31  1  0  0  0  0
  9 32  1  0  0  0  0
  9 33  1  0  0  0  0
 10 11  1  0  0  0  0
 10 34  1  0  0  0  0
 11 12  1  0  0  0  0
 11 35  1  0  0  0  0
 11 36  1  0  0  0  0
 12 13  2  0  0  0  0
 12 14  1  0  0  0  0
 14 15  1  0  0  0  0
 14 37  1  0  0  0  0
 15 20  1  0  0  0  0
 15 16  1  0  0  0  0
 15 38  1  0  0  0  0
 16 17  1  0  0  0  0
 16 39  1  0  0  0  0
 16 40  1  0  0  0  0
 17 18  1  0  0  0  0
 17 41  1  0  0  0  0
 17 42  1  0  0  0  0
 18 19  1  0  0  0  0
 19 20  1  0  0  0  0
 19 43  1  0  0  0  0
 19 44  1  0  0  0  0
 20 45  1  0  0  0  0
 20 46  1  0  0  0  0
 21 47  1  0  0  0  0
M  END
> <s_m_source_file>
AV-unprocessed.smi

> <i_m_source_file_index>
3028

> <i_lp_mmshare_version>
43012

> <i_f3d_flags>
0

> <s_epik_input>
W0NIM11jMVtjSF1ubihbY0hdMSlbQ0BIXShbQ0gzXSlbQ0BIXShbQ0gzXSlbTkhdW0NIMl1DKD1PKVtOSF1bQ0hdMltDSDJdW0NIMl1PW0NIMl1bQ0gyXTI=

> <s_epik_cmdline>
J2VwaWtfcHl0aG9uJywgJy1waCcsICc3LjAnLCAnLXRuJywgJzgnLCAnLW1hJywgJzIwMCcsICctbWV0YWxfYmluZGluZycsICctaW1hZScsICc8aW5maWxlLm1hZT4nLCAnLW9tYWUnLCAnPG91dGZpbGUubWFlPic=

> <r_lp_tautomer_probability>
1

> <r_epik_Ionization_Penalty>
0.88617

> <r_epik_Ionization_Penalty_Charging>
0

> <r_epik_Ionization_Penalty_Neutral>
0.88617

> <r_epik_State_Penalty>
0.921066

> <r_epik_Charging_Adjusted_Penalty>
0.921066

> <i_epik_Tot_Q>
0

> <i_epik_Tot_abs_Q>
0

> <r_epik_Metal_State_Penalty>
0.917309

> <b_epik_Metal_Only>
0

> <s_lp_Force_Field>
OPLS_2005

> <r_lp_Energy>
18.7055

> <b_lp_Chiralities_Consistent>
1

> <s_lp_Variant>
AV-unprocessed.smi:3028-8

> <Gold.Version>
5.8.1

> <Gold.Id.Protein>
6NUR|6NUR_protein|mol2

> <Gold.PLP.Fitness>
45.2560

> <Gold.PLP.PLP>
-40.4345

> <Gold.PLP.part.hbond>
-2.8289

> <Gold.PLP.part.metal>
0.0000

> <Gold.PLP.part.buried>
-4.4572

> <Gold.PLP.part.nonpolar>
-33.6799

> <Gold.PLP.part.repulsive>
0.9501

> <Gold.PLP.ligand.clash>
0.0040

> <Gold.PLP.ligand.torsion>
0.6347

> <Gold.PLP.Chemscore.Hbond>
1.7120

> <Gold.PLP.Chemscore.CHOScore>
0.2638

> <Gold.PLP.Chemscore.Metal>
0.0000

> <Gold.Chemscore.Hbonds>
donor molecule, donor type, donor heavy atom, donor atom, acceptor molecule, acceptor atom, score
      L1  H    10    34       P1  7948  0.86
      L1  H    14    37       P1  7948  0.83
      L1  C    21    47       P1  8028  0.09

> <Gold.PLP.Chemscore.Internal.Correction>
0.1675

> <Gold.Rescore>
     Score         DG    S(hbond)    S(metal)    S(lipo)     H(rot)  DE(clash)    DE(int)     intcor
     16.09     -17.11       1.76        0.00      91.34       1.92       0.09       0.92       ----

> <Gold.Chemscore.Fitness>
16.0936

> <Gold.Chemscore.DG>
-17.1101

> <Gold.Chemscore.ZeroCoef>
-5.4800

> <Gold.Chemscore.Hbond>
1.7565

> <Gold.Chemscore.Metal>
0.0000

> <Gold.Chemscore.Lipo>
91.3407

> <Gold.Chemscore.Internal_Hbond>
0.0000

> <Gold.Chemscore.DEClash>
0.0946

> <Gold.Chemscore.DEInternal>
0.9218

> <Gold.Chemscore.Rot>
1.9233

> <Gold.Chemscore.Internal.Correction>
   9.000000E+99

> <Gold.Chemscore.Hbonds>
donor molecule, donor type, donor heavy atom, donor atom, acceptor molecule, acceptor atom, score
      L1  H    10    34       P1  7948  0.83
      L1  H    14    37       P1  7948  0.81

> <Gold.Chemscore.Hbond.Weighted>
-5.8667

> <Gold.Chemscore.Metal.Weighted>
-0.0000

> <Gold.Chemscore.Lipo.Weighted>
-10.6869

> <Gold.Chemscore.Internal_Hbond.Weighted>
0.0000

> <Gold.Chemscore.DEClash.Weighted>
0.0946

> <Gold.Chemscore.DEInternal.Weighted>
0.9218

> <Gold.Chemscore.Rot.Weighted>
4.9235

> <Gold.Chemscore.Internal.Correction.Weighted>
   9.000000E+99

> <Gold.Protein.RotatedTorsions>
[ 6907 6896 6895 6894 ] final  -73.52 input  -60.11 | X-H torsion
[ 7974 7965 7964 7962 ] final -113.05 input  175.53 | X-H torsion
[ 8008 7997 7996 7995 ] final -128.30 input   59.86 | X-H torsion
[ 10167 10162 10161 10158 ] final  -60.76 input  -65.29 | X-H torsion
[ 10718 10713 10712 10709 ] final -121.56 input   66.30 | X-H torsion
[ 10763 10752 10751 10750 ] final   -3.80 input  -60.55 | X-H torsion
[ 11005 11000 10999 10996 ] final   -2.56 input  -57.11 | X-H torsion

> <Gold.Protein.ActiveResidues>
 VAL166  LYS551  ARG553  GLY616  TRP617  ASP618  TYR619  PRO620  LYS621  CYS622 
 ASP623  PHE694  ASN695  SER759  ASP760  ASP761  ALA762  ILE779  LEU786  VAL792 
 PHE793  MET794  SER795  GLU796  ALA797  LYS798  CYS799  TRP800  GLU811  SER814 

> <Gold.Protein.RotatedAtoms>
  150.7127  134.5004  159.5558 H   0  0  0  0  0  0  0  0  0  0  0  0  # atno 6907 bound_to 6896
  152.2603  134.8038  160.0441 H   0  0  0  0  0  0  0  0  0  0  0  0  # atno 6908 bound_to 6896
  151.8754  133.3449  159.3785 H   0  0  0  0  0  0  0  0  0  0  0  0  # atno 6909 bound_to 6896
  145.1367  140.8755  143.3726 H   0  0  0  0  0  0  0  0  0  0  0  0  # atno 7974 bound_to 7965
  155.2605  140.0436  157.2997 H   0  0  0  0  0  0  0  0  0  0  0  0  # atno 8008 bound_to 7997
  154.5714  140.2375  155.8156 H   0  0  0  0  0  0  0  0  0  0  0  0  # atno 8009 bound_to 7997
  156.2125  140.2994  155.9772 H   0  0  0  0  0  0  0  0  0  0  0  0  # atno 8010 bound_to 7997
  140.6050  143.2371  151.5842 H   0  0  0  0  0  0  0  0  0  0  0  0  # atno 10167 bound_to 10162
  156.1347  130.6421  150.9677 H   0  0  0  0  0  0  0  0  0  0  0  0  # atno 10718 bound_to 10713
  153.3763  135.6996  153.6599 H   0  0  0  0  0  0  0  0  0  0  0  0  # atno 10763 bound_to 10752
  153.5229  135.3608  155.2641 H   0  0  0  0  0  0  0  0  0  0  0  0  # atno 10764 bound_to 10752
  154.8687  135.4162  154.3051 H   0  0  0  0  0  0  0  0  0  0  0  0  # atno 10765 bound_to 10752
  140.6597  133.9331  155.8428 H   0  0  0  0  0  0  0  0  0  0  0  0  # atno 11005 bound_to 11000
  145.0577  139.3131  143.5896 LP  0  0  0  0  0  0  0  0  0  0  0  0  # atno 17320 bound_to 7965
  146.3509  140.0007  142.8676 LP  0  0  0  0  0  0  0  0  0  0  0  0  # atno 17321 bound_to 7965
  139.5318  144.2893  152.1165 LP  0  0  0  0  0  0  0  0  0  0  0  0  # atno 17342 bound_to 10162
  140.2081  144.4590  150.6399 LP  0  0  0  0  0  0  0  0  0  0  0  0  # atno 17343 bound_to 10162
  157.6521  131.0895  150.8028 LP  0  0  0  0  0  0  0  0  0  0  0  0  # atno 17370 bound_to 10713
  156.8109  130.4952  149.5356 LP  0  0  0  0  0  0  0  0  0  0  0  0  # atno 17371 bound_to 10713
  141.0475  134.0533  157.3826 LP  0  0  0  0  0  0  0  0  0  0  0  0  # atno 17394 bound_to 11000
  139.9017  135.0167  156.7300 LP  0  0  0  0  0  0  0  0  0  0  0  0  # atno 17395 bound_to 11000

$$$$
