#       Name:                AV-unprocessed.smi:2236
#       Creating user name   scv26
#       Creation time:       Fri Mar 27 12:25:23 2020


#       File generated by GOLD software.
#

@<TRIPOS>MOLECULE
AV-unprocessed.smi:2236
    42    43     1
SMALL
NO_CHARGES


@<TRIPOS>ATOM
      1 ****        -2.0222  -4.1476   0.7123 C.3            1 S1                 0.0000
      2 ****        -1.4362  -2.8823   0.4431 O.3            1 S1                 0.0000
      3 ****        -2.2708  -1.7889   0.3161 C.ar           1 S1                 0.0000
      4 ****        -3.6823  -1.8618   0.4332 C.ar           1 S1                 0.0000
      5 ****        -4.4492  -0.6927   0.2884 C.ar           1 S1                 0.0000
      6 ****        -3.7770   0.5149   0.0297 C.ar           1 S1                 0.0000
      7 ****        -4.5392   1.8130  -0.1341 C.3            1 S1                 0.0000
      8 ****        -2.4362   0.5968  -0.0830 N.ar           1 S1                 0.0000
      9 ****        -1.6841  -0.5236   0.0547 C.ar           1 S1                 0.0000
     10 ****        -0.2653  -0.5177  -0.0471 N.am           1 S1                 0.0000
     11 ****         0.5524   0.5247  -0.2749 C.2            1 S1                 0.0000
     12 ****         0.1897   1.6857  -0.4678 O.2            1 S1                 0.0000
     13 ****         1.8391   0.1404  -0.2667 N.am           1 S1                 0.0000
     14 ****         3.0052   1.0036  -0.4692 C.3            1 S1                 0.0000
     15 ****         3.1097   1.4061  -1.9439 C.3            1 S1                 0.0000
     16 ****         3.1129   2.1031   0.6096 C.3            1 S1                 0.0000
     17 ****         4.6032   1.7731   0.7219 C.3            1 S1                 0.0000
     18 ****         4.2485   0.3803   0.1931 C.3            1 S1                 0.0000
     19 ****        -1.2367  -4.9002   0.7802 H              1 S1                 0.0000
     20 ****        -2.7009  -4.4518  -0.0856 H              1 S1                 0.0000
     21 ****        -2.5581  -4.1445   1.6623 H              1 S1                 0.0000
     22 ****        -4.1938  -2.7910   0.6319 H              1 S1                 0.0000
     23 ****        -5.5252  -0.7259   0.3755 H              1 S1                 0.0000
     24 ****        -5.6121   1.6337  -0.2091 H              1 S1                 0.0000
     25 ****        -4.2189   2.3336  -1.0371 H              1 S1                 0.0000
     26 ****        -4.3606   2.4655   0.7208 H              1 S1                 0.0000
     27 ****         0.1768  -1.4157   0.0839 H              1 S1                 0.0000
     28 ****         2.0327  -0.8363  -0.1002 H              1 S1                 0.0000
     29 ****         4.0199   1.9727  -2.1408 H              1 S1                 0.0000
     30 ****         2.2715   2.0309  -2.2523 H              1 S1                 0.0000
     31 ****         3.1269   0.5317  -2.5949 H              1 S1                 0.0000
     32 ****         2.8979   3.1123   0.2572 H              1 S1                 0.0000
     33 ****         2.5677   1.8770   1.5284 H              1 S1                 0.0000
     34 ****         5.2228   2.3490   0.0326 H              1 S1                 0.0000
     35 ****         4.9995   1.7901   1.7375 H              1 S1                 0.0000
     36 ****         4.0159  -0.3215   0.9968 H              1 S1                 0.0000
     37 ****         4.9775  -0.0375  -0.5019 H              1 S1                 0.0000
     38 ****        -0.9274  -2.9677  -0.4135 LP             1 S1                 0.0000
     39 ****        -0.8011  -2.6850   1.1899 LP             1 S1                 0.0000
     40 ****        -1.9992   1.4773  -0.2668 LP             1 S1                 0.0000
     41 ****        -0.7842   1.9128  -0.4624 LP             1 S1                 0.0000
     42 ****         0.8690   2.4014  -0.6299 LP             1 S1                 0.0000
@<TRIPOS>BOND
    1    1    2 1     
    2    1   19 1     
    3    1   20 1     
    4    1   21 1     
    5    2    3 1     
    6    3    9 ar    
    7    3    4 ar    
    8    4    5 ar    
    9    4   22 1     
   10    5    6 ar    
   11    5   23 1     
   12    6    7 1     
   13    6    8 ar    
   14    7   24 1     
   15    7   25 1     
   16    7   26 1     
   17    8    9 ar    
   18    9   10 1     
   19   10   11 am    
   20   10   27 1     
   21   11   12 2     
   22   11   13 am    
   23   13   14 1     
   24   13   28 1     
   25   14   18 1     
   26   14   15 1     
   27   14   16 1     
   28   15   29 1     
   29   15   30 1     
   30   15   31 1     
   31   16   17 1     
   32   16   32 1     
   33   16   33 1     
   34   17   18 1     
   35   17   34 1     
   36   17   35 1     
   37   18   36 1     
   38   18   37 1     
   39    2   38 1     
   40    2   39 1     
   41    8   40 1     
   42   12   41 1     
   43   12   42 1     
@<TRIPOS>SUBSTRUCTURE
      1 S1             1
@<TRIPOS>SET
LONE_PAIRS      STATIC     ATOMS    <user>   **** ""
5 38 39 40 41 42
DONOR_HYDROGENS      STATIC     ATOMS    <user>   **** ""
2 27 28
ATOM$BLUE        STATIC     ATOMS    COLORGROUP SYSTEM
5 38 39 40 41 42
ATOM$RED        STATIC     ATOMS    COLORGROUP SYSTEM
2 27 28
