AV-unprocessed.smi:1605|AV-procd|sdf|6454|dock2
  -GOLD-   22720 7103D 1   1.00000     0.00000
 Structure written by MMmdl.
 51 53  0  0  0  0  0  0  0  0  2 V2000
  144.9452  139.6099  155.4781 C   0  0  0  0  0  0  0  0  0  0  0  0
  145.9512  140.1256  154.6200 O   0  0  0  0  0  0  0  0  0  0  0  0
  146.0555  141.5447  154.6245 C   0  0  2  0  0  0  0  0  0  0  0  0
  147.1367  141.9444  153.6093 C   0  0  0  0  0  0  0  0  0  0  0  0
  148.5376  141.5020  154.0666 C   0  0  0  0  0  0  0  0  0  0  0  0
  148.8573  142.0429  155.4123 N   0  3  2  0  0  0  0  0  0  0  0  0
  150.2635  141.7786  155.8113 C   0  0  0  0  0  0  0  0  0  0  0  0
  150.5735  142.1275  157.2878 C   0  0  1  0  0  0  0  0  0  0  0  0
  150.7511  140.9089  157.9781 O   0  0  0  0  0  0  0  0  0  0  0  0
  151.8484  142.9722  157.5079 C   0  0  0  0  0  0  0  0  0  0  0  0
  151.9979  143.4225  158.8797 N   0  0  0  0  0  0  0  0  0  0  0  0
  151.4763  144.5377  159.4260 C   0  0  0  0  0  0  0  0  0  0  0  0
  151.7657  144.7828  160.7002 N   0  0  0  0  0  0  0  0  0  0  0  0
  152.5537  143.6924  161.0237 C   0  0  0  0  0  0  0  0  0  0  0  0
  153.2002  143.3544  162.2323 C   0  0  0  0  0  0  0  0  0  0  0  0
  153.9809  142.1810  162.3326 C   0  0  0  0  0  0  0  0  0  0  0  0
  154.6647  141.8598  163.6499 C   0  0  0  0  0  0  0  0  0  0  0  0
  154.1194  141.3216  161.2132 C   0  0  0  0  0  0  0  0  0  0  0  0
  154.9572  140.0580  161.2960 C   0  0  0  0  0  0  0  0  0  0  0  0
  153.4776  141.6427  159.9993 C   0  0  0  0  0  0  0  0  0  0  0  0
  152.7097  142.8167  159.9099 C   0  0  0  0  0  0  0  0  0  0  0  0
  147.8534  141.6228  156.4245 C   0  0  0  0  0  0  0  0  0  0  0  0
  146.4412  142.0769  156.0177 C   0  0  0  0  0  0  0  0  0  0  0  0
  144.9217  138.5235  155.3947 H   0  0  0  0  0  0  0  0  0  0  0  0
  143.9597  139.9863  155.2009 H   0  0  0  0  0  0  0  0  0  0  0  0
  145.1333  139.8568  156.5227 H   0  0  0  0  0  0  0  0  0  0  0  0
  145.1074  141.9821  154.3068 H   0  0  0  0  0  0  0  0  0  0  0  0
  146.9092  141.5180  152.6319 H   0  0  0  0  0  0  0  0  0  0  0  0
  147.1257  143.0268  153.4798 H   0  0  0  0  0  0  0  0  0  0  0  0
  148.6081  140.4134  154.0829 H   0  0  0  0  0  0  0  0  0  0  0  0
  149.2724  141.8560  153.3427 H   0  0  0  0  0  0  0  0  0  0  0  0
  150.4878  140.7293  155.6115 H   0  0  0  0  0  0  0  0  0  0  0  0
  150.9364  142.3582  155.1773 H   0  0  0  0  0  0  0  0  0  0  0  0
  149.7229  142.6215  157.7554 H   0  0  0  0  0  0  0  0  0  0  0  0
  150.1806  140.2582  157.5974 H   0  0  0  0  0  0  0  0  0  0  0  0
  152.7338  142.3876  157.2537 H   0  0  0  0  0  0  0  0  0  0  0  0
  151.8525  143.8407  156.8478 H   0  0  0  0  0  0  0  0  0  0  0  0
  150.8634  145.2164  158.8506 H   0  0  0  0  0  0  0  0  0  0  0  0
  153.0943  144.0087  163.0853 H   0  0  0  0  0  0  0  0  0  0  0  0
  154.2665  140.9360  164.0697 H   0  0  0  0  0  0  0  0  0  0  0  0
  154.5128  142.6535  164.3817 H   0  0  0  0  0  0  0  0  0  0  0  0
  155.7387  141.7411  163.5059 H   0  0  0  0  0  0  0  0  0  0  0  0
  154.9130  139.4897  160.3664 H   0  0  0  0  0  0  0  0  0  0  0  0
  154.6002  139.4128  162.0988 H   0  0  0  0  0  0  0  0  0  0  0  0
  156.0012  140.3058  161.4881 H   0  0  0  0  0  0  0  0  0  0  0  0
  153.5817  140.9992  159.1381 H   0  0  0  0  0  0  0  0  0  0  0  0
  147.8834  140.5389  156.5442 H   0  0  0  0  0  0  0  0  0  0  0  0
  148.0882  142.0533  157.3966 H   0  0  0  0  0  0  0  0  0  0  0  0
  146.4073  143.1671  156.0050 H   0  0  0  0  0  0  0  0  0  0  0  0
  145.7172  141.7667  156.7703 H   0  0  0  0  0  0  0  0  0  0  0  0
  148.7797  143.0467  155.3285 H   0  0  0  0  0  0  0  0  0  0  0  0
  1  2  1  0  0  0  0
  1 24  1  0  0  0  0
  1 25  1  0  0  0  0
  1 26  1  0  0  0  0
  2  3  1  0  0  0  0
  3 23  1  0  0  0  0
  3  4  1  0  0  0  0
  3 27  1  0  0  0  0
  4  5  1  0  0  0  0
  4 28  1  0  0  0  0
  4 29  1  0  0  0  0
  5  6  1  0  0  0  0
  5 30  1  0  0  0  0
  5 31  1  0  0  0  0
  6  7  1  0  0  0  0
  6 22  1  0  0  0  0
  6 51  1  0  0  0  0
  7  8  1  0  0  0  0
  7 32  1  0  0  0  0
  7 33  1  0  0  0  0
  8  9  1  0  0  0  0
  8 10  1  0  0  0  0
  8 34  1  0  0  0  0
  9 35  1  0  0  0  0
 10 11  1  0  0  0  0
 10 36  1  0  0  0  0
 10 37  1  0  0  0  0
 11 21  1  0  0  0  0
 11 12  1  0  0  0  0
 12 13  2  0  0  0  0
 12 38  1  0  0  0  0
 13 14  1  0  0  0  0
 14 21  2  0  0  0  0
 14 15  1  0  0  0  0
 15 16  2  0  0  0  0
 15 39  1  0  0  0  0
 16 17  1  0  0  0  0
 16 18  1  0  0  0  0
 17 40  1  0  0  0  0
 17 41  1  0  0  0  0
 17 42  1  0  0  0  0
 18 19  1  0  0  0  0
 18 20  2  0  0  0  0
 19 43  1  0  0  0  0
 19 44  1  0  0  0  0
 19 45  1  0  0  0  0
 20 21  1  0  0  0  0
 20 46  1  0  0  0  0
 22 23  1  0  0  0  0
 22 47  1  0  0  0  0
 22 48  1  0  0  0  0
 23 49  1  0  0  0  0
 23 50  1  0  0  0  0
M  CHG  1   6   1
M  END
> <s_m_source_file>
AV-unprocessed.smi

> <i_m_source_file_index>
1605

> <i_lp_mmshare_version>
43012

> <i_f3d_flags>
0

> <s_epik_input>
W0NIM11PW0NIXTFbQ0gyXVtDSDJdTihbQ0gyXVtDSDJdMSlbQ0gyXVtDQEhdKFtPSF0pW0NIMl1uKFtjSF1uMiljKGMyMylbY0hdYyhbQ0gzXSljKFtjSF0zKVtDSDNd

> <s_epik_cmdline>
J2VwaWtfcHl0aG9uJywgJy1waCcsICc3LjAnLCAnLXRuJywgJzgnLCAnLW1hJywgJzIwMCcsICctbWV0YWxfYmluZGluZycsICctaW1hZScsICc8aW5maWxlLm1hZT4nLCAnLW9tYWUnLCAnPG91dGZpbGUubWFlPic=

> <r_epik_Ionization_Penalty>
0.110943

> <r_epik_Ionization_Penalty_Charging>
0.0229283

> <r_epik_Ionization_Penalty_Neutral>
0.0880146

> <r_epik_State_Penalty>
0.0947554

> <r_epik_Charging_Adjusted_Penalty>
0.117684

> <i_epik_Tot_Q>
1

> <i_epik_Tot_abs_Q>
1

> <r_epik_Metal_State_Penalty>
0.0192456

> <b_epik_Metal_Only>
0

> <s_lp_Force_Field>
OPLS_2005

> <r_lp_Energy>
21.431

> <b_lp_Chiralities_Consistent>
1

> <s_lp_Variant>
AV-unprocessed.smi:1605-4

> <Gold.Version>
5.8.1

> <Gold.Id.Protein>
6NUR|6NUR_protein|mol2

> <Gold.PLP.Fitness>
55.7187

> <Gold.PLP.PLP>
-51.9371

> <Gold.PLP.part.hbond>
-1.0000

> <Gold.PLP.part.metal>
0.0000

> <Gold.PLP.part.buried>
-6.9094

> <Gold.PLP.part.nonpolar>
-44.6664

> <Gold.PLP.part.repulsive>
0.8120

> <Gold.PLP.ligand.clash>
0.0000

> <Gold.PLP.ligand.torsion>
1.1794

> <Gold.PLP.Chemscore.Hbond>
2.0000

> <Gold.PLP.Chemscore.CHOScore>
0.0000

> <Gold.PLP.Chemscore.Metal>
0.0000

> <Gold.Chemscore.Hbonds>
donor molecule, donor type, donor heavy atom, donor atom, acceptor molecule, acceptor atom, score
      L1  H     6    51       P1  8028  2.00

> <Gold.PLP.Chemscore.Internal.Correction>
0.1405

> <Gold.Rescore>
     Score         DG    S(hbond)    S(metal)    S(lipo)     H(rot)  DE(clash)    DE(int)     intcor
     16.41     -18.66       1.00        0.00     132.70       2.22       1.13       1.12       ----

> <Gold.Chemscore.Fitness>
16.4067

> <Gold.Chemscore.DG>
-18.6572

> <Gold.Chemscore.ZeroCoef>
-5.4800

> <Gold.Chemscore.Hbond>
0.9959

> <Gold.Chemscore.Metal>
0.0000

> <Gold.Chemscore.Lipo>
132.7034

> <Gold.Chemscore.Internal_Hbond>
0.0000

> <Gold.Chemscore.DEClash>
1.1300

> <Gold.Chemscore.DEInternal>
1.1205

> <Gold.Chemscore.Rot>
2.2169

> <Gold.Chemscore.Internal.Correction>
   9.000000E+99

> <Gold.Chemscore.Hbonds>
donor molecule, donor type, donor heavy atom, donor atom, acceptor molecule, acceptor atom, score
      L1  H     6    51       P1  8028  1.00

> <Gold.Chemscore.Hbond.Weighted>
-3.3263

> <Gold.Chemscore.Metal.Weighted>
-0.0000

> <Gold.Chemscore.Lipo.Weighted>
-15.5263

> <Gold.Chemscore.Internal_Hbond.Weighted>
0.0000

> <Gold.Chemscore.DEClash.Weighted>
1.1300

> <Gold.Chemscore.DEInternal.Weighted>
1.1205

> <Gold.Chemscore.Rot.Weighted>
5.6753

> <Gold.Chemscore.Internal.Correction.Weighted>
   9.000000E+99

> <Gold.Protein.RotatedTorsions>
[ 6907 6896 6895 6894 ] final  -51.78 input  -60.11 | X-H torsion
[ 7974 7965 7964 7962 ] final  166.88 input  175.53 | X-H torsion
[ 8008 7997 7996 7995 ] final   61.69 input   59.86 | X-H torsion
[ 10167 10162 10161 10158 ] final  151.22 input  -65.29 | X-H torsion
[ 10718 10713 10712 10709 ] final   13.45 input   66.30 | X-H torsion
[ 10763 10752 10751 10750 ] final -139.78 input  -60.55 | X-H torsion
[ 11005 11000 10999 10996 ] final -166.24 input  -57.11 | X-H torsion

> <Gold.Protein.ActiveResidues>
 VAL166  LYS551  ARG553  GLY616  TRP617  ASP618  TYR619  PRO620  LYS621  CYS622 
 ASP623  PHE694  ASN695  SER759  ASP760  ASP761  ALA762  ILE779  LEU786  VAL792 
 PHE793  MET794  SER795  GLU796  ALA797  LYS798  CYS799  TRP800  GLU811  SER814 

> <Gold.Protein.RotatedAtoms>
  150.8579  134.7923  159.7059 H   0  0  0  0  0  0  0  0  0  0  0  0  # atno 6907 bound_to 6896
  152.4625  134.5148  159.9774 H   0  0  0  0  0  0  0  0  0  0  0  0  # atno 6908 bound_to 6896
  151.5257  133.3420  159.2945 H   0  0  0  0  0  0  0  0  0  0  0  0  # atno 6909 bound_to 6896
  144.7445  139.8680  143.6386 H   0  0  0  0  0  0  0  0  0  0  0  0  # atno 7974 bound_to 7965
  155.6025  140.3494  155.4598 H   0  0  0  0  0  0  0  0  0  0  0  0  # atno 8008 bound_to 7997
  156.0217  140.1255  157.0374 H   0  0  0  0  0  0  0  0  0  0  0  0  # atno 8009 bound_to 7997
  154.4318  140.1061  156.5960 H   0  0  0  0  0  0  0  0  0  0  0  0  # atno 8010 bound_to 7997
  139.4842  144.5459  151.7485 H   0  0  0  0  0  0  0  0  0  0  0  0  # atno 10167 bound_to 10162
  157.0249  130.6169  149.5726 H   0  0  0  0  0  0  0  0  0  0  0  0  # atno 10718 bound_to 10713
  154.8599  135.3572  154.5601 H   0  0  0  0  0  0  0  0  0  0  0  0  # atno 10763 bound_to 10752
  153.6216  135.7005  153.5313 H   0  0  0  0  0  0  0  0  0  0  0  0  # atno 10764 bound_to 10752
  153.3124  135.4175  155.1307 H   0  0  0  0  0  0  0  0  0  0  0  0  # atno 10765 bound_to 10752
  140.5667  134.5279  157.5154 H   0  0  0  0  0  0  0  0  0  0  0  0  # atno 11005 bound_to 11000
  146.1301  139.4334  143.0174 LP  0  0  0  0  0  0  0  0  0  0  0  0  # atno 17320 bound_to 7965
  145.7176  141.0086  143.1420 LP  0  0  0  0  0  0  0  0  0  0  0  0  # atno 17321 bound_to 7965
  140.5005  144.1176  150.5970 LP  0  0  0  0  0  0  0  0  0  0  0  0  # atno 17342 bound_to 10162
  140.4067  143.2676  151.9882 LP  0  0  0  0  0  0  0  0  0  0  0  0  # atno 17343 bound_to 10162
  156.0089  130.5179  150.7924 LP  0  0  0  0  0  0  0  0  0  0  0  0  # atno 17370 bound_to 10713
  157.5222  131.0932  151.0064 LP  0  0  0  0  0  0  0  0  0  0  0  0  # atno 17371 bound_to 10713
  139.9381  134.7837  156.0749 LP  0  0  0  0  0  0  0  0  0  0  0  0  # atno 17394 bound_to 11000
  141.1081  133.6653  156.2913 LP  0  0  0  0  0  0  0  0  0  0  0  0  # atno 17395 bound_to 11000

$$$$
