AV-unprocessed.smi:99|AV-procd|sdf|873|dock10
  -GOLD-   2262017343D 1   1.00000     0.00000
 Structure written by MMmdl.
 53 56  0  0  0  0  0  0  0  0  1 V2000
  151.9634  140.2696  157.4985 O   0  0  0  0  0  0  0  0  0  0  0  0
  151.4233  141.3552  157.2768 C   0  0  0  0  0  0  0  0  0  0  0  0
  150.5172  141.5525  156.3012 O   0  0  0  0  0  0  0  0  0  0  0  0
  150.3753  140.6045  155.2557 C   0  0  0  0  0  0  0  0  0  0  0  0
  148.9628  140.7168  154.6648 C   0  0  2  0  0  0  0  0  0  0  0  0
  148.0321  141.1359  155.6547 O   0  0  0  0  0  0  0  0  0  0  0  0
  146.7391  140.7555  155.2841 C   0  0  1  0  0  0  0  0  0  0  0  0
  145.9536  141.9694  154.8206 N   0  0  0  0  0  0  0  0  0  0  0  0
  146.4445  142.8675  153.8802 C   0  0  0  0  0  0  0  0  0  0  0  0
  145.7469  143.9477  153.4556 C   0  0  0  0  0  0  0  0  0  0  0  0
  144.4149  144.2248  153.9828 C   0  0  0  0  0  0  0  0  0  0  0  0
  143.7074  145.1758  153.6574 O   0  0  0  0  0  0  0  0  0  0  0  0
  143.9623  143.3012  154.9286 N   0  0  0  0  0  0  0  0  0  0  0  0
  144.6714  142.1847  155.3735 C   0  0  0  0  0  0  0  0  0  0  0  0
  144.1735  141.4303  156.2085 O   0  0  0  0  0  0  0  0  0  0  0  0
  146.8682  139.6579  154.1971 C   0  0  1  0  0  0  0  0  0  0  0  0
  146.3988  140.0280  152.9127 O   0  0  0  0  0  0  0  0  0  0  0  0
  148.3695  139.4110  154.1314 C   0  0  2  0  0  0  0  0  0  0  0  0
  148.7385  138.3171  154.9645 O   0  0  0  0  0  0  0  0  0  0  0  0
  148.2342  137.0836  154.7535 C   0  0  0  0  0  0  0  0  0  0  0  0
  147.1198  136.8738  154.2709 O   0  0  0  0  0  0  0  0  0  0  0  0
  149.1698  136.0002  155.1689 C   0  0  0  0  0  0  0  0  0  0  0  0
  148.8510  134.6558  154.8677 C   0  0  0  0  0  0  0  0  0  0  0  0
  149.7164  133.6113  155.2471 C   0  0  0  0  0  0  0  0  0  0  0  0
  150.9121  133.8992  155.9306 C   0  0  0  0  0  0  0  0  0  0  0  0
  151.2420  135.2331  156.2336 C   0  0  0  0  0  0  0  0  0  0  0  0
  150.3774  136.2789  155.8559 C   0  0  0  0  0  0  0  0  0  0  0  0
  151.7023  142.5907  158.0631 C   0  0  0  0  0  0  0  0  0  0  0  0
  152.3413  142.4831  159.3204 C   0  0  0  0  0  0  0  0  0  0  0  0
  152.6193  143.6334  160.0841 C   0  0  0  0  0  0  0  0  0  0  0  0
  152.2645  144.9055  159.5985 C   0  0  0  0  0  0  0  0  0  0  0  0
  151.6311  145.0261  158.3479 C   0  0  0  0  0  0  0  0  0  0  0  0
  151.3503  143.8768  157.5834 C   0  0  0  0  0  0  0  0  0  0  0  0
  143.0444  143.4528  155.3208 H   0  0  0  0  0  0  0  0  0  0  0  0
  151.1194  140.7861  154.4785 H   0  0  0  0  0  0  0  0  0  0  0  0
  150.5476  139.5996  155.6425 H   0  0  0  0  0  0  0  0  0  0  0  0
  148.9673  141.4477  153.8557 H   0  0  0  0  0  0  0  0  0  0  0  0
  146.2356  140.4075  156.1881 H   0  0  0  0  0  0  0  0  0  0  0  0
  147.4248  142.7250  153.4538 H   0  0  0  0  0  0  0  0  0  0  0  0
  146.1780  144.6129  152.7214 H   0  0  0  0  0  0  0  0  0  0  0  0
  146.3207  138.7696  154.5144 H   0  0  0  0  0  0  0  0  0  0  0  0
  145.5469  140.4259  153.0077 H   0  0  0  0  0  0  0  0  0  0  0  0
  148.7156  139.2365  153.1111 H   0  0  0  0  0  0  0  0  0  0  0  0
  147.9385  134.4103  154.3435 H   0  0  0  0  0  0  0  0  0  0  0  0
  149.4615  132.5880  155.0134 H   0  0  0  0  0  0  0  0  0  0  0  0
  151.5754  133.0980  156.2214 H   0  0  0  0  0  0  0  0  0  0  0  0
  152.1600  135.4557  156.7568 H   0  0  0  0  0  0  0  0  0  0  0  0
  150.6622  137.2915  156.1024 H   0  0  0  0  0  0  0  0  0  0  0  0
  152.6228  141.5170  159.7140 H   0  0  0  0  0  0  0  0  0  0  0  0
  153.1061  143.5387  161.0438 H   0  0  0  0  0  0  0  0  0  0  0  0
  152.4793  145.7873  160.1841 H   0  0  0  0  0  0  0  0  0  0  0  0
  151.3608  146.0022  157.9730 H   0  0  0  0  0  0  0  0  0  0  0  0
  150.8665  144.0049  156.6260 H   0  0  0  0  0  0  0  0  0  0  0  0
  1  2  2  0  0  0  0
  2  3  1  0  0  0  0
  2 28  1  0  0  0  0
  3  4  1  0  0  0  0
  4  5  1  0  0  0  0
  4 35  1  0  0  0  0
  4 36  1  0  0  0  0
  5 18  1  0  0  0  0
  5  6  1  0  0  0  0
  5 37  1  0  0  0  0
  6  7  1  0  0  0  0
  7  8  1  0  0  0  0
  7 16  1  0  0  0  0
  7 38  1  0  0  0  0
  8 14  1  0  0  0  0
  8  9  1  0  0  0  0
  9 10  2  0  0  0  0
  9 39  1  0  0  0  0
 10 11  1  0  0  0  0
 10 40  1  0  0  0  0
 11 12  2  0  0  0  0
 11 13  1  0  0  0  0
 13 34  1  0  0  0  0
 13 14  1  0  0  0  0
 14 15  2  0  0  0  0
 16 17  1  0  0  0  0
 16 18  1  0  0  0  0
 16 41  1  0  0  0  0
 17 42  1  0  0  0  0
 18 19  1  0  0  0  0
 18 43  1  0  0  0  0
 19 20  1  0  0  0  0
 20 21  2  0  0  0  0
 20 22  1  0  0  0  0
 22 27  1  0  0  0  0
 22 23  2  0  0  0  0
 23 24  1  0  0  0  0
 23 44  1  0  0  0  0
 24 25  2  0  0  0  0
 24 45  1  0  0  0  0
 25 26  1  0  0  0  0
 25 46  1  0  0  0  0
 26 27  2  0  0  0  0
 26 47  1  0  0  0  0
 27 48  1  0  0  0  0
 28 33  1  0  0  0  0
 28 29  2  0  0  0  0
 29 30  1  0  0  0  0
 29 49  1  0  0  0  0
 30 31  2  0  0  0  0
 30 50  1  0  0  0  0
 31 32  1  0  0  0  0
 31 51  1  0  0  0  0
 32 33  2  0  0  0  0
 32 52  1  0  0  0  0
 33 53  1  0  0  0  0
M  END
> <s_m_source_file>
AV-unprocessed.smi

> <i_m_source_file_index>
99

> <i_lp_mmshare_version>
43012

> <i_f3d_flags>
0

> <s_epik_input>
W2NIXTFbY0hdW2NIXVtjSF1bY0hdYzFDKD1PKU9bQ0gyXVtDQEBIXTJPW0NAQEhdKG4zW2NIXVtjSF1jKD1PKVtuSF1jMz1PKVtDQEBIXShbT0hdKVtDQEhdMk9DKD1PKWM0W2NIXVtjSF1bY0hdW2NIXVtjSF00

> <s_epik_cmdline>
J2VwaWtfcHl0aG9uJywgJy1waCcsICc3LjAnLCAnLXRuJywgJzgnLCAnLW1hJywgJzIwMCcsICctbWV0YWxfYmluZGluZycsICctaW1hZScsICc8aW5maWxlLm1hZT4nLCAnLW9tYWUnLCAnPG91dGZpbGUubWFlPic=

> <r_lp_tautomer_probability>
1

> <r_epik_Ionization_Penalty>
0.00454555

> <r_epik_Ionization_Penalty_Charging>
0.0045191

> <r_epik_Ionization_Penalty_Neutral>
2.64449e-05

> <r_epik_State_Penalty>
-0

> <r_epik_Charging_Adjusted_Penalty>
0.0045191

> <i_epik_Tot_Q>
0

> <i_epik_Tot_abs_Q>
0

> <r_epik_Metal_State_Penalty>
1.27877

> <b_epik_Metal_Only>
0

> <s_epik_Chemistry_Notes>
This compound has an ester and may undergo hydrolysis at high or low pH. This compound contains an acetal/aminal-like group ( X-CH(R)-Y where X, Y are N, S, or O) that may be acid/base labile, releasing an aldehyde.

> <s_lp_Force_Field>
OPLS_2005

> <r_lp_Energy>
38.1357

> <b_lp_Chiralities_Consistent>
1

> <s_lp_Variant>
AV-unprocessed.smi:99-9

> <Gold.Version>
5.8.1

> <Gold.Id.Protein>
6NUR|6NUR_protein|mol2

> <Gold.PLP.Fitness>
52.6522

> <Gold.PLP.PLP>
-52.1181

> <Gold.PLP.part.hbond>
-2.4964

> <Gold.PLP.part.metal>
0.0000

> <Gold.PLP.part.buried>
-5.5458

> <Gold.PLP.part.nonpolar>
-45.4208

> <Gold.PLP.part.repulsive>
0.5932

> <Gold.PLP.ligand.clash>
0.0000

> <Gold.PLP.ligand.torsion>
1.4503

> <Gold.PLP.Chemscore.Hbond>
0.9760

> <Gold.PLP.Chemscore.CHOScore>
0.0000

> <Gold.PLP.Chemscore.Metal>
0.0000

> <Gold.Chemscore.Hbonds>
donor molecule, donor type, donor heavy atom, donor atom, acceptor molecule, acceptor atom, score
      L1  H    17    42       P1 10175  0.96

> <Gold.PLP.Chemscore.Internal.Correction>
0.5068

> <Gold.Rescore>
     Score         DG    S(hbond)    S(metal)    S(lipo)     H(rot)  DE(clash)    DE(int)     intcor
     11.66     -15.19       0.79        0.00     130.26       3.19       0.01       3.52       ----

> <Gold.Chemscore.Fitness>
11.6637

> <Gold.Chemscore.DG>
-15.1936

> <Gold.Chemscore.ZeroCoef>
-5.4800

> <Gold.Chemscore.Hbond>
0.7905

> <Gold.Chemscore.Metal>
0.0000

> <Gold.Chemscore.Lipo>
130.2583

> <Gold.Chemscore.Internal_Hbond>
0.0000

> <Gold.Chemscore.DEClash>
0.0051

> <Gold.Chemscore.DEInternal>
3.5248

> <Gold.Chemscore.Rot>
3.1903

> <Gold.Chemscore.Internal.Correction>
   9.000000E+99

> <Gold.Chemscore.Hbonds>
donor molecule, donor type, donor heavy atom, donor atom, acceptor molecule, acceptor atom, score
      L1  H    17    42       P1 10175  0.83

> <Gold.Chemscore.Hbond.Weighted>
-2.6404

> <Gold.Chemscore.Metal.Weighted>
-0.0000

> <Gold.Chemscore.Lipo.Weighted>
-15.2402

> <Gold.Chemscore.Internal_Hbond.Weighted>
0.0000

> <Gold.Chemscore.DEClash.Weighted>
0.0051

> <Gold.Chemscore.DEInternal.Weighted>
3.5248

> <Gold.Chemscore.Rot.Weighted>
8.1671

> <Gold.Chemscore.Internal.Correction.Weighted>
   9.000000E+99

> <Gold.Protein.RotatedTorsions>
[ 6907 6896 6895 6894 ] final -138.81 input  -60.11 | X-H torsion
[ 7974 7965 7964 7962 ] final    3.11 input  175.53 | X-H torsion
[ 8008 7997 7996 7995 ] final   14.63 input   59.86 | X-H torsion
[ 10167 10162 10161 10158 ] final   12.80 input  -65.29 | X-H torsion
[ 10718 10713 10712 10709 ] final   -3.97 input   66.30 | X-H torsion
[ 10763 10752 10751 10750 ] final   -3.02 input  -60.55 | X-H torsion
[ 11005 11000 10999 10996 ] final -177.10 input  -57.11 | X-H torsion

> <Gold.Protein.ActiveResidues>
 VAL166  LYS551  ARG553  GLY616  TRP617  ASP618  TYR619  PRO620  LYS621  CYS622 
 ASP623  PHE694  ASN695  SER759  ASP760  ASP761  ALA762  ILE779  LEU786  VAL792 
 PHE793  MET794  SER795  GLU796  ALA797  LYS798  CYS799  TRP800  GLU811  SER814 

> <Gold.Protein.RotatedAtoms>
  151.0397  133.5717  159.2652 H   0  0  0  0  0  0  0  0  0  0  0  0  # atno 6907 bound_to 6896
  151.2768  135.0701  159.9164 H   0  0  0  0  0  0  0  0  0  0  0  0  # atno 6908 bound_to 6896
  152.5362  134.0118  159.7996 H   0  0  0  0  0  0  0  0  0  0  0  0  # atno 6909 bound_to 6896
  146.2445  140.0735  142.8361 H   0  0  0  0  0  0  0  0  0  0  0  0  # atno 7974 bound_to 7965
  154.8512  140.2930  155.5597 H   0  0  0  0  0  0  0  0  0  0  0  0  # atno 8008 bound_to 7997
  156.3016  140.2495  156.3404 H   0  0  0  0  0  0  0  0  0  0  0  0  # atno 8009 bound_to 7997
  154.9019  140.0391  157.1887 H   0  0  0  0  0  0  0  0  0  0  0  0  # atno 8010 bound_to 7997
  140.6044  143.8537  150.6999 H   0  0  0  0  0  0  0  0  0  0  0  0  # atno 10167 bound_to 10162
  156.7682  130.5291  149.5772 H   0  0  0  0  0  0  0  0  0  0  0  0  # atno 10718 bound_to 10713
  153.3658  135.6992  153.6676 H   0  0  0  0  0  0  0  0  0  0  0  0  # atno 10763 bound_to 10752
  153.5347  135.3585  155.2692 H   0  0  0  0  0  0  0  0  0  0  0  0  # atno 10764 bound_to 10752
  154.8674  135.4189  154.2925 H   0  0  0  0  0  0  0  0  0  0  0  0  # atno 10765 bound_to 10752
  140.4447  134.6399  157.4774 H   0  0  0  0  0  0  0  0  0  0  0  0  # atno 11005 bound_to 11000
  145.0795  140.9211  143.4834 LP  0  0  0  0  0  0  0  0  0  0  0  0  # atno 17320 bound_to 7965
  145.0885  139.2907  143.5747 LP  0  0  0  0  0  0  0  0  0  0  0  0  # atno 17321 bound_to 7965
  140.2091  143.3898  152.1732 LP  0  0  0  0  0  0  0  0  0  0  0  0  # atno 17342 bound_to 10162
  139.5314  144.7163  151.5042 LP  0  0  0  0  0  0  0  0  0  0  0  0  # atno 17343 bound_to 10162
  156.1295  130.6168  151.0312 LP  0  0  0  0  0  0  0  0  0  0  0  0  # atno 17370 bound_to 10713
  157.6703  131.0863  150.7628 LP  0  0  0  0  0  0  0  0  0  0  0  0  # atno 17371 bound_to 10713
  140.0046  134.6783  155.9475 LP  0  0  0  0  0  0  0  0  0  0  0  0  # atno 17394 bound_to 11000
  141.1690  133.6537  156.4583 LP  0  0  0  0  0  0  0  0  0  0  0  0  # atno 17395 bound_to 11000

$$$$
