#       Name:                AV-unprocessed.smi:1814
#       Creating user name   scv26
#       Creation time:       Fri Mar 27 09:01:13 2020


#       File generated by GOLD software.
#

@<TRIPOS>MOLECULE
AV-unprocessed.smi:1814
    36    37     1
SMALL
NO_CHARGES


@<TRIPOS>ATOM
      1 ****        -0.7813   1.9223  -0.5264 O.2            1 S1                 0.0000
      2 ****        -1.2286   0.9368   0.0611 C.2            1 S1                 0.0000
      3 ****        -2.5241   0.7293   0.3555 N.am           1 S1                 0.0000
      4 ****        -3.6351   1.5634   0.0634 C.2            1 S1                 0.0000
      5 ****        -3.5491   2.7474  -0.5544 N.2            1 S1                 0.0000
      6 ****        -4.7999   3.3494  -0.7114 C.2            1 S1                 0.0000
      7 ****        -5.8353   2.6043  -0.2041 C.2            1 S1                 0.0000
      8 ****        -5.2765   1.1095   0.4980 S.3            1 S1                 0.0000
      9 ****        -0.4648  -0.0794   0.4885 N.am           1 S1                 0.0000
     10 ****         0.9829  -0.1726   0.3237 C.3            1 S1                 0.0000
     11 ****         1.3374  -0.7233  -1.0725 C.3            1 S1                 0.0000
     12 ****         2.8576  -0.8892  -1.2458 C.3            1 S1                 0.0000
     13 ****         3.4846  -1.7467  -0.1301 C.3            1 S1                 0.0000
     14 ****         3.0903  -3.0971  -0.2747 O.3            1 S1                 0.0000
     15 ****         3.0952  -1.2308   1.2681 C.3            1 S1                 0.0000
     16 ****         1.5731  -1.0695   1.4269 C.3            1 S1                 0.0000
     17 ****        -2.7426  -0.1293   0.8387 H              1 S1                 0.0000
     18 ****        -4.8617   4.3115  -1.1982 H              1 S1                 0.0000
     19 ****        -6.8882   2.8438  -0.2010 H              1 S1                 0.0000
     20 ****        -0.9169  -0.8480   0.9615 H              1 S1                 0.0000
     21 ****         1.4166   0.8236   0.4308 H              1 S1                 0.0000
     22 ****         0.8465  -1.6854  -1.2258 H              1 S1                 0.0000
     23 ****         0.9557  -0.0580  -1.8480 H              1 S1                 0.0000
     24 ****         3.0788  -1.3186  -2.2237 H              1 S1                 0.0000
     25 ****         3.3218   0.0979  -1.2368 H              1 S1                 0.0000
     26 ****         4.5702  -1.7214  -0.2291 H              1 S1                 0.0000
     27 ****         3.3869  -3.4085  -1.1163 H              1 S1                 0.0000
     28 ****         3.4845  -1.8966   2.0392 H              1 S1                 0.0000
     29 ****         3.5708  -0.2634   1.4345 H              1 S1                 0.0000
     30 ****         1.3516  -0.6487   2.4084 H              1 S1                 0.0000
     31 ****         1.0987  -2.0516   1.3999 H              1 S1                 0.0000
     32 ****        -1.3993   2.6494  -0.8252 LP             1 S1                 0.0000
     33 ****         0.2000   1.9954  -0.7047 LP             1 S1                 0.0000
     34 ****        -2.6903   3.1535  -0.8669 LP             1 S1                 0.0000
     35 ****         2.0940  -3.1649  -0.2222 LP             1 S1                 0.0000
     36 ****         3.5006  -3.6478   0.4522 LP             1 S1                 0.0000
@<TRIPOS>BOND
    1    1    2 2     
    2    2    3 am    
    3    2    9 am    
    4    3    4 1     
    5    3   17 1     
    6    4    8 1     
    7    4    5 2     
    8    5    6 1     
    9    6    7 2     
   10    6   18 1     
   11    7    8 1     
   12    7   19 1     
   13    9   10 1     
   14    9   20 1     
   15   10   16 1     
   16   10   11 1     
   17   10   21 1     
   18   11   12 1     
   19   11   22 1     
   20   11   23 1     
   21   12   13 1     
   22   12   24 1     
   23   12   25 1     
   24   13   14 1     
   25   13   15 1     
   26   13   26 1     
   27   14   27 1     
   28   15   16 1     
   29   15   28 1     
   30   15   29 1     
   31   16   30 1     
   32   16   31 1     
   33    1   32 1     
   34    1   33 1     
   35    5   34 1     
   36   14   35 1     
   37   14   36 1     
@<TRIPOS>SUBSTRUCTURE
      1 S1             1
@<TRIPOS>SET
LONE_PAIRS      STATIC     ATOMS    <user>   **** ""
5 32 33 34 35 36
DONOR_HYDROGENS      STATIC     ATOMS    <user>   **** ""
3 17 20 27
ATOM$BLUE        STATIC     ATOMS    COLORGROUP SYSTEM
5 32 33 34 35 36
ATOM$RED        STATIC     ATOMS    COLORGROUP SYSTEM
3 17 20 27
