AV-unprocessed.smi:1503|AV-procd|sdf|6069|dock5
  -GOLD-   22720 6183D 1   1.00000     0.00000
 Structure written by MMmdl.
 44 45  0  0  0  0  0  0  0  0  1 V2000
  145.3941  134.1623  150.8303 C   0  0  0  0  0  0  0  0  0  0  0  0
  145.8917  135.2669  151.4060 C   0  0  0  0  0  0  0  0  0  0  0  0
  145.0666  136.4783  151.7920 C   0  0  0  0  0  0  0  0  0  0  0  0
  145.7978  137.3551  152.6980 N   0  0  0  0  0  0  0  0  0  0  0  0
  146.6049  138.3569  152.3168 C   0  0  0  0  0  0  0  0  0  0  0  0
  146.8074  138.6472  151.1370 O   0  0  0  0  0  0  0  0  0  0  0  0
  147.2737  139.1420  153.4497 C   0  0  0  0  0  0  0  0  0  0  0  0
  148.8000  139.2828  153.2896 C   0  0  0  0  0  0  0  0  0  0  0  0
  149.4215  140.1086  154.4123 C   0  0  0  0  0  0  0  0  0  0  0  0
  148.9744  141.3383  154.7615 C   0  0  0  0  0  0  0  0  0  0  0  0
  147.7972  142.0406  154.1080 C   0  0  0  0  0  0  0  0  0  0  0  0
  149.5764  142.0536  155.7800 N   0  0  0  0  0  0  0  0  0  0  0  0
  150.6705  141.5070  156.4397 C   0  0  0  0  0  0  0  0  0  0  0  0
  151.2042  142.3169  157.4415 N   0  0  0  0  0  0  0  0  0  0  0  0
  152.1988  141.7714  158.3655 C   0  0  0  0  0  0  0  0  0  0  0  0
  153.0084  142.8928  159.0380 C   0  0  0  0  0  0  0  0  0  0  0  0
  152.1252  143.7961  159.6893 O   0  0  0  0  0  0  0  0  0  0  0  0
  151.2359  144.4103  158.7661 C   0  0  0  0  0  0  0  0  0  0  0  0
  150.3736  143.3349  158.0843 C   0  0  0  0  0  0  0  0  0  0  0  0
  151.1525  140.3305  156.1586 N   0  0  0  0  0  0  0  0  0  0  0  0
  150.5772  139.5505  155.1445 C   0  0  0  0  0  0  0  0  0  0  0  0
  151.0261  138.4350  154.8848 O   0  0  0  0  0  0  0  0  0  0  0  0
  149.1984  142.9617  156.0075 H   0  0  0  0  0  0  0  0  0  0  0  0
  144.3425  134.0750  150.5997 H   0  0  0  0  0  0  0  0  0  0  0  0
  146.0351  133.3296  150.5811 H   0  0  0  0  0  0  0  0  0  0  0  0
  146.9487  135.3175  151.6235 H   0  0  0  0  0  0  0  0  0  0  0  0
  144.7445  137.0248  150.9035 H   0  0  0  0  0  0  0  0  0  0  0  0
  144.1639  136.1364  152.2984 H   0  0  0  0  0  0  0  0  0  0  0  0
  145.6864  137.1853  153.6871 H   0  0  0  0  0  0  0  0  0  0  0  0
  146.8153  140.1303  153.4979 H   0  0  0  0  0  0  0  0  0  0  0  0
  147.0479  138.6456  154.3944 H   0  0  0  0  0  0  0  0  0  0  0  0
  149.2711  138.2989  153.2574 H   0  0  0  0  0  0  0  0  0  0  0  0
  149.0302  139.7411  152.3279 H   0  0  0  0  0  0  0  0  0  0  0  0
  146.9068  141.4128  154.1522 H   0  0  0  0  0  0  0  0  0  0  0  0
  148.0163  142.2562  153.0622 H   0  0  0  0  0  0  0  0  0  0  0  0
  147.5663  142.9845  154.6032 H   0  0  0  0  0  0  0  0  0  0  0  0
  152.8841  141.0946  157.8545 H   0  0  0  0  0  0  0  0  0  0  0  0
  151.6838  141.1806  159.1242 H   0  0  0  0  0  0  0  0  0  0  0  0
  153.6912  142.4717  159.7762 H   0  0  0  0  0  0  0  0  0  0  0  0
  153.6187  143.4242  158.3058 H   0  0  0  0  0  0  0  0  0  0  0  0
  150.6011  145.1162  159.3014 H   0  0  0  0  0  0  0  0  0  0  0  0
  151.7984  144.9837  158.0275 H   0  0  0  0  0  0  0  0  0  0  0  0
  149.7280  142.8534  158.8199 H   0  0  0  0  0  0  0  0  0  0  0  0
  149.7211  143.8099  157.3502 H   0  0  0  0  0  0  0  0  0  0  0  0
  1  2  2  0  0  0  0
  1 24  1  0  0  0  0
  1 25  1  0  0  0  0
  2  3  1  0  0  0  0
  2 26  1  0  0  0  0
  3  4  1  0  0  0  0
  3 27  1  0  0  0  0
  3 28  1  0  0  0  0
  4  5  1  0  0  0  0
  4 29  1  0  0  0  0
  5  6  2  0  0  0  0
  5  7  1  0  0  0  0
  7  8  1  0  0  0  0
  7 30  1  0  0  0  0
  7 31  1  0  0  0  0
  8 32  1  0  0  0  0
  8 33  1  0  0  0  0
  8  9  1  0  0  0  0
  9 21  1  0  0  0  0
  9 10  2  0  0  0  0
 10 12  1  0  0  0  0
 10 11  1  0  0  0  0
 11 34  1  0  0  0  0
 11 35  1  0  0  0  0
 11 36  1  0  0  0  0
 12 23  1  0  0  0  0
 12 13  1  0  0  0  0
 13 14  1  0  0  0  0
 13 20  2  0  0  0  0
 14 19  1  0  0  0  0
 14 15  1  0  0  0  0
 15 16  1  0  0  0  0
 15 37  1  0  0  0  0
 15 38  1  0  0  0  0
 16 17  1  0  0  0  0
 16 39  1  0  0  0  0
 16 40  1  0  0  0  0
 17 18  1  0  0  0  0
 18 19  1  0  0  0  0
 18 41  1  0  0  0  0
 18 42  1  0  0  0  0
 19 43  1  0  0  0  0
 19 44  1  0  0  0  0
 20 21  1  0  0  0  0
 21 22  2  0  0  0  0
M  END
> <s_m_source_file>
AV-unprocessed.smi

> <i_m_source_file_index>
1503

> <i_lp_mmshare_version>
43012

> <i_f3d_flags>
0

> <s_epik_input>
W0NIMl09W0NIXVtDSDJdW05IXUMoPU8pW0NIMl1bQ0gyXWMxYyhbQ0gzXSluYyhbbkhdYzE9TylOMltDSDJdW0NIMl1PW0NIMl1bQ0gyXTI=

> <s_epik_cmdline>
J2VwaWtfcHl0aG9uJywgJy1waCcsICc3LjAnLCAnLXRuJywgJzgnLCAnLW1hJywgJzIwMCcsICctbWV0YWxfYmluZGluZycsICctaW1hZScsICc8aW5maWxlLm1hZT4nLCAnLW9tYWUnLCAnPG91dGZpbGUubWFlPic=

> <r_lp_tautomer_probability>
0.108306

> <r_epik_Ionization_Penalty>
0.0745381

> <r_epik_Ionization_Penalty_Charging>
0.0625831

> <r_epik_Ionization_Penalty_Neutral>
0.0119549

> <r_epik_State_Penalty>
1.70762

> <r_epik_Charging_Adjusted_Penalty>
1.7702

> <i_epik_Tot_Q>
0

> <i_epik_Tot_abs_Q>
0

> <r_epik_Metal_State_Penalty>
2.68249

> <b_epik_Metal_Only>
0

> <s_lp_Force_Field>
OPLS_2005

> <r_lp_Energy>
25.2683

> <b_lp_Chiralities_Consistent>
1

> <s_lp_Variant>
AV-unprocessed.smi:1503-2

> <Gold.Version>
5.8.1

> <Gold.Id.Protein>
6NUR|6NUR_protein|mol2

> <Gold.PLP.Fitness>
45.6982

> <Gold.PLP.PLP>
-40.5331

> <Gold.PLP.part.hbond>
-2.0000

> <Gold.PLP.part.metal>
0.0000

> <Gold.PLP.part.buried>
0.9100

> <Gold.PLP.part.nonpolar>
-39.3465

> <Gold.PLP.part.repulsive>
1.0537

> <Gold.PLP.ligand.clash>
0.0000

> <Gold.PLP.ligand.torsion>
0.5731

> <Gold.PLP.Chemscore.Hbond>
1.9920

> <Gold.PLP.Chemscore.CHOScore>
0.0000

> <Gold.PLP.Chemscore.Metal>
0.0000

> <Gold.Chemscore.Hbonds>
donor molecule, donor type, donor heavy atom, donor atom, acceptor molecule, acceptor atom, score
      L1  H    12    23       P1  8028  1.00
      P1  H  7954  7966       L1     6  1.00

> <Gold.PLP.Chemscore.Internal.Correction>
0.3352

> <Gold.Rescore>
     Score         DG    S(hbond)    S(metal)    S(lipo)     H(rot)  DE(clash)    DE(int)     intcor
     15.43     -18.05       1.97        0.00      93.19       1.92       2.05       0.57       ----

> <Gold.Chemscore.Fitness>
15.4327

> <Gold.Chemscore.DG>
-18.0528

> <Gold.Chemscore.ZeroCoef>
-5.4800

> <Gold.Chemscore.Hbond>
1.9706

> <Gold.Chemscore.Metal>
0.0000

> <Gold.Chemscore.Lipo>
93.1875

> <Gold.Chemscore.Internal_Hbond>
0.0000

> <Gold.Chemscore.DEClash>
2.0512

> <Gold.Chemscore.DEInternal>
0.5689

> <Gold.Chemscore.Rot>
1.9187

> <Gold.Chemscore.Internal.Correction>
   9.000000E+99

> <Gold.Chemscore.Hbonds>
donor molecule, donor type, donor heavy atom, donor atom, acceptor molecule, acceptor atom, score
      L1  H    12    23       P1  8028  0.97
      P1  H  7954  7966       L1     6  0.92

> <Gold.Chemscore.Hbond.Weighted>
-6.5818

> <Gold.Chemscore.Metal.Weighted>
-0.0000

> <Gold.Chemscore.Lipo.Weighted>
-10.9029

> <Gold.Chemscore.Internal_Hbond.Weighted>
0.0000

> <Gold.Chemscore.DEClash.Weighted>
2.0512

> <Gold.Chemscore.DEInternal.Weighted>
0.5689

> <Gold.Chemscore.Rot.Weighted>
4.9119

> <Gold.Chemscore.Internal.Correction.Weighted>
   9.000000E+99

> <Gold.Protein.RotatedTorsions>
[ 6907 6896 6895 6894 ] final  -57.33 input  -60.11 | X-H torsion
[ 7974 7965 7964 7962 ] final -161.61 input  175.53 | X-H torsion
[ 8008 7997 7996 7995 ] final  -82.21 input   59.86 | X-H torsion
[ 10167 10162 10161 10158 ] final  128.81 input  -65.29 | X-H torsion
[ 10718 10713 10712 10709 ] final  102.38 input   66.30 | X-H torsion
[ 10763 10752 10751 10750 ] final  -48.73 input  -60.55 | X-H torsion
[ 11005 11000 10999 10996 ] final   88.97 input  -57.11 | X-H torsion

> <Gold.Protein.ActiveResidues>
 VAL166  LYS551  ARG553  GLY616  TRP617  ASP618  TYR619  PRO620  LYS621  CYS622 
 ASP623  PHE694  ASN695  SER759  ASP760  ASP761  ALA762  ILE779  LEU786  VAL792 
 PHE793  MET794  SER795  GLU796  ALA797  LYS798  CYS799  TRP800  GLU811  SER814 

> <Gold.Protein.RotatedAtoms>
  150.8094  134.7240  159.6673 H   0  0  0  0  0  0  0  0  0  0  0  0  # atno 6907 bound_to 6896
  152.4214  134.5944  159.9993 H   0  0  0  0  0  0  0  0  0  0  0  0  # atno 6908 bound_to 6896
  151.6159  133.3306  159.3113 H   0  0  0  0  0  0  0  0  0  0  0  0  # atno 6909 bound_to 6896
  144.7385  140.3373  143.6141 H   0  0  0  0  0  0  0  0  0  0  0  0  # atno 7974 bound_to 7965
  154.6063  140.0636  156.9435 H   0  0  0  0  0  0  0  0  0  0  0  0  # atno 8008 bound_to 7997
  155.2048  140.3318  155.4319 H   0  0  0  0  0  0  0  0  0  0  0  0  # atno 8009 bound_to 7997
  156.2349  140.1858  156.7129 H   0  0  0  0  0  0  0  0  0  0  0  0  # atno 8010 bound_to 7997
  139.5509  144.6812  151.4328 H   0  0  0  0  0  0  0  0  0  0  0  0  # atno 10167 bound_to 10162
  157.6804  131.0751  150.5395 H   0  0  0  0  0  0  0  0  0  0  0  0  # atno 10718 bound_to 10713
  154.0825  135.6589  153.4840 H   0  0  0  0  0  0  0  0  0  0  0  0  # atno 10763 bound_to 10752
  153.0351  135.5183  154.7460 H   0  0  0  0  0  0  0  0  0  0  0  0  # atno 10764 bound_to 10752
  154.6559  135.3008  154.9896 H   0  0  0  0  0  0  0  0  0  0  0  0  # atno 10765 bound_to 10752
  139.8885  134.8522  156.3075 H   0  0  0  0  0  0  0  0  0  0  0  0  # atno 11005 bound_to 11000
  145.7411  139.1764  143.2376 LP  0  0  0  0  0  0  0  0  0  0  0  0  # atno 17320 bound_to 7965
  146.1134  140.7400  142.9492 LP  0  0  0  0  0  0  0  0  0  0  0  0  # atno 17321 bound_to 7965
  140.6771  143.8166  150.7072 LP  0  0  0  0  0  0  0  0  0  0  0  0  # atno 17342 bound_to 10162
  140.1608  143.4277  152.2068 LP  0  0  0  0  0  0  0  0  0  0  0  0  # atno 17343 bound_to 10162
  156.5703  130.4278  149.6022 LP  0  0  0  0  0  0  0  0  0  0  0  0  # atno 17370 bound_to 10713
  156.2746  130.7036  151.1844 LP  0  0  0  0  0  0  0  0  0  0  0  0  # atno 17371 bound_to 10713
  140.9872  133.7231  156.0759 LP  0  0  0  0  0  0  0  0  0  0  0  0  # atno 17394 bound_to 11000
  140.7672  134.3873  157.5514 LP  0  0  0  0  0  0  0  0  0  0  0  0  # atno 17395 bound_to 11000

$$$$
