AV-unprocessed.smi:3135|AV-procd|sdf|11945|dock1
  -GOLD-   2272017333D 1   1.00000     0.00000
 Structure written by MMmdl.
 38 39  0  0  0  0  0  0  0  0  2 V2000
  153.4004  142.2435  162.1398 C   0  0  0  0  0  0  0  0  0  0  0  0
  152.7246  142.9765  161.0169 C   0  0  0  0  0  0  0  0  0  0  0  0
  152.1061  144.2584  161.0583 C   0  0  0  0  0  0  0  0  0  0  0  0
  151.5990  144.6225  159.8917 N   0  0  0  0  0  0  0  0  0  0  0  0
  151.8753  143.5902  159.0659 N   0  0  0  0  0  0  0  0  0  0  0  0
  151.4627  143.6445  157.6737 C   0  0  0  0  0  0  0  0  0  0  0  0
  150.7958  142.3426  157.2196 C   0  0  0  0  0  0  0  0  0  0  0  0
  150.9441  141.3153  157.8810 O   0  0  0  0  0  0  0  0  0  0  0  0
  150.0782  142.3867  156.0847 N   0  0  0  0  0  0  0  0  0  0  0  0
  149.3625  141.2545  155.5088 C   0  0  0  0  0  0  0  0  0  0  0  0
  148.9317  141.5384  154.0571 C   0  0  0  0  0  0  0  0  0  0  0  0
  147.4581  141.5302  153.8749 N   0  3  1  0  0  0  0  0  0  0  0  0
  146.8837  140.2082  154.2144 C   0  0  0  0  0  0  0  0  0  0  0  0
  146.7812  142.6236  154.6140 C   0  0  0  0  0  0  0  0  0  0  0  0
  145.2926  142.4169  154.7962 C   0  0  0  0  0  0  0  0  0  0  0  0
  145.7963  143.4177  153.7843 C   0  0  0  0  0  0  0  0  0  0  0  0
  152.5507  142.5818  159.7207 C   0  0  0  0  0  0  0  0  0  0  0  0
  153.9677  142.9198  162.7792 H   0  0  0  0  0  0  0  0  0  0  0  0
  154.0979  141.4910  161.7711 H   0  0  0  0  0  0  0  0  0  0  0  0
  152.6785  141.7294  162.7745 H   0  0  0  0  0  0  0  0  0  0  0  0
  152.0110  144.9316  161.8976 H   0  0  0  0  0  0  0  0  0  0  0  0
  150.7673  144.4741  157.5410 H   0  0  0  0  0  0  0  0  0  0  0  0
  152.3359  143.8557  157.0537 H   0  0  0  0  0  0  0  0  0  0  0  0
  150.0051  143.2713  155.6026 H   0  0  0  0  0  0  0  0  0  0  0  0
  149.9967  140.3695  155.5686 H   0  0  0  0  0  0  0  0  0  0  0  0
  148.4869  141.0542  156.1269 H   0  0  0  0  0  0  0  0  0  0  0  0
  149.3195  142.5181  153.7731 H   0  0  0  0  0  0  0  0  0  0  0  0
  149.3812  140.8183  153.3715 H   0  0  0  0  0  0  0  0  0  0  0  0
  147.0574  139.9665  155.2638 H   0  0  0  0  0  0  0  0  0  0  0  0
  147.3318  139.4233  153.6040 H   0  0  0  0  0  0  0  0  0  0  0  0
  145.8089  140.1859  154.0344 H   0  0  0  0  0  0  0  0  0  0  0  0
  147.3591  143.0996  155.4045 H   0  0  0  0  0  0  0  0  0  0  0  0
  144.8397  141.5055  154.4098 H   0  0  0  0  0  0  0  0  0  0  0  0
  144.8389  142.8119  155.7029 H   0  0  0  0  0  0  0  0  0  0  0  0
  145.6771  144.4726  154.0229 H   0  0  0  0  0  0  0  0  0  0  0  0
  145.6814  143.1635  152.7322 H   0  0  0  0  0  0  0  0  0  0  0  0
  152.8506  141.6758  159.2147 H   0  0  0  0  0  0  0  0  0  0  0  0
  147.2788  141.6775  152.8919 H   0  0  0  0  0  0  0  0  0  0  0  0
  1  2  1  0  0  0  0
  1 18  1  0  0  0  0
  1 19  1  0  0  0  0
  1 20  1  0  0  0  0
  2 17  2  0  0  0  0
  2  3  1  0  0  0  0
  3  4  2  0  0  0  0
  3 21  1  0  0  0  0
  4  5  1  0  0  0  0
  5  6  1  0  0  0  0
  5 17  1  0  0  0  0
  6  7  1  0  0  0  0
  6 22  1  0  0  0  0
  6 23  1  0  0  0  0
  7  8  2  0  0  0  0
  7  9  1  0  0  0  0
  9 10  1  0  0  0  0
  9 24  1  0  0  0  0
 10 11  1  0  0  0  0
 10 25  1  0  0  0  0
 10 26  1  0  0  0  0
 11 12  1  0  0  0  0
 11 27  1  0  0  0  0
 11 28  1  0  0  0  0
 12 13  1  0  0  0  0
 12 14  1  0  0  0  0
 12 38  1  0  0  0  0
 13 29  1  0  0  0  0
 13 30  1  0  0  0  0
 13 31  1  0  0  0  0
 14 16  1  0  0  0  0
 14 15  1  0  0  0  0
 14 32  1  0  0  0  0
 15 16  1  0  0  0  0
 15 33  1  0  0  0  0
 15 34  1  0  0  0  0
 16 35  1  0  0  0  0
 16 36  1  0  0  0  0
 17 37  1  0  0  0  0
M  CHG  1  12   1
M  END
> <s_m_source_file>
AV-unprocessed.smi

> <i_m_source_file_index>
3135

> <i_lp_mmshare_version>
43012

> <i_f3d_flags>
0

> <s_epik_input>
W0NIM11jMVtjSF1ubihbY0hdMSlbQ0gyXUMoPU8pW05IXVtDSDJdW0NIMl1OKFtDSDNdKVtDSF0yW0NIMl1bQ0gyXTI=

> <s_epik_cmdline>
J2VwaWtfcHl0aG9uJywgJy1waCcsICc3LjAnLCAnLXRuJywgJzgnLCAnLW1hJywgJzIwMCcsICctbWV0YWxfYmluZGluZycsICctaW1hZScsICc8aW5maWxlLm1hZT4nLCAnLW9tYWUnLCAnPG91dGZpbGUubWFlPic=

> <r_lp_tautomer_probability>
1

> <r_epik_Ionization_Penalty>
0.174318

> <r_epik_Ionization_Penalty_Charging>
0.174302

> <r_epik_Ionization_Penalty_Neutral>
1.62778e-05

> <r_epik_State_Penalty>
0.163722

> <r_epik_Charging_Adjusted_Penalty>
0.338024

> <i_epik_Tot_Q>
1

> <i_epik_Tot_abs_Q>
1

> <r_epik_Metal_State_Penalty>
0.163727

> <b_epik_Metal_Only>
0

> <s_lp_Force_Field>
OPLS_2005

> <r_lp_Energy>
17.6271

> <b_lp_Chiralities_Consistent>
1

> <s_lp_Variant>
AV-unprocessed.smi:3135-1

> <Gold.Version>
5.8.1

> <Gold.Id.Protein>
6NUR|6NUR_protein|mol2

> <Gold.PLP.Fitness>
42.2874

> <Gold.PLP.PLP>
-42.0806

> <Gold.PLP.part.hbond>
-1.0000

> <Gold.PLP.part.metal>
0.0000

> <Gold.PLP.part.buried>
-4.6949

> <Gold.PLP.part.nonpolar>
-37.1378

> <Gold.PLP.part.repulsive>
0.3077

> <Gold.PLP.ligand.clash>
0.0000

> <Gold.PLP.ligand.torsion>
1.6879

> <Gold.PLP.Chemscore.Hbond>
0.7360

> <Gold.PLP.Chemscore.CHOScore>
0.0000

> <Gold.PLP.Chemscore.Metal>
0.0000

> <Gold.Chemscore.Hbonds>
donor molecule, donor type, donor heavy atom, donor atom, acceptor molecule, acceptor atom, score
      L1  H     9    24       P1  8028  0.74

> <Gold.PLP.Chemscore.Internal.Correction>
1.3746

> <Gold.Rescore>
     Score         DG    S(hbond)    S(metal)    S(lipo)     H(rot)  DE(clash)    DE(int)     intcor
     11.55     -14.58       0.98        0.00      92.71       1.96       0.01       3.02       ----

> <Gold.Chemscore.Fitness>
11.5475

> <Gold.Chemscore.DG>
-14.5789

> <Gold.Chemscore.ZeroCoef>
-5.4800

> <Gold.Chemscore.Hbond>
0.9755

> <Gold.Chemscore.Metal>
0.0000

> <Gold.Chemscore.Lipo>
92.7075

> <Gold.Chemscore.Internal_Hbond>
0.0000

> <Gold.Chemscore.DEClash>
0.0088

> <Gold.Chemscore.DEInternal>
3.0226

> <Gold.Chemscore.Rot>
1.9555

> <Gold.Chemscore.Internal.Correction>
   9.000000E+99

> <Gold.Chemscore.Hbonds>
donor molecule, donor type, donor heavy atom, donor atom, acceptor molecule, acceptor atom, score
      L1  H     9    24       P1  8028  0.74

> <Gold.Chemscore.Hbond.Weighted>
-3.2581

> <Gold.Chemscore.Metal.Weighted>
-0.0000

> <Gold.Chemscore.Lipo.Weighted>
-10.8468

> <Gold.Chemscore.Internal_Hbond.Weighted>
0.0000

> <Gold.Chemscore.DEClash.Weighted>
0.0088

> <Gold.Chemscore.DEInternal.Weighted>
3.0226

> <Gold.Chemscore.Rot.Weighted>
5.0060

> <Gold.Chemscore.Internal.Correction.Weighted>
   9.000000E+99

> <Gold.Protein.RotatedTorsions>
[ 6907 6896 6895 6894 ] final  -35.58 input  -60.11 | X-H torsion
[ 7974 7965 7964 7962 ] final   16.74 input  175.53 | X-H torsion
[ 8008 7997 7996 7995 ] final  146.35 input   59.86 | X-H torsion
[ 10167 10162 10161 10158 ] final  -78.24 input  -65.29 | X-H torsion
[ 10718 10713 10712 10709 ] final   29.07 input   66.30 | X-H torsion
[ 10763 10752 10751 10750 ] final  161.85 input  -60.55 | X-H torsion
[ 11005 11000 10999 10996 ] final  -77.52 input  -57.11 | X-H torsion

> <Gold.Protein.ActiveResidues>
 VAL166  LYS551  ARG553  GLY616  TRP617  ASP618  TYR619  PRO620  LYS621  CYS622 
 ASP623  PHE694  ASN695  SER759  ASP760  ASP761  ALA762  ILE779  LEU786  VAL792 
 PHE793  MET794  SER795  GLU796  ALA797  LYS798  CYS799  TRP800  GLU811  SER814 

> <Gold.Protein.RotatedAtoms>
  151.0380  134.9586  159.8145 H   0  0  0  0  0  0  0  0  0  0  0  0  # atno 6907 bound_to 6896
  152.5358  134.2695  159.8976 H   0  0  0  0  0  0  0  0  0  0  0  0  # atno 6908 bound_to 6896
  151.2706  133.4214  159.2655 H   0  0  0  0  0  0  0  0  0  0  0  0  # atno 6909 bound_to 6896
  146.2240  139.8703  142.8588 H   0  0  0  0  0  0  0  0  0  0  0  0  # atno 7974 bound_to 7965
  156.2858  140.2184  156.5363 H   0  0  0  0  0  0  0  0  0  0  0  0  # atno 8008 bound_to 7997
  154.7407  140.0488  157.0830 H   0  0  0  0  0  0  0  0  0  0  0  0  # atno 8009 bound_to 7997
  155.0235  140.3127  155.4788 H   0  0  0  0  0  0  0  0  0  0  0  0  # atno 8010 bound_to 7997
  140.4700  143.2429  151.8219 H   0  0  0  0  0  0  0  0  0  0  0  0  # atno 10167 bound_to 10162
  157.2417  130.7072  149.6362 H   0  0  0  0  0  0  0  0  0  0  0  0  # atno 10718 bound_to 10713
  154.2694  135.2766  155.2745 H   0  0  0  0  0  0  0  0  0  0  0  0  # atno 10763 bound_to 10752
  154.5315  135.5728  153.6766 H   0  0  0  0  0  0  0  0  0  0  0  0  # atno 10764 bound_to 10752
  152.9948  135.6229  154.2848 H   0  0  0  0  0  0  0  0  0  0  0  0  # atno 10765 bound_to 10752
  141.1660  133.7026  156.7833 H   0  0  0  0  0  0  0  0  0  0  0  0  # atno 11005 bound_to 11000
  145.2615  141.0078  143.3824 LP  0  0  0  0  0  0  0  0  0  0  0  0  # atno 17320 bound_to 7965
  144.9295  139.4315  143.6502 LP  0  0  0  0  0  0  0  0  0  0  0  0  # atno 17321 bound_to 7965
  139.4817  144.4903  151.9193 LP  0  0  0  0  0  0  0  0  0  0  0  0  # atno 17342 bound_to 10162
  140.3989  144.2519  150.5894 LP  0  0  0  0  0  0  0  0  0  0  0  0  # atno 17343 bound_to 10162
  155.9670  130.4456  150.5507 LP  0  0  0  0  0  0  0  0  0  0  0  0  # atno 17370 bound_to 10713
  157.3372  131.0710  151.1816 LP  0  0  0  0  0  0  0  0  0  0  0  0  # atno 17371 bound_to 10713
  140.2378  134.8636  157.3543 LP  0  0  0  0  0  0  0  0  0  0  0  0  # atno 17394 bound_to 11000
  140.1826  134.4471  155.7763 LP  0  0  0  0  0  0  0  0  0  0  0  0  # atno 17395 bound_to 11000

$$$$
