AV-unprocessed.smi:1839|AV-procd|sdf|7487|dock4
  -GOLD-   22720 9183D 1   1.00000     0.00000
 Structure written by MMmdl.
 47 48  0  0  0  0  0  0  0  0  2 V2000
  151.2826  142.5590  156.0615 C   0  0  0  0  0  0  0  0  0  0  0  0
  150.6443  141.2793  156.3705 N   0  0  0  0  0  0  0  0  0  0  0  0
  149.2481  141.3954  156.8087 C   0  0  0  0  0  0  0  0  0  0  0  0
  151.2213  140.1149  155.9813 C   0  0  0  0  0  0  0  0  0  0  0  0
  152.0373  140.0670  155.0587 O   0  0  0  0  0  0  0  0  0  0  0  0
  150.8206  139.0015  156.6398 N   0  0  0  0  0  0  0  0  0  0  0  0
  150.5188  138.9924  158.0786 C   0  0  0  0  0  0  0  0  0  0  0  0
  149.2724  138.1289  158.3387 C   0  0  0  0  0  0  0  0  0  0  0  0
  149.4638  136.7088  157.7789 C   0  0  0  0  0  0  0  0  0  0  0  0
  149.9144  136.7421  156.3015 C   0  0  2  0  0  0  0  0  0  0  0  0
  150.2158  135.3320  155.7782 C   0  0  0  0  0  0  0  0  0  0  0  0
  151.3479  135.0404  155.3912 O   0  0  0  0  0  0  0  0  0  0  0  0
  149.1901  134.4665  155.7631 N   0  0  0  0  0  0  0  0  0  0  0  0
  149.2656  133.0906  155.2876 C   0  0  0  0  0  0  0  0  0  0  0  0
  149.4817  133.0271  153.7657 C   0  0  0  0  0  0  0  0  0  0  0  0
  148.1975  132.7303  153.0170 C   0  0  0  0  0  0  0  0  0  0  0  0
  147.5077  131.5079  153.1677 C   0  0  0  0  0  0  0  0  0  0  0  0
  146.3115  131.2990  152.4498 C   0  0  0  0  0  0  0  0  0  0  0  0
  145.8309  132.3156  151.5983 C   0  0  0  0  0  0  0  0  0  0  0  0
  146.5595  133.5176  151.4869 C   0  0  0  0  0  0  0  0  0  0  0  0
  147.7009  133.6800  152.1918 N   0  3  0  0  0  0  0  0  0  0  0  0
  151.1457  137.6611  156.1391 C   0  0  0  0  0  0  0  0  0  0  0  0
  152.3653  142.5089  156.1910 H   0  0  0  0  0  0  0  0  0  0  0  0
  150.9180  143.3499  156.7182 H   0  0  0  0  0  0  0  0  0  0  0  0
  151.0742  142.8490  155.0309 H   0  0  0  0  0  0  0  0  0  0  0  0
  148.6281  140.5788  156.4353 H   0  0  0  0  0  0  0  0  0  0  0  0
  148.7963  142.3190  156.4443 H   0  0  0  0  0  0  0  0  0  0  0  0
  149.1866  141.4059  157.8967 H   0  0  0  0  0  0  0  0  0  0  0  0
  151.3740  138.5809  158.6168 H   0  0  0  0  0  0  0  0  0  0  0  0
  150.3721  139.9941  158.4834 H   0  0  0  0  0  0  0  0  0  0  0  0
  149.0647  138.0830  159.4080 H   0  0  0  0  0  0  0  0  0  0  0  0
  148.4005  138.5904  157.8742 H   0  0  0  0  0  0  0  0  0  0  0  0
  150.2089  136.1910  158.3851 H   0  0  0  0  0  0  0  0  0  0  0  0
  148.5364  136.1440  157.8807 H   0  0  0  0  0  0  0  0  0  0  0  0
  149.0987  137.1627  155.7099 H   0  0  0  0  0  0  0  0  0  0  0  0
  148.2940  134.7867  156.1016 H   0  0  0  0  0  0  0  0  0  0  0  0
  150.0643  132.5611  155.8101 H   0  0  0  0  0  0  0  0  0  0  0  0
  148.3347  132.5895  155.5544 H   0  0  0  0  0  0  0  0  0  0  0  0
  149.8920  133.9719  153.4061 H   0  0  0  0  0  0  0  0  0  0  0  0
  150.2170  132.2606  153.5175 H   0  0  0  0  0  0  0  0  0  0  0  0
  147.8877  130.7406  153.8268 H   0  0  0  0  0  0  0  0  0  0  0  0
  145.7689  130.3705  152.5521 H   0  0  0  0  0  0  0  0  0  0  0  0
  144.9167  132.1756  151.0398 H   0  0  0  0  0  0  0  0  0  0  0  0
  146.2658  134.3473  150.8608 H   0  0  0  0  0  0  0  0  0  0  0  0
  151.4339  137.6900  155.0861 H   0  0  0  0  0  0  0  0  0  0  0  0
  152.0054  137.2693  156.6860 H   0  0  0  0  0  0  0  0  0  0  0  0
  148.2121  134.5581  152.0969 H   0  0  0  0  0  0  0  0  0  0  0  0
  1  2  1  0  0  0  0
  1 23  1  0  0  0  0
  1 24  1  0  0  0  0
  1 25  1  0  0  0  0
  2  3  1  0  0  0  0
  2  4  1  0  0  0  0
  3 26  1  0  0  0  0
  3 27  1  0  0  0  0
  3 28  1  0  0  0  0
  4  5  2  0  0  0  0
  4  6  1  0  0  0  0
  6 22  1  0  0  0  0
  6  7  1  0  0  0  0
  7  8  1  0  0  0  0
  7 29  1  0  0  0  0
  7 30  1  0  0  0  0
  8  9  1  0  0  0  0
  8 31  1  0  0  0  0
  8 32  1  0  0  0  0
  9 10  1  0  0  0  0
  9 33  1  0  0  0  0
  9 34  1  0  0  0  0
 10 11  1  0  0  0  0
 10 22  1  0  0  0  0
 10 35  1  0  0  0  0
 11 12  2  0  0  0  0
 11 13  1  0  0  0  0
 13 14  1  0  0  0  0
 13 36  1  0  0  0  0
 14 15  1  0  0  0  0
 14 37  1  0  0  0  0
 14 38  1  0  0  0  0
 15 16  1  0  0  0  0
 15 39  1  0  0  0  0
 15 40  1  0  0  0  0
 16 21  1  0  0  0  0
 16 17  2  0  0  0  0
 17 18  1  0  0  0  0
 17 41  1  0  0  0  0
 18 19  2  0  0  0  0
 18 42  1  0  0  0  0
 19 20  1  0  0  0  0
 19 43  1  0  0  0  0
 20 21  2  0  0  0  0
 20 44  1  0  0  0  0
 21 47  1  0  0  0  0
 22 45  1  0  0  0  0
 22 46  1  0  0  0  0
M  CHG  1  21   1
M  END
> <s_m_source_file>
AV-unprocessed.smi

> <i_m_source_file_index>
1839

> <i_lp_mmshare_version>
43012

> <i_f3d_flags>
0

> <s_epik_input>
W0NIM11OKFtDSDNdKUMoPU8pTjFbQ0gyXVtDSDJdW0NIMl1bQ0BIXShbQ0gyXTEpQyg9TylbTkhdW0NIMl1bQ0gyXWMyW2NIXVtjSF1bY0hdW2NIXW4y

> <s_epik_cmdline>
J2VwaWtfcHl0aG9uJywgJy1waCcsICc3LjAnLCAnLXRuJywgJzgnLCAnLW1hJywgJzIwMCcsICctbWV0YWxfYmluZGluZycsICctaW1hZScsICc8aW5maWxlLm1hZT4nLCAnLW9tYWUnLCAnPG91dGZpbGUubWFlPic=

> <r_epik_Ionization_Penalty>
1.8476

> <r_epik_Ionization_Penalty_Charging>
1.84754

> <r_epik_Ionization_Penalty_Neutral>
5.83857e-05

> <r_epik_State_Penalty>
1.96477

> <r_epik_Charging_Adjusted_Penalty>
3.81231

> <i_epik_Tot_Q>
1

> <i_epik_Tot_abs_Q>
1

> <r_epik_Metal_State_Penalty>
1.99061

> <b_epik_Metal_Only>
0

> <s_lp_Force_Field>
OPLS_2005

> <r_lp_Energy>
52.6854

> <b_lp_Chiralities_Consistent>
1

> <s_lp_Variant>
AV-unprocessed.smi:1839-4

> <Gold.Version>
5.8.1

> <Gold.Id.Protein>
6NUR|6NUR_protein|mol2

> <Gold.PLP.Fitness>
41.1375

> <Gold.PLP.PLP>
-30.5212

> <Gold.PLP.part.hbond>
-3.0000

> <Gold.PLP.part.metal>
0.0000

> <Gold.PLP.part.buried>
-3.2711

> <Gold.PLP.part.nonpolar>
-23.6846

> <Gold.PLP.part.repulsive>
0.1234

> <Gold.PLP.ligand.clash>
0.0000

> <Gold.PLP.ligand.torsion>
1.0266

> <Gold.PLP.Chemscore.Hbond>
3.7760

> <Gold.PLP.Chemscore.CHOScore>
0.0000

> <Gold.PLP.Chemscore.Metal>
0.0000

> <Gold.Chemscore.Hbonds>
donor molecule, donor type, donor heavy atom, donor atom, acceptor molecule, acceptor atom, score
      L1  H    21    47       P1  7948  1.50
      P1  H  7989  7998       L1     5  0.80
      P1  H 10752 10764       L1    12  0.88

> <Gold.PLP.Chemscore.Internal.Correction>
1.3416

> <Gold.Rescore>
     Score         DG    S(hbond)    S(metal)    S(lipo)     H(rot)  DE(clash)    DE(int)     intcor
     15.66     -18.00       2.69        0.00      65.21       1.60       0.10       2.23       ----

> <Gold.Chemscore.Fitness>
15.6633

> <Gold.Chemscore.DG>
-17.9967

> <Gold.Chemscore.ZeroCoef>
-5.4800

> <Gold.Chemscore.Hbond>
2.6934

> <Gold.Chemscore.Metal>
0.0000

> <Gold.Chemscore.Lipo>
65.2094

> <Gold.Chemscore.Internal_Hbond>
0.0000

> <Gold.Chemscore.DEClash>
0.1037

> <Gold.Chemscore.DEInternal>
2.2297

> <Gold.Chemscore.Rot>
1.6049

> <Gold.Chemscore.Internal.Correction>
   9.000000E+99

> <Gold.Chemscore.Hbonds>
donor molecule, donor type, donor heavy atom, donor atom, acceptor molecule, acceptor atom, score
      L1  H    21    47       P1  7948  0.09
      P1  H  7989  7998       L1     5  0.78
      P1  H 10752 10764       L1    12  0.87

> <Gold.Chemscore.Hbond.Weighted>
-8.9959

> <Gold.Chemscore.Metal.Weighted>
-0.0000

> <Gold.Chemscore.Lipo.Weighted>
-7.6295

> <Gold.Chemscore.Internal_Hbond.Weighted>
0.0000

> <Gold.Chemscore.DEClash.Weighted>
0.1037

> <Gold.Chemscore.DEInternal.Weighted>
2.2297

> <Gold.Chemscore.Rot.Weighted>
4.1087

> <Gold.Chemscore.Internal.Correction.Weighted>
   9.000000E+99

> <Gold.Protein.RotatedTorsions>
[ 6907 6896 6895 6894 ] final    2.63 input  -60.11 | X-H torsion
[ 7974 7965 7964 7962 ] final -107.39 input  175.53 | X-H torsion
[ 8008 7997 7996 7995 ] final   88.56 input   59.86 | X-H torsion
[ 10167 10162 10161 10158 ] final   21.62 input  -65.29 | X-H torsion
[ 10718 10713 10712 10709 ] final -162.08 input   66.30 | X-H torsion
[ 10763 10752 10751 10750 ] final  -49.20 input  -60.55 | X-H torsion
[ 11005 11000 10999 10996 ] final -100.47 input  -57.11 | X-H torsion

> <Gold.Protein.ActiveResidues>
 VAL166  LYS551  ARG553  GLY616  TRP617  ASP618  TYR619  PRO620  LYS621  CYS622 
 ASP623  PHE694  ASN695  SER759  ASP760  ASP761  ALA762  ILE779  LEU786  VAL792 
 PHE793  MET794  SER795  GLU796  ALA797  LYS798  CYS799  TRP800  GLU811  SER814 

> <Gold.Protein.RotatedAtoms>
  151.6120  135.1039  160.0082 H   0  0  0  0  0  0  0  0  0  0  0  0  # atno 6907 bound_to 6896
  152.4203  133.7101  159.6485 H   0  0  0  0  0  0  0  0  0  0  0  0  # atno 6908 bound_to 6896
  150.8091  133.8382  159.3213 H   0  0  0  0  0  0  0  0  0  0  0  0  # atno 6909 bound_to 6896
  145.2059  140.9076  143.3342 H   0  0  0  0  0  0  0  0  0  0  0  0  # atno 7974 bound_to 7965
  155.9892  140.3370  155.6736 H   0  0  0  0  0  0  0  0  0  0  0  0  # atno 8008 bound_to 7997
  155.6444  140.0698  157.2626 H   0  0  0  0  0  0  0  0  0  0  0  0  # atno 8009 bound_to 7997
  154.4214  140.1737  156.1595 H   0  0  0  0  0  0  0  0  0  0  0  0  # atno 8010 bound_to 7997
  140.5413  143.9673  150.6521 H   0  0  0  0  0  0  0  0  0  0  0  0  # atno 10167 bound_to 10162
  156.6053  130.8828  151.2923 H   0  0  0  0  0  0  0  0  0  0  0  0  # atno 10718 bound_to 10713
  154.0901  135.6578  153.4851 H   0  0  0  0  0  0  0  0  0  0  0  0  # atno 10763 bound_to 10752
  153.0324  135.5200  154.7388 H   0  0  0  0  0  0  0  0  0  0  0  0  # atno 10764 bound_to 10752
  154.6510  135.3001  154.9956 H   0  0  0  0  0  0  0  0  0  0  0  0  # atno 10765 bound_to 10752
  141.1269  133.8401  157.1106 H   0  0  0  0  0  0  0  0  0  0  0  0  # atno 11005 bound_to 11000
  144.9903  139.3696  143.6218 LP  0  0  0  0  0  0  0  0  0  0  0  0  # atno 17320 bound_to 7965
  146.3408  139.9082  142.8784 LP  0  0  0  0  0  0  0  0  0  0  0  0  # atno 17321 bound_to 7965
  140.3074  143.3220  152.0913 LP  0  0  0  0  0  0  0  0  0  0  0  0  # atno 17342 bound_to 10162
  139.4990  144.6658  151.6359 LP  0  0  0  0  0  0  0  0  0  0  0  0  # atno 17343 bound_to 10162
  157.7269  130.9635  150.1674 LP  0  0  0  0  0  0  0  0  0  0  0  0  # atno 17370 bound_to 10713
  156.2435  130.3693  149.8311 LP  0  0  0  0  0  0  0  0  0  0  0  0  # atno 17371 bound_to 10713
  140.0277  134.9916  157.0719 LP  0  0  0  0  0  0  0  0  0  0  0  0  # atno 17394 bound_to 11000
  140.4335  134.1755  155.7169 LP  0  0  0  0  0  0  0  0  0  0  0  0  # atno 17395 bound_to 11000

$$$$
