AV-unprocessed.smi:1019|AV-procd|sdf|4452|dock8
  -GOLD-   22720 2423D 1   1.00000     0.00000
 Structure written by MMmdl.
 43 45  0  0  0  0  0  0  0  0  1 V2000
  149.4563  141.6383  157.9950 C   0  0  0  0  0  0  0  0  0  0  0  0
  150.4806  141.9141  156.9914 N   0  0  0  0  0  0  0  0  0  0  0  0
  151.8202  141.8912  157.5863 C   0  0  0  0  0  0  0  0  0  0  0  0
  152.0048  142.8816  158.7234 C   0  0  0  0  0  0  0  0  0  0  0  0
  151.6148  144.2275  158.5595 C   0  0  0  0  0  0  0  0  0  0  0  0
  151.7839  145.1468  159.6131 C   0  0  0  0  0  0  0  0  0  0  0  0
  152.3445  144.7238  160.8338 C   0  0  0  0  0  0  0  0  0  0  0  0
  152.7368  143.3814  161.0001 C   0  0  0  0  0  0  0  0  0  0  0  0
  152.5683  142.4616  159.9467 C   0  0  0  0  0  0  0  0  0  0  0  0
  150.3579  140.9698  155.8792 C   0  0  0  0  0  0  0  0  0  0  0  0
  149.1556  141.2068  154.9396 C   0  0  1  0  0  0  0  0  0  0  0  0
  149.4560  140.6808  153.6605 O   0  0  0  0  0  0  0  0  0  0  0  0
  147.8750  140.5239  155.4595 C   0  0  0  0  0  0  0  0  0  0  0  0
  146.6981  141.3625  155.3138 N   0  0  0  0  0  0  0  0  0  0  0  0
  146.1134  141.7547  154.1654 C   0  0  0  0  0  0  0  0  0  0  0  0
  145.0356  142.5279  154.2638 N   0  0  0  0  0  0  0  0  0  0  0  0
  144.9020  142.6480  155.6365 C   0  0  0  0  0  0  0  0  0  0  0  0
  143.9451  143.3454  156.4082 C   0  0  0  0  0  0  0  0  0  0  0  0
  144.0109  143.3243  157.8171 C   0  0  0  0  0  0  0  0  0  0  0  0
  145.0315  142.6074  158.4749 C   0  0  0  0  0  0  0  0  0  0  0  0
  145.9958  141.9045  157.7275 C   0  0  0  0  0  0  0  0  0  0  0  0
  145.9269  141.9288  156.3223 C   0  0  0  0  0  0  0  0  0  0  0  0
  148.4601  141.6745  157.5530 H   0  0  0  0  0  0  0  0  0  0  0  0
  149.4778  142.3767  158.7968 H   0  0  0  0  0  0  0  0  0  0  0  0
  149.5947  140.6512  158.4381 H   0  0  0  0  0  0  0  0  0  0  0  0
  152.0617  140.8841  157.9295 H   0  0  0  0  0  0  0  0  0  0  0  0
  152.5690  142.1473  156.8377 H   0  0  0  0  0  0  0  0  0  0  0  0
  151.1831  144.5557  157.6252 H   0  0  0  0  0  0  0  0  0  0  0  0
  151.4829  146.1761  159.4848 H   0  0  0  0  0  0  0  0  0  0  0  0
  152.4735  145.4285  161.6419 H   0  0  0  0  0  0  0  0  0  0  0  0
  153.1670  143.0568  161.9361 H   0  0  0  0  0  0  0  0  0  0  0  0
  152.8698  141.4332  160.0817 H   0  0  0  0  0  0  0  0  0  0  0  0
  151.2877  140.9270  155.3093 H   0  0  0  0  0  0  0  0  0  0  0  0
  150.2403  139.9734  156.3075 H   0  0  0  0  0  0  0  0  0  0  0  0
  148.9672  142.2772  154.8427 H   0  0  0  0  0  0  0  0  0  0  0  0
  149.3723  139.7400  153.6971 H   0  0  0  0  0  0  0  0  0  0  0  0
  147.7034  139.5827  154.9348 H   0  0  0  0  0  0  0  0  0  0  0  0
  147.9818  140.2770  156.5165 H   0  0  0  0  0  0  0  0  0  0  0  0
  146.5036  141.4590  153.2026 H   0  0  0  0  0  0  0  0  0  0  0  0
  143.1586  143.8976  155.9155 H   0  0  0  0  0  0  0  0  0  0  0  0
  143.2738  143.8611  158.3961 H   0  0  0  0  0  0  0  0  0  0  0  0
  145.0738  142.5976  159.5542 H   0  0  0  0  0  0  0  0  0  0  0  0
  146.7792  141.3543  158.2273 H   0  0  0  0  0  0  0  0  0  0  0  0
  1  2  1  0  0  0  0
  1 23  1  0  0  0  0
  1 24  1  0  0  0  0
  1 25  1  0  0  0  0
  2  3  1  0  0  0  0
  2 10  1  0  0  0  0
  3  4  1  0  0  0  0
  3 26  1  0  0  0  0
  3 27  1  0  0  0  0
  4  9  1  0  0  0  0
  4  5  2  0  0  0  0
  5  6  1  0  0  0  0
  5 28  1  0  0  0  0
  6  7  2  0  0  0  0
  6 29  1  0  0  0  0
  7  8  1  0  0  0  0
  7 30  1  0  0  0  0
  8  9  2  0  0  0  0
  8 31  1  0  0  0  0
  9 32  1  0  0  0  0
 10 11  1  0  0  0  0
 10 33  1  0  0  0  0
 10 34  1  0  0  0  0
 11 12  1  0  0  0  0
 11 13  1  0  0  0  0
 11 35  1  0  0  0  0
 12 36  1  0  0  0  0
 13 14  1  0  0  0  0
 13 37  1  0  0  0  0
 13 38  1  0  0  0  0
 14 22  1  0  0  0  0
 14 15  1  0  0  0  0
 15 16  2  0  0  0  0
 15 39  1  0  0  0  0
 16 17  1  0  0  0  0
 17 22  2  0  0  0  0
 17 18  1  0  0  0  0
 18 19  2  0  0  0  0
 18 40  1  0  0  0  0
 19 20  1  0  0  0  0
 19 41  1  0  0  0  0
 20 21  2  0  0  0  0
 20 42  1  0  0  0  0
 21 22  1  0  0  0  0
 21 43  1  0  0  0  0
M  END
> <s_m_source_file>
AV-unprocessed.smi

> <i_m_source_file_index>
1019

> <i_lp_mmshare_version>
43012

> <i_f3d_flags>
0

> <s_epik_input>
W2NIXTFbY0hdW2NIXVtjSF1bY0hdYzFbQ0gyXU4oW0NIM10pW0NIMl1bQ0BIXShbT0hdKVtDSDJdbihbY0hdbjIpYyhjMjMpW2NIXVtjSF1bY0hdW2NIXTM=

> <s_epik_cmdline>
J2VwaWtfcHl0aG9uJywgJy1waCcsICc3LjAnLCAnLXRuJywgJzgnLCAnLW1hJywgJzIwMCcsICctbWV0YWxfYmluZGluZycsICctaW1hZScsICc8aW5maWxlLm1hZT4nLCAnLW9tYWUnLCAnPG91dGZpbGUubWFlPic=

> <r_epik_Ionization_Penalty>
1.56741

> <r_epik_Ionization_Penalty_Charging>
0

> <r_epik_Ionization_Penalty_Neutral>
1.56741

> <r_epik_State_Penalty>
1.62466

> <r_epik_Charging_Adjusted_Penalty>
1.62466

> <i_epik_Tot_Q>
0

> <i_epik_Tot_abs_Q>
0

> <r_epik_Metal_State_Penalty>
1.58486

> <b_epik_Metal_Only>
0

> <s_lp_Force_Field>
OPLS_2005

> <r_lp_Energy>
22.9091

> <b_lp_Chiralities_Consistent>
1

> <s_lp_Variant>
AV-unprocessed.smi:1019-10

> <Gold.Version>
5.8.1

> <Gold.Id.Protein>
6NUR|6NUR_protein|mol2

> <Gold.PLP.Fitness>
51.1417

> <Gold.PLP.PLP>
-49.2018

> <Gold.PLP.part.hbond>
-2.7106

> <Gold.PLP.part.metal>
0.0000

> <Gold.PLP.part.buried>
-8.3896

> <Gold.PLP.part.nonpolar>
-38.4285

> <Gold.PLP.part.repulsive>
0.3130

> <Gold.PLP.ligand.clash>
0.0000

> <Gold.PLP.ligand.torsion>
1.1552

> <Gold.PLP.Chemscore.Hbond>
1.3520

> <Gold.PLP.Chemscore.CHOScore>
0.0000

> <Gold.PLP.Chemscore.Metal>
0.0000

> <Gold.Chemscore.Hbonds>
donor molecule, donor type, donor heavy atom, donor atom, acceptor molecule, acceptor atom, score
      P1  H  7989  7998       L1    12  0.31
      P1  H  8011  8017       L1    12  0.55

> <Gold.PLP.Chemscore.Internal.Correction>
0.1942

> <Gold.Rescore>
     Score         DG    S(hbond)    S(metal)    S(lipo)     H(rot)  DE(clash)    DE(int)     intcor
     14.81     -16.24       0.92        0.00     115.33       2.27       0.04       1.40       ----

> <Gold.Chemscore.Fitness>
14.8070

> <Gold.Chemscore.DG>
-16.2387

> <Gold.Chemscore.ZeroCoef>
-5.4800

> <Gold.Chemscore.Hbond>
0.9184

> <Gold.Chemscore.Metal>
0.0000

> <Gold.Chemscore.Lipo>
115.3342

> <Gold.Chemscore.Internal_Hbond>
0.0000

> <Gold.Chemscore.DEClash>
0.0360

> <Gold.Chemscore.DEInternal>
1.3956

> <Gold.Chemscore.Rot>
2.2667

> <Gold.Chemscore.Internal.Correction>
   9.000000E+99

> <Gold.Chemscore.Hbonds>
donor molecule, donor type, donor heavy atom, donor atom, acceptor molecule, acceptor atom, score
      P1  H  7989  7998       L1    12  0.04
      P1  H  8011  8017       L1    12  0.33

> <Gold.Chemscore.Hbond.Weighted>
-3.0674

> <Gold.Chemscore.Metal.Weighted>
-0.0000

> <Gold.Chemscore.Lipo.Weighted>
-13.4941

> <Gold.Chemscore.Internal_Hbond.Weighted>
0.0000

> <Gold.Chemscore.DEClash.Weighted>
0.0360

> <Gold.Chemscore.DEInternal.Weighted>
1.3956

> <Gold.Chemscore.Rot.Weighted>
5.8028

> <Gold.Chemscore.Internal.Correction.Weighted>
   9.000000E+99

> <Gold.Protein.RotatedTorsions>
[ 6907 6896 6895 6894 ] final -162.97 input  -60.11 | X-H torsion
[ 7974 7965 7964 7962 ] final -178.03 input  175.53 | X-H torsion
[ 8008 7997 7996 7995 ] final  -48.67 input   59.86 | X-H torsion
[ 10167 10162 10161 10158 ] final  -92.55 input  -65.29 | X-H torsion
[ 10718 10713 10712 10709 ] final  165.25 input   66.30 | X-H torsion
[ 10763 10752 10751 10750 ] final -174.89 input  -60.55 | X-H torsion
[ 11005 11000 10999 10996 ] final  -69.83 input  -57.11 | X-H torsion

> <Gold.Protein.ActiveResidues>
 VAL166  LYS551  ARG553  GLY616  TRP617  ASP618  TYR619  PRO620  LYS621  CYS622 
 ASP623  PHE694  ASN695  SER759  ASP760  ASP761  ALA762  ILE779  LEU786  VAL792 
 PHE793  MET794  SER795  GLU796  ALA797  LYS798  CYS799  TRP800  GLU811  SER814 

> <Gold.Protein.RotatedAtoms>
  151.3887  133.3796  159.2718 H   0  0  0  0  0  0  0  0  0  0  0  0  # atno 6907 bound_to 6896
  150.9521  134.8921  159.7689 H   0  0  0  0  0  0  0  0  0  0  0  0  # atno 6908 bound_to 6896
  152.5116  134.3843  159.9414 H   0  0  0  0  0  0  0  0  0  0  0  0  # atno 6909 bound_to 6896
  144.7129  140.0930  143.6420 H   0  0  0  0  0  0  0  0  0  0  0  0  # atno 7974 bound_to 7965
  154.4032  140.1316  156.4377 H   0  0  0  0  0  0  0  0  0  0  0  0  # atno 8008 bound_to 7997
  155.7489  140.3488  155.5121 H   0  0  0  0  0  0  0  0  0  0  0  0  # atno 8009 bound_to 7997
  155.8968  140.1012  157.1369 H   0  0  0  0  0  0  0  0  0  0  0  0  # atno 8010 bound_to 7997
  140.3337  143.2980  151.9913 H   0  0  0  0  0  0  0  0  0  0  0  0  # atno 10167 bound_to 10162
  157.0827  131.0396  151.2568 H   0  0  0  0  0  0  0  0  0  0  0  0  # atno 10718 bound_to 10713
  154.5909  135.2845  155.0637 H   0  0  0  0  0  0  0  0  0  0  0  0  # atno 10763 bound_to 10752
  154.1938  135.6436  153.5071 H   0  0  0  0  0  0  0  0  0  0  0  0  # atno 10764 bound_to 10752
  153.0121  135.5452  154.6594 H   0  0  0  0  0  0  0  0  0  0  0  0  # atno 10765 bound_to 10752
  141.1562  133.6774  156.6660 H   0  0  0  0  0  0  0  0  0  0  0  0  # atno 11005 bound_to 11000
  145.9604  139.2796  143.1159 LP  0  0  0  0  0  0  0  0  0  0  0  0  # atno 17320 bound_to 7965
  145.9227  140.9104  143.0397 LP  0  0  0  0  0  0  0  0  0  0  0  0  # atno 17321 bound_to 7965
  139.4852  144.6214  151.7248 LP  0  0  0  0  0  0  0  0  0  0  0  0  # atno 17342 bound_to 10162
  140.5373  144.0635  150.6075 LP  0  0  0  0  0  0  0  0  0  0  0  0  # atno 17343 bound_to 10162
  157.4786  130.7751  149.7392 LP  0  0  0  0  0  0  0  0  0  0  0  0  # atno 17370 bound_to 10713
  155.9919  130.3934  150.2965 LP  0  0  0  0  0  0  0  0  0  0  0  0  # atno 17371 bound_to 10713
  140.3211  134.8007  157.4253 LP  0  0  0  0  0  0  0  0  0  0  0  0  # atno 17394 bound_to 11000
  140.1096  134.5363  155.8278 LP  0  0  0  0  0  0  0  0  0  0  0  0  # atno 17395 bound_to 11000

$$$$
