AV-unprocessed.smi:760|AV-procd|sdf|3628|dock6
  -GOLD-   22720 1 23D 1   1.00000     0.00000
 Structure written by MMmdl.
 44 45  0  0  0  0  0  0  0  0  2 V2000
  149.2069  133.4295  156.0893 C   0  0  0  0  0  0  0  0  0  0  0  0
  148.5544  134.0752  155.1086 C   0  0  0  0  0  0  0  0  0  0  0  0
  148.3280  133.4433  153.7463 C   0  0  0  0  0  0  0  0  0  0  0  0
  147.9753  135.4664  155.3165 C   0  0  0  0  0  0  0  0  0  0  0  0
  148.8020  136.5345  154.6953 N   0  3  2  0  0  0  0  0  0  0  0  0
  150.2348  136.4001  155.0654 C   0  0  0  0  0  0  0  0  0  0  0  0
  151.1098  137.4088  154.3017 C   0  0  0  0  0  0  0  0  0  0  0  0
  150.6376  138.8584  154.5192 C   0  0  2  0  0  0  0  0  0  0  0  0
  150.9046  139.3180  155.8822 N   0  0  0  0  0  0  0  0  0  0  0  0
  151.1252  140.5924  156.2370 C   0  0  0  0  0  0  0  0  0  0  0  0
  151.1288  141.5286  155.4379 O   0  0  0  0  0  0  0  0  0  0  0  0
  151.3435  140.7030  157.5574 N   0  0  0  0  0  0  0  0  0  0  0  0
  151.6110  141.8905  158.2840 C   0  0  0  0  0  0  0  0  0  0  0  0
  152.0948  142.0448  159.6146 C   0  0  0  0  0  0  0  0  0  0  0  0
  152.2156  143.3255  159.9308 N   0  0  0  0  0  0  0  0  0  0  0  0
  151.8154  144.0005  158.8260 N   0  0  0  0  0  0  0  0  0  0  0  0
  151.8261  145.4478  158.8353 C   0  0  0  0  0  0  0  0  0  0  0  0
  151.4425  143.1535  157.8014 C   0  0  0  0  0  0  0  0  0  0  0  0
  149.1391  138.9648  154.1930 C   0  0  0  0  0  0  0  0  0  0  0  0
  148.2983  137.9128  154.9402 C   0  0  0  0  0  0  0  0  0  0  0  0
  149.6063  132.4367  155.9402 H   0  0  0  0  0  0  0  0  0  0  0  0
  149.3520  133.8844  157.0584 H   0  0  0  0  0  0  0  0  0  0  0  0
  147.2607  133.3057  153.5717 H   0  0  0  0  0  0  0  0  0  0  0  0
  148.8064  132.4655  153.6798 H   0  0  0  0  0  0  0  0  0  0  0  0
  148.7221  134.0643  152.9434 H   0  0  0  0  0  0  0  0  0  0  0  0
  146.9493  135.5119  154.9477 H   0  0  0  0  0  0  0  0  0  0  0  0
  147.9230  135.6383  156.3926 H   0  0  0  0  0  0  0  0  0  0  0  0
  150.3493  136.5373  156.1418 H   0  0  0  0  0  0  0  0  0  0  0  0
  150.5796  135.3904  154.8393 H   0  0  0  0  0  0  0  0  0  0  0  0
  152.1543  137.2964  154.5953 H   0  0  0  0  0  0  0  0  0  0  0  0
  151.0716  137.1770  153.2364 H   0  0  0  0  0  0  0  0  0  0  0  0
  151.1779  139.5114  153.8311 H   0  0  0  0  0  0  0  0  0  0  0  0
  150.9148  138.6165  156.6081 H   0  0  0  0  0  0  0  0  0  0  0  0
  151.3186  139.8517  158.0989 H   0  0  0  0  0  0  0  0  0  0  0  0
  152.3590  141.2992  160.3497 H   0  0  0  0  0  0  0  0  0  0  0  0
  151.1910  145.8303  158.0358 H   0  0  0  0  0  0  0  0  0  0  0  0
  152.8440  145.8078  158.6845 H   0  0  0  0  0  0  0  0  0  0  0  0
  151.4522  145.8191  159.7904 H   0  0  0  0  0  0  0  0  0  0  0  0
  151.0982  143.5161  156.8438 H   0  0  0  0  0  0  0  0  0  0  0  0
  148.7725  139.9671  154.4189 H   0  0  0  0  0  0  0  0  0  0  0  0
  148.9998  138.8288  153.1194 H   0  0  0  0  0  0  0  0  0  0  0  0
  147.2703  138.0026  154.5936 H   0  0  0  0  0  0  0  0  0  0  0  0
  148.2946  138.1170  156.0119 H   0  0  0  0  0  0  0  0  0  0  0  0
  148.7537  136.3829  153.6977 H   0  0  0  0  0  0  0  0  0  0  0  0
  1  2  2  0  0  0  0
  1 21  1  0  0  0  0
  1 22  1  0  0  0  0
  2  3  1  0  0  0  0
  2  4  1  0  0  0  0
  3 23  1  0  0  0  0
  3 24  1  0  0  0  0
  3 25  1  0  0  0  0
  4  5  1  0  0  0  0
  4 26  1  0  0  0  0
  4 27  1  0  0  0  0
  5 20  1  0  0  0  0
  5  6  1  0  0  0  0
  5 44  1  0  0  0  0
  6  7  1  0  0  0  0
  6 28  1  0  0  0  0
  6 29  1  0  0  0  0
  7  8  1  0  0  0  0
  7 30  1  0  0  0  0
  7 31  1  0  0  0  0
  8  9  1  0  0  0  0
  8 19  1  0  0  0  0
  8 32  1  0  0  0  0
  9 10  1  0  0  0  0
  9 33  1  0  0  0  0
 10 11  2  0  0  0  0
 10 12  1  0  0  0  0
 12 13  1  0  0  0  0
 12 34  1  0  0  0  0
 13 18  2  0  0  0  0
 13 14  1  0  0  0  0
 14 15  2  0  0  0  0
 14 35  1  0  0  0  0
 15 16  1  0  0  0  0
 16 17  1  0  0  0  0
 16 18  1  0  0  0  0
 17 36  1  0  0  0  0
 17 37  1  0  0  0  0
 17 38  1  0  0  0  0
 18 39  1  0  0  0  0
 19 20  1  0  0  0  0
 19 40  1  0  0  0  0
 19 41  1  0  0  0  0
 20 42  1  0  0  0  0
 20 43  1  0  0  0  0
M  CHG  1   5   1
M  END
> <s_m_source_file>
AV-unprocessed.smi

> <i_m_source_file_index>
760

> <i_lp_mmshare_version>
43012

> <i_f3d_flags>
0

> <s_epik_input>
W0NIMl09QyhbQ0gzXSlbQ0gyXU4xW0NIMl1bQ0gyXVtDSF0oW0NIMl1bQ0gyXTEpW05IXUMoPU8pW05IXWMyW2NIXW5uKFtDSDNdKVtjSF0y

> <s_epik_cmdline>
J2VwaWtfcHl0aG9uJywgJy1waCcsICc3LjAnLCAnLXRuJywgJzgnLCAnLW1hJywgJzIwMCcsICctbWV0YWxfYmluZGluZycsICctaW1hZScsICc8aW5maWxlLm1hZT4nLCAnLW9tYWUnLCAnPG91dGZpbGUubWFlPic=

> <r_lp_tautomer_probability>
1

> <r_epik_Ionization_Penalty>
0.0194996

> <r_epik_Ionization_Penalty_Charging>
0.0193505

> <r_epik_Ionization_Penalty_Neutral>
0.000149098

> <r_epik_State_Penalty>
0.0154499

> <r_epik_Charging_Adjusted_Penalty>
0.0348004

> <i_epik_Tot_Q>
1

> <i_epik_Tot_abs_Q>
1

> <r_epik_Metal_State_Penalty>
0.0154507

> <b_epik_Metal_Only>
0

> <s_lp_Force_Field>
OPLS_2005

> <r_lp_Energy>
20.0822

> <b_lp_Chiralities_Consistent>
1

> <s_lp_Variant>
AV-unprocessed.smi:760-2

> <Gold.Version>
5.8.1

> <Gold.Id.Protein>
6NUR|6NUR_protein|mol2

> <Gold.PLP.Fitness>
44.5782

> <Gold.PLP.PLP>
-36.8440

> <Gold.PLP.part.hbond>
-2.0000

> <Gold.PLP.part.metal>
0.0000

> <Gold.PLP.part.buried>
-1.3255

> <Gold.PLP.part.nonpolar>
-33.8860

> <Gold.PLP.part.repulsive>
0.2892

> <Gold.PLP.ligand.clash>
0.0000

> <Gold.PLP.ligand.torsion>
0.6733

> <Gold.PLP.Chemscore.Hbond>
2.1572

> <Gold.PLP.Chemscore.CHOScore>
0.8604

> <Gold.PLP.Chemscore.Metal>
0.0000

> <Gold.Chemscore.Hbonds>
donor molecule, donor type, donor heavy atom, donor atom, acceptor molecule, acceptor atom, score
      L1  H     5    44       P1  7948  2.00
      P1  H  7989  7998       L1    11  0.34
      L1  C    18    39       P1  8028  0.41

> <Gold.PLP.Chemscore.Internal.Correction>
0.0278

> <Gold.Rescore>
     Score         DG    S(hbond)    S(metal)    S(lipo)     H(rot)  DE(clash)    DE(int)     intcor
     13.95     -16.08       0.99        0.00      92.42       1.38       0.20       1.93       ----

> <Gold.Chemscore.Fitness>
13.9474

> <Gold.Chemscore.DG>
-16.0793

> <Gold.Chemscore.ZeroCoef>
-5.4800

> <Gold.Chemscore.Hbond>
0.9900

> <Gold.Chemscore.Metal>
0.0000

> <Gold.Chemscore.Lipo>
92.4193

> <Gold.Chemscore.Internal_Hbond>
0.0000

> <Gold.Chemscore.DEClash>
0.2049

> <Gold.Chemscore.DEInternal>
1.9270

> <Gold.Chemscore.Rot>
1.3752

> <Gold.Chemscore.Internal.Correction>
   9.000000E+99

> <Gold.Chemscore.Hbonds>
donor molecule, donor type, donor heavy atom, donor atom, acceptor molecule, acceptor atom, score
      L1  H     5    44       P1  7948  1.00
      P1  H  7989  7998       L1    11  0.28

> <Gold.Chemscore.Hbond.Weighted>
-3.3066

> <Gold.Chemscore.Metal.Weighted>
-0.0000

> <Gold.Chemscore.Lipo.Weighted>
-10.8131

> <Gold.Chemscore.Internal_Hbond.Weighted>
0.0000

> <Gold.Chemscore.DEClash.Weighted>
0.2049

> <Gold.Chemscore.DEInternal.Weighted>
1.9270

> <Gold.Chemscore.Rot.Weighted>
3.5204

> <Gold.Chemscore.Internal.Correction.Weighted>
   9.000000E+99

> <Gold.Protein.RotatedTorsions>
[ 6907 6896 6895 6894 ] final   11.37 input  -60.11 | X-H torsion
[ 7974 7965 7964 7962 ] final  -32.00 input  175.53 | X-H torsion
[ 8008 7997 7996 7995 ] final    0.37 input   59.86 | X-H torsion
[ 10167 10162 10161 10158 ] final -155.30 input  -65.29 | X-H torsion
[ 10718 10713 10712 10709 ] final -155.37 input   66.30 | X-H torsion
[ 10763 10752 10751 10750 ] final -147.10 input  -60.55 | X-H torsion
[ 11005 11000 10999 10996 ] final  123.19 input  -57.11 | X-H torsion

> <Gold.Protein.ActiveResidues>
 VAL166  LYS551  ARG553  GLY616  TRP617  ASP618  TYR619  PRO620  LYS621  CYS622 
 ASP623  PHE694  ASN695  SER759  ASP760  ASP761  ALA762  ILE779  LEU786  VAL792 
 PHE793  MET794  SER795  GLU796  ALA797  LYS798  CYS799  TRP800  GLU811  SER814 

> <Gold.Protein.RotatedAtoms>
  151.7533  135.0827  160.0333 H   0  0  0  0  0  0  0  0  0  0  0  0  # atno 6907 bound_to 6896
  152.3402  133.6054  159.5879 H   0  0  0  0  0  0  0  0  0  0  0  0  # atno 6908 bound_to 6896
  150.7475  133.9650  159.3569 H   0  0  0  0  0  0  0  0  0  0  0  0  # atno 6909 bound_to 6896
  146.1024  140.5738  142.8815 H   0  0  0  0  0  0  0  0  0  0  0  0  # atno 7974 bound_to 7965
  154.6673  140.2604  155.7044 H   0  0  0  0  0  0  0  0  0  0  0  0  # atno 8008 bound_to 7997
  156.2644  140.2836  156.1090 H   0  0  0  0  0  0  0  0  0  0  0  0  # atno 8009 bound_to 7997
  155.1220  140.0377  157.2742 H   0  0  0  0  0  0  0  0  0  0  0  0  # atno 8010 bound_to 7997
  139.6942  143.9369  152.2399 H   0  0  0  0  0  0  0  0  0  0  0  0  # atno 10167 bound_to 10162
  156.5119  130.8438  151.2649 H   0  0  0  0  0  0  0  0  0  0  0  0  # atno 10718 bound_to 10713
  154.8303  135.3369  154.6765 H   0  0  0  0  0  0  0  0  0  0  0  0  # atno 10763 bound_to 10752
  153.7386  135.6947  153.4977 H   0  0  0  0  0  0  0  0  0  0  0  0  # atno 10764 bound_to 10752
  153.2260  135.4432  155.0494 H   0  0  0  0  0  0  0  0  0  0  0  0  # atno 10765 bound_to 10752
  139.9301  134.9641  156.8222 H   0  0  0  0  0  0  0  0  0  0  0  0  # atno 11005 bound_to 11000
  144.7443  140.5027  143.6847 LP  0  0  0  0  0  0  0  0  0  0  0  0  # atno 17320 bound_to 7965
  145.5828  139.1490  143.3226 LP  0  0  0  0  0  0  0  0  0  0  0  0  # atno 17321 bound_to 7965
  139.9194  144.6809  150.8478 LP  0  0  0  0  0  0  0  0  0  0  0  0  # atno 17342 bound_to 10162
  140.7691  143.3386  151.2256 LP  0  0  0  0  0  0  0  0  0  0  0  0  # atno 17343 bound_to 10162
  157.7449  130.9947  150.2716 LP  0  0  0  0  0  0  0  0  0  0  0  0  # atno 17370 bound_to 10713
  156.3232  130.3789  149.7556 LP  0  0  0  0  0  0  0  0  0  0  0  0  # atno 17371 bound_to 10713
  140.6224  133.9981  155.7624 LP  0  0  0  0  0  0  0  0  0  0  0  0  # atno 17394 bound_to 11000
  141.0885  133.9953  157.3275 LP  0  0  0  0  0  0  0  0  0  0  0  0  # atno 17395 bound_to 11000

$$$$
