AV-unprocessed.smi:1492|AV-procd|sdf|6047|dock2
  -GOLD-   22720 6163D 1   1.00000     0.00000
 Structure written by MMmdl.
 52 53  0  0  0  0  0  0  0  0  3 V2000
  147.3744  131.2294  154.7201 C   0  0  0  0  0  0  0  0  0  0  0  0
  147.1236  132.6889  155.1382 C   0  0  0  0  0  0  0  0  0  0  0  0
  147.8457  133.7726  154.2765 C   0  0  2  0  0  0  0  0  0  0  0  0
  149.2830  133.2558  154.0027 C   0  0  0  0  0  0  0  0  0  0  0  0
  147.9197  135.1076  155.0828 C   0  0  0  0  0  0  0  0  0  0  0  0
  148.8498  136.0644  154.4928 N   0  0  0  0  0  0  0  0  0  0  0  0
  149.9403  136.5839  155.0776 C   0  0  0  0  0  0  0  0  0  0  0  0
  150.3882  136.1875  156.1527 O   0  0  0  0  0  0  0  0  0  0  0  0
  150.6048  137.7595  154.3542 C   0  0  0  0  0  0  0  0  0  0  0  0
  150.8592  138.9975  155.2175 C   0  0  0  0  0  0  0  0  0  0  0  0
  150.0840  140.1191  155.1755 C   0  0  0  0  0  0  0  0  0  0  0  0
  148.9065  140.2769  154.2296 C   0  0  0  0  0  0  0  0  0  0  0  0
  150.3274  141.2024  156.0364 N   0  0  0  0  0  0  0  0  0  0  0  0
  151.2805  141.1303  156.8856 C   0  0  0  0  0  0  0  0  0  0  0  0
  151.5345  142.2971  157.8157 C   0  0  0  0  0  0  0  0  0  0  0  0
  152.1117  140.0410  157.0166 N   0  5  0  0  0  0  0  0  0  0  0  0
  151.9527  138.9581  156.2045 C   0  0  0  0  0  0  0  0  0  0  0  0
  152.6761  137.9663  156.2867 O   0  0  0  0  0  0  0  0  0  0  0  0
  147.1206  133.9782  152.9701 N   0  3  0  0  0  0  0  0  0  0  0  0
  146.8462  132.7471  152.1758 C   0  0  0  0  0  0  0  0  0  0  0  0
  146.2975  133.1148  150.7880 C   0  0  0  0  0  0  0  0  0  0  0  0
  145.1131  133.8855  150.9338 O   0  0  0  0  0  0  0  0  0  0  0  0
  145.3617  135.1063  151.6162 C   0  0  0  0  0  0  0  0  0  0  0  0
  145.8872  134.8133  153.0319 C   0  0  0  0  0  0  0  0  0  0  0  0
  146.8274  130.5495  155.3732 H   0  0  0  0  0  0  0  0  0  0  0  0
  148.4289  130.9641  154.7923 H   0  0  0  0  0  0  0  0  0  0  0  0
  147.0458  131.0340  153.6997 H   0  0  0  0  0  0  0  0  0  0  0  0
  146.0499  132.8728  155.1629 H   0  0  0  0  0  0  0  0  0  0  0  0
  147.4343  132.7800  156.1801 H   0  0  0  0  0  0  0  0  0  0  0  0
  149.7492  132.8617  154.9057 H   0  0  0  0  0  0  0  0  0  0  0  0
  149.9414  134.0452  153.6397 H   0  0  0  0  0  0  0  0  0  0  0  0
  149.2918  132.4538  153.2645 H   0  0  0  0  0  0  0  0  0  0  0  0
  146.9341  135.5618  155.1849 H   0  0  0  0  0  0  0  0  0  0  0  0
  148.2744  134.9271  156.0965 H   0  0  0  0  0  0  0  0  0  0  0  0
  148.5794  136.4567  153.6020 H   0  0  0  0  0  0  0  0  0  0  0  0
  151.5458  137.4229  153.9166 H   0  0  0  0  0  0  0  0  0  0  0  0
  149.9780  138.0210  153.5023 H   0  0  0  0  0  0  0  0  0  0  0  0
  149.2495  140.2886  153.1950 H   0  0  0  0  0  0  0  0  0  0  0  0
  148.3721  141.2091  154.4162 H   0  0  0  0  0  0  0  0  0  0  0  0
  148.1993  139.4568  154.3526 H   0  0  0  0  0  0  0  0  0  0  0  0
  152.5271  142.7118  157.6372 H   0  0  0  0  0  0  0  0  0  0  0  0
  151.4763  141.9724  158.8553 H   0  0  0  0  0  0  0  0  0  0  0  0
  150.8003  143.0895  157.6636 H   0  0  0  0  0  0  0  0  0  0  0  0
  147.7453  132.1516  152.0319 H   0  0  0  0  0  0  0  0  0  0  0  0
  146.1218  132.1161  152.6911 H   0  0  0  0  0  0  0  0  0  0  0  0
  147.0394  133.6659  150.2076 H   0  0  0  0  0  0  0  0  0  0  0  0
  146.0615  132.2106  150.2265 H   0  0  0  0  0  0  0  0  0  0  0  0
  146.0725  135.7148  151.0545 H   0  0  0  0  0  0  0  0  0  0  0  0
  144.4324  135.6733  151.6715 H   0  0  0  0  0  0  0  0  0  0  0  0
  145.1134  134.3023  153.6052 H   0  0  0  0  0  0  0  0  0  0  0  0
  146.0711  135.7686  153.5198 H   0  0  0  0  0  0  0  0  0  0  0  0
  147.7689  134.5125  152.4093 H   0  0  0  0  0  0  0  0  0  0  0  0
  1  2  1  0  0  0  0
  1 25  1  0  0  0  0
  1 26  1  0  0  0  0
  1 27  1  0  0  0  0
  2  3  1  0  0  0  0
  2 28  1  0  0  0  0
  2 29  1  0  0  0  0
  3  4  1  0  0  0  0
  3  5  1  0  0  0  0
  3 19  1  0  0  0  0
  4 30  1  0  0  0  0
  4 31  1  0  0  0  0
  4 32  1  0  0  0  0
  5  6  1  0  0  0  0
  5 33  1  0  0  0  0
  5 34  1  0  0  0  0
  6  7  1  0  0  0  0
  6 35  1  0  0  0  0
  7  8  2  0  0  0  0
  7  9  1  0  0  0  0
  9 10  1  0  0  0  0
  9 36  1  0  0  0  0
  9 37  1  0  0  0  0
 10 17  1  0  0  0  0
 10 11  2  0  0  0  0
 11 12  1  0  0  0  0
 11 13  1  0  0  0  0
 12 38  1  0  0  0  0
 12 39  1  0  0  0  0
 12 40  1  0  0  0  0
 13 14  2  0  0  0  0
 14 15  1  0  0  0  0
 14 16  1  0  0  0  0
 15 41  1  0  0  0  0
 15 42  1  0  0  0  0
 15 43  1  0  0  0  0
 16 17  1  0  0  0  0
 17 18  2  0  0  0  0
 19 24  1  0  0  0  0
 19 20  1  0  0  0  0
 19 52  1  0  0  0  0
 20 21  1  0  0  0  0
 20 44  1  0  0  0  0
 20 45  1  0  0  0  0
 21 22  1  0  0  0  0
 21 46  1  0  0  0  0
 21 47  1  0  0  0  0
 22 23  1  0  0  0  0
 23 24  1  0  0  0  0
 23 48  1  0  0  0  0
 23 49  1  0  0  0  0
 24 50  1  0  0  0  0
 24 51  1  0  0  0  0
M  CHG  1  16  -1
M  CHG  1  19   1
M  END
> <s_m_source_file>
AV-unprocessed.smi

> <i_m_source_file_index>
1492

> <i_lp_mmshare_version>
43012

> <i_f3d_flags>
0

> <s_epik_input>
W0NIMl0xW0NIMl1PW0NIMl1bQ0gyXU4xW0NAQF0oW0NIM10pKFtDSDJdW0NIM10pW0NIMl1bTkhdQyg9TylbQ0gyXWMyYyhbQ0gzXSluYyhbQ0gzXSlbbkhdYzI9Tw==

> <s_epik_cmdline>
J2VwaWtfcHl0aG9uJywgJy1waCcsICc3LjAnLCAnLXRuJywgJzgnLCAnLW1hJywgJzIwMCcsICctbWV0YWxfYmluZGluZycsICctaW1hZScsICc8aW5maWxlLm1hZT4nLCAnLW9tYWUnLCAnPG91dGZpbGUubWFlPic=

> <r_lp_tautomer_probability>
0.839158

> <r_epik_Ionization_Penalty>
6.90614

> <r_epik_Ionization_Penalty_Charging>
0.570079

> <r_epik_Ionization_Penalty_Neutral>
6.33607

> <r_epik_State_Penalty>
4.81716

> <r_epik_Charging_Adjusted_Penalty>
5.38724

> <i_epik_Tot_Q>
0

> <i_epik_Tot_abs_Q>
2

> <r_epik_Metal_State_Penalty>
1.25629

> <b_epik_Metal_Only>
1

> <s_lp_Force_Field>
OPLS_2005

> <r_lp_Energy>
27.3859

> <b_lp_Chiralities_Consistent>
1

> <s_lp_Variant>
AV-unprocessed.smi:1492-12

> <Gold.Version>
5.8.1

> <Gold.Id.Protein>
6NUR|6NUR_protein|mol2

> <Gold.PLP.Fitness>
49.9554

> <Gold.PLP.PLP>
-35.3731

> <Gold.PLP.part.hbond>
-4.0000

> <Gold.PLP.part.metal>
0.0000

> <Gold.PLP.part.buried>
-4.3919

> <Gold.PLP.part.nonpolar>
-27.0914

> <Gold.PLP.part.repulsive>
0.2386

> <Gold.PLP.ligand.clash>
0.0000

> <Gold.PLP.ligand.torsion>
0.8920

> <Gold.PLP.Chemscore.Hbond>
5.3051

> <Gold.PLP.Chemscore.CHOScore>
0.0000

> <Gold.PLP.Chemscore.Metal>
0.0000

> <Gold.Chemscore.Hbonds>
donor molecule, donor type, donor heavy atom, donor atom, acceptor molecule, acceptor atom, score
      L1  H     6    35       P1  7948  0.75
      L1  H    19    52       P1  7948  1.59
      P1  H  7997  8010       L1    16  0.43

> <Gold.PLP.Chemscore.Internal.Correction>
0.4510

> <Gold.Rescore>
     Score         DG    S(hbond)    S(metal)    S(lipo)     H(rot)  DE(clash)    DE(int)     intcor
     15.70     -17.00       2.43        0.00      75.52       2.12       0.20       1.10       ----

> <Gold.Chemscore.Fitness>
15.6994

> <Gold.Chemscore.DG>
-17.0044

> <Gold.Chemscore.ZeroCoef>
-5.4800

> <Gold.Chemscore.Hbond>
2.4327

> <Gold.Chemscore.Metal>
0.0000

> <Gold.Chemscore.Lipo>
75.5152

> <Gold.Chemscore.Internal_Hbond>
0.0000

> <Gold.Chemscore.DEClash>
0.2024

> <Gold.Chemscore.DEInternal>
1.1026

> <Gold.Chemscore.Rot>
2.1235

> <Gold.Chemscore.Internal.Correction>
   9.000000E+99

> <Gold.Chemscore.Hbonds>
donor molecule, donor type, donor heavy atom, donor atom, acceptor molecule, acceptor atom, score
      L1  H     6    35       P1  7948  0.76
      L1  H    19    52       P1  7948  0.47
      P1  H  7997  8010       L1    16  0.01

> <Gold.Chemscore.Hbond.Weighted>
-8.1252

> <Gold.Chemscore.Metal.Weighted>
-0.0000

> <Gold.Chemscore.Lipo.Weighted>
-8.8353

> <Gold.Chemscore.Internal_Hbond.Weighted>
0.0000

> <Gold.Chemscore.DEClash.Weighted>
0.2024

> <Gold.Chemscore.DEInternal.Weighted>
1.1026

> <Gold.Chemscore.Rot.Weighted>
5.4360

> <Gold.Chemscore.Internal.Correction.Weighted>
   9.000000E+99

> <Gold.Protein.RotatedTorsions>
[ 6907 6896 6895 6894 ] final  113.62 input  -60.11 | X-H torsion
[ 7974 7965 7964 7962 ] final  -80.17 input  175.53 | X-H torsion
[ 8008 7997 7996 7995 ] final   61.96 input   59.86 | X-H torsion
[ 10167 10162 10161 10158 ] final  119.27 input  -65.29 | X-H torsion
[ 10718 10713 10712 10709 ] final    6.09 input   66.30 | X-H torsion
[ 10763 10752 10751 10750 ] final -128.71 input  -60.55 | X-H torsion
[ 11005 11000 10999 10996 ] final   88.77 input  -57.11 | X-H torsion

> <Gold.Protein.ActiveResidues>
 VAL166  LYS551  ARG553  GLY616  TRP617  ASP618  TYR619  PRO620  LYS621  CYS622 
 ASP623  PHE694  ASN695  SER759  ASP760  ASP761  ALA762  ILE779  LEU786  VAL792 
 PHE793  MET794  SER795  GLU796  ALA797  LYS798  CYS799  TRP800  GLU811  SER814 

> <Gold.Protein.RotatedAtoms>
  152.4850  133.8349  159.7122 H   0  0  0  0  0  0  0  0  0  0  0  0  # atno 6907 bound_to 6896
  150.8929  133.7210  159.2906 H   0  0  0  0  0  0  0  0  0  0  0  0  # atno 6908 bound_to 6896
  151.4677  135.1047  159.9795 H   0  0  0  0  0  0  0  0  0  0  0  0  # atno 6909 bound_to 6896
  145.5634  140.9478  143.1435 H   0  0  0  0  0  0  0  0  0  0  0  0  # atno 7974 bound_to 7965
  155.6067  140.3494  155.4610 H   0  0  0  0  0  0  0  0  0  0  0  0  # atno 8008 bound_to 7997
  156.0186  140.1249  157.0405 H   0  0  0  0  0  0  0  0  0  0  0  0  # atno 8009 bound_to 7997
  154.4307  140.1067  156.5918 H   0  0  0  0  0  0  0  0  0  0  0  0  # atno 8010 bound_to 7997
  139.6057  144.7069  151.2959 H   0  0  0  0  0  0  0  0  0  0  0  0  # atno 10167 bound_to 10162
  156.9171  130.5777  149.5647 H   0  0  0  0  0  0  0  0  0  0  0  0  # atno 10718 bound_to 10713
  154.8757  135.3919  154.3801 H   0  0  0  0  0  0  0  0  0  0  0  0  # atno 10763 bound_to 10752
  153.4549  135.7028  153.6091 H   0  0  0  0  0  0  0  0  0  0  0  0  # atno 10764 bound_to 10752
  153.4615  135.3811  155.2309 H   0  0  0  0  0  0  0  0  0  0  0  0  # atno 10765 bound_to 10752
  139.8889  134.8509  156.3048 H   0  0  0  0  0  0  0  0  0  0  0  0  # atno 11005 bound_to 11000
  144.7472  139.7289  143.7287 LP  0  0  0  0  0  0  0  0  0  0  0  0  # atno 17320 bound_to 7965
  146.1835  139.5039  142.9851 LP  0  0  0  0  0  0  0  0  0  0  0  0  # atno 17321 bound_to 7965
  140.7283  143.6939  150.7899 LP  0  0  0  0  0  0  0  0  0  0  0  0  # atno 17342 bound_to 10162
  140.0524  143.5236  152.2667 LP  0  0  0  0  0  0  0  0  0  0  0  0  # atno 17343 bound_to 10162
  156.0508  130.5578  150.8986 LP  0  0  0  0  0  0  0  0  0  0  0  0  # atno 17370 bound_to 10713
  157.5931  131.0944  150.9085 LP  0  0  0  0  0  0  0  0  0  0  0  0  # atno 17371 bound_to 10713
  140.9889  133.7221  156.0784 LP  0  0  0  0  0  0  0  0  0  0  0  0  # atno 17394 bound_to 11000
  140.7651  134.3896  157.5518 LP  0  0  0  0  0  0  0  0  0  0  0  0  # atno 17395 bound_to 11000

$$$$
