AV-unprocessed.smi:68|AV-procd|sdf|642|dock3
  -GOLD-   2262016533D 1   1.00000     0.00000
 Structure written by MMmdl.
 22 23  0  0  0  0  0  0  0  0  2 V2000
  150.9211  139.3933  154.3829 O   0  0  0  0  0  0  0  0  0  0  0  0
  151.0851  140.0414  155.4156 C   0  0  0  0  0  0  0  0  0  0  0  0
  152.0309  139.7220  156.3460 N   0  5  0  0  0  0  0  0  0  0  0  0
  152.2142  140.4426  157.4917 C   0  0  0  0  0  0  0  0  0  0  0  0
  153.0785  140.1650  158.3226 O   0  0  0  0  0  0  0  0  0  0  0  0
  151.3807  141.5705  157.7318 N   0  0  0  0  0  0  0  0  0  0  0  0
  151.5329  142.3912  158.9924 C   0  0  1  0  0  0  0  0  0  0  0  0
  152.8850  143.1196  159.0143 C   0  0  0  0  0  0  0  0  0  0  0  0
  152.4826  144.5710  158.8356 C   0  0  0  0  0  0  0  0  0  0  0  0
  151.0807  144.5907  159.4316 C   0  0  0  0  0  0  0  0  0  0  0  0
  150.5206  143.3540  159.0146 O   0  0  0  0  0  0  0  0  0  0  0  0
  150.4150  141.9186  156.8038 C   0  0  0  0  0  0  0  0  0  0  0  0
  150.2407  141.2063  155.6723 C   0  0  0  0  0  0  0  0  0  0  0  0
  149.2940  141.5708  154.7905 F   0  0  0  0  0  0  0  0  0  0  0  0
  151.3978  141.7298  159.8477 H   0  0  0  0  0  0  0  0  0  0  0  0
  153.3477  142.9626  159.9892 H   0  0  0  0  0  0  0  0  0  0  0  0
  153.5635  142.7578  158.2404 H   0  0  0  0  0  0  0  0  0  0  0  0
  153.1639  145.2666  159.3260 H   0  0  0  0  0  0  0  0  0  0  0  0
  152.4425  144.8229  157.7754 H   0  0  0  0  0  0  0  0  0  0  0  0
  151.1245  144.6191  160.5215 H   0  0  0  0  0  0  0  0  0  0  0  0
  150.4866  145.4374  159.0877 H   0  0  0  0  0  0  0  0  0  0  0  0
  149.7857  142.7768  156.9861 H   0  0  0  0  0  0  0  0  0  0  0  0
  1  2  2  0  0  0  0
  2 13  1  0  0  0  0
  2  3  1  0  0  0  0
  3  4  1  0  0  0  0
  4  5  2  0  0  0  0
  4  6  1  0  0  0  0
  6  7  1  0  0  0  0
  6 12  1  0  0  0  0
  7 11  1  0  0  0  0
  7  8  1  0  0  0  0
  7 15  1  0  0  0  0
  8  9  1  0  0  0  0
  8 16  1  0  0  0  0
  8 17  1  0  0  0  0
  9 10  1  0  0  0  0
  9 18  1  0  0  0  0
  9 19  1  0  0  0  0
 10 11  1  0  0  0  0
 10 20  1  0  0  0  0
 10 21  1  0  0  0  0
 12 13  2  0  0  0  0
 12 22  1  0  0  0  0
 13 14  1  0  0  0  0
M  CHG  1   3  -1
M  END
> <s_m_source_file>
AV-unprocessed.smi

> <i_m_source_file_index>
68

> <i_lp_mmshare_version>
43012

> <i_f3d_flags>
0

> <s_epik_input>
Tz1jMVtuSF1jKD1PKW4oW2NIXWMxRilbQ0BASF0yW0NIMl1bQ0gyXVtDSDJdTzI=

> <s_epik_cmdline>
J2VwaWtfcHl0aG9uJywgJy1waCcsICc3LjAnLCAnLXRuJywgJzgnLCAnLW1hJywgJzIwMCcsICctbWV0YWxfYmluZGluZycsICctaW1hZScsICc8aW5maWxlLm1hZT4nLCAnLW9tYWUnLCAnPG91dGZpbGUubWFlPic=

> <r_epik_Ionization_Penalty>
1.69229

> <r_epik_Ionization_Penalty_Charging>
3.30034e-08

> <r_epik_Ionization_Penalty_Neutral>
1.69229

> <r_epik_State_Penalty>
1.7976

> <r_epik_Charging_Adjusted_Penalty>
1.7976

> <i_epik_Tot_Q>
-1

> <i_epik_Tot_abs_Q>
1

> <r_epik_Metal_State_Penalty>
0.0116051

> <b_epik_Metal_Only>
0

> <s_epik_Chemistry_Notes>
This compound contains an acetal/aminal-like group ( X-CH(R)-Y where X, Y are N, S, or O) that may be acid/base labile, releasing an aldehyde.

> <s_lp_Force_Field>
OPLS_2005

> <r_lp_Energy>
34.1498

> <b_lp_Chiralities_Consistent>
1

> <s_lp_Variant>
AV-unprocessed.smi:68-4

> <Gold.Version>
5.8.1

> <Gold.Id.Protein>
6NUR|6NUR_protein|mol2

> <Gold.PLP.Fitness>
38.3125

> <Gold.PLP.PLP>
-31.5507

> <Gold.PLP.part.hbond>
-2.0064

> <Gold.PLP.part.metal>
0.0000

> <Gold.PLP.part.buried>
-1.9890

> <Gold.PLP.part.nonpolar>
-26.8463

> <Gold.PLP.part.repulsive>
0.2455

> <Gold.PLP.ligand.clash>
0.0000

> <Gold.PLP.ligand.torsion>
0.0612

> <Gold.PLP.Chemscore.Hbond>
1.2940

> <Gold.PLP.Chemscore.CHOScore>
1.0000

> <Gold.PLP.Chemscore.Metal>
0.0000

> <Gold.Chemscore.Hbonds>
donor molecule, donor type, donor heavy atom, donor atom, acceptor molecule, acceptor atom, score
      P1  H  7989  7998       L1     1  0.35
      P1  H  7997  8008       L1     5  0.91
      L1  C    12    22       P1  8028  1.00

> <Gold.PLP.Chemscore.Internal.Correction>
0.0023

> <Gold.Rescore>
     Score         DG    S(hbond)    S(metal)    S(lipo)     H(rot)  DE(clash)    DE(int)     intcor
     11.33     -11.53       0.81        0.00      50.62       1.00       0.01       0.19       ----

> <Gold.Chemscore.Fitness>
11.3339

> <Gold.Chemscore.DG>
-11.5333

> <Gold.Chemscore.ZeroCoef>
-5.4800

> <Gold.Chemscore.Hbond>
0.8058

> <Gold.Chemscore.Metal>
0.0000

> <Gold.Chemscore.Lipo>
50.6153

> <Gold.Chemscore.Internal_Hbond>
0.0000

> <Gold.Chemscore.DEClash>
0.0116

> <Gold.Chemscore.DEInternal>
0.1877

> <Gold.Chemscore.Rot>
1.0000

> <Gold.Chemscore.Internal.Correction>
   9.000000E+99

> <Gold.Chemscore.Hbonds>
donor molecule, donor type, donor heavy atom, donor atom, acceptor molecule, acceptor atom, score
      P1  H  7989  7998       L1     1  0.01
      P1  H  7997  8008       L1     5  0.19

> <Gold.Chemscore.Hbond.Weighted>
-2.6913

> <Gold.Chemscore.Metal.Weighted>
-0.0000

> <Gold.Chemscore.Lipo.Weighted>
-5.9220

> <Gold.Chemscore.Internal_Hbond.Weighted>
0.0000

> <Gold.Chemscore.DEClash.Weighted>
0.0116

> <Gold.Chemscore.DEInternal.Weighted>
0.1877

> <Gold.Chemscore.Rot.Weighted>
2.5600

> <Gold.Chemscore.Internal.Correction.Weighted>
   9.000000E+99

> <Gold.Protein.RotatedTorsions>
[ 6907 6896 6895 6894 ] final  164.30 input  -60.11 | X-H torsion
[ 7974 7965 7964 7962 ] final  -44.05 input  175.53 | X-H torsion
[ 8008 7997 7996 7995 ] final  -90.99 input   59.86 | X-H torsion
[ 10167 10162 10161 10158 ] final  -13.09 input  -65.29 | X-H torsion
[ 10718 10713 10712 10709 ] final  172.73 input   66.30 | X-H torsion
[ 10763 10752 10751 10750 ] final  150.91 input  -60.55 | X-H torsion
[ 11005 11000 10999 10996 ] final  -85.98 input  -57.11 | X-H torsion

> <Gold.Protein.ActiveResidues>
 VAL166  LYS551  ARG553  GLY616  TRP617  ASP618  TYR619  PRO620  LYS621  CYS622 
 ASP623  PHE694  ASN695  SER759  ASP760  ASP761  ALA762  ILE779  LEU786  VAL792 
 PHE793  MET794  SER795  GLU796  ALA797  LYS798  CYS799  TRP800  GLU811  SER814 

> <Gold.Protein.RotatedAtoms>
  151.9120  133.3563  159.3866 H   0  0  0  0  0  0  0  0  0  0  0  0  # atno 6907 bound_to 6896
  150.7056  134.4722  159.5440 H   0  0  0  0  0  0  0  0  0  0  0  0  # atno 6908 bound_to 6896
  152.2330  134.8304  160.0522 H   0  0  0  0  0  0  0  0  0  0  0  0  # atno 6909 bound_to 6896
  145.9959  140.7129  142.9294 H   0  0  0  0  0  0  0  0  0  0  0  0  # atno 7974 bound_to 7965
  154.7053  140.0524  157.0498 H   0  0  0  0  0  0  0  0  0  0  0  0  # atno 8008 bound_to 7997
  155.0629  140.3191  155.4636 H   0  0  0  0  0  0  0  0  0  0  0  0  # atno 8009 bound_to 7997
  156.2773  140.2095  156.5756 H   0  0  0  0  0  0  0  0  0  0  0  0  # atno 8010 bound_to 7997
  140.7175  143.5463  150.9351 H   0  0  0  0  0  0  0  0  0  0  0  0  # atno 10167 bound_to 10162
  156.9747  131.0101  151.2896 H   0  0  0  0  0  0  0  0  0  0  0  0  # atno 10718 bound_to 10713
  154.0952  135.2849  155.3263 H   0  0  0  0  0  0  0  0  0  0  0  0  # atno 10763 bound_to 10752
  154.6593  135.5340  153.8001 H   0  0  0  0  0  0  0  0  0  0  0  0  # atno 10764 bound_to 10752
  153.0399  135.6530  154.1119 H   0  0  0  0  0  0  0  0  0  0  0  0  # atno 10765 bound_to 10752
  141.1635  133.7429  156.9094 H   0  0  0  0  0  0  0  0  0  0  0  0  # atno 11005 bound_to 11000
  144.6903  140.3149  143.7242 LP  0  0  0  0  0  0  0  0  0  0  0  0  # atno 17320 bound_to 7965
  145.7561  139.1809  143.2294 LP  0  0  0  0  0  0  0  0  0  0  0  0  # atno 17321 bound_to 7965
  139.9187  143.6632  152.3101 LP  0  0  0  0  0  0  0  0  0  0  0  0  # atno 17342 bound_to 10162
  139.7041  144.7630  151.1222 LP  0  0  0  0  0  0  0  0  0  0  0  0  # atno 17343 bound_to 10162
  157.5568  130.8219  149.8214 LP  0  0  0  0  0  0  0  0  0  0  0  0  # atno 17370 bound_to 10713
  156.0268  130.3777  150.1799 LP  0  0  0  0  0  0  0  0  0  0  0  0  # atno 17371 bound_to 10713
  140.1527  134.9219  157.2613 LP  0  0  0  0  0  0  0  0  0  0  0  0  # atno 17394 bound_to 11000
  140.2703  134.3467  155.7376 LP  0  0  0  0  0  0  0  0  0  0  0  0  # atno 17395 bound_to 11000

$$$$
