AV-unprocessed.smi:2000|AV-procd|sdf|8101|dock10
  -GOLD-   2272010323D 1   1.00000     0.00000
 Structure written by MMmdl.
 43 44  0  0  0  0  0  0  0  0  1 V2000
  147.9802  139.1536  153.8895 C   0  0  0  0  0  0  0  0  0  0  0  0
  148.1798  139.9821  155.1690 C   0  0  1  0  0  0  0  0  0  0  0  0
  149.5485  140.6765  155.1869 C   0  0  0  0  0  0  0  0  0  0  0  0
  150.3573  140.4873  154.2778 O   0  0  0  0  0  0  0  0  0  0  0  0
  149.8025  141.4719  156.2384 N   0  0  0  0  0  0  0  0  0  0  0  0
  151.0484  142.2036  156.4500 C   0  0  0  0  0  0  0  0  0  0  0  0
  151.7474  141.9292  157.7847 C   0  0  0  0  0  0  0  0  0  0  0  0
  152.0650  142.9819  158.6757 C   0  0  0  0  0  0  0  0  0  0  0  0
  152.7288  142.6926  159.8812 C   0  0  0  0  0  0  0  0  0  0  0  0
  153.0609  141.3545  160.1545 C   0  0  0  0  0  0  0  0  0  0  0  0
  152.7752  140.3390  159.3153 N   0  0  0  0  0  0  0  0  0  0  0  0
  152.1350  140.6125  158.1519 C   0  0  0  0  0  0  0  0  0  0  0  0
  151.8393  139.5253  157.3111 N   0  0  0  0  0  0  0  0  0  0  0  0
  151.9913  138.2393  157.9799 C   0  0  0  0  0  0  0  0  0  0  0  0
  151.4707  137.1099  157.0737 C   0  0  0  0  0  0  0  0  0  0  0  0
  152.1369  137.1559  155.8144 O   0  0  0  0  0  0  0  0  0  0  0  0
  151.9194  138.3911  155.1379 C   0  0  0  0  0  0  0  0  0  0  0  0
  152.4655  139.5467  155.9934 C   0  0  0  0  0  0  0  0  0  0  0  0
  146.8236  141.2371  155.3268 S   0  0  0  0  0  0  0  0  0  0  0  0
  146.9520  142.1891  153.7550 C   0  0  0  0  0  0  0  0  0  0  0  0
  145.5268  140.5427  155.3339 O   0  0  0  0  0  0  0  0  0  0  0  0
  147.1641  142.1382  156.4383 O   0  0  0  0  0  0  0  0  0  0  0  0
  148.7895  138.4358  153.7507 H   0  0  0  0  0  0  0  0  0  0  0  0
  147.9395  139.7888  153.0036 H   0  0  0  0  0  0  0  0  0  0  0  0
  147.0472  138.5916  153.9326 H   0  0  0  0  0  0  0  0  0  0  0  0
  148.1023  139.3158  156.0291 H   0  0  0  0  0  0  0  0  0  0  0  0
  149.0891  141.5728  156.9457 H   0  0  0  0  0  0  0  0  0  0  0  0
  151.7218  141.9976  155.6172 H   0  0  0  0  0  0  0  0  0  0  0  0
  150.8230  143.2690  156.4008 H   0  0  0  0  0  0  0  0  0  0  0  0
  151.8128  144.0070  158.4493 H   0  0  0  0  0  0  0  0  0  0  0  0
  152.9792  143.4784  160.5783 H   0  0  0  0  0  0  0  0  0  0  0  0
  153.5714  141.0925  161.0694 H   0  0  0  0  0  0  0  0  0  0  0  0
  153.0448  138.0760  158.2119 H   0  0  0  0  0  0  0  0  0  0  0  0
  151.4513  138.2376  158.9275 H   0  0  0  0  0  0  0  0  0  0  0  0
  151.6547  136.1406  157.5373 H   0  0  0  0  0  0  0  0  0  0  0  0
  150.3925  137.1950  156.9296 H   0  0  0  0  0  0  0  0  0  0  0  0
  152.4281  138.3635  154.1742 H   0  0  0  0  0  0  0  0  0  0  0  0
  150.8557  138.5252  154.9341 H   0  0  0  0  0  0  0  0  0  0  0  0
  152.2696  140.5027  155.5066 H   0  0  0  0  0  0  0  0  0  0  0  0
  153.5474  139.4468  156.0922 H   0  0  0  0  0  0  0  0  0  0  0  0
  146.2448  143.0180  153.7796 H   0  0  0  0  0  0  0  0  0  0  0  0
  146.7137  141.5448  152.9091 H   0  0  0  0  0  0  0  0  0  0  0  0
  147.9627  142.5811  153.6450 H   0  0  0  0  0  0  0  0  0  0  0  0
  1  2  1  0  0  0  0
  1 23  1  0  0  0  0
  1 24  1  0  0  0  0
  1 25  1  0  0  0  0
  2  3  1  0  0  0  0
  2 19  1  0  0  0  0
  2 26  1  0  0  0  0
  3  4  2  0  0  0  0
  3  5  1  0  0  0  0
  5  6  1  0  0  0  0
  5 27  1  0  0  0  0
  6  7  1  0  0  0  0
  6 28  1  0  0  0  0
  6 29  1  0  0  0  0
  7 12  1  0  0  0  0
  7  8  2  0  0  0  0
  8  9  1  0  0  0  0
  8 30  1  0  0  0  0
  9 10  2  0  0  0  0
  9 31  1  0  0  0  0
 10 11  1  0  0  0  0
 10 32  1  0  0  0  0
 11 12  2  0  0  0  0
 12 13  1  0  0  0  0
 13 18  1  0  0  0  0
 13 14  1  0  0  0  0
 14 15  1  0  0  0  0
 14 33  1  0  0  0  0
 14 34  1  0  0  0  0
 15 16  1  0  0  0  0
 15 35  1  0  0  0  0
 15 36  1  0  0  0  0
 16 17  1  0  0  0  0
 17 18  1  0  0  0  0
 17 37  1  0  0  0  0
 17 38  1  0  0  0  0
 18 39  1  0  0  0  0
 18 40  1  0  0  0  0
 19 20  1  0  0  0  0
 19 21  2  0  0  0  0
 19 22  2  0  0  0  0
 20 41  1  0  0  0  0
 20 42  1  0  0  0  0
 20 43  1  0  0  0  0
M  END
> <s_m_source_file>
AV-unprocessed.smi

> <i_m_source_file_index>
2000

> <i_lp_mmshare_version>
43012

> <i_f3d_flags>
0

> <s_epik_input>
W0NIM11TKD1PKSg9TylbQ0BIXShbQ0gzXSlDKD1PKVtOSF1bQ0gyXWMxW2NIXVtjSF1bY0hdbmMxTjJbQ0gyXVtDSDJdT1tDSDJdW0NIMl0y

> <s_epik_cmdline>
J2VwaWtfcHl0aG9uJywgJy1waCcsICc3LjAnLCAnLXRuJywgJzgnLCAnLW1hJywgJzIwMCcsICctbWV0YWxfYmluZGluZycsICctaW1hZScsICc8aW5maWxlLm1hZT4nLCAnLW9tYWUnLCAnPG91dGZpbGUubWFlPic=

> <r_lp_tautomer_probability>
1

> <r_epik_Ionization_Penalty>
0.00349769

> <r_epik_Ionization_Penalty_Charging>
0

> <r_epik_Ionization_Penalty_Neutral>
0.00349769

> <r_epik_State_Penalty>
0.00248024

> <r_epik_Charging_Adjusted_Penalty>
0.00248024

> <i_epik_Tot_Q>
0

> <i_epik_Tot_abs_Q>
0

> <r_epik_Metal_State_Penalty>
-0

> <b_epik_Metal_Only>
0

> <s_lp_Force_Field>
OPLS_2005

> <r_lp_Energy>
18.4728

> <b_lp_Chiralities_Consistent>
1

> <s_lp_Variant>
AV-unprocessed.smi:2000-2

> <Gold.Version>
5.8.1

> <Gold.Id.Protein>
6NUR|6NUR_protein|mol2

> <Gold.PLP.Fitness>
38.3682

> <Gold.PLP.PLP>
-33.4265

> <Gold.PLP.part.hbond>
-1.8539

> <Gold.PLP.part.metal>
0.0000

> <Gold.PLP.part.buried>
-4.8510

> <Gold.PLP.part.nonpolar>
-26.1327

> <Gold.PLP.part.repulsive>
0.4536

> <Gold.PLP.ligand.clash>
0.0000

> <Gold.PLP.ligand.torsion>
0.3679

> <Gold.PLP.Chemscore.Hbond>
1.7920

> <Gold.PLP.Chemscore.CHOScore>
0.0000

> <Gold.PLP.Chemscore.Metal>
0.0000

> <Gold.Chemscore.Hbonds>
donor molecule, donor type, donor heavy atom, donor atom, acceptor molecule, acceptor atom, score
      P1  H  7989  7998       L1     4  0.93
      P1  H 10752 10763       L1    16  0.80

> <Gold.PLP.Chemscore.Internal.Correction>
0.3015

> <Gold.Rescore>
     Score         DG    S(hbond)    S(metal)    S(lipo)     H(rot)  DE(clash)    DE(int)     intcor
     11.65     -15.60       1.67        0.00      84.17       2.08       0.98       2.97       ----

> <Gold.Chemscore.Fitness>
11.6505

> <Gold.Chemscore.DG>
-15.6001

> <Gold.Chemscore.ZeroCoef>
-5.4800

> <Gold.Chemscore.Hbond>
1.6728

> <Gold.Chemscore.Metal>
0.0000

> <Gold.Chemscore.Lipo>
84.1742

> <Gold.Chemscore.Internal_Hbond>
0.0000

> <Gold.Chemscore.DEClash>
0.9806

> <Gold.Chemscore.DEInternal>
2.9690

> <Gold.Chemscore.Rot>
2.0764

> <Gold.Chemscore.Internal.Correction>
   9.000000E+99

> <Gold.Chemscore.Hbonds>
donor molecule, donor type, donor heavy atom, donor atom, acceptor molecule, acceptor atom, score
      P1  H  7989  7998       L1     4  0.84
      P1  H 10752 10763       L1    16  0.75

> <Gold.Chemscore.Hbond.Weighted>
-5.5872

> <Gold.Chemscore.Metal.Weighted>
-0.0000

> <Gold.Chemscore.Lipo.Weighted>
-9.8484

> <Gold.Chemscore.Internal_Hbond.Weighted>
0.0000

> <Gold.Chemscore.DEClash.Weighted>
0.9806

> <Gold.Chemscore.DEInternal.Weighted>
2.9690

> <Gold.Chemscore.Rot.Weighted>
5.3155

> <Gold.Chemscore.Internal.Correction.Weighted>
   9.000000E+99

> <Gold.Protein.RotatedTorsions>
[ 6907 6896 6895 6894 ] final   56.45 input  -60.11 | X-H torsion
[ 7974 7965 7964 7962 ] final -175.10 input  175.53 | X-H torsion
[ 8008 7997 7996 7995 ] final  166.04 input   59.86 | X-H torsion
[ 10167 10162 10161 10158 ] final -170.53 input  -65.29 | X-H torsion
[ 10718 10713 10712 10709 ] final   44.34 input   66.30 | X-H torsion
[ 10763 10752 10751 10750 ] final   73.26 input  -60.55 | X-H torsion
[ 11005 11000 10999 10996 ] final  164.32 input  -57.11 | X-H torsion

> <Gold.Protein.ActiveResidues>
 VAL166  LYS551  ARG553  GLY616  TRP617  ASP618  TYR619  PRO620  LYS621  CYS622 
 ASP623  PHE694  ASN695  SER759  ASP760  ASP761  ALA762  ILE779  LEU786  VAL792 
 PHE793  MET794  SER795  GLU796  ALA797  LYS798  CYS799  TRP800  GLU811  SER814 

> <Gold.Protein.RotatedAtoms>
  152.3637  134.6835  160.0198 H   0  0  0  0  0  0  0  0  0  0  0  0  # atno 6907 bound_to 6896
  151.7150  133.3307  159.3308 H   0  0  0  0  0  0  0  0  0  0  0  0  # atno 6908 bound_to 6896
  150.7623  134.6433  159.6293 H   0  0  0  0  0  0  0  0  0  0  0  0  # atno 6909 bound_to 6896
  144.7129  140.1372  143.6394 H   0  0  0  0  0  0  0  0  0  0  0  0  # atno 7974 bound_to 7965
  156.1751  140.1654  156.8376 H   0  0  0  0  0  0  0  0  0  0  0  0  # atno 8008 bound_to 7997
  154.5299  140.0759  156.8359 H   0  0  0  0  0  0  0  0  0  0  0  0  # atno 8009 bound_to 7997
  155.3429  140.3385  155.4241 H   0  0  0  0  0  0  0  0  0  0  0  0  # atno 8010 bound_to 7997
  139.5856  144.1325  152.1571 H   0  0  0  0  0  0  0  0  0  0  0  0  # atno 10167 bound_to 10162
  157.4258  130.7996  149.7557 H   0  0  0  0  0  0  0  0  0  0  0  0  # atno 10718 bound_to 10713
  153.0510  135.5069  154.7867 H   0  0  0  0  0  0  0  0  0  0  0  0  # atno 10763 bound_to 10752
  154.6729  135.2956  154.9720 H   0  0  0  0  0  0  0  0  0  0  0  0  # atno 10764 bound_to 10752
  154.0532  135.6701  153.4855 H   0  0  0  0  0  0  0  0  0  0  0  0  # atno 10765 bound_to 10752
  140.2447  134.8024  157.3444 H   0  0  0  0  0  0  0  0  0  0  0  0  # atno 11005 bound_to 11000
  145.9234  139.2560  143.1368 LP  0  0  0  0  0  0  0  0  0  0  0  0  # atno 17320 bound_to 7965
  145.9597  140.8845  143.0217 LP  0  0  0  0  0  0  0  0  0  0  0  0  # atno 17321 bound_to 7965
  140.0888  144.5638  150.7069 LP  0  0  0  0  0  0  0  0  0  0  0  0  # atno 17342 bound_to 10162
  140.7128  143.2519  151.4527 LP  0  0  0  0  0  0  0  0  0  0  0  0  # atno 17343 bound_to 10162
  155.9896  130.3950  150.3066 LP  0  0  0  0  0  0  0  0  0  0  0  0  # atno 17370 bound_to 10713
  157.1218  131.0249  151.3006 LP  0  0  0  0  0  0  0  0  0  0  0  0  # atno 17371 bound_to 10713
  140.1618  134.4719  155.7889 LP  0  0  0  0  0  0  0  0  0  0  0  0  # atno 17394 bound_to 11000
  141.2207  133.6904  156.7557 LP  0  0  0  0  0  0  0  0  0  0  0  0  # atno 17395 bound_to 11000

$$$$
