AV-unprocessed.smi:104|AV-procd|sdf|1001|dock7
  -GOLD-   2262017593D 1   1.00000     0.00000
 Structure written by MMmdl.
 47 49  0  0  0  0  0  0  0  0  1 V2000
  150.7685  142.1845  156.5264 C   0  0  0  0  0  0  0  0  0  0  0  0
  150.5380  140.8336  155.8625 C   0  0  0  0  0  0  0  0  0  0  0  0
  151.4401  140.2519  155.2600 O   0  0  0  0  0  0  0  0  0  0  0  0
  149.2755  140.3972  156.0164 O   0  0  0  0  0  0  0  0  0  0  0  0
  148.8233  139.2215  155.3530 C   0  0  0  0  0  0  0  0  0  0  0  0
  148.1156  138.2258  156.2974 C   0  0  2  0  0  0  0  0  0  0  0  0
  146.9969  138.8242  156.9359 O   0  0  0  0  0  0  0  0  0  0  0  0
  146.7335  138.1745  158.1362 C   0  0  1  0  0  0  0  0  0  0  0  0
  145.6499  137.1448  157.9014 N   0  0  0  0  0  0  0  0  0  0  0  0
  144.3808  137.1375  158.4421 C   0  0  0  0  0  0  0  0  0  0  0  0
  143.7693  138.4751  159.6535 Br  0  0  0  0  0  0  0  0  0  0  0  0
  143.5825  136.1681  158.0980 N   0  0  0  0  0  0  0  0  0  0  0  0
  144.3579  135.4343  157.2141 C   0  0  0  0  0  0  0  0  0  0  0  0
  144.1274  134.2576  156.4577 C   0  0  0  0  0  0  0  0  0  0  0  0
  142.9691  133.5837  156.4884 N   0  0  0  0  0  0  0  0  0  0  0  0
  145.1199  133.7909  155.6664 N   0  0  0  0  0  0  0  0  0  0  0  0
  146.2823  134.4464  155.6167 C   0  0  0  0  0  0  0  0  0  0  0  0
  146.6417  135.5566  156.2649 N   0  0  0  0  0  0  0  0  0  0  0  0
  145.6453  136.0331  157.0691 C   0  0  0  0  0  0  0  0  0  0  0  0
  148.0757  137.6212  158.6548 C   0  0  1  0  0  0  0  0  0  0  0  0
  147.9648  136.3500  159.2850 O   0  0  0  0  0  0  0  0  0  0  0  0
  147.5594  136.2597  160.5621 C   0  0  0  0  0  0  0  0  0  0  0  0
  147.5230  134.8203  161.0563 C   0  0  0  0  0  0  0  0  0  0  0  0
  147.2295  137.1993  161.2857 O   0  0  0  0  0  0  0  0  0  0  0  0
  148.9569  137.5544  157.4057 C   0  0  2  0  0  0  0  0  0  0  0  0
  150.1914  138.2189  157.6525 O   0  0  0  0  0  0  0  0  0  0  0  0
  150.9491  137.8836  158.7112 C   0  0  0  0  0  0  0  0  0  0  0  0
  152.1295  138.8271  158.9001 C   0  0  0  0  0  0  0  0  0  0  0  0
  150.7523  136.9382  159.4747 O   0  0  0  0  0  0  0  0  0  0  0  0
  150.2266  142.2458  157.4706 H   0  0  0  0  0  0  0  0  0  0  0  0
  150.4217  142.9866  155.8748 H   0  0  0  0  0  0  0  0  0  0  0  0
  151.8293  142.3356  156.7272 H   0  0  0  0  0  0  0  0  0  0  0  0
  148.1693  139.4810  154.5192 H   0  0  0  0  0  0  0  0  0  0  0  0
  149.6939  138.7350  154.9129 H   0  0  0  0  0  0  0  0  0  0  0  0
  147.7143  137.4378  155.6624 H   0  0  0  0  0  0  0  0  0  0  0  0
  146.2943  138.8715  158.8471 H   0  0  0  0  0  0  0  0  0  0  0  0
  142.2114  133.9112  157.0704 H   0  0  0  0  0  0  0  0  0  0  0  0
  142.8561  132.7494  155.9310 H   0  0  0  0  0  0  0  0  0  0  0  0
  147.0318  134.0214  154.9653 H   0  0  0  0  0  0  0  0  0  0  0  0
  148.4906  138.3604  159.3423 H   0  0  0  0  0  0  0  0  0  0  0  0
  148.4887  134.3396  160.8971 H   0  0  0  0  0  0  0  0  0  0  0  0
  146.7618  134.2565  160.5165 H   0  0  0  0  0  0  0  0  0  0  0  0
  147.2900  134.7857  162.1208 H   0  0  0  0  0  0  0  0  0  0  0  0
  149.1496  136.5208  157.1137 H   0  0  0  0  0  0  0  0  0  0  0  0
  152.6227  139.0165  157.9465 H   0  0  0  0  0  0  0  0  0  0  0  0
  152.8589  138.3946  159.5856 H   0  0  0  0  0  0  0  0  0  0  0  0
  151.7902  139.7783  159.3102 H   0  0  0  0  0  0  0  0  0  0  0  0
  1  2  1  0  0  0  0
  1 30  1  0  0  0  0
  1 31  1  0  0  0  0
  1 32  1  0  0  0  0
  2  3  2  0  0  0  0
  2  4  1  0  0  0  0
  4  5  1  0  0  0  0
  5  6  1  0  0  0  0
  5 33  1  0  0  0  0
  5 34  1  0  0  0  0
  6 25  1  0  0  0  0
  6  7  1  0  0  0  0
  6 35  1  0  0  0  0
  7  8  1  0  0  0  0
  8  9  1  0  0  0  0
  8 20  1  0  0  0  0
  8 36  1  0  0  0  0
  9 19  1  0  0  0  0
  9 10  1  0  0  0  0
 10 11  1  0  0  0  0
 10 12  2  0  0  0  0
 12 13  1  0  0  0  0
 13 19  2  0  0  0  0
 13 14  1  0  0  0  0
 14 15  1  0  0  0  0
 14 16  2  0  0  0  0
 15 37  1  0  0  0  0
 15 38  1  0  0  0  0
 16 17  1  0  0  0  0
 17 18  2  0  0  0  0
 17 39  1  0  0  0  0
 18 19  1  0  0  0  0
 20 21  1  0  0  0  0
 20 25  1  0  0  0  0
 20 40  1  0  0  0  0
 21 22  1  0  0  0  0
 22 23  1  0  0  0  0
 22 24  2  0  0  0  0
 23 41  1  0  0  0  0
 23 42  1  0  0  0  0
 23 43  1  0  0  0  0
 25 26  1  0  0  0  0
 25 44  1  0  0  0  0
 26 27  1  0  0  0  0
 27 28  1  0  0  0  0
 27 29  2  0  0  0  0
 28 45  1  0  0  0  0
 28 46  1  0  0  0  0
 28 47  1  0  0  0  0
M  END
> <s_m_source_file>
AV-unprocessed.smi

> <i_m_source_file_index>
104

> <i_lp_mmshare_version>
43012

> <i_f3d_flags>
0

> <s_epik_input>
W0NIM11DKD1PKU9bQ0gyXVtDQEBIXTFPW0NASF0oW0NAQEhdKE9DKD1PKVtDSDNdKVtDQEhdMU9DKD1PKVtDSDNdKW4oYyhCciluMiljKGMyMyluW2NIXW5jM1tOSDJd

> <s_epik_cmdline>
J2VwaWtfcHl0aG9uJywgJy1waCcsICc3LjAnLCAnLXRuJywgJzgnLCAnLW1hJywgJzIwMCcsICctbWV0YWxfYmluZGluZycsICctaW1hZScsICc8aW5maWxlLm1hZT4nLCAnLW9tYWUnLCAnPG91dGZpbGUubWFlPic=

> <r_lp_tautomer_probability>
1

> <r_epik_Ionization_Penalty>
7.36622e-05

> <r_epik_Ionization_Penalty_Charging>
0

> <r_epik_Ionization_Penalty_Neutral>
7.36622e-05

> <r_epik_State_Penalty>
-0

> <r_epik_Charging_Adjusted_Penalty>
0

> <i_epik_Tot_Q>
0

> <i_epik_Tot_abs_Q>
0

> <r_epik_Metal_State_Penalty>
-0

> <b_epik_Metal_Only>
0

> <s_epik_Chemistry_Notes>
This compound has an ester and may undergo hydrolysis at high or low pH. This compound contains an acetal/aminal-like group ( X-CH(R)-Y where X, Y are N, S, or O) that may be acid/base labile, releasing an aldehyde.

> <s_lp_Force_Field>
OPLS_2005

> <r_lp_Energy>
20.7491

> <b_lp_Chiralities_Consistent>
1

> <s_lp_Variant>
AV-unprocessed.smi:104-9

> <Gold.Version>
5.8.1

> <Gold.Id.Protein>
6NUR|6NUR_protein|mol2

> <Gold.PLP.Fitness>
39.8508

> <Gold.PLP.PLP>
-24.9932

> <Gold.PLP.part.hbond>
-6.0000

> <Gold.PLP.part.metal>
0.0000

> <Gold.PLP.part.buried>
-6.1109

> <Gold.PLP.part.nonpolar>
-12.8174

> <Gold.PLP.part.repulsive>
0.1461

> <Gold.PLP.ligand.clash>
0.0000

> <Gold.PLP.ligand.torsion>
0.6943

> <Gold.PLP.Chemscore.Hbond>
5.3867

> <Gold.PLP.Chemscore.CHOScore>
0.0000

> <Gold.PLP.Chemscore.Metal>
0.0000

> <Gold.Chemscore.Hbonds>
donor molecule, donor type, donor heavy atom, donor atom, acceptor molecule, acceptor atom, score
      L1  H    15    37       P1 11000  0.62
      L1  H    15    38       P1 10957  0.89
      P1  H  6896  6909       L1    29  1.00
      P1  H  6931  6943       L1    24  0.55
      P1  H  6934  6947       L1    24  1.00
      P1  H  7989  7998       L1     3  0.99

> <Gold.PLP.Chemscore.Internal.Correction>
0.0862

> <Gold.Rescore>
     Score         DG    S(hbond)    S(metal)    S(lipo)     H(rot)  DE(clash)    DE(int)     intcor
     10.99     -15.09       5.21        0.00      27.74       4.31       0.02       4.08       ----

> <Gold.Chemscore.Fitness>
10.9916

> <Gold.Chemscore.DG>
-15.0917

> <Gold.Chemscore.ZeroCoef>
-5.4800

> <Gold.Chemscore.Hbond>
5.2071

> <Gold.Chemscore.Metal>
0.0000

> <Gold.Chemscore.Lipo>
27.7431

> <Gold.Chemscore.Internal_Hbond>
0.0000

> <Gold.Chemscore.DEClash>
0.0222

> <Gold.Chemscore.DEInternal>
4.0780

> <Gold.Chemscore.Rot>
4.3070

> <Gold.Chemscore.Internal.Correction>
   9.000000E+99

> <Gold.Chemscore.Hbonds>
donor molecule, donor type, donor heavy atom, donor atom, acceptor molecule, acceptor atom, score
      L1  H    15    37       P1 11000  0.62
      L1  H    15    38       P1 10957  0.86
      P1  H  6896  6909       L1    29  1.00
      P1  H  6931  6943       L1    24  0.38
      P1  H  6934  6947       L1    24  0.97
      P1  H  7989  7998       L1     3  0.80

> <Gold.Chemscore.Hbond.Weighted>
-17.3917

> <Gold.Chemscore.Metal.Weighted>
-0.0000

> <Gold.Chemscore.Lipo.Weighted>
-3.2459

> <Gold.Chemscore.Internal_Hbond.Weighted>
0.0000

> <Gold.Chemscore.DEClash.Weighted>
0.0222

> <Gold.Chemscore.DEInternal.Weighted>
4.0780

> <Gold.Chemscore.Rot.Weighted>
11.0259

> <Gold.Chemscore.Internal.Correction.Weighted>
   9.000000E+99

> <Gold.Protein.RotatedTorsions>
[ 6907 6896 6895 6894 ] final  103.84 input  -60.11 | X-H torsion
[ 7974 7965 7964 7962 ] final  110.94 input  175.53 | X-H torsion
[ 8008 7997 7996 7995 ] final  -26.62 input   59.86 | X-H torsion
[ 10167 10162 10161 10158 ] final  -21.76 input  -65.29 | X-H torsion
[ 10718 10713 10712 10709 ] final   99.19 input   66.30 | X-H torsion
[ 10763 10752 10751 10750 ] final  -83.13 input  -60.55 | X-H torsion
[ 11005 11000 10999 10996 ] final  104.67 input  -57.11 | X-H torsion

> <Gold.Protein.ActiveResidues>
 VAL166  LYS551  ARG553  GLY616  TRP617  ASP618  TYR619  PRO620  LYS621  CYS622 
 ASP623  PHE694  ASN695  SER759  ASP760  ASP761  ALA762  ILE779  LEU786  VAL792 
 PHE793  MET794  SER795  GLU796  ALA797  LYS798  CYS799  TRP800  GLU811  SER814 

> <Gold.Protein.RotatedAtoms>
  152.5283  133.9766  159.7786 H   0  0  0  0  0  0  0  0  0  0  0  0  # atno 6907 bound_to 6896
  151.0027  133.6032  159.2700 H   0  0  0  0  0  0  0  0  0  0  0  0  # atno 6908 bound_to 6896
  151.3135  135.0807  159.9334 H   0  0  0  0  0  0  0  0  0  0  0  0  # atno 6909 bound_to 6896
  145.2486  139.2749  143.4079 H   0  0  0  0  0  0  0  0  0  0  0  0  # atno 7974 bound_to 7965
  154.4416  140.1894  156.0803 H   0  0  0  0  0  0  0  0  0  0  0  0  # atno 8008 bound_to 7997
  156.0444  140.3316  155.7253 H   0  0  0  0  0  0  0  0  0  0  0  0  # atno 8009 bound_to 7997
  155.5652  140.0607  157.2810 H   0  0  0  0  0  0  0  0  0  0  0  0  # atno 8010 bound_to 7997
  140.7283  143.4597  151.0397 H   0  0  0  0  0  0  0  0  0  0  0  0  # atno 10167 bound_to 10162
  157.6881  131.0662  150.4910 H   0  0  0  0  0  0  0  0  0  0  0  0  # atno 10718 bound_to 10713
  154.5840  135.5567  153.7213 H   0  0  0  0  0  0  0  0  0  0  0  0  # atno 10763 bound_to 10752
  153.0092  135.6327  154.1942 H   0  0  0  0  0  0  0  0  0  0  0  0  # atno 10764 bound_to 10752
  154.1883  135.2883  155.3010 H   0  0  0  0  0  0  0  0  0  0  0  0  # atno 10765 bound_to 10752
  139.8794  134.9309  156.5397 H   0  0  0  0  0  0  0  0  0  0  0  0  # atno 11005 bound_to 11000
  146.3309  140.2870  142.8613 LP  0  0  0  0  0  0  0  0  0  0  0  0  # atno 17320 bound_to 7965
  144.9523  140.8191  143.5564 LP  0  0  0  0  0  0  0  0  0  0  0  0  # atno 17321 bound_to 7965
  139.8281  143.7729  152.3179 LP  0  0  0  0  0  0  0  0  0  0  0  0  # atno 17342 bound_to 10162
  139.7834  144.7436  151.0055 LP  0  0  0  0  0  0  0  0  0  0  0  0  # atno 17343 bound_to 10162
  156.5237  130.4168  149.6237 LP  0  0  0  0  0  0  0  0  0  0  0  0  # atno 17370 bound_to 10713
  156.3131  130.7240  151.2137 LP  0  0  0  0  0  0  0  0  0  0  0  0  # atno 17371 bound_to 10713
  140.8320  133.8272  155.8992 LP  0  0  0  0  0  0  0  0  0  0  0  0  # atno 17394 bound_to 11000
  140.9320  134.2010  157.4857 LP  0  0  0  0  0  0  0  0  0  0  0  0  # atno 17395 bound_to 11000

$$$$
