#       Name:                AV-unprocessed.smi:3150
#       Creating user name   scv26
#       Creation time:       Fri Mar 27 17:41:34 2020


#       File generated by GOLD software.
#

@<TRIPOS>MOLECULE
AV-unprocessed.smi:3150
    40    41     1
SMALL
NO_CHARGES


@<TRIPOS>ATOM
      1 ****        -0.4532  -2.5102   2.5019 C.3            1 S1                 0.0000
      2 ****        -0.1176  -1.7681   1.1995 C.3            1 S1                 0.0000
      3 ****         1.3020  -1.7350   1.0772 O.3            1 S1                 0.0000
      4 ****         1.7956  -1.3470  -0.1991 C.3            1 S1                 0.0000
      5 ****         3.3051  -1.4503  -0.1888 C.3            1 S1                 0.0000
      6 ****         4.1528  -0.2834   0.2643 C.3            1 S1                 0.0000
      7 ****         4.1316  -0.6766  -1.1909 C.3            1 S1                 0.0000
      8 ****        -0.6879  -0.3403   1.2026 C.2            1 S1                 0.0000
      9 ****        -0.4812   0.3979   2.1665 O.2            1 S1                 0.0000
     10 ****        -1.3814   0.0114   0.1039 N.am           1 S1                 0.0000
     11 ****        -2.0110   1.2525  -0.1893 C.ar           1 S1                 0.0000
     12 ****        -2.0109   2.3040   0.6683 N.ar           1 S1                 0.0000
     13 ****        -2.6316   3.4483   0.3138 C.ar           1 S1                 0.0000
     14 ****        -3.2917   3.6159  -0.9165 C.ar           1 S1                 0.0000
     15 ****        -3.3005   2.5354  -1.8155 C.ar           1 S1                 0.0000
     16 ****        -2.6535   1.3376  -1.4511 C.ar           1 S1                 0.0000
     17 ****        -2.6576   0.2827  -2.3216 O.3            1 S1                 0.0000
     18 ****        -1.5306  -2.5573   2.6652 H              1 S1                 0.0000
     19 ****        -0.0029  -2.0251   3.3690 H              1 S1                 0.0000
     20 ****        -0.0808  -3.5342   2.4688 H              1 S1                 0.0000
     21 ****        -0.5390  -2.3345   0.3665 H              1 S1                 0.0000
     22 ****         1.4026  -2.0068  -0.9735 H              1 S1                 0.0000
     23 ****         1.5043  -0.3261  -0.4493 H              1 S1                 0.0000
     24 ****         3.6763  -2.4411   0.0665 H              1 S1                 0.0000
     25 ****         3.6413   0.6355   0.5447 H              1 S1                 0.0000
     26 ****         5.0519  -0.5086   0.8341 H              1 S1                 0.0000
     27 ****         5.0178  -1.1630  -1.5933 H              1 S1                 0.0000
     28 ****         3.6086  -0.0167  -1.8805 H              1 S1                 0.0000
     29 ****        -1.4660  -0.6923  -0.6153 H              1 S1                 0.0000
     30 ****        -2.6008   4.2536   1.0328 H              1 S1                 0.0000
     31 ****        -3.7773   4.5484  -1.1630 H              1 S1                 0.0000
     32 ****        -3.7970   2.6256  -2.7706 H              1 S1                 0.0000
     33 ****        -3.1166   0.4684  -3.1265 H              1 S1                 0.0000
     34 ****         1.6503  -2.6508   1.2773 LP             1 S1                 0.0000
     35 ****         1.6549  -1.0889   1.7539 LP             1 S1                 0.0000
     36 ****         0.0556   0.0679   2.9429 LP             1 S1                 0.0000
     37 ****        -0.8503   1.3273   2.1727 LP             1 S1                 0.0000
     38 ****        -1.5548   2.2314   1.5552 LP             1 S1                 0.0000
     39 ****        -3.0989  -0.4961  -1.8759 LP             1 S1                 0.0000
     40 ****        -1.7108   0.0481  -2.5419 LP             1 S1                 0.0000
@<TRIPOS>BOND
    1    1    2 1     
    2    1   18 1     
    3    1   19 1     
    4    1   20 1     
    5    2    3 1     
    6    2    8 1     
    7    2   21 1     
    8    3    4 1     
    9    4    5 1     
   10    4   22 1     
   11    4   23 1     
   12    5    7 1     
   13    5    6 1     
   14    5   24 1     
   15    6    7 1     
   16    6   25 1     
   17    6   26 1     
   18    7   27 1     
   19    7   28 1     
   20    8    9 2     
   21    8   10 am    
   22   10   11 1     
   23   10   29 1     
   24   11   16 ar    
   25   11   12 ar    
   26   12   13 ar    
   27   13   14 ar    
   28   13   30 1     
   29   14   15 ar    
   30   14   31 1     
   31   15   16 ar    
   32   15   32 1     
   33   16   17 1     
   34   17   33 1     
   35    3   34 1     
   36    3   35 1     
   37    9   36 1     
   38    9   37 1     
   39   12   38 1     
   40   17   39 1     
   41   17   40 1     
@<TRIPOS>SUBSTRUCTURE
      1 S1             1
@<TRIPOS>SET
LONE_PAIRS      STATIC     ATOMS    <user>   **** ""
7 34 35 36 37 38 39 40
DONOR_HYDROGENS      STATIC     ATOMS    <user>   **** ""
2 29 33
ATOM$BLUE        STATIC     ATOMS    COLORGROUP SYSTEM
7 34 35 36 37 38 39 40
ATOM$RED        STATIC     ATOMS    COLORGROUP SYSTEM
2 29 33
