AV-unprocessed.smi:526|AV-procd|sdf|2811|dock3
  -GOLD-   2262023293D 1   1.00000     0.00000
 Structure written by MMmdl.
 30 30  0  0  0  0  0  0  0  0  2 V2000
  152.6833  144.5177  157.9447 C   0  0  0  0  0  0  0  0  0  0  0  0
  152.5118  144.3097  159.2607 C   0  0  0  0  0  0  0  0  0  0  0  0
  151.8702  145.3481  160.1615 C   0  0  0  0  0  0  0  0  0  0  0  0
  152.9473  143.0222  159.9355 C   0  0  0  0  0  0  0  0  0  0  0  0
  152.2613  141.5472  159.1288 S   0  0  0  0  0  0  0  0  0  0  0  0
  153.0440  140.2205  160.0907 C   0  0  0  0  0  0  0  0  0  0  0  0
  153.9589  140.3011  161.0029 N   0  0  0  0  0  0  0  0  0  0  0  0
  154.4263  139.1405  161.6320 C   0  0  0  0  0  0  0  0  0  0  0  0
  155.4943  139.3508  162.6911 C   0  0  0  0  0  0  0  0  0  0  0  0
  153.9417  137.9095  161.3042 C   0  0  0  0  0  0  0  0  0  0  0  0
  154.4232  136.6198  161.9717 C   0  0  0  0  0  0  0  0  0  0  0  0
  154.9674  135.5608  161.0053 C   0  0  0  0  0  0  0  0  0  0  0  0
  156.1951  135.3324  161.0637 O   0  0  0  0  0  0  0  0  0  0  0  0
  154.1661  134.9992  160.2251 O   0  5  0  0  0  0  0  0  0  0  0  0
  152.9053  137.8050  160.2630 C   0  0  0  0  0  0  0  0  0  0  0  0
  152.3979  136.7509  159.8826 O   0  0  0  0  0  0  0  0  0  0  0  0
  152.5198  138.9814  159.7207 N   0  0  0  0  0  0  0  0  0  0  0  0
  151.8081  138.9536  159.0055 H   0  0  0  0  0  0  0  0  0  0  0  0
  152.3686  145.4389  157.4768 H   0  0  0  0  0  0  0  0  0  0  0  0
  153.1407  143.7695  157.3139 H   0  0  0  0  0  0  0  0  0  0  0  0
  152.5588  145.6365  160.9560 H   0  0  0  0  0  0  0  0  0  0  0  0
  150.9636  144.9526  160.6196 H   0  0  0  0  0  0  0  0  0  0  0  0
  151.6017  146.2462  159.6040 H   0  0  0  0  0  0  0  0  0  0  0  0
  154.0355  142.9483  159.9250 H   0  0  0  0  0  0  0  0  0  0  0  0
  152.6392  143.0426  160.9813 H   0  0  0  0  0  0  0  0  0  0  0  0
  156.4258  138.8677  162.3955 H   0  0  0  0  0  0  0  0  0  0  0  0
  155.1746  138.9344  163.6466 H   0  0  0  0  0  0  0  0  0  0  0  0
  155.7000  140.4112  162.8419 H   0  0  0  0  0  0  0  0  0  0  0  0
  155.1890  136.8340  162.7179 H   0  0  0  0  0  0  0  0  0  0  0  0
  153.5978  136.1791  162.5307 H   0  0  0  0  0  0  0  0  0  0  0  0
  1  2  2  0  0  0  0
  1 19  1  0  0  0  0
  1 20  1  0  0  0  0
  2  3  1  0  0  0  0
  2  4  1  0  0  0  0
  3 21  1  0  0  0  0
  3 22  1  0  0  0  0
  3 23  1  0  0  0  0
  4  5  1  0  0  0  0
  4 24  1  0  0  0  0
  4 25  1  0  0  0  0
  5  6  1  0  0  0  0
  6 17  1  0  0  0  0
  6  7  2  0  0  0  0
  7  8  1  0  0  0  0
  8  9  1  0  0  0  0
  8 10  2  0  0  0  0
  9 26  1  0  0  0  0
  9 27  1  0  0  0  0
  9 28  1  0  0  0  0
 10 11  1  0  0  0  0
 10 15  1  0  0  0  0
 11 12  1  0  0  0  0
 11 29  1  0  0  0  0
 11 30  1  0  0  0  0
 12 13  2  0  0  0  0
 12 14  1  0  0  0  0
 15 16  2  0  0  0  0
 15 17  1  0  0  0  0
 17 18  1  0  0  0  0
M  CHG  1  14  -1
M  END
> <s_m_source_file>
AV-unprocessed.smi

> <i_m_source_file_index>
526

> <i_lp_mmshare_version>
43012

> <i_f3d_flags>
0

> <s_epik_input>
W0NIMl09QyhbQ0gzXSlbQ0gyXVNjMW5jKFtDSDNdKWMoYyg9TylbbkhdMSlbQ0gyXUMoPU8pW09IXQ==

> <s_epik_cmdline>
J2VwaWtfcHl0aG9uJywgJy1waCcsICc3LjAnLCAnLXRuJywgJzgnLCAnLW1hJywgJzIwMCcsICctbWV0YWxfYmluZGluZycsICctaW1hZScsICc8aW5maWxlLm1hZT4nLCAnLW9tYWUnLCAnPG91dGZpbGUubWFlPic=

> <r_lp_tautomer_probability>
0.660323

> <r_epik_Ionization_Penalty>
0.000759783

> <r_epik_Ionization_Penalty_Charging>
0.000714454

> <r_epik_Ionization_Penalty_Neutral>
4.53284e-05

> <r_epik_State_Penalty>
0.230805

> <r_epik_Charging_Adjusted_Penalty>
0.231519

> <i_epik_Tot_Q>
-1

> <i_epik_Tot_abs_Q>
1

> <r_epik_Metal_State_Penalty>
0.34438

> <b_epik_Metal_Only>
0

> <s_lp_Force_Field>
OPLS_2005

> <r_lp_Energy>
1.72321

> <b_lp_Chiralities_Consistent>
1

> <s_lp_Variant>
AV-unprocessed.smi:526-1

> <Gold.Version>
5.8.1

> <Gold.Id.Protein>
6NUR|6NUR_protein|mol2

> <Gold.PLP.Fitness>
41.3298

> <Gold.PLP.PLP>
-35.6515

> <Gold.PLP.part.hbond>
-1.9710

> <Gold.PLP.part.metal>
0.0000

> <Gold.PLP.part.buried>
-4.5647

> <Gold.PLP.part.nonpolar>
-29.0897

> <Gold.PLP.part.repulsive>
0.0896

> <Gold.PLP.ligand.clash>
0.0000

> <Gold.PLP.ligand.torsion>
0.1730

> <Gold.PLP.Chemscore.Hbond>
2.0000

> <Gold.PLP.Chemscore.CHOScore>
0.0000

> <Gold.PLP.Chemscore.Metal>
0.0000

> <Gold.Chemscore.Hbonds>
donor molecule, donor type, donor heavy atom, donor atom, acceptor molecule, acceptor atom, score
      P1  H  6896  6907       L1    14  2.00

> <Gold.PLP.Chemscore.Internal.Correction>
0.0243

> <Gold.Rescore>
     Score         DG    S(hbond)    S(metal)    S(lipo)     H(rot)  DE(clash)    DE(int)     intcor
     11.83     -13.57       1.00        0.00      91.85       2.34       0.07       1.67       ----

> <Gold.Chemscore.Fitness>
11.8334

> <Gold.Chemscore.DG>
-13.5721

> <Gold.Chemscore.ZeroCoef>
-5.4800

> <Gold.Chemscore.Hbond>
1.0002

> <Gold.Chemscore.Metal>
0.0000

> <Gold.Chemscore.Lipo>
91.8544

> <Gold.Chemscore.Internal_Hbond>
0.0000

> <Gold.Chemscore.DEClash>
0.0662

> <Gold.Chemscore.DEInternal>
1.6725

> <Gold.Chemscore.Rot>
2.3420

> <Gold.Chemscore.Internal.Correction>
   9.000000E+99

> <Gold.Chemscore.Hbonds>
donor molecule, donor type, donor heavy atom, donor atom, acceptor molecule, acceptor atom, score
      P1  H  6896  6907       L1    14  1.00
      P1  H  6896  6909       L1    16  0.01

> <Gold.Chemscore.Hbond.Weighted>
-3.3407

> <Gold.Chemscore.Metal.Weighted>
-0.0000

> <Gold.Chemscore.Lipo.Weighted>
-10.7470

> <Gold.Chemscore.Internal_Hbond.Weighted>
0.0000

> <Gold.Chemscore.DEClash.Weighted>
0.0662

> <Gold.Chemscore.DEInternal.Weighted>
1.6725

> <Gold.Chemscore.Rot.Weighted>
5.9955

> <Gold.Chemscore.Internal.Correction.Weighted>
   9.000000E+99

> <Gold.Protein.RotatedTorsions>
[ 6907 6896 6895 6894 ] final   73.19 input  -60.11 | X-H torsion
[ 7974 7965 7964 7962 ] final   54.36 input  175.53 | X-H torsion
[ 8008 7997 7996 7995 ] final  -88.68 input   59.86 | X-H torsion
[ 10167 10162 10161 10158 ] final  -14.12 input  -65.29 | X-H torsion
[ 10718 10713 10712 10709 ] final  108.95 input   66.30 | X-H torsion
[ 10763 10752 10751 10750 ] final  166.78 input  -60.55 | X-H torsion
[ 11005 11000 10999 10996 ] final  165.57 input  -57.11 | X-H torsion

> <Gold.Protein.ActiveResidues>
 VAL166  LYS551  ARG553  GLY616  TRP617  ASP618  TYR619  PRO620  LYS621  CYS622 
 ASP623  PHE694  ASN695  SER759  ASP760  ASP761  ALA762  ILE779  LEU786  VAL792 
 PHE793  MET794  SER795  GLU796  ALA797  LYS798  CYS799  TRP800  GLU811  SER814 

> <Gold.Protein.RotatedAtoms>
  152.4910  134.4458  159.9558 H   0  0  0  0  0  0  0  0  0  0  0  0  # atno 6907 bound_to 6896
  151.4446  133.3628  159.2794 H   0  0  0  0  0  0  0  0  0  0  0  0  # atno 6908 bound_to 6896
  150.9064  134.8503  159.7455 H   0  0  0  0  0  0  0  0  0  0  0  0  # atno 6909 bound_to 6896
  145.9616  139.4065  143.0244 H   0  0  0  0  0  0  0  0  0  0  0  0  # atno 7974 bound_to 7965
  154.6776  140.0551  157.0232 H   0  0  0  0  0  0  0  0  0  0  0  0  # atno 8008 bound_to 7997
  155.0998  140.3227  155.4531 H   0  0  0  0  0  0  0  0  0  0  0  0  # atno 8009 bound_to 7997
  156.2682  140.2033  156.6124 H   0  0  0  0  0  0  0  0  0  0  0  0  # atno 8010 bound_to 7997
  140.7195  143.5354  150.9471 H   0  0  0  0  0  0  0  0  0  0  0  0  # atno 10167 bound_to 10162
  157.6563  131.0904  150.6381 H   0  0  0  0  0  0  0  0  0  0  0  0  # atno 10718 bound_to 10713
  154.3441  135.2753  155.2407 H   0  0  0  0  0  0  0  0  0  0  0  0  # atno 10763 bound_to 10752
  154.4665  135.5894  153.6295 H   0  0  0  0  0  0  0  0  0  0  0  0  # atno 10764 bound_to 10752
  152.9855  135.6077  154.3645 H   0  0  0  0  0  0  0  0  0  0  0  0  # atno 10765 bound_to 10752
  140.2575  134.7928  157.3559 H   0  0  0  0  0  0  0  0  0  0  0  0  # atno 11005 bound_to 11000
  145.8031  140.9761  143.0988 LP  0  0  0  0  0  0  0  0  0  0  0  0  # atno 17320 bound_to 7965
  144.6816  139.9827  143.7483 LP  0  0  0  0  0  0  0  0  0  0  0  0  # atno 17321 bound_to 7965
  139.9076  143.6760  152.3121 LP  0  0  0  0  0  0  0  0  0  0  0  0  # atno 17342 bound_to 10162
  139.7131  144.7616  151.1078 LP  0  0  0  0  0  0  0  0  0  0  0  0  # atno 17343 bound_to 10162
  156.6687  130.4533  149.5664 LP  0  0  0  0  0  0  0  0  0  0  0  0  # atno 17370 bound_to 10713
  156.2013  130.6622  151.1171 LP  0  0  0  0  0  0  0  0  0  0  0  0  # atno 17371 bound_to 10713
  140.1497  134.4865  155.7970 LP  0  0  0  0  0  0  0  0  0  0  0  0  # atno 17394 bound_to 11000
  141.2194  133.6857  156.7357 LP  0  0  0  0  0  0  0  0  0  0  0  0  # atno 17395 bound_to 11000

$$$$
