AV-unprocessed.smi:3132|AV-procd|sdf|11932|dock8
  -GOLD-   2272017323D 1   1.00000     0.00000
 Structure written by MMmdl.
 34 35  0  0  0  0  0  0  0  0  2 V2000
  148.0855  141.6164  156.9631 C   0  0  0  0  0  0  0  0  0  0  0  0
  149.5099  141.5044  156.4036 C   0  0  1  0  0  0  0  0  0  0  0  0
  149.5281  141.6988  154.8716 C   0  0  0  0  0  0  0  0  0  0  0  0
  148.4469  140.9799  154.1891 N   0  0  0  0  0  0  0  0  0  0  0  0
  148.3397  139.6260  153.9962 C   0  0  0  0  0  0  0  0  0  0  0  0
  147.1590  139.4184  153.3310 C   0  0  0  0  0  0  0  0  0  0  0  0
  146.5992  140.6534  153.1403 N   0  3  0  0  0  0  0  0  0  0  0  0
  147.3852  141.6018  153.6602 C   0  0  0  0  0  0  0  0  0  0  0  0
  150.3602  142.4938  157.0648 N   0  0  0  0  0  0  0  0  0  0  0  0
  151.4233  142.2210  157.8386 C   0  0  0  0  0  0  0  0  0  0  0  0
  151.7918  141.0753  158.1015 O   0  0  0  0  0  0  0  0  0  0  0  0
  152.2101  143.4311  158.3526 C   0  0  1  0  0  0  0  0  0  0  0  0
  151.5988  144.7943  157.9776 C   0  0  0  0  0  0  0  0  0  0  0  0
  151.0079  145.2880  159.2829 C   0  0  0  0  0  0  0  0  0  0  0  0
  151.9593  144.6747  160.3005 C   0  0  0  0  0  0  0  0  0  0  0  0
  152.2045  143.3771  159.7790 O   0  0  0  0  0  0  0  0  0  0  0  0
  147.4276  140.8719  156.5138 H   0  0  0  0  0  0  0  0  0  0  0  0
  147.6565  142.5999  156.7674 H   0  0  0  0  0  0  0  0  0  0  0  0
  148.0730  141.4559  158.0419 H   0  0  0  0  0  0  0  0  0  0  0  0
  149.8665  140.4991  156.6350 H   0  0  0  0  0  0  0  0  0  0  0  0
  149.4273  142.7556  154.6199 H   0  0  0  0  0  0  0  0  0  0  0  0
  150.4768  141.3632  154.4498 H   0  0  0  0  0  0  0  0  0  0  0  0
  149.0866  138.9284  154.3468 H   0  0  0  0  0  0  0  0  0  0  0  0
  146.6870  138.5086  152.9897 H   0  0  0  0  0  0  0  0  0  0  0  0
  147.1937  142.6600  153.6632 H   0  0  0  0  0  0  0  0  0  0  0  0
  150.1381  143.4654  156.9009 H   0  0  0  0  0  0  0  0  0  0  0  0
  153.2399  143.3814  157.9944 H   0  0  0  0  0  0  0  0  0  0  0  0
  152.3887  145.4713  157.6492 H   0  0  0  0  0  0  0  0  0  0  0  0
  150.8576  144.7512  157.1782 H   0  0  0  0  0  0  0  0  0  0  0  0
  150.9553  146.3753  159.3467 H   0  0  0  0  0  0  0  0  0  0  0  0
  150.0028  144.8859  159.4182 H   0  0  0  0  0  0  0  0  0  0  0  0
  152.8959  145.2332  160.3423 H   0  0  0  0  0  0  0  0  0  0  0  0
  151.5361  144.6318  161.3043 H   0  0  0  0  0  0  0  0  0  0  0  0
  145.7160  140.8263  152.6768 H   0  0  0  0  0  0  0  0  0  0  0  0
  1  2  1  0  0  0  0
  1 17  1  0  0  0  0
  1 18  1  0  0  0  0
  1 19  1  0  0  0  0
  2  3  1  0  0  0  0
  2  9  1  0  0  0  0
  2 20  1  0  0  0  0
  3  4  1  0  0  0  0
  3 21  1  0  0  0  0
  3 22  1  0  0  0  0
  4  8  1  0  0  0  0
  4  5  1  0  0  0  0
  5  6  2  0  0  0  0
  5 23  1  0  0  0  0
  6  7  1  0  0  0  0
  6 24  1  0  0  0  0
  7  8  2  0  0  0  0
  7 34  1  0  0  0  0
  8 25  1  0  0  0  0
  9 10  1  0  0  0  0
  9 26  1  0  0  0  0
 10 11  2  0  0  0  0
 10 12  1  0  0  0  0
 12 16  1  0  0  0  0
 12 13  1  0  0  0  0
 12 27  1  0  0  0  0
 13 14  1  0  0  0  0
 13 28  1  0  0  0  0
 13 29  1  0  0  0  0
 14 15  1  0  0  0  0
 14 30  1  0  0  0  0
 14 31  1  0  0  0  0
 15 16  1  0  0  0  0
 15 32  1  0  0  0  0
 15 33  1  0  0  0  0
M  CHG  1   7   1
M  END
> <s_m_source_file>
AV-unprocessed.smi

> <i_m_source_file_index>
3132

> <i_lp_mmshare_version>
43012

> <i_f3d_flags>
0

> <s_epik_input>
W2NIXTFuW2NIXVtjSF1uMVtDSDJdW0NAQEhdKFtDSDNdKVtOSF1DKD1PKVtDQEBIXTJbQ0gyXVtDSDJdW0NIMl1PMg==

> <s_epik_cmdline>
J2VwaWtfcHl0aG9uJywgJy1waCcsICc3LjAnLCAnLXRuJywgJzgnLCAnLW1hJywgJzIwMCcsICctbWV0YWxfYmluZGluZycsICctaW1hZScsICc8aW5maWxlLm1hZT4nLCAnLW9tYWUnLCAnPG91dGZpbGUubWFlPic=

> <r_lp_tautomer_probability>
1

> <r_epik_Ionization_Penalty>
0.250802

> <r_epik_Ionization_Penalty_Charging>
0

> <r_epik_Ionization_Penalty_Neutral>
0.250802

> <r_epik_State_Penalty>
0.242139

> <r_epik_Charging_Adjusted_Penalty>
0.242139

> <i_epik_Tot_Q>
1

> <i_epik_Tot_abs_Q>
1

> <r_epik_Metal_State_Penalty>
0.533361

> <b_epik_Metal_Only>
0

> <s_lp_Force_Field>
OPLS_2005

> <r_lp_Energy>
20.1872

> <b_lp_Chiralities_Consistent>
1

> <s_lp_Variant>
AV-unprocessed.smi:3132-4

> <Gold.Version>
5.8.1

> <Gold.Id.Protein>
6NUR|6NUR_protein|mol2

> <Gold.PLP.Fitness>
42.8426

> <Gold.PLP.PLP>
-35.5491

> <Gold.PLP.part.hbond>
-2.0000

> <Gold.PLP.part.metal>
0.0000

> <Gold.PLP.part.buried>
-5.1183

> <Gold.PLP.part.nonpolar>
-27.8986

> <Gold.PLP.part.repulsive>
0.0412

> <Gold.PLP.ligand.clash>
0.0000

> <Gold.PLP.ligand.torsion>
0.2733

> <Gold.PLP.Chemscore.Hbond>
2.6063

> <Gold.PLP.Chemscore.CHOScore>
0.0000

> <Gold.PLP.Chemscore.Metal>
0.0000

> <Gold.Chemscore.Hbonds>
donor molecule, donor type, donor heavy atom, donor atom, acceptor molecule, acceptor atom, score
      L1  H     7    34       P1 10175  1.85
      L1  H     9    26       P1  8028  0.58

> <Gold.PLP.Chemscore.Internal.Correction>
0.0210

> <Gold.Rescore>
     Score         DG    S(hbond)    S(metal)    S(lipo)     H(rot)  DE(clash)    DE(int)     intcor
     14.90     -15.43       1.80        0.00      76.00       1.93       0.14       0.39       ----

> <Gold.Chemscore.Fitness>
14.9036

> <Gold.Chemscore.DG>
-15.4330

> <Gold.Chemscore.ZeroCoef>
-5.4800

> <Gold.Chemscore.Hbond>
1.7977

> <Gold.Chemscore.Metal>
0.0000

> <Gold.Chemscore.Lipo>
75.9953

> <Gold.Chemscore.Internal_Hbond>
0.0000

> <Gold.Chemscore.DEClash>
0.1401

> <Gold.Chemscore.DEInternal>
0.3894

> <Gold.Chemscore.Rot>
1.9308

> <Gold.Chemscore.Internal.Correction>
   9.000000E+99

> <Gold.Chemscore.Hbonds>
donor molecule, donor type, donor heavy atom, donor atom, acceptor molecule, acceptor atom, score
      L1  H     7    34       P1 10175  0.22
      L1  H     9    26       P1  8028  0.57

> <Gold.Chemscore.Hbond.Weighted>
-6.0044

> <Gold.Chemscore.Metal.Weighted>
-0.0000

> <Gold.Chemscore.Lipo.Weighted>
-8.8915

> <Gold.Chemscore.Internal_Hbond.Weighted>
0.0000

> <Gold.Chemscore.DEClash.Weighted>
0.1401

> <Gold.Chemscore.DEInternal.Weighted>
0.3894

> <Gold.Chemscore.Rot.Weighted>
4.9429

> <Gold.Chemscore.Internal.Correction.Weighted>
   9.000000E+99

> <Gold.Protein.RotatedTorsions>
[ 6907 6896 6895 6894 ] final -117.11 input  -60.11 | X-H torsion
[ 7974 7965 7964 7962 ] final  -52.68 input  175.53 | X-H torsion
[ 8008 7997 7996 7995 ] final  151.82 input   59.86 | X-H torsion
[ 10167 10162 10161 10158 ] final   57.59 input  -65.29 | X-H torsion
[ 10718 10713 10712 10709 ] final   -1.64 input   66.30 | X-H torsion
[ 10763 10752 10751 10750 ] final  176.12 input  -60.55 | X-H torsion
[ 11005 11000 10999 10996 ] final  -61.46 input  -57.11 | X-H torsion

> <Gold.Protein.ActiveResidues>
 VAL166  LYS551  ARG553  GLY616  TRP617  ASP618  TYR619  PRO620  LYS621  CYS622 
 ASP623  PHE694  ASN695  SER759  ASP760  ASP761  ALA762  ILE779  LEU786  VAL792 
 PHE793  MET794  SER795  GLU796  ALA797  LYS798  CYS799  TRP800  GLU811  SER814 

> <Gold.Protein.RotatedAtoms>
  150.8110  133.8422  159.3182 H   0  0  0  0  0  0  0  0  0  0  0  0  # atno 6907 bound_to 6896
  151.6207  135.1030  160.0110 H   0  0  0  0  0  0  0  0  0  0  0  0  # atno 6908 bound_to 6896
  152.4202  133.7063  159.6510 H   0  0  0  0  0  0  0  0  0  0  0  0  # atno 6909 bound_to 6896
  145.9052  140.7961  142.9723 H   0  0  0  0  0  0  0  0  0  0  0  0  # atno 7974 bound_to 7965
  156.2657  140.2037  156.6236 H   0  0  0  0  0  0  0  0  0  0  0  0  # atno 8008 bound_to 7997
  154.6738  140.0547  157.0218 H   0  0  0  0  0  0  0  0  0  0  0  0  # atno 8009 bound_to 7997
  155.1099  140.3214  155.4527 H   0  0  0  0  0  0  0  0  0  0  0  0  # atno 8010 bound_to 7997
  140.1964  144.4033  150.6548 H   0  0  0  0  0  0  0  0  0  0  0  0  # atno 10167 bound_to 10162
  156.8026  130.5398  149.5719 H   0  0  0  0  0  0  0  0  0  0  0  0  # atno 10718 bound_to 10713
  154.4768  135.2773  155.1601 H   0  0  0  0  0  0  0  0  0  0  0  0  # atno 10763 bound_to 10752
  154.3327  135.6186  153.5562 H   0  0  0  0  0  0  0  0  0  0  0  0  # atno 10764 bound_to 10752
  152.9870  135.5769  154.5161 H   0  0  0  0  0  0  0  0  0  0  0  0  # atno 10765 bound_to 10752
  141.1325  133.6630  156.5378 H   0  0  0  0  0  0  0  0  0  0  0  0  # atno 11005 bound_to 11000
  144.6739  140.1740  143.7412 LP  0  0  0  0  0  0  0  0  0  0  0  0  # atno 17320 bound_to 7965
  145.8740  139.2287  143.1644 LP  0  0  0  0  0  0  0  0  0  0  0  0  # atno 17321 bound_to 7965
  140.6421  143.2205  151.6268 LP  0  0  0  0  0  0  0  0  0  0  0  0  # atno 17342 bound_to 10162
  139.5235  144.3132  152.0975 LP  0  0  0  0  0  0  0  0  0  0  0  0  # atno 17343 bound_to 10162
  156.1092  130.6027  151.0020 LP  0  0  0  0  0  0  0  0  0  0  0  0  # atno 17370 bound_to 10713
  157.6546  131.0891  150.7976 LP  0  0  0  0  0  0  0  0  0  0  0  0  # atno 17371 bound_to 10713
  140.4164  134.7227  157.4865 LP  0  0  0  0  0  0  0  0  0  0  0  0  # atno 17394 bound_to 11000
  140.0391  134.6294  155.9004 LP  0  0  0  0  0  0  0  0  0  0  0  0  # atno 17395 bound_to 11000

$$$$
