AV-unprocessed.smi:3|AV-procd|sdf|30|dock1
  -GOLD-   2262015143D 1   1.00000     0.00000
 Structure written by MMmdl.
 34 36  0  0  0  0  0  0  0  0  2 V2000
  150.5931  141.9595  157.0189 C   0  0  0  0  0  0  0  0  0  0  0  0
  151.6025  140.9202  156.8722 N   0  0  0  0  0  0  0  0  0  0  0  0
  152.5498  140.7323  157.9736 C   0  0  0  0  0  0  0  0  0  0  0  0
  152.0913  141.4195  159.2596 C   0  0  1  0  0  0  0  0  0  0  0  0
  152.9463  141.3336  160.5334 C   0  0  0  0  0  0  0  0  0  0  0  0
  152.5959  142.7922  160.8421 C   0  0  2  0  0  0  0  0  0  0  0  0
  151.5886  143.0210  161.8036 O   0  0  0  0  0  0  0  0  0  0  0  0
  152.2000  142.9468  159.3704 C   0  0  0  0  0  0  0  0  0  0  0  0
  151.4766  139.9524  155.8443 C   0  0  0  0  0  0  0  0  0  0  0  0
  152.5788  139.2099  155.5433 N   0  0  0  0  0  0  0  0  0  0  0  0
  152.5903  138.2638  154.5956 C   0  0  0  0  0  0  0  0  0  0  0  0
  151.5167  137.9708  153.8592 N   0  3  0  0  0  0  0  0  0  0  0  0
  150.3921  138.6849  154.1117 C   0  0  0  0  0  0  0  0  0  0  0  0
  149.1635  138.5805  153.4950 N   0  0  0  0  0  0  0  0  0  0  0  0
  148.2815  139.4928  154.0429 C   0  0  0  0  0  0  0  0  0  0  0  0
  148.9266  140.2024  155.0239 C   0  0  0  0  0  0  0  0  0  0  0  0
  150.2823  139.7058  155.0951 C   0  0  0  0  0  0  0  0  0  0  0  0
  151.0649  141.1423  159.5084 H   0  0  0  0  0  0  0  0  0  0  0  0
  153.4744  143.3866  161.0955 H   0  0  0  0  0  0  0  0  0  0  0  0
  148.9123  137.9448  152.7509 H   0  0  0  0  0  0  0  0  0  0  0  0
  150.6236  142.6442  156.1714 H   0  0  0  0  0  0  0  0  0  0  0  0
  150.7668  142.5482  157.9203 H   0  0  0  0  0  0  0  0  0  0  0  0
  149.5965  141.5245  157.0986 H   0  0  0  0  0  0  0  0  0  0  0  0
  152.7588  139.6772  158.1498 H   0  0  0  0  0  0  0  0  0  0  0  0
  153.5062  141.1526  157.6608 H   0  0  0  0  0  0  0  0  0  0  0  0
  152.5864  140.6077  161.2633 H   0  0  0  0  0  0  0  0  0  0  0  0
  154.0099  141.2010  160.3306 H   0  0  0  0  0  0  0  0  0  0  0  0
  152.0222  143.1611  162.6315 H   0  0  0  0  0  0  0  0  0  0  0  0
  153.0055  143.3626  158.7628 H   0  0  0  0  0  0  0  0  0  0  0  0
  151.2610  143.4751  159.2008 H   0  0  0  0  0  0  0  0  0  0  0  0
  153.4896  137.6995  154.3962 H   0  0  0  0  0  0  0  0  0  0  0  0
  147.2628  139.5647  153.6893 H   0  0  0  0  0  0  0  0  0  0  0  0
  148.4893  140.9844  155.6251 H   0  0  0  0  0  0  0  0  0  0  0  0
  151.5342  137.2491  153.1387 H   0  0  0  0  0  0  0  0  0  0  0  0
  1  2  1  0  0  0  0
  1 21  1  0  0  0  0
  1 22  1  0  0  0  0
  1 23  1  0  0  0  0
  2  3  1  0  0  0  0
  2  9  1  0  0  0  0
  3  4  1  0  0  0  0
  3 24  1  0  0  0  0
  3 25  1  0  0  0  0
  4 18  1  0  0  0  0
  4  8  1  0  0  0  0
  4  5  1  0  0  0  0
  5  6  1  0  0  0  0
  5 26  1  0  0  0  0
  5 27  1  0  0  0  0
  6 19  1  0  0  0  0
  6  7  1  0  0  0  0
  6  8  1  0  0  0  0
  7 28  1  0  0  0  0
  8 29  1  0  0  0  0
  8 30  1  0  0  0  0
  9 17  1  0  0  0  0
  9 10  2  0  0  0  0
 10 11  1  0  0  0  0
 11 12  2  0  0  0  0
 11 31  1  0  0  0  0
 12 13  1  0  0  0  0
 12 34  1  0  0  0  0
 13 17  2  0  0  0  0
 13 14  1  0  0  0  0
 14 20  1  0  0  0  0
 14 15  1  0  0  0  0
 15 16  2  0  0  0  0
 15 32  1  0  0  0  0
 16 17  1  0  0  0  0
 16 33  1  0  0  0  0
M  CHG  1  12   1
M  END
> <s_m_source_file>
AV-unprocessed.smi

> <i_m_source_file_index>
3

> <i_lp_mmshare_version>
43012

> <i_f3d_flags>
0

> <s_epik_input>
W25IXTFbY0hdW2NIXWMoYzEyKWMobltjSF1uMilOKFtDSDNdKVtDSDJdW0NASF0zW0NIMl1bQ0BASF0oW09IXSlbQ0gyXTM=

> <s_epik_cmdline>
J2VwaWtfcHl0aG9uJywgJy1waCcsICc3LjAnLCAnLXRuJywgJzgnLCAnLW1hJywgJzIwMCcsICctbWV0YWxfYmluZGluZycsICctaW1hZScsICc8aW5maWxlLm1hZT4nLCAnLW9tYWUnLCAnPG91dGZpbGUubWFlPic=

> <r_lp_tautomer_probability>
1.75997e-05

> <r_epik_Ionization_Penalty>
2.28439

> <r_epik_Ionization_Penalty_Charging>
2.28438

> <r_epik_Ionization_Penalty_Neutral>
1.03791e-05

> <r_epik_State_Penalty>
2.43392

> <r_epik_Charging_Adjusted_Penalty>
4.7183

> <i_epik_Tot_Q>
1

> <i_epik_Tot_abs_Q>
1

> <r_epik_Metal_State_Penalty>
2.4464

> <b_epik_Metal_Only>
0

> <s_lp_Force_Field>
OPLS_2005

> <r_lp_Energy>
18.3307

> <b_lp_Chiralities_Consistent>
1

> <s_lp_Variant>
AV-unprocessed.smi:3-4

> <Gold.Version>
5.8.1

> <Gold.Id.Protein>
6NUR|6NUR_protein|mol2

> <Gold.PLP.Fitness>
51.9793

> <Gold.PLP.PLP>
-37.3617

> <Gold.PLP.part.hbond>
-5.5353

> <Gold.PLP.part.metal>
0.0000

> <Gold.PLP.part.buried>
-3.0676

> <Gold.PLP.part.nonpolar>
-28.6077

> <Gold.PLP.part.repulsive>
0.2102

> <Gold.PLP.ligand.clash>
0.0379

> <Gold.PLP.ligand.torsion>
0.5615

> <Gold.PLP.Chemscore.Hbond>
5.1849

> <Gold.PLP.Chemscore.CHOScore>
0.0000

> <Gold.PLP.Chemscore.Metal>
0.0000

> <Gold.Chemscore.Hbonds>
donor molecule, donor type, donor heavy atom, donor atom, acceptor molecule, acceptor atom, score
      L1  H    12    34       P1  7949  1.62
      L1  H    14    20       P1  7948  2.00
      P1  H  6933  6945       L1     7  0.67
      P1  H  7997  8009       L1    10  0.83

> <Gold.PLP.Chemscore.Internal.Correction>
0.2238

> <Gold.Rescore>
     Score         DG    S(hbond)    S(metal)    S(lipo)     H(rot)  DE(clash)    DE(int)     intcor
     16.66     -18.65       2.87        0.00      71.41       1.86       0.48       1.50       ----

> <Gold.Chemscore.Fitness>
16.6614

> <Gold.Chemscore.DG>
-18.6453

> <Gold.Chemscore.ZeroCoef>
-5.4800

> <Gold.Chemscore.Hbond>
2.8693

> <Gold.Chemscore.Metal>
0.0000

> <Gold.Chemscore.Lipo>
71.4073

> <Gold.Chemscore.Internal_Hbond>
0.0000

> <Gold.Chemscore.DEClash>
0.4816

> <Gold.Chemscore.DEInternal>
1.5023

> <Gold.Chemscore.Rot>
1.8645

> <Gold.Chemscore.Internal.Correction>
   9.000000E+99

> <Gold.Chemscore.Hbonds>
donor molecule, donor type, donor heavy atom, donor atom, acceptor molecule, acceptor atom, score
      L1  H    12    34       P1  7949  0.73
      L1  H    14    20       P1  7948  0.97
      P1  H  6933  6945       L1     7  0.30
      P1  H  7997  8009       L1    10  0.69

> <Gold.Chemscore.Hbond.Weighted>
-9.5836

> <Gold.Chemscore.Metal.Weighted>
-0.0000

> <Gold.Chemscore.Lipo.Weighted>
-8.3547

> <Gold.Chemscore.Internal_Hbond.Weighted>
0.0000

> <Gold.Chemscore.DEClash.Weighted>
0.4816

> <Gold.Chemscore.DEInternal.Weighted>
1.5023

> <Gold.Chemscore.Rot.Weighted>
4.7730

> <Gold.Chemscore.Internal.Correction.Weighted>
   9.000000E+99

> <Gold.Protein.RotatedTorsions>
[ 6907 6896 6895 6894 ] final   22.17 input  -60.11 | X-H torsion
[ 7974 7965 7964 7962 ] final -114.55 input  175.53 | X-H torsion
[ 8008 7997 7996 7995 ] final -149.31 input   59.86 | X-H torsion
[ 10167 10162 10161 10158 ] final   71.81 input  -65.29 | X-H torsion
[ 10718 10713 10712 10709 ] final  167.57 input   66.30 | X-H torsion
[ 10763 10752 10751 10750 ] final  -36.86 input  -60.55 | X-H torsion
[ 11005 11000 10999 10996 ] final  178.97 input  -57.11 | X-H torsion

> <Gold.Protein.ActiveResidues>
 VAL166  LYS551  ARG553  GLY616  TRP617  ASP618  TYR619  PRO620  LYS621  CYS622 
 ASP623  PHE694  ASN695  SER759  ASP760  ASP761  ALA762  ILE779  LEU786  VAL792 
 PHE793  MET794  SER795  GLU796  ALA797  LYS798  CYS799  TRP800  GLU811  SER814 

> <Gold.Protein.RotatedAtoms>
  151.9230  135.0290  160.0523 H   0  0  0  0  0  0  0  0  0  0  0  0  # atno 6907 bound_to 6896
  152.2183  133.4959  159.5157 H   0  0  0  0  0  0  0  0  0  0  0  0  # atno 6908 bound_to 6896
  150.6993  134.1292  159.4106 H   0  0  0  0  0  0  0  0  0  0  0  0  # atno 6909 bound_to 6896
  145.1189  140.8657  143.3826 H   0  0  0  0  0  0  0  0  0  0  0  0  # atno 7974 bound_to 7965
  155.6056  140.0666  157.2720 H   0  0  0  0  0  0  0  0  0  0  0  0  # atno 8008 bound_to 7997
  154.4267  140.1810  156.1266 H   0  0  0  0  0  0  0  0  0  0  0  0  # atno 8009 bound_to 7997
  156.0125  140.3325  155.6958 H   0  0  0  0  0  0  0  0  0  0  0  0  # atno 8010 bound_to 7997
  140.0421  144.5381  150.7426 H   0  0  0  0  0  0  0  0  0  0  0  0  # atno 10167 bound_to 10162
  157.0496  131.0310  151.2685 H   0  0  0  0  0  0  0  0  0  0  0  0  # atno 10718 bound_to 10713
  153.8867  135.6816  153.4763 H   0  0  0  0  0  0  0  0  0  0  0  0  # atno 10763 bound_to 10752
  153.1203  135.4743  154.9182 H   0  0  0  0  0  0  0  0  0  0  0  0  # atno 10764 bound_to 10752
  154.7642  135.3219  154.8271 H   0  0  0  0  0  0  0  0  0  0  0  0  # atno 10765 bound_to 10752
  140.4010  134.6777  157.4562 H   0  0  0  0  0  0  0  0  0  0  0  0  # atno 11005 bound_to 11000
  145.0763  139.2993  143.5806 LP  0  0  0  0  0  0  0  0  0  0  0  0  # atno 17320 bound_to 7965
  146.3522  140.0254  142.8655 LP  0  0  0  0  0  0  0  0  0  0  0  0  # atno 17321 bound_to 7965
  140.7255  143.2632  151.4133 LP  0  0  0  0  0  0  0  0  0  0  0  0  # atno 17342 bound_to 10162
  139.6007  144.1301  152.2195 LP  0  0  0  0  0  0  0  0  0  0  0  0  # atno 17343 bound_to 10162
  157.5040  130.7897  149.7635 LP  0  0  0  0  0  0  0  0  0  0  0  0  # atno 17370 bound_to 10713
  156.0012  130.3879  150.2600 LP  0  0  0  0  0  0  0  0  0  0  0  0  # atno 17371 bound_to 10713
  140.0336  134.6370  155.9073 LP  0  0  0  0  0  0  0  0  0  0  0  0  # atno 17394 bound_to 11000
  141.1857  133.6555  156.5207 LP  0  0  0  0  0  0  0  0  0  0  0  0  # atno 17395 bound_to 11000

$$$$
