AV-unprocessed.smi:21|AV-procd|sdf|148|dock1
  -GOLD-   2262015363D 1   1.00000     0.00000
 Structure written by MMmdl.
 62 65  0  0  0  0  0  0  0  0  2 V2000
  145.1666  131.6268  150.5467 C   0  0  0  0  0  0  0  0  0  0  0  0
  144.2235  132.1902  151.4450 O   0  0  0  0  0  0  0  0  0  0  0  0
  144.2292  133.6117  151.4687 C   0  0  2  0  0  0  0  0  0  0  0  0
  145.5175  134.1645  152.0793 C   0  0  0  0  0  0  0  0  0  0  0  0
  145.2962  134.1189  153.6021 C   0  0  2  0  0  0  0  0  0  0  0  0
  146.0114  132.9424  154.2997 C   0  0  0  0  0  0  0  0  0  0  0  0
  147.4639  133.1150  154.3783 N   0  0  0  0  0  0  0  0  0  0  0  0
  148.2354  133.1826  153.1427 C   0  0  0  0  0  0  0  0  0  0  0  0
  148.0745  133.2977  155.5851 C   0  0  0  0  0  0  0  0  0  0  0  0
  149.4250  133.4651  155.6050 N   0  0  0  0  0  0  0  0  0  0  0  0
  150.0794  133.6397  156.7555 C   0  0  0  0  0  0  0  0  0  0  0  0
  149.5894  133.6743  157.9938 N   0  0  0  0  0  0  0  0  0  0  0  0
  148.2371  133.5058  157.9930 C   0  0  0  0  0  0  0  0  0  0  0  0
  147.4062  133.3178  156.8490 C   0  0  0  0  0  0  0  0  0  0  0  0
  146.0840  133.1784  157.2613 N   0  0  0  0  0  0  0  0  0  0  0  0
  146.1313  133.2757  158.5608 C   0  0  0  0  0  0  0  0  0  0  0  0
  147.3897  133.4515  159.0858 N   0  0  0  0  0  0  0  0  0  0  0  0
  147.7313  133.5826  160.4913 C   0  0  0  0  0  0  0  0  0  0  0  0
  147.1969  134.8744  161.1640 C   0  0  2  0  0  0  0  0  0  0  0  0
  148.1188  135.2035  162.3640 C   0  0  0  0  0  0  0  0  0  0  0  0
  147.9604  136.5372  162.8021 O   0  0  0  0  0  0  0  0  0  0  0  0
  145.6974  134.7675  161.5831 C   0  0  1  0  0  0  0  0  0  0  0  0
  145.3995  133.7940  162.7132 C   0  0  0  0  0  0  0  0  0  0  0  0
  144.0195  134.2407  163.1703 C   0  0  0  0  0  0  0  0  0  0  0  0
  144.0752  135.6561  163.1007 O   0  0  0  0  0  0  0  0  0  0  0  0
  145.0612  136.0489  162.1499 C   0  0  0  0  0  0  0  0  0  0  0  0
  143.8315  133.9917  153.7957 N   0  3  1  0  0  0  0  0  0  0  0  0
  143.2630  134.9053  154.8093 C   0  0  0  0  0  0  0  0  0  0  0  0
  143.1762  134.0707  152.4738 C   0  0  0  0  0  0  0  0  0  0  0  0
  144.0266  134.0159  150.4754 H   0  0  0  0  0  0  0  0  0  0  0  0
  145.6415  135.0619  154.0288 H   0  0  0  0  0  0  0  0  0  0  0  0
  145.0884  130.5400  150.5742 H   0  0  0  0  0  0  0  0  0  0  0  0
  146.1903  131.8918  150.8104 H   0  0  0  0  0  0  0  0  0  0  0  0
  144.9754  131.9489  149.5224 H   0  0  0  0  0  0  0  0  0  0  0  0
  146.4154  133.6468  151.7472 H   0  0  0  0  0  0  0  0  0  0  0  0
  145.6292  135.2057  151.7731 H   0  0  0  0  0  0  0  0  0  0  0  0
  145.6101  132.8014  155.3042 H   0  0  0  0  0  0  0  0  0  0  0  0
  145.7838  132.0157  153.7719 H   0  0  0  0  0  0  0  0  0  0  0  0
  149.1096  132.5331  153.1979 H   0  0  0  0  0  0  0  0  0  0  0  0
  148.5668  134.2029  152.9489 H   0  0  0  0  0  0  0  0  0  0  0  0
  147.6421  132.8603  152.2869 H   0  0  0  0  0  0  0  0  0  0  0  0
  151.1488  133.7664  156.6728 H   0  0  0  0  0  0  0  0  0  0  0  0
  145.2464  133.2083  159.1768 H   0  0  0  0  0  0  0  0  0  0  0  0
  147.3725  132.7045  161.0293 H   0  0  0  0  0  0  0  0  0  0  0  0
  148.8198  133.5505  160.5510 H   0  0  0  0  0  0  0  0  0  0  0  0
  147.2991  135.6863  160.4422 H   0  0  0  0  0  0  0  0  0  0  0  0
  147.9398  134.5187  163.1934 H   0  0  0  0  0  0  0  0  0  0  0  0
  149.1685  135.0947  162.0902 H   0  0  0  0  0  0  0  0  0  0  0  0
  148.1684  136.5783  163.7232 H   0  0  0  0  0  0  0  0  0  0  0  0
  145.1135  134.4515  160.7168 H   0  0  0  0  0  0  0  0  0  0  0  0
  145.4124  132.7505  162.3973 H   0  0  0  0  0  0  0  0  0  0  0  0
  146.1153  133.9186  163.5269 H   0  0  0  0  0  0  0  0  0  0  0  0
  143.2519  133.8790  162.4847 H   0  0  0  0  0  0  0  0  0  0  0  0
  143.7734  133.8963  164.1749 H   0  0  0  0  0  0  0  0  0  0  0  0
  145.7981  136.6658  162.6647 H   0  0  0  0  0  0  0  0  0  0  0  0
  144.5960  136.6523  161.3720 H   0  0  0  0  0  0  0  0  0  0  0  0
  143.3893  135.9483  154.5152 H   0  0  0  0  0  0  0  0  0  0  0  0
  143.7547  134.7587  155.7718 H   0  0  0  0  0  0  0  0  0  0  0  0
  142.1982  134.7116  154.9412 H   0  0  0  0  0  0  0  0  0  0  0  0
  142.9074  135.1072  152.2628 H   0  0  0  0  0  0  0  0  0  0  0  0
  142.2631  133.4758  152.4368 H   0  0  0  0  0  0  0  0  0  0  0  0
  143.6803  133.0484  154.1245 H   0  0  0  0  0  0  0  0  0  0  0  0
  1  2  1  0  0  0  0
  1 32  1  0  0  0  0
  1 33  1  0  0  0  0
  1 34  1  0  0  0  0
  2  3  1  0  0  0  0
  3 30  1  0  0  0  0
  3 29  1  0  0  0  0
  3  4  1  0  0  0  0
  4  5  1  0  0  0  0
  4 35  1  0  0  0  0
  4 36  1  0  0  0  0
  5 31  1  0  0  0  0
  5  6  1  0  0  0  0
  5 27  1  0  0  0  0
  6  7  1  0  0  0  0
  6 37  1  0  0  0  0
  6 38  1  0  0  0  0
  7  8  1  0  0  0  0
  7  9  1  0  0  0  0
  8 39  1  0  0  0  0
  8 40  1  0  0  0  0
  8 41  1  0  0  0  0
  9 14  1  0  0  0  0
  9 10  2  0  0  0  0
 10 11  1  0  0  0  0
 11 12  2  0  0  0  0
 11 42  1  0  0  0  0
 12 13  1  0  0  0  0
 13 17  1  0  0  0  0
 13 14  2  0  0  0  0
 14 15  1  0  0  0  0
 15 16  2  0  0  0  0
 16 17  1  0  0  0  0
 16 43  1  0  0  0  0
 17 18  1  0  0  0  0
 18 19  1  0  0  0  0
 18 44  1  0  0  0  0
 18 45  1  0  0  0  0
 19 20  1  0  0  0  0
 19 22  1  0  0  0  0
 19 46  1  0  0  0  0
 20 21  1  0  0  0  0
 20 47  1  0  0  0  0
 20 48  1  0  0  0  0
 21 49  1  0  0  0  0
 22 26  1  0  0  0  0
 22 23  1  0  0  0  0
 22 50  1  0  0  0  0
 23 24  1  0  0  0  0
 23 51  1  0  0  0  0
 23 52  1  0  0  0  0
 24 25  1  0  0  0  0
 24 53  1  0  0  0  0
 24 54  1  0  0  0  0
 25 26  1  0  0  0  0
 26 55  1  0  0  0  0
 26 56  1  0  0  0  0
 27 28  1  0  0  0  0
 27 29  1  0  0  0  0
 27 62  1  0  0  0  0
 28 57  1  0  0  0  0
 28 58  1  0  0  0  0
 28 59  1  0  0  0  0
 29 60  1  0  0  0  0
 29 61  1  0  0  0  0
M  CHG  1  27   1
M  END
> <s_m_source_file>
AV-unprocessed.smi

> <i_m_source_file_index>
21

> <i_lp_mmshare_version>
43012

> <i_f3d_flags>
0

> <s_epik_input>
W0NIM11PW0NASF0xW0NIMl1bQ0BIXShOKFtDSDNdKVtDSDJdMSlbQ0gyXU4oW0NIM10pYyhuW2NIXW4yKWMoYzIzKW5bY0hdbjNbQ0gyXVtDQEhdKFtDSDJdW09IXSlbQ0BASF00W0NIMl1bQ0gyXU9bQ0gyXTQ=

> <s_epik_cmdline>
J2VwaWtfcHl0aG9uJywgJy1waCcsICc3LjAnLCAnLXRuJywgJzgnLCAnLW1hJywgJzIwMCcsICctbWV0YWxfYmluZGluZycsICctaW1hZScsICc8aW5maWxlLm1hZT4nLCAnLW9tYWUnLCAnPG91dGZpbGUubWFlPic=

> <r_lp_tautomer_probability>
1

> <r_epik_Ionization_Penalty>
0.0157465

> <r_epik_Ionization_Penalty_Charging>
0.015354

> <r_epik_Ionization_Penalty_Neutral>
0.000392529

> <r_epik_State_Penalty>
0.0120612

> <r_epik_Charging_Adjusted_Penalty>
0.0274152

> <i_epik_Tot_Q>
1

> <i_epik_Tot_abs_Q>
1

> <r_epik_Metal_State_Penalty>
0.0121253

> <b_epik_Metal_Only>
0

> <s_lp_Force_Field>
OPLS_2005

> <r_lp_Energy>
58.7805

> <b_lp_Chiralities_Consistent>
1

> <s_lp_Variant>
AV-unprocessed.smi:21-28

> <Gold.Version>
5.8.1

> <Gold.Id.Protein>
6NUR|6NUR_protein|mol2

> <Gold.PLP.Fitness>
47.5989

> <Gold.PLP.PLP>
-36.4970

> <Gold.PLP.part.hbond>
-3.0760

> <Gold.PLP.part.metal>
0.0000

> <Gold.PLP.part.buried>
-7.6689

> <Gold.PLP.part.nonpolar>
-26.5364

> <Gold.PLP.part.repulsive>
0.2760

> <Gold.PLP.ligand.clash>
0.0000

> <Gold.PLP.ligand.torsion>
0.5554

> <Gold.PLP.Chemscore.Hbond>
3.8480

> <Gold.PLP.Chemscore.CHOScore>
0.0000

> <Gold.PLP.Chemscore.Metal>
0.0000

> <Gold.Chemscore.Hbonds>
donor molecule, donor type, donor heavy atom, donor atom, acceptor molecule, acceptor atom, score
      L1  H    27    62       P1 10957  2.00
      P1  H  6896  6908       L1    12  1.00
      P1  H  6931  6943       L1    21  0.60

> <Gold.PLP.Chemscore.Internal.Correction>
0.6686

> <Gold.Rescore>
     Score         DG    S(hbond)    S(metal)    S(lipo)     H(rot)  DE(clash)    DE(int)     intcor
     14.58     -16.21       2.83        0.00      78.33       3.08       0.00       1.63       ----

> <Gold.Chemscore.Fitness>
14.5797

> <Gold.Chemscore.DG>
-16.2126

> <Gold.Chemscore.ZeroCoef>
-5.4800

> <Gold.Chemscore.Hbond>
2.8269

> <Gold.Chemscore.Metal>
0.0000

> <Gold.Chemscore.Lipo>
78.3335

> <Gold.Chemscore.Internal_Hbond>
0.0000

> <Gold.Chemscore.DEClash>
0.0029

> <Gold.Chemscore.DEInternal>
1.6300

> <Gold.Chemscore.Rot>
3.0758

> <Gold.Chemscore.Internal.Correction>
   9.000000E+99

> <Gold.Chemscore.Hbonds>
donor molecule, donor type, donor heavy atom, donor atom, acceptor molecule, acceptor atom, score
      L1  H    27    62       P1 10957  0.97
      P1  H  6896  6908       L1    12  0.85
      P1  H  6931  6943       L1    21  0.25

> <Gold.Chemscore.Hbond.Weighted>
-9.4417

> <Gold.Chemscore.Metal.Weighted>
-0.0000

> <Gold.Chemscore.Lipo.Weighted>
-9.1650

> <Gold.Chemscore.Internal_Hbond.Weighted>
0.0000

> <Gold.Chemscore.DEClash.Weighted>
0.0029

> <Gold.Chemscore.DEInternal.Weighted>
1.6300

> <Gold.Chemscore.Rot.Weighted>
7.8741

> <Gold.Chemscore.Internal.Correction.Weighted>
   9.000000E+99

> <Gold.Protein.RotatedTorsions>
[ 6907 6896 6895 6894 ] final  113.25 input  -60.11 | X-H torsion
[ 7974 7965 7964 7962 ] final -143.69 input  175.53 | X-H torsion
[ 8008 7997 7996 7995 ] final  -37.76 input   59.86 | X-H torsion
[ 10167 10162 10161 10158 ] final  -97.65 input  -65.29 | X-H torsion
[ 10718 10713 10712 10709 ] final -136.01 input   66.30 | X-H torsion
[ 10763 10752 10751 10750 ] final -135.66 input  -60.55 | X-H torsion
[ 11005 11000 10999 10996 ] final -135.68 input  -57.11 | X-H torsion

> <Gold.Protein.ActiveResidues>
 VAL166  LYS551  ARG553  GLY616  TRP617  ASP618  TYR619  PRO620  LYS621  CYS622 
 ASP623  PHE694  ASN695  SER759  ASP760  ASP761  ALA762  ILE779  LEU786  VAL792 
 PHE793  MET794  SER795  GLU796  ALA797  LYS798  CYS799  TRP800  GLU811  SER814 

> <Gold.Protein.RotatedAtoms>
  152.4871  133.8401  159.7148 H   0  0  0  0  0  0  0  0  0  0  0  0  # atno 6907 bound_to 6896
  150.8967  133.7162  159.2896 H   0  0  0  0  0  0  0  0  0  0  0  0  # atno 6908 bound_to 6896
  151.4617  135.1043  159.9779 H   0  0  0  0  0  0  0  0  0  0  0  0  # atno 6909 bound_to 6896
  144.8351  140.5803  143.5489 H   0  0  0  0  0  0  0  0  0  0  0  0  # atno 7974 bound_to 7965
  154.4048  140.1595  156.2589 H   0  0  0  0  0  0  0  0  0  0  0  0  # atno 8008 bound_to 7997
  155.9054  140.3430  155.6035 H   0  0  0  0  0  0  0  0  0  0  0  0  # atno 8009 bound_to 7997
  155.7399  140.0791  157.2241 H   0  0  0  0  0  0  0  0  0  0  0  0  # atno 8010 bound_to 7997
  140.2812  143.3280  152.0439 H   0  0  0  0  0  0  0  0  0  0  0  0  # atno 10167 bound_to 10162
  156.2724  130.7273  151.1245 H   0  0  0  0  0  0  0  0  0  0  0  0  # atno 10718 bound_to 10713
  154.8699  135.3696  154.4934 H   0  0  0  0  0  0  0  0  0  0  0  0  # atno 10763 bound_to 10752
  153.5580  135.7023  153.5565 H   0  0  0  0  0  0  0  0  0  0  0  0  # atno 10764 bound_to 10752
  153.3654  135.4035  155.1713 H   0  0  0  0  0  0  0  0  0  0  0  0  # atno 10765 bound_to 10752
  140.8875  134.1853  157.4550 H   0  0  0  0  0  0  0  0  0  0  0  0  # atno 11005 bound_to 11000
  145.4812  139.1495  143.3761 LP  0  0  0  0  0  0  0  0  0  0  0  0  # atno 17320 bound_to 7965
  146.2651  140.4948  142.8837 LP  0  0  0  0  0  0  0  0  0  0  0  0  # atno 17321 bound_to 7965
  139.4962  144.6590  151.6507 LP  0  0  0  0  0  0  0  0  0  0  0  0  # atno 17342 bound_to 10162
  140.5810  143.9946  150.6268 LP  0  0  0  0  0  0  0  0  0  0  0  0  # atno 17343 bound_to 10162
  157.7288  131.0629  150.5802 LP  0  0  0  0  0  0  0  0  0  0  0  0  # atno 17370 bound_to 10713
  156.5900  130.4327  149.5940 LP  0  0  0  0  0  0  0  0  0  0  0  0  # atno 17371 bound_to 10713
  139.8726  134.9844  156.5239 LP  0  0  0  0  0  0  0  0  0  0  0  0  # atno 17394 bound_to 11000
  140.8387  133.8222  155.9054 LP  0  0  0  0  0  0  0  0  0  0  0  0  # atno 17395 bound_to 11000

$$$$
