AV-unprocessed.smi:993|AV-procd|sdf|4335|dock1
  -GOLD-   22720 2233D 1   1.00000     0.00000
 Structure written by MMmdl.
 31 32  0  0  0  0  0  0  0  0  2 V2000
  149.0724  141.4465  154.7491 C   0  0  0  0  0  0  0  0  0  0  0  0
  150.2194  141.2200  155.7182 C   0  0  0  0  0  0  0  0  0  0  0  0
  150.3589  142.1804  156.7282 N   0  0  0  0  0  0  0  0  0  0  0  0
  151.3052  142.0678  157.6049 C   0  0  0  0  0  0  0  0  0  0  0  0
  151.5439  142.9503  158.6556 N   0  0  0  0  0  0  0  0  0  0  0  0
  152.4854  142.6925  159.7368 C   0  0  0  0  0  0  0  0  0  0  0  0
  152.2291  143.7676  160.7931 C   0  0  0  0  0  0  0  0  0  0  0  0
  151.7025  144.9387  159.9737 C   0  0  0  0  0  0  0  0  0  0  0  0
  150.9223  144.2560  158.8499 C   0  0  0  0  0  0  0  0  0  0  0  0
  152.1990  140.9936  157.5475 N   0  0  0  0  0  0  0  0  0  0  0  0
  152.1513  140.0196  156.6122 C   0  0  0  0  0  0  0  0  0  0  0  0
  152.9752  139.1062  156.6262 O   0  0  0  0  0  0  0  0  0  0  0  0
  151.0666  140.1561  155.6257 C   0  0  0  0  0  0  0  0  0  0  0  0
  150.9441  139.0850  154.5399 C   0  0  0  0  0  0  0  0  0  0  0  0
  150.7522  137.6558  155.0622 C   0  0  0  0  0  0  0  0  0  0  0  0
  151.6692  136.8445  154.8099 O   0  0  0  0  0  0  0  0  0  0  0  0
  149.7095  137.3888  155.7006 O   0  5  0  0  0  0  0  0  0  0  0  0
  152.9256  140.9334  158.2451 H   0  0  0  0  0  0  0  0  0  0  0  0
  149.4528  141.6331  153.7447 H   0  0  0  0  0  0  0  0  0  0  0  0
  148.4685  142.3056  155.0438 H   0  0  0  0  0  0  0  0  0  0  0  0
  148.4178  140.5753  154.7166 H   0  0  0  0  0  0  0  0  0  0  0  0
  152.3604  141.6910  160.1508 H   0  0  0  0  0  0  0  0  0  0  0  0
  153.5001  142.7728  159.3451 H   0  0  0  0  0  0  0  0  0  0  0  0
  151.4578  143.4275  161.4853 H   0  0  0  0  0  0  0  0  0  0  0  0
  153.1188  144.0153  161.3726 H   0  0  0  0  0  0  0  0  0  0  0  0
  151.0930  145.6302  160.5559 H   0  0  0  0  0  0  0  0  0  0  0  0
  152.5399  145.4975  159.5536 H   0  0  0  0  0  0  0  0  0  0  0  0
  150.9401  144.8549  157.9386 H   0  0  0  0  0  0  0  0  0  0  0  0
  149.8811  144.1098  159.1405 H   0  0  0  0  0  0  0  0  0  0  0  0
  150.0992  139.3261  153.8950 H   0  0  0  0  0  0  0  0  0  0  0  0
  151.8154  139.1012  153.8841 H   0  0  0  0  0  0  0  0  0  0  0  0
  1  2  1  0  0  0  0
  1 19  1  0  0  0  0
  1 20  1  0  0  0  0
  1 21  1  0  0  0  0
  2 13  2  0  0  0  0
  2  3  1  0  0  0  0
  3  4  2  0  0  0  0
  4  5  1  0  0  0  0
  4 10  1  0  0  0  0
  5  9  1  0  0  0  0
  5  6  1  0  0  0  0
  6  7  1  0  0  0  0
  6 22  1  0  0  0  0
  6 23  1  0  0  0  0
  7  8  1  0  0  0  0
  7 24  1  0  0  0  0
  7 25  1  0  0  0  0
  8  9  1  0  0  0  0
  8 26  1  0  0  0  0
  8 27  1  0  0  0  0
  9 28  1  0  0  0  0
  9 29  1  0  0  0  0
 10 18  1  0  0  0  0
 10 11  1  0  0  0  0
 11 12  2  0  0  0  0
 11 13  1  0  0  0  0
 13 14  1  0  0  0  0
 14 15  1  0  0  0  0
 14 30  1  0  0  0  0
 14 31  1  0  0  0  0
 15 16  2  0  0  0  0
 15 17  1  0  0  0  0
M  CHG  1  17  -1
M  END
> <s_m_source_file>
AV-unprocessed.smi

> <i_m_source_file_index>
993

> <i_lp_mmshare_version>
43012

> <i_f3d_flags>
0

> <s_epik_input>
W0NIMl0xW0NIMl1bQ0gyXVtDSDJdTjFjKG5jMltDSDNdKVtuSF1jKD1PKWMyW0NIMl1DKD1PKVtPSF0=

> <s_epik_cmdline>
J2VwaWtfcHl0aG9uJywgJy1waCcsICc3LjAnLCAnLXRuJywgJzgnLCAnLW1hJywgJzIwMCcsICctbWV0YWxfYmluZGluZycsICctaW1hZScsICc8aW5maWxlLm1hZT4nLCAnLW9tYWUnLCAnPG91dGZpbGUubWFlPic=

> <r_lp_tautomer_probability>
0.878553

> <r_epik_Ionization_Penalty>
0.00262988

> <r_epik_Ionization_Penalty_Charging>
0.000644725

> <r_epik_Ionization_Penalty_Neutral>
0.00198515

> <r_epik_State_Penalty>
0.0663044

> <r_epik_Charging_Adjusted_Penalty>
0.0669491

> <i_epik_Tot_Q>
-1

> <i_epik_Tot_abs_Q>
1

> <r_epik_Metal_State_Penalty>
0.275429

> <b_epik_Metal_Only>
0

> <s_lp_Force_Field>
OPLS_2005

> <r_lp_Energy>
24.8318

> <b_lp_Chiralities_Consistent>
1

> <s_lp_Variant>
AV-unprocessed.smi:993-1

> <Gold.Version>
5.8.1

> <Gold.Id.Protein>
6NUR|6NUR_protein|mol2

> <Gold.PLP.Fitness>
45.1907

> <Gold.PLP.PLP>
-36.4594

> <Gold.PLP.part.hbond>
-2.0000

> <Gold.PLP.part.metal>
0.0000

> <Gold.PLP.part.buried>
-2.0251

> <Gold.PLP.part.nonpolar>
-32.1433

> <Gold.PLP.part.repulsive>
0.4931

> <Gold.PLP.ligand.clash>
0.0000

> <Gold.PLP.ligand.torsion>
0.0654

> <Gold.PLP.Chemscore.Hbond>
2.9500

> <Gold.PLP.Chemscore.CHOScore>
0.0000

> <Gold.PLP.Chemscore.Metal>
0.0000

> <Gold.Chemscore.Hbonds>
donor molecule, donor type, donor heavy atom, donor atom, acceptor molecule, acceptor atom, score
      P1  H  7997  8010       L1    12  1.00
      P1  H 10752 10763       L1    16  2.00

> <Gold.PLP.Chemscore.Internal.Correction>
0.0121

> <Gold.Rescore>
     Score         DG    S(hbond)    S(metal)    S(lipo)     H(rot)  DE(clash)    DE(int)     intcor
     14.86     -15.20       1.44        0.00      74.96       1.51       0.30       0.05       ----

> <Gold.Chemscore.Fitness>
14.8557

> <Gold.Chemscore.DG>
-15.2024

> <Gold.Chemscore.ZeroCoef>
-5.4800

> <Gold.Chemscore.Hbond>
1.4406

> <Gold.Chemscore.Metal>
0.0000

> <Gold.Chemscore.Lipo>
74.9566

> <Gold.Chemscore.Internal_Hbond>
0.0000

> <Gold.Chemscore.DEClash>
0.2960

> <Gold.Chemscore.DEInternal>
0.0507

> <Gold.Chemscore.Rot>
1.5075

> <Gold.Chemscore.Internal.Correction>
   9.000000E+99

> <Gold.Chemscore.Hbonds>
donor molecule, donor type, donor heavy atom, donor atom, acceptor molecule, acceptor atom, score
      P1  H  7997  8010       L1    12  0.24
      P1  H 10752 10763       L1    16  0.99

> <Gold.Chemscore.Hbond.Weighted>
-4.8116

> <Gold.Chemscore.Metal.Weighted>
-0.0000

> <Gold.Chemscore.Lipo.Weighted>
-8.7699

> <Gold.Chemscore.Internal_Hbond.Weighted>
0.0000

> <Gold.Chemscore.DEClash.Weighted>
0.2960

> <Gold.Chemscore.DEInternal.Weighted>
0.0507

> <Gold.Chemscore.Rot.Weighted>
3.8592

> <Gold.Chemscore.Internal.Correction.Weighted>
   9.000000E+99

> <Gold.Protein.RotatedTorsions>
[ 6907 6896 6895 6894 ] final  107.30 input  -60.11 | X-H torsion
[ 7974 7965 7964 7962 ] final -142.19 input  175.53 | X-H torsion
[ 8008 7997 7996 7995 ] final   47.04 input   59.86 | X-H torsion
[ 10167 10162 10161 10158 ] final    9.76 input  -65.29 | X-H torsion
[ 10718 10713 10712 10709 ] final  -10.36 input   66.30 | X-H torsion
[ 10763 10752 10751 10750 ] final   43.66 input  -60.55 | X-H torsion
[ 11005 11000 10999 10996 ] final -165.52 input  -57.11 | X-H torsion

> <Gold.Protein.ActiveResidues>
 VAL166  LYS551  ARG553  GLY616  TRP617  ASP618  TYR619  PRO620  LYS621  CYS622 
 ASP623  PHE694  ASN695  SER759  ASP760  ASP761  ALA762  ILE779  LEU786  VAL792 
 PHE793  MET794  SER795  GLU796  ALA797  LYS798  CYS799  TRP800  GLU811  SER814 

> <Gold.Protein.RotatedAtoms>
  152.5159  133.9254  159.7554 H   0  0  0  0  0  0  0  0  0  0  0  0  # atno 6907 bound_to 6896
  150.9616  133.6430  159.2760 H   0  0  0  0  0  0  0  0  0  0  0  0  # atno 6908 bound_to 6896
  151.3673  135.0921  159.9507 H   0  0  0  0  0  0  0  0  0  0  0  0  # atno 6909 bound_to 6896
  144.8462  140.5988  143.5420 H   0  0  0  0  0  0  0  0  0  0  0  0  # atno 7974 bound_to 7965
  155.3624  140.3419  155.4241 H   0  0  0  0  0  0  0  0  0  0  0  0  # atno 8008 bound_to 7997
  156.1706  140.1630  156.8488 H   0  0  0  0  0  0  0  0  0  0  0  0  # atno 8009 bound_to 7997
  154.5230  140.0762  156.8188 H   0  0  0  0  0  0  0  0  0  0  0  0  # atno 8010 bound_to 7997
  140.6236  143.8151  150.7205 H   0  0  0  0  0  0  0  0  0  0  0  0  # atno 10167 bound_to 10162
  156.6747  130.5019  149.5989 H   0  0  0  0  0  0  0  0  0  0  0  0  # atno 10718 bound_to 10713
  152.9856  135.6094  154.3148 H   0  0  0  0  0  0  0  0  0  0  0  0  # atno 10763 bound_to 10752
  154.2861  135.2776  155.2677 H   0  0  0  0  0  0  0  0  0  0  0  0  # atno 10764 bound_to 10752
  154.4994  135.5871  153.6576 H   0  0  0  0  0  0  0  0  0  0  0  0  # atno 10765 bound_to 10752
  140.5747  134.5202  157.5168 H   0  0  0  0  0  0  0  0  0  0  0  0  # atno 11005 bound_to 11000
  145.4593  139.1514  143.3875 LP  0  0  0  0  0  0  0  0  0  0  0  0  # atno 17320 bound_to 7965
  146.2746  140.4722  142.8801 LP  0  0  0  0  0  0  0  0  0  0  0  0  # atno 17321 bound_to 7965
  140.1747  143.4165  152.1976 LP  0  0  0  0  0  0  0  0  0  0  0  0  # atno 17342 bound_to 10162
  139.5460  144.7298  151.4583 LP  0  0  0  0  0  0  0  0  0  0  0  0  # atno 17343 bound_to 10162
  156.1912  130.6561  151.1064 LP  0  0  0  0  0  0  0  0  0  0  0  0  # atno 17370 bound_to 10713
  157.7065  131.0754  150.6649 LP  0  0  0  0  0  0  0  0  0  0  0  0  # atno 17371 bound_to 10713
  139.9345  134.7901  156.0840 LP  0  0  0  0  0  0  0  0  0  0  0  0  # atno 17394 bound_to 11000
  141.1034  133.6669  156.2806 LP  0  0  0  0  0  0  0  0  0  0  0  0  # atno 17395 bound_to 11000

$$$$
