#       Name:                AV-unprocessed.smi:3314
#       Creating user name   scv26
#       Creation time:       Fri Mar 27 19:08:51 2020


#       File generated by GOLD software.
#

@<TRIPOS>MOLECULE
AV-unprocessed.smi:3314
    43    44     1
SMALL
NO_CHARGES


@<TRIPOS>ATOM
      1 ****        -4.7877   2.5753   0.5147 C.3            1 S1                 0.0000
      2 ****        -3.2742   2.5023   0.5089 C.2            1 S1                 0.0000
      3 ****        -2.4795   3.7187   0.5037 C.2            1 S1                 0.0000
      4 ****        -1.1384   3.6324   0.5006 C.2            1 S1                 0.0000
      5 ****        -0.2191   4.8356   0.4949 C.3            1 S1                 0.0000
      6 ****        -0.5032   2.3969   0.5022 N.pl3          1 S1                 0.0000
      7 ****        -1.1993   1.1755   0.5033 C.2            1 S1                 0.0000
      8 ****        -0.6519  -0.0054   0.4981 N.2            1 S1                 0.0000
      9 ****         0.7282  -0.1948   0.5005 C.2            1 S1                 0.0000
     10 ****         1.6324   0.6451   0.5325 O.2            1 S1                 0.0000
     11 ****         1.1035  -1.6807   0.4471 C.3            1 S1                 0.0000
     12 ****         1.3156  -2.1499  -1.0081 C.3            1 S1                 0.0000
     13 ****         1.7615  -3.5363  -1.0709 N.3            1 S1                 0.0000
     14 ****         1.9663  -3.9734  -2.4435 C.3            1 S1                 0.0000
     15 ****         2.9668  -3.7004  -0.2689 C.3            1 S1                 0.0000
     16 ****         2.7519  -3.2318   1.1803 C.3            1 S1                 0.0000
     17 ****         2.3112  -1.8773   1.1826 O.3            1 S1                 0.0000
     18 ****        -2.6493   1.3008   0.5083 C.2            1 S1                 0.0000
     19 ****        -5.1332   3.6095   0.5158 H              1 S1                 0.0000
     20 ****        -5.1881   2.0824   1.4009 H              1 S1                 0.0000
     21 ****        -5.1951   2.0817  -0.3681 H              1 S1                 0.0000
     22 ****        -2.9629   4.6850   0.5024 H              1 S1                 0.0000
     23 ****        -0.7872   5.7663   0.5095 H              1 S1                 0.0000
     24 ****         0.4047   4.8320  -0.3993 H              1 S1                 0.0000
     25 ****         0.4314   4.8205   1.3697 H              1 S1                 0.0000
     26 ****         0.3137  -2.2711   0.9169 H              1 S1                 0.0000
     27 ****         0.3848  -2.0403  -1.5667 H              1 S1                 0.0000
     28 ****         2.0488  -1.5058  -1.4970 H              1 S1                 0.0000
     29 ****         2.2743  -5.0191  -2.4741 H              1 S1                 0.0000
     30 ****         2.7364  -3.3784  -2.9363 H              1 S1                 0.0000
     31 ****         1.0450  -3.8814  -3.0198 H              1 S1                 0.0000
     32 ****         3.2730  -4.7471  -0.2705 H              1 S1                 0.0000
     33 ****         3.7871  -3.1343  -0.7129 H              1 S1                 0.0000
     34 ****         2.0172  -3.8607   1.6855 H              1 S1                 0.0000
     35 ****         3.6808  -3.3060   1.7457 H              1 S1                 0.0000
     36 ****        -3.2730   0.4181   0.5124 H              1 S1                 0.0000
     37 ****         0.5069   2.4148   0.5002 H              1 S1                 0.0000
     38 ****        -1.2463  -0.8095   0.4921 LP             1 S1                 0.0000
     39 ****         1.4090   1.6194   0.5619 LP             1 S1                 0.0000
     40 ****         2.5882   0.3512   0.5290 LP             1 S1                 0.0000
     41 ****         1.0435  -4.1198  -0.6915 LP             1 S1                 0.0000
     42 ****         2.1571  -1.5942   2.1292 LP             1 S1                 0.0000
     43 ****         3.0271  -1.3089   0.7770 LP             1 S1                 0.0000
@<TRIPOS>BOND
    1    1    2 1     
    2    1   19 1     
    3    1   20 1     
    4    1   21 1     
    5    2   18 2     
    6    2    3 1     
    7    3    4 2     
    8    3   22 1     
    9    4    5 1     
   10    4    6 1     
   11    5   23 1     
   12    5   24 1     
   13    5   25 1     
   14    6    7 1     
   15    6   37 1     
   16    7    8 2     
   17    7   18 1     
   18    8    9 1     
   19    9   10 2     
   20    9   11 1     
   21   11   17 1     
   22   11   12 1     
   23   11   26 1     
   24   12   13 1     
   25   12   27 1     
   26   12   28 1     
   27   13   14 1     
   28   13   15 1     
   29   14   29 1     
   30   14   30 1     
   31   14   31 1     
   32   15   16 1     
   33   15   32 1     
   34   15   33 1     
   35   16   17 1     
   36   16   34 1     
   37   16   35 1     
   38   18   36 1     
   39    8   38 1     
   40   10   39 1     
   41   10   40 1     
   42   13   41 1     
   43   17   42 1     
   44   17   43 1     
@<TRIPOS>SUBSTRUCTURE
      1 S1             1
@<TRIPOS>SET
LONE_PAIRS      STATIC     ATOMS    <user>   **** ""
6 38 39 40 41 42 43
DONOR_HYDROGENS      STATIC     ATOMS    <user>   **** ""
1 37
ATOM$BLUE        STATIC     ATOMS    COLORGROUP SYSTEM
6 38 39 40 41 42 43
ATOM$RED        STATIC     ATOMS    COLORGROUP SYSTEM
1 37
