AV-unprocessed.smi:3270|AV-procd|sdf|12514|dock1
  -GOLD-   2272018423D 1   1.00000     0.00000
 Structure written by MMmdl.
 39 40  0  0  0  0  0  0  0  0  2 V2000
  147.3019  142.3755  154.0953 C   0  0  0  0  0  0  0  0  0  0  0  0
  147.9833  141.0902  153.5825 C   0  0  2  0  0  0  0  0  0  0  0  0
  147.0084  139.9077  153.4349 C   0  0  0  0  0  0  0  0  0  0  0  0
  146.2300  139.6123  154.3427 O   0  0  0  0  0  0  0  0  0  0  0  0
  147.0483  139.2433  152.2683 N   0  0  0  0  0  0  0  0  0  0  0  0
  146.2081  138.1019  151.9264 C   0  0  0  0  0  0  0  0  0  0  0  0
  146.2341  137.0337  153.0362 C   0  0  0  0  0  0  0  0  0  0  0  0
  146.4921  135.6694  152.5114 N   0  3  0  0  0  0  0  0  0  0  0  0
  146.4096  134.6366  153.5722 C   0  0  0  0  0  0  0  0  0  0  0  0
  146.7306  133.2456  153.0002 C   0  0  0  0  0  0  0  0  0  0  0  0
  145.8396  132.9543  151.9311 O   0  0  0  0  0  0  0  0  0  0  0  0
  145.9706  133.8839  150.8633 C   0  0  0  0  0  0  0  0  0  0  0  0
  145.6293  135.2991  151.3614 C   0  0  0  0  0  0  0  0  0  0  0  0
  149.1297  140.7224  154.4068 N   0  0  0  0  0  0  0  0  0  0  0  0
  149.6596  141.4102  155.4799 C   0  0  0  0  0  0  0  0  0  0  0  0
  150.7407  140.7058  155.9261 C   0  0  0  0  0  0  0  0  0  0  0  0
  150.8012  139.5881  155.0483 C   0  0  0  0  0  0  0  0  0  0  0  0
  149.8415  139.6032  154.1379 N   0  0  0  0  0  0  0  0  0  0  0  0
  146.4938  142.6854  153.4316 H   0  0  0  0  0  0  0  0  0  0  0  0
  148.0146  143.1992  154.1455 H   0  0  0  0  0  0  0  0  0  0  0  0
  146.8797  142.2436  155.0924 H   0  0  0  0  0  0  0  0  0  0  0  0
  148.3636  141.3058  152.5829 H   0  0  0  0  0  0  0  0  0  0  0  0
  147.7165  139.5449  151.5738 H   0  0  0  0  0  0  0  0  0  0  0  0
  145.1983  138.4813  151.7753 H   0  0  0  0  0  0  0  0  0  0  0  0
  146.5257  137.6745  150.9737 H   0  0  0  0  0  0  0  0  0  0  0  0
  147.0256  137.2896  153.7425 H   0  0  0  0  0  0  0  0  0  0  0  0
  145.3016  137.0418  153.6027 H   0  0  0  0  0  0  0  0  0  0  0  0
  147.1099  134.8714  154.3748 H   0  0  0  0  0  0  0  0  0  0  0  0
  145.4093  134.6391  154.0082 H   0  0  0  0  0  0  0  0  0  0  0  0
  147.7644  133.1939  152.6549 H   0  0  0  0  0  0  0  0  0  0  0  0
  146.6145  132.4857  153.7732 H   0  0  0  0  0  0  0  0  0  0  0  0
  146.9819  133.8474  150.4548 H   0  0  0  0  0  0  0  0  0  0  0  0
  145.2925  133.5953  150.0599 H   0  0  0  0  0  0  0  0  0  0  0  0
  144.5806  135.3449  151.6597 H   0  0  0  0  0  0  0  0  0  0  0  0
  145.7596  136.0047  150.5418 H   0  0  0  0  0  0  0  0  0  0  0  0
  149.2276  142.3346  155.8340 H   0  0  0  0  0  0  0  0  0  0  0  0
  151.3906  140.9521  156.7526 H   0  0  0  0  0  0  0  0  0  0  0  0
  151.5104  138.7736  155.0432 H   0  0  0  0  0  0  0  0  0  0  0  0
  147.4471  135.6612  152.1819 H   0  0  0  0  0  0  0  0  0  0  0  0
  1  2  1  0  0  0  0
  1 19  1  0  0  0  0
  1 20  1  0  0  0  0
  1 21  1  0  0  0  0
  2  3  1  0  0  0  0
  2 14  1  0  0  0  0
  2 22  1  0  0  0  0
  3  4  2  0  0  0  0
  3  5  1  0  0  0  0
  5  6  1  0  0  0  0
  5 23  1  0  0  0  0
  6  7  1  0  0  0  0
  6 24  1  0  0  0  0
  6 25  1  0  0  0  0
  7  8  1  0  0  0  0
  7 26  1  0  0  0  0
  7 27  1  0  0  0  0
  8 13  1  0  0  0  0
  8  9  1  0  0  0  0
  8 39  1  0  0  0  0
  9 10  1  0  0  0  0
  9 28  1  0  0  0  0
  9 29  1  0  0  0  0
 10 11  1  0  0  0  0
 10 30  1  0  0  0  0
 10 31  1  0  0  0  0
 11 12  1  0  0  0  0
 12 13  1  0  0  0  0
 12 32  1  0  0  0  0
 12 33  1  0  0  0  0
 13 34  1  0  0  0  0
 13 35  1  0  0  0  0
 14 18  1  0  0  0  0
 14 15  1  0  0  0  0
 15 16  2  0  0  0  0
 15 36  1  0  0  0  0
 16 17  1  0  0  0  0
 16 37  1  0  0  0  0
 17 18  2  0  0  0  0
 17 38  1  0  0  0  0
M  CHG  1   8   1
M  END
> <s_m_source_file>
AV-unprocessed.smi

> <i_m_source_file_index>
3270

> <i_lp_mmshare_version>
43012

> <i_f3d_flags>
0

> <s_epik_input>
bjFbY0hdW2NIXVtjSF1uMVtDQEhdKFtDSDNdKUMoPU8pW05IXVtDSDJdW0NIMl1OMltDSDJdW0NIMl1PW0NIMl1bQ0gyXTI=

> <s_epik_cmdline>
J2VwaWtfcHl0aG9uJywgJy1waCcsICc3LjAnLCAnLXRuJywgJzgnLCAnLW1hJywgJzIwMCcsICctbWV0YWxfYmluZGluZycsICctaW1hZScsICc8aW5maWxlLm1hZT4nLCAnLW9tYWUnLCAnPG91dGZpbGUubWFlPic=

> <r_lp_tautomer_probability>
1

> <r_epik_Ionization_Penalty>
0.73255

> <r_epik_Ionization_Penalty_Charging>
0.732531

> <r_epik_Ionization_Penalty_Neutral>
1.96965e-05

> <r_epik_State_Penalty>
0.757939

> <r_epik_Charging_Adjusted_Penalty>
1.49047

> <i_epik_Tot_Q>
1

> <i_epik_Tot_abs_Q>
1

> <r_epik_Metal_State_Penalty>
0.757952

> <b_epik_Metal_Only>
0

> <s_lp_Force_Field>
OPLS_2005

> <r_lp_Energy>
19.6504

> <b_lp_Chiralities_Consistent>
1

> <s_lp_Variant>
AV-unprocessed.smi:3270-3

> <Gold.Version>
5.8.1

> <Gold.Id.Protein>
6NUR|6NUR_protein|mol2

> <Gold.PLP.Fitness>
43.0620

> <Gold.PLP.PLP>
-32.7373

> <Gold.PLP.part.hbond>
-2.5501

> <Gold.PLP.part.metal>
0.0000

> <Gold.PLP.part.buried>
-1.0727

> <Gold.PLP.part.nonpolar>
-30.3940

> <Gold.PLP.part.repulsive>
1.3054

> <Gold.PLP.ligand.clash>
0.0000

> <Gold.PLP.ligand.torsion>
0.8842

> <Gold.PLP.Chemscore.Hbond>
2.9760

> <Gold.PLP.Chemscore.CHOScore>
1.0000

> <Gold.PLP.Chemscore.Metal>
0.0000

> <Gold.Chemscore.Hbonds>
donor molecule, donor type, donor heavy atom, donor atom, acceptor molecule, acceptor atom, score
      L1  H     5    23       P1  7957  0.98
      L1  H     8    39       P1  7948  2.00
      L1  C    15    36       P1  8028  1.00

> <Gold.PLP.Chemscore.Internal.Correction>
0.1651

> <Gold.Rescore>
     Score         DG    S(hbond)    S(metal)    S(lipo)     H(rot)  DE(clash)    DE(int)     intcor
     12.74     -14.61       1.97        0.00      63.51       1.91       0.09       1.78       ----

> <Gold.Chemscore.Fitness>
12.7402

> <Gold.Chemscore.DG>
-14.6063

> <Gold.Chemscore.ZeroCoef>
-5.4800

> <Gold.Chemscore.Hbond>
1.9724

> <Gold.Chemscore.Metal>
0.0000

> <Gold.Chemscore.Lipo>
63.5073

> <Gold.Chemscore.Internal_Hbond>
0.0000

> <Gold.Chemscore.DEClash>
0.0875

> <Gold.Chemscore.DEInternal>
1.7785

> <Gold.Chemscore.Rot>
1.9109

> <Gold.Chemscore.Internal.Correction>
   9.000000E+99

> <Gold.Chemscore.Hbonds>
donor molecule, donor type, donor heavy atom, donor atom, acceptor molecule, acceptor atom, score
      L1  H     5    23       P1  7957  0.92
      L1  H     8    39       P1  7948  0.99

> <Gold.Chemscore.Hbond.Weighted>
-6.5878

> <Gold.Chemscore.Metal.Weighted>
-0.0000

> <Gold.Chemscore.Lipo.Weighted>
-7.4304

> <Gold.Chemscore.Internal_Hbond.Weighted>
0.0000

> <Gold.Chemscore.DEClash.Weighted>
0.0875

> <Gold.Chemscore.DEInternal.Weighted>
1.7785

> <Gold.Chemscore.Rot.Weighted>
4.8919

> <Gold.Chemscore.Internal.Correction.Weighted>
   9.000000E+99

> <Gold.Protein.RotatedTorsions>
[ 6907 6896 6895 6894 ] final  -16.63 input  -60.11 | X-H torsion
[ 7974 7965 7964 7962 ] final  -31.46 input  175.53 | X-H torsion
[ 8008 7997 7996 7995 ] final  147.96 input   59.86 | X-H torsion
[ 10167 10162 10161 10158 ] final   33.24 input  -65.29 | X-H torsion
[ 10718 10713 10712 10709 ] final -112.23 input   66.30 | X-H torsion
[ 10763 10752 10751 10750 ] final   68.76 input  -60.55 | X-H torsion
[ 11005 11000 10999 10996 ] final  166.95 input  -57.11 | X-H torsion

> <Gold.Protein.ActiveResidues>
 VAL166  LYS551  ARG553  GLY616  TRP617  ASP618  TYR619  PRO620  LYS621  CYS622 
 ASP623  PHE694  ASN695  SER759  ASP760  ASP761  ALA762  ILE779  LEU786  VAL792 
 PHE793  MET794  SER795  GLU796  ALA797  LYS798  CYS799  TRP800  GLU811  SER814 

> <Gold.Protein.RotatedAtoms>
  151.3056  135.0780  159.9253 H   0  0  0  0  0  0  0  0  0  0  0  0  # atno 6907 bound_to 6896
  152.5288  133.9788  159.7807 H   0  0  0  0  0  0  0  0  0  0  0  0  # atno 6908 bound_to 6896
  151.0082  133.5938  159.2716 H   0  0  0  0  0  0  0  0  0  0  0  0  # atno 6909 bound_to 6896
  146.1065  140.5670  142.8797 H   0  0  0  0  0  0  0  0  0  0  0  0  # atno 7974 bound_to 7965
  156.2807  140.2141  156.5622 H   0  0  0  0  0  0  0  0  0  0  0  0  # atno 8008 bound_to 7997
  154.7203  140.0504  157.0656 H   0  0  0  0  0  0  0  0  0  0  0  0  # atno 8009 bound_to 7997
  155.0487  140.3154  155.4702 H   0  0  0  0  0  0  0  0  0  0  0  0  # atno 8010 bound_to 7997
  140.4426  144.1166  150.6176 H   0  0  0  0  0  0  0  0  0  0  0  0  # atno 10167 bound_to 10162
  156.0693  130.5909  150.8481 H   0  0  0  0  0  0  0  0  0  0  0  0  # atno 10718 bound_to 10713
  153.0252  135.5235  154.7184 H   0  0  0  0  0  0  0  0  0  0  0  0  # atno 10763 bound_to 10752
  154.6246  135.2893  155.0289 H   0  0  0  0  0  0  0  0  0  0  0  0  # atno 10764 bound_to 10752
  154.1263  135.6600  153.4965 H   0  0  0  0  0  0  0  0  0  0  0  0  # atno 10765 bound_to 10752
  140.2717  134.7821  157.3681 H   0  0  0  0  0  0  0  0  0  0  0  0  # atno 11005 bound_to 11000
  144.7475  140.5107  143.6825 LP  0  0  0  0  0  0  0  0  0  0  0  0  # atno 17320 bound_to 7965
  145.5750  139.1485  143.3267 LP  0  0  0  0  0  0  0  0  0  0  0  0  # atno 17321 bound_to 7965
  140.4301  143.2572  151.9606 LP  0  0  0  0  0  0  0  0  0  0  0  0  # atno 17342 bound_to 10162
  139.4790  144.5752  151.8024 LP  0  0  0  0  0  0  0  0  0  0  0  0  # atno 17343 bound_to 10162
  157.5755  131.0946  150.9352 LP  0  0  0  0  0  0  0  0  0  0  0  0  # atno 17370 bound_to 10713
  156.9559  130.5437  149.5284 LP  0  0  0  0  0  0  0  0  0  0  0  0  # atno 17371 bound_to 10713
  140.1367  134.5025  155.8063 LP  0  0  0  0  0  0  0  0  0  0  0  0  # atno 17394 bound_to 11000
  141.2176  133.6810  156.7136 LP  0  0  0  0  0  0  0  0  0  0  0  0  # atno 17395 bound_to 11000

$$$$
