AV-unprocessed.smi:1533|AV-procd|sdf|6162|dock9
  -GOLD-   22720 6313D 1   1.00000     0.00000
 Structure written by MMmdl.
 37 39  0  0  0  0  0  0  0  0  1 V2000
  146.8521  142.3500  154.0741 C   0  0  0  0  0  0  0  0  0  0  0  0
  148.0256  141.4835  154.3784 C   0  0  0  0  0  0  0  0  0  0  0  0
  149.1864  141.6466  153.7558 N   0  0  0  0  0  0  0  0  0  0  0  0
  149.9888  140.6315  154.2967 O   0  0  0  0  0  0  0  0  0  0  0  0
  149.2098  139.9850  155.1965 C   0  0  0  0  0  0  0  0  0  0  0  0
  149.7509  138.7701  155.8791 C   0  0  0  0  0  0  0  0  0  0  0  0
  151.0396  139.0279  156.6854 C   0  0  0  0  0  0  0  0  0  0  0  0
  150.9415  140.2161  157.5312 N   0  0  0  0  0  0  0  0  0  0  0  0
  151.9389  140.7353  158.2652 C   0  0  0  0  0  0  0  0  0  0  0  0
  153.0845  140.2839  158.2539 O   0  0  0  0  0  0  0  0  0  0  0  0
  151.5683  141.9291  159.1623 C   0  0  2  0  0  0  0  0  0  0  0  0
  151.0906  143.1790  158.3801 C   0  0  0  0  0  0  0  0  0  0  0  0
  152.0601  144.2812  158.8521 C   0  0  1  0  0  0  0  0  0  0  0  0
  151.7608  144.6285  160.3227 C   0  0  0  0  0  0  0  0  0  0  0  0
  152.2859  143.3914  161.0766 C   0  0  0  0  0  0  0  0  0  0  0  0
  152.7895  142.4897  159.9337 C   0  0  2  0  0  0  0  0  0  0  0  0
  153.3754  143.5231  158.9733 C   0  0  0  0  0  0  0  0  0  0  0  0
  147.9742  140.4724  155.2876 N   0  0  0  0  0  0  0  0  0  0  0  0
  147.1584  143.2439  153.5297 H   0  0  0  0  0  0  0  0  0  0  0  0
  146.3613  142.6605  154.9966 H   0  0  0  0  0  0  0  0  0  0  0  0
  146.1322  141.8035  153.4644 H   0  0  0  0  0  0  0  0  0  0  0  0
  148.9790  138.3689  156.5364 H   0  0  0  0  0  0  0  0  0  0  0  0
  149.9374  138.0063  155.1234 H   0  0  0  0  0  0  0  0  0  0  0  0
  151.2844  138.1503  157.2861 H   0  0  0  0  0  0  0  0  0  0  0  0
  151.8759  139.1673  156.0004 H   0  0  0  0  0  0  0  0  0  0  0  0
  150.0325  140.6503  157.5999 H   0  0  0  0  0  0  0  0  0  0  0  0
  150.7950  141.6092  159.8629 H   0  0  0  0  0  0  0  0  0  0  0  0
  151.1615  143.0499  157.2990 H   0  0  0  0  0  0  0  0  0  0  0  0
  150.0531  143.4283  158.6056 H   0  0  0  0  0  0  0  0  0  0  0  0
  152.0875  145.1506  158.1947 H   0  0  0  0  0  0  0  0  0  0  0  0
  152.3041  145.5230  160.6301 H   0  0  0  0  0  0  0  0  0  0  0  0
  150.6989  144.8044  160.4988 H   0  0  0  0  0  0  0  0  0  0  0  0
  153.1055  143.6675  161.7411 H   0  0  0  0  0  0  0  0  0  0  0  0
  151.5153  142.9112  161.6806 H   0  0  0  0  0  0  0  0  0  0  0  0
  153.4959  141.7283  160.2662 H   0  0  0  0  0  0  0  0  0  0  0  0
  153.7268  143.1082  158.0283 H   0  0  0  0  0  0  0  0  0  0  0  0
  154.1776  144.1169  159.4154 H   0  0  0  0  0  0  0  0  0  0  0  0
  1  2  1  0  0  0  0
  1 19  1  0  0  0  0
  1 20  1  0  0  0  0
  1 21  1  0  0  0  0
  2 18  1  0  0  0  0
  2  3  2  0  0  0  0
  3  4  1  0  0  0  0
  4  5  1  0  0  0  0
  5  6  1  0  0  0  0
  5 18  2  0  0  0  0
  6  7  1  0  0  0  0
  6 22  1  0  0  0  0
  6 23  1  0  0  0  0
  7  8  1  0  0  0  0
  7 24  1  0  0  0  0
  7 25  1  0  0  0  0
  8  9  1  0  0  0  0
  8 26  1  0  0  0  0
  9 10  2  0  0  0  0
  9 11  1  0  0  0  0
 11 16  1  0  0  0  0
 11 12  1  0  0  0  0
 11 27  1  0  0  0  0
 12 13  1  0  0  0  0
 12 28  1  0  0  0  0
 12 29  1  0  0  0  0
 13 17  1  0  0  0  0
 13 14  1  0  0  0  0
 13 30  1  0  0  0  0
 14 15  1  0  0  0  0
 14 31  1  0  0  0  0
 14 32  1  0  0  0  0
 15 16  1  0  0  0  0
 15 33  1  0  0  0  0
 15 34  1  0  0  0  0
 16 17  1  0  0  0  0
 16 35  1  0  0  0  0
 17 36  1  0  0  0  0
 17 37  1  0  0  0  0
M  END
> <s_m_source_file>
AV-unprocessed.smi

> <i_m_source_file_index>
1533

> <i_lp_mmshare_version>
43012

> <i_f3d_flags>
0

> <s_epik_input>
W0NIM11jMW5vYyhuMSlbQ0gyXVtDSDJdW05IXUMoPU8pW0NASF0oW0NIMl1bQ0BASF0yMylbQ0BASF0oW0NIMl0zKVtDSDJdW0NIMl0y

> <s_epik_cmdline>
J2VwaWtfcHl0aG9uJywgJy1waCcsICc3LjAnLCAnLXRuJywgJzgnLCAnLW1hJywgJzIwMCcsICctbWV0YWxfYmluZGluZycsICctaW1hZScsICc8aW5maWxlLm1hZT4nLCAnLW9tYWUnLCAnPG91dGZpbGUubWFlPic=

> <r_lp_tautomer_probability>
1

> <r_epik_Ionization_Penalty>
1.90116e-08

> <r_epik_Ionization_Penalty_Charging>
0

> <r_epik_Ionization_Penalty_Neutral>
1.90116e-08

> <r_epik_State_Penalty>
-0

> <r_epik_Charging_Adjusted_Penalty>
0

> <i_epik_Tot_Q>
0

> <i_epik_Tot_abs_Q>
0

> <r_epik_Metal_State_Penalty>
-0

> <b_epik_Metal_Only>
0

> <s_lp_Force_Field>
OPLS_2005

> <r_lp_Energy>
43.4718

> <b_lp_Chiralities_Consistent>
1

> <s_lp_Variant>
AV-unprocessed.smi:1533-1

> <Gold.Version>
5.8.1

> <Gold.Id.Protein>
6NUR|6NUR_protein|mol2

> <Gold.PLP.Fitness>
46.0352

> <Gold.PLP.PLP>
-38.8140

> <Gold.PLP.part.hbond>
-4.0000

> <Gold.PLP.part.metal>
0.0000

> <Gold.PLP.part.buried>
-4.9483

> <Gold.PLP.part.nonpolar>
-29.5547

> <Gold.PLP.part.repulsive>
0.7841

> <Gold.PLP.ligand.clash>
0.0000

> <Gold.PLP.ligand.torsion>
0.0898

> <Gold.PLP.Chemscore.Hbond>
2.4480

> <Gold.PLP.Chemscore.CHOScore>
0.0000

> <Gold.PLP.Chemscore.Metal>
0.0000

> <Gold.Chemscore.Hbonds>
donor molecule, donor type, donor heavy atom, donor atom, acceptor molecule, acceptor atom, score
      P1  H  7989  7998       L1     4  0.75
      P1  H  7997  8009       L1    10  0.93
      P1  H  8011  8017       L1     3  0.69

> <Gold.PLP.Chemscore.Internal.Correction>
0.0567

> <Gold.Rescore>
     Score         DG    S(hbond)    S(metal)    S(lipo)     H(rot)  DE(clash)    DE(int)     intcor
     17.51     -17.75       1.83        0.00      93.09       1.85       0.11       0.14       ----

> <Gold.Chemscore.Fitness>
17.5051

> <Gold.Chemscore.DG>
-17.7459

> <Gold.Chemscore.ZeroCoef>
-5.4800

> <Gold.Chemscore.Hbond>
1.8288

> <Gold.Chemscore.Metal>
0.0000

> <Gold.Chemscore.Lipo>
93.0856

> <Gold.Chemscore.Internal_Hbond>
0.0000

> <Gold.Chemscore.DEClash>
0.1058

> <Gold.Chemscore.DEInternal>
0.1351

> <Gold.Chemscore.Rot>
1.8490

> <Gold.Chemscore.Internal.Correction>
   9.000000E+99

> <Gold.Chemscore.Hbonds>
donor molecule, donor type, donor heavy atom, donor atom, acceptor molecule, acceptor atom, score
      P1  H  7989  7998       L1     4  0.30
      P1  H  7997  8009       L1    10  0.89
      P1  H  8011  8017       L1     3  0.63

> <Gold.Chemscore.Hbond.Weighted>
-6.1083

> <Gold.Chemscore.Metal.Weighted>
-0.0000

> <Gold.Chemscore.Lipo.Weighted>
-10.8910

> <Gold.Chemscore.Internal_Hbond.Weighted>
0.0000

> <Gold.Chemscore.DEClash.Weighted>
0.1058

> <Gold.Chemscore.DEInternal.Weighted>
0.1351

> <Gold.Chemscore.Rot.Weighted>
4.7334

> <Gold.Chemscore.Internal.Correction.Weighted>
   9.000000E+99

> <Gold.Protein.RotatedTorsions>
[ 6907 6896 6895 6894 ] final -166.53 input  -60.11 | X-H torsion
[ 7974 7965 7964 7962 ] final   -6.13 input  175.53 | X-H torsion
[ 8008 7997 7996 7995 ] final  155.63 input   59.86 | X-H torsion
[ 10167 10162 10161 10158 ] final  -41.46 input  -65.29 | X-H torsion
[ 10718 10713 10712 10709 ] final  -60.29 input   66.30 | X-H torsion
[ 10763 10752 10751 10750 ] final   61.72 input  -60.55 | X-H torsion
[ 11005 11000 10999 10996 ] final  -85.21 input  -57.11 | X-H torsion

> <Gold.Protein.ActiveResidues>
 VAL166  LYS551  ARG553  GLY616  TRP617  ASP618  TYR619  PRO620  LYS621  CYS622 
 ASP623  PHE694  ASN695  SER759  ASP760  ASP761  ALA762  ILE779  LEU786  VAL792 
 PHE793  MET794  SER795  GLU796  ALA797  LYS798  CYS799  TRP800  GLU811  SER814 

> <Gold.Protein.RotatedAtoms>
  151.4450  133.3633  159.2786 H   0  0  0  0  0  0  0  0  0  0  0  0  # atno 6907 bound_to 6896
  150.9131  134.8549  159.7449 H   0  0  0  0  0  0  0  0  0  0  0  0  # atno 6908 bound_to 6896
  152.4942  134.4382  159.9586 H   0  0  0  0  0  0  0  0  0  0  0  0  # atno 6909 bound_to 6896
  146.2338  140.2125  142.8335 H   0  0  0  0  0  0  0  0  0  0  0  0  # atno 7974 bound_to 7965
  156.2468  140.1934  156.6830 H   0  0  0  0  0  0  0  0  0  0  0  0  # atno 8008 bound_to 7997
  154.6307  140.0596  156.9755 H   0  0  0  0  0  0  0  0  0  0  0  0  # atno 8009 bound_to 7997
  155.1715  140.3268  155.4394 H   0  0  0  0  0  0  0  0  0  0  0  0  # atno 8010 bound_to 7997
  140.7002  143.3093  151.3070 H   0  0  0  0  0  0  0  0  0  0  0  0  # atno 10167 bound_to 10162
  156.1001  130.4187  150.0834 H   0  0  0  0  0  0  0  0  0  0  0  0  # atno 10718 bound_to 10713
  152.9959  135.5490  154.6079 H   0  0  0  0  0  0  0  0  0  0  0  0  # atno 10763 bound_to 10752
  154.5406  135.2819  155.1101 H   0  0  0  0  0  0  0  0  0  0  0  0  # atno 10764 bound_to 10752
  154.2380  135.6421  153.5250 H   0  0  0  0  0  0  0  0  0  0  0  0  # atno 10765 bound_to 10752
  141.1643  133.7387  156.8982 H   0  0  0  0  0  0  0  0  0  0  0  0  # atno 11005 bound_to 11000
  144.9695  140.8355  143.5464 LP  0  0  0  0  0  0  0  0  0  0  0  0  # atno 17320 bound_to 7965
  145.2105  139.2207  143.5145 LP  0  0  0  0  0  0  0  0  0  0  0  0  # atno 17321 bound_to 7965
  139.6510  144.0362  152.2626 LP  0  0  0  0  0  0  0  0  0  0  0  0  # atno 17342 bound_to 10162
  139.9898  144.6369  150.7824 LP  0  0  0  0  0  0  0  0  0  0  0  0  # atno 17343 bound_to 10162
  156.8823  130.9561  151.3598 LP  0  0  0  0  0  0  0  0  0  0  0  0  # atno 17370 bound_to 10713
  157.6169  130.8625  149.9043 LP  0  0  0  0  0  0  0  0  0  0  0  0  # atno 17371 bound_to 10713
  140.1601  134.9171  157.2704 LP  0  0  0  0  0  0  0  0  0  0  0  0  # atno 17394 bound_to 11000
  140.2621  134.3559  155.7403 LP  0  0  0  0  0  0  0  0  0  0  0  0  # atno 17395 bound_to 11000

$$$$
