AV-unprocessed.smi:1644|AV-procd|sdf|6585|dock8
  -GOLD-   22720 7273D 1   1.00000     0.00000
 Structure written by MMmdl.
 49 51  0  0  0  0  0  0  0  0  1 V2000
  147.7490  136.4838  163.1190 C   0  0  0  0  0  0  0  0  0  0  0  0
  146.7335  135.4450  162.6307 C   0  0  0  0  0  0  0  0  0  0  0  0
  146.5725  135.4551  161.1007 C   0  0  0  0  0  0  0  0  0  0  0  0
  147.8402  135.0368  160.3251 C   0  0  1  0  0  0  0  0  0  0  0  0
  147.5193  134.6373  158.9694 N   0  0  0  0  0  0  0  0  0  0  0  0
  148.1275  135.3936  158.0471 C   0  0  0  0  0  0  0  0  0  0  0  0
  147.9984  135.2679  156.8304 O   0  0  0  0  0  0  0  0  0  0  0  0
  148.8867  136.3040  158.6808 N   0  0  0  0  0  0  0  0  0  0  0  0
  149.6796  137.3352  158.0046 C   0  0  0  0  0  0  0  0  0  0  0  0
  150.6947  136.7145  157.0226 C   0  0  2  0  0  0  0  0  0  0  0  0
  151.1907  135.5122  157.5792 O   0  0  0  0  0  0  0  0  0  0  0  0
  151.8879  137.6517  156.7578 C   0  0  0  0  0  0  0  0  0  0  0  0
  151.4621  138.9665  156.3146 N   0  0  0  0  0  0  0  0  0  0  0  0
  150.8500  139.2814  155.1569 C   0  0  0  0  0  0  0  0  0  0  0  0
  150.5456  140.5611  154.9584 N   0  0  0  0  0  0  0  0  0  0  0  0
  151.0143  141.1433  156.1241 C   0  0  0  0  0  0  0  0  0  0  0  0
  150.9977  142.4901  156.5483 C   0  0  0  0  0  0  0  0  0  0  0  0
  151.5411  142.8629  157.7986 C   0  0  0  0  0  0  0  0  0  0  0  0
  151.5018  144.3227  158.2148 C   0  0  0  0  0  0  0  0  0  0  0  0
  152.1135  141.8809  158.6466 C   0  0  0  0  0  0  0  0  0  0  0  0
  152.7028  142.2576  159.9944 C   0  0  0  0  0  0  0  0  0  0  0  0
  152.1387  140.5311  158.2380 C   0  0  0  0  0  0  0  0  0  0  0  0
  151.5946  140.1730  156.9919 C   0  0  0  0  0  0  0  0  0  0  0  0
  148.7860  136.1853  160.0114 C   0  0  0  0  0  0  0  0  0  0  0  0
  149.3484  136.8759  160.8611 O   0  0  0  0  0  0  0  0  0  0  0  0
  147.8369  136.4597  164.2055 H   0  0  0  0  0  0  0  0  0  0  0  0
  147.4514  137.4926  162.8316 H   0  0  0  0  0  0  0  0  0  0  0  0
  148.7384  136.2934  162.7015 H   0  0  0  0  0  0  0  0  0  0  0  0
  147.0517  134.4606  162.9728 H   0  0  0  0  0  0  0  0  0  0  0  0
  145.7682  135.6379  163.1001 H   0  0  0  0  0  0  0  0  0  0  0  0
  145.7588  134.7802  160.8311 H   0  0  0  0  0  0  0  0  0  0  0  0
  146.2542  136.4486  160.7799 H   0  0  0  0  0  0  0  0  0  0  0  0
  148.3731  134.2300  160.8298 H   0  0  0  0  0  0  0  0  0  0  0  0
  146.8891  133.8773  158.7572 H   0  0  0  0  0  0  0  0  0  0  0  0
  148.9900  137.9816  157.4589 H   0  0  0  0  0  0  0  0  0  0  0  0
  150.1762  137.9927  158.7211 H   0  0  0  0  0  0  0  0  0  0  0  0
  150.2098  136.4864  156.0723 H   0  0  0  0  0  0  0  0  0  0  0  0
  152.1089  135.6258  157.7724 H   0  0  0  0  0  0  0  0  0  0  0  0
  152.4739  137.7815  157.6686 H   0  0  0  0  0  0  0  0  0  0  0  0
  152.5592  137.2239  156.0116 H   0  0  0  0  0  0  0  0  0  0  0  0
  150.6116  138.5282  154.4203 H   0  0  0  0  0  0  0  0  0  0  0  0
  150.5617  143.2379  155.9023 H   0  0  0  0  0  0  0  0  0  0  0  0
  152.5129  144.7094  158.3442 H   0  0  0  0  0  0  0  0  0  0  0  0
  150.9635  144.4383  159.1558 H   0  0  0  0  0  0  0  0  0  0  0  0
  151.0015  144.9375  157.4663 H   0  0  0  0  0  0  0  0  0  0  0  0
  153.1132  141.3868  160.5064 H   0  0  0  0  0  0  0  0  0  0  0  0
  151.9379  142.6939  160.6370 H   0  0  0  0  0  0  0  0  0  0  0  0
  153.5069  142.9831  159.8708 H   0  0  0  0  0  0  0  0  0  0  0  0
  152.5699  139.7715  158.8737 H   0  0  0  0  0  0  0  0  0  0  0  0
  1  2  1  0  0  0  0
  1 26  1  0  0  0  0
  1 27  1  0  0  0  0
  1 28  1  0  0  0  0
  2  3  1  0  0  0  0
  2 29  1  0  0  0  0
  2 30  1  0  0  0  0
  3  4  1  0  0  0  0
  3 31  1  0  0  0  0
  3 32  1  0  0  0  0
  4 24  1  0  0  0  0
  4  5  1  0  0  0  0
  4 33  1  0  0  0  0
  5  6  1  0  0  0  0
  5 34  1  0  0  0  0
  6  7  2  0  0  0  0
  6  8  1  0  0  0  0
  8  9  1  0  0  0  0
  8 24  1  0  0  0  0
  9 10  1  0  0  0  0
  9 35  1  0  0  0  0
  9 36  1  0  0  0  0
 10 11  1  0  0  0  0
 10 12  1  0  0  0  0
 10 37  1  0  0  0  0
 11 38  1  0  0  0  0
 12 13  1  0  0  0  0
 12 39  1  0  0  0  0
 12 40  1  0  0  0  0
 13 23  1  0  0  0  0
 13 14  1  0  0  0  0
 14 15  2  0  0  0  0
 14 41  1  0  0  0  0
 15 16  1  0  0  0  0
 16 23  2  0  0  0  0
 16 17  1  0  0  0  0
 17 18  2  0  0  0  0
 17 42  1  0  0  0  0
 18 19  1  0  0  0  0
 18 20  1  0  0  0  0
 19 43  1  0  0  0  0
 19 44  1  0  0  0  0
 19 45  1  0  0  0  0
 20 21  1  0  0  0  0
 20 22  2  0  0  0  0
 21 46  1  0  0  0  0
 21 47  1  0  0  0  0
 21 48  1  0  0  0  0
 22 23  1  0  0  0  0
 22 49  1  0  0  0  0
 24 25  2  0  0  0  0
M  END
> <s_m_source_file>
AV-unprocessed.smi

> <i_m_source_file_index>
1644

> <i_lp_mmshare_version>
43012

> <i_f3d_flags>
0

> <s_epik_input>
W0NIM11bQ0gyXVtDSDJdW0NAQEhdMVtOSF1DKD1PKU4oQzE9TylbQ0gyXVtDQEhdKFtPSF0pW0NIMl1uKFtjSF1uMiljKGMyMylbY0hdYyhbQ0gzXSljKFtjSF0zKVtDSDNd

> <s_epik_cmdline>
J2VwaWtfcHl0aG9uJywgJy1waCcsICc3LjAnLCAnLXRuJywgJzgnLCAnLW1hJywgJzIwMCcsICctbWV0YWxfYmluZGluZycsICctaW1hZScsICc8aW5maWxlLm1hZT4nLCAnLW9tYWUnLCAnPG91dGZpbGUubWFlPic=

> <r_lp_tautomer_probability>
1

> <r_epik_Ionization_Penalty>
0.10693

> <r_epik_Ionization_Penalty_Charging>
0

> <r_epik_Ionization_Penalty_Neutral>
0.10693

> <r_epik_State_Penalty>
0.096713

> <r_epik_Charging_Adjusted_Penalty>
0.096713

> <i_epik_Tot_Q>
0

> <i_epik_Tot_abs_Q>
0

> <r_epik_Metal_State_Penalty>
0.102757

> <b_epik_Metal_Only>
0

> <s_lp_Force_Field>
OPLS_2005

> <r_lp_Energy>
21.5813

> <b_lp_Chiralities_Consistent>
1

> <s_lp_Variant>
AV-unprocessed.smi:1644-2

> <Gold.Version>
5.8.1

> <Gold.Id.Protein>
6NUR|6NUR_protein|mol2

> <Gold.PLP.Fitness>
47.8798

> <Gold.PLP.PLP>
-43.5158

> <Gold.PLP.part.hbond>
-3.0000

> <Gold.PLP.part.metal>
0.0000

> <Gold.PLP.part.buried>
-4.4507

> <Gold.PLP.part.nonpolar>
-36.6139

> <Gold.PLP.part.repulsive>
0.1231

> <Gold.PLP.ligand.clash>
0.0000

> <Gold.PLP.ligand.torsion>
0.5956

> <Gold.PLP.Chemscore.Hbond>
1.8054

> <Gold.PLP.Chemscore.CHOScore>
0.0000

> <Gold.PLP.Chemscore.Metal>
0.0000

> <Gold.Chemscore.Hbonds>
donor molecule, donor type, donor heavy atom, donor atom, acceptor molecule, acceptor atom, score
      P1  H  6896  6907       L1    11  0.08
      P1  H  6931  6943       L1    25  0.74
      P1  H  7989  7998       L1    15  0.93

> <Gold.PLP.Chemscore.Internal.Correction>
0.1391

> <Gold.Rescore>
     Score         DG    S(hbond)    S(metal)    S(lipo)     H(rot)  DE(clash)    DE(int)     intcor
     14.67     -16.81       1.80        0.00     104.97       2.72       0.33       1.82       ----

> <Gold.Chemscore.Fitness>
14.6666

> <Gold.Chemscore.DG>
-16.8104

> <Gold.Chemscore.ZeroCoef>
-5.4800

> <Gold.Chemscore.Hbond>
1.8011

> <Gold.Chemscore.Metal>
0.0000

> <Gold.Chemscore.Lipo>
104.9658

> <Gold.Chemscore.Internal_Hbond>
0.0000

> <Gold.Chemscore.DEClash>
0.3255

> <Gold.Chemscore.DEInternal>
1.8183

> <Gold.Chemscore.Rot>
2.7212

> <Gold.Chemscore.Internal.Correction>
   9.000000E+99

> <Gold.Chemscore.Hbonds>
donor molecule, donor type, donor heavy atom, donor atom, acceptor molecule, acceptor atom, score
      P1  H  6896  6907       L1    11  0.01
      P1  H  6931  6943       L1    25  0.74
      P1  H  7989  7998       L1    15  0.17

> <Gold.Chemscore.Hbond.Weighted>
-6.0157

> <Gold.Chemscore.Metal.Weighted>
-0.0000

> <Gold.Chemscore.Lipo.Weighted>
-12.2810

> <Gold.Chemscore.Internal_Hbond.Weighted>
0.0000

> <Gold.Chemscore.DEClash.Weighted>
0.3255

> <Gold.Chemscore.DEInternal.Weighted>
1.8183

> <Gold.Chemscore.Rot.Weighted>
6.9663

> <Gold.Chemscore.Internal.Correction.Weighted>
   9.000000E+99

> <Gold.Protein.RotatedTorsions>
[ 6907 6896 6895 6894 ] final  -85.01 input  -60.11 | X-H torsion
[ 7974 7965 7964 7962 ] final  178.34 input  175.53 | X-H torsion
[ 8008 7997 7996 7995 ] final  -61.69 input   59.86 | X-H torsion
[ 10167 10162 10161 10158 ] final  -52.63 input  -65.29 | X-H torsion
[ 10718 10713 10712 10709 ] final -148.56 input   66.30 | X-H torsion
[ 10763 10752 10751 10750 ] final  110.73 input  -60.55 | X-H torsion
[ 11005 11000 10999 10996 ] final -100.32 input  -57.11 | X-H torsion

> <Gold.Protein.ActiveResidues>
 VAL166  LYS551  ARG553  GLY616  TRP617  ASP618  TYR619  PRO620  LYS621  CYS622 
 ASP623  PHE694  ASN695  SER759  ASP760  ASP761  ALA762  ILE779  LEU786  VAL792 
 PHE793  MET794  SER795  GLU796  ALA797  LYS798  CYS799  TRP800  GLU811  SER814 

> <Gold.Protein.RotatedAtoms>
  150.6872  134.3270  159.4810 H   0  0  0  0  0  0  0  0  0  0  0  0  # atno 6907 bound_to 6896
  152.1139  134.9252  160.0575 H   0  0  0  0  0  0  0  0  0  0  0  0  # atno 6908 bound_to 6896
  152.0484  133.3973  159.4403 H   0  0  0  0  0  0  0  0  0  0  0  0  # atno 6909 bound_to 6896
  144.7157  140.0382  143.6438 H   0  0  0  0  0  0  0  0  0  0  0  0  # atno 7974 bound_to 7965
  154.4461  140.1012  156.6470 H   0  0  0  0  0  0  0  0  0  0  0  0  # atno 8008 bound_to 7997
  155.5439  140.3484  155.4434 H   0  0  0  0  0  0  0  0  0  0  0  0  # atno 8009 bound_to 7997
  156.0577  140.1319  156.9966 H   0  0  0  0  0  0  0  0  0  0  0  0  # atno 8010 bound_to 7997
  140.6527  143.2577  151.4675 H   0  0  0  0  0  0  0  0  0  0  0  0  # atno 10167 bound_to 10162
  156.4218  130.8032  151.2255 H   0  0  0  0  0  0  0  0  0  0  0  0  # atno 10718 bound_to 10713
  153.4531  135.3739  155.2295 H   0  0  0  0  0  0  0  0  0  0  0  0  # atno 10763 bound_to 10752
  154.8756  135.3890  154.4014 H   0  0  0  0  0  0  0  0  0  0  0  0  # atno 10764 bound_to 10752
  153.4577  135.7086  153.6134 H   0  0  0  0  0  0  0  0  0  0  0  0  # atno 10765 bound_to 10752
  141.1275  133.8390  157.1087 H   0  0  0  0  0  0  0  0  0  0  0  0  # atno 11005 bound_to 11000
  146.0045  139.3118  143.0907 LP  0  0  0  0  0  0  0  0  0  0  0  0  # atno 17320 bound_to 7965
  145.8754  140.9395  143.0629 LP  0  0  0  0  0  0  0  0  0  0  0  0  # atno 17321 bound_to 7965
  139.5745  144.1851  152.1884 LP  0  0  0  0  0  0  0  0  0  0  0  0  # atno 17342 bound_to 10162
  140.1157  144.5417  150.6895 LP  0  0  0  0  0  0  0  0  0  0  0  0  # atno 17343 bound_to 10162
  157.7508  131.0226  150.3798 LP  0  0  0  0  0  0  0  0  0  0  0  0  # atno 17370 bound_to 10713
  156.4116  130.3935  149.6887 LP  0  0  0  0  0  0  0  0  0  0  0  0  # atno 17371 bound_to 10713
  140.0288  134.9911  157.0739 LP  0  0  0  0  0  0  0  0  0  0  0  0  # atno 17394 bound_to 11000
  140.4319  134.1772  155.7168 LP  0  0  0  0  0  0  0  0  0  0  0  0  # atno 17395 bound_to 11000

$$$$
