AV-unprocessed.smi:3117|AV-procd|sdf|11878|dock8
  -GOLD-   2272017263D 1   1.00000     0.00000
 Structure written by MMmdl.
 37 37  0  0  0  0  0  0  0  0  2 V2000
  149.3645  140.0950  158.0464 C   0  0  0  0  0  0  0  0  0  0  0  0
  149.7924  141.5638  157.8674 C   0  0  2  0  0  0  0  0  0  0  0  0
  149.4365  142.0283  156.5065 N   0  3  0  0  0  0  0  0  0  0  0  0
  150.2071  141.4222  155.3993 C   0  0  0  0  0  0  0  0  0  0  0  0
  149.3009  140.6246  154.4379 C   0  0  0  0  0  0  0  0  0  0  0  0
  148.5372  139.5336  155.2065 C   0  0  0  0  0  0  0  0  0  0  0  0
  148.3153  141.5324  153.6775 C   0  0  0  0  0  0  0  0  0  0  0  0
  150.1225  139.9637  153.4952 O   0  0  0  0  0  0  0  0  0  0  0  0
  151.3082  141.7828  158.1116 C   0  0  2  0  0  0  0  0  0  0  0  0
  151.9390  140.7359  159.0493 C   0  0  0  0  0  0  0  0  0  0  0  0
  151.5564  143.1258  158.6268 N   0  0  0  0  0  0  0  0  0  0  0  0
  151.4362  144.3399  157.9792 C   0  0  0  0  0  0  0  0  0  0  0  0
  151.8240  145.3117  158.8563 C   0  0  0  0  0  0  0  0  0  0  0  0
  152.1799  144.5876  160.0276 C   0  0  0  0  0  0  0  0  0  0  0  0
  152.0287  143.2812  159.8836 N   0  0  0  0  0  0  0  0  0  0  0  0
  149.5325  139.7483  159.0656 H   0  0  0  0  0  0  0  0  0  0  0  0
  149.9158  139.4368  157.3741 H   0  0  0  0  0  0  0  0  0  0  0  0
  148.3024  139.9590  157.8444 H   0  0  0  0  0  0  0  0  0  0  0  0
  149.2477  142.1736  158.5901 H   0  0  0  0  0  0  0  0  0  0  0  0
  148.4674  141.7860  156.3542 H   0  0  0  0  0  0  0  0  0  0  0  0
  150.7372  142.2050  154.8559 H   0  0  0  0  0  0  0  0  0  0  0  0
  150.9651  140.7572  155.8155 H   0  0  0  0  0  0  0  0  0  0  0  0
  147.8792  139.9693  155.9593 H   0  0  0  0  0  0  0  0  0  0  0  0
  149.2193  138.8551  155.7203 H   0  0  0  0  0  0  0  0  0  0  0  0
  147.9181  138.9332  154.5386 H   0  0  0  0  0  0  0  0  0  0  0  0
  147.6726  142.0798  154.3678 H   0  0  0  0  0  0  0  0  0  0  0  0
  147.6686  140.9506  153.0194 H   0  0  0  0  0  0  0  0  0  0  0  0
  148.8309  142.2661  153.0568 H   0  0  0  0  0  0  0  0  0  0  0  0
  149.6905  139.9790  152.6542 H   0  0  0  0  0  0  0  0  0  0  0  0
  151.8224  141.7008  157.1517 H   0  0  0  0  0  0  0  0  0  0  0  0
  151.9299  139.7408  158.6054 H   0  0  0  0  0  0  0  0  0  0  0  0
  151.4125  140.6799  160.0025 H   0  0  0  0  0  0  0  0  0  0  0  0
  152.9816  140.9779  159.2589 H   0  0  0  0  0  0  0  0  0  0  0  0
  151.0908  144.4119  156.9585 H   0  0  0  0  0  0  0  0  0  0  0  0
  151.8524  146.3778  158.6860 H   0  0  0  0  0  0  0  0  0  0  0  0
  152.5470  144.9690  160.9692 H   0  0  0  0  0  0  0  0  0  0  0  0
  149.5196  143.0341  156.4613 H   0  0  0  0  0  0  0  0  0  0  0  0
  1  2  1  0  0  0  0
  1 16  1  0  0  0  0
  1 17  1  0  0  0  0
  1 18  1  0  0  0  0
  2  3  1  0  0  0  0
  2  9  1  0  0  0  0
  2 19  1  0  0  0  0
  3  4  1  0  0  0  0
  3 20  1  0  0  0  0
  3 37  1  0  0  0  0
  4  5  1  0  0  0  0
  4 21  1  0  0  0  0
  4 22  1  0  0  0  0
  5  6  1  0  0  0  0
  5  7  1  0  0  0  0
  5  8  1  0  0  0  0
  6 23  1  0  0  0  0
  6 24  1  0  0  0  0
  6 25  1  0  0  0  0
  7 26  1  0  0  0  0
  7 27  1  0  0  0  0
  7 28  1  0  0  0  0
  8 29  1  0  0  0  0
  9 10  1  0  0  0  0
  9 11  1  0  0  0  0
  9 30  1  0  0  0  0
 10 31  1  0  0  0  0
 10 32  1  0  0  0  0
 10 33  1  0  0  0  0
 11 15  1  0  0  0  0
 11 12  1  0  0  0  0
 12 13  2  0  0  0  0
 12 34  1  0  0  0  0
 13 14  1  0  0  0  0
 13 35  1  0  0  0  0
 14 15  2  0  0  0  0
 14 36  1  0  0  0  0
M  CHG  1   3   1
M  END
> <s_m_source_file>
AV-unprocessed.smi

> <i_m_source_file_index>
3117

> <i_lp_mmshare_version>
43012

> <i_f3d_flags>
0

> <s_epik_input>
W0NIM11DKFtDSDNdKShbT0hdKVtDSDJdW05IXVtDQEBIXShbQ0gzXSlbQ0BIXShbQ0gzXSluMVtjSF1bY0hdW2NIXW4x

> <s_epik_cmdline>
J2VwaWtfcHl0aG9uJywgJy1waCcsICc3LjAnLCAnLXRuJywgJzgnLCAnLW1hJywgJzIwMCcsICctbWV0YWxfYmluZGluZycsICctaW1hZScsICc8aW5maWxlLm1hZT4nLCAnLW9tYWUnLCAnPG91dGZpbGUubWFlPic=

> <r_lp_tautomer_probability>
1

> <r_epik_Ionization_Penalty>
0.0164263

> <r_epik_Ionization_Penalty_Charging>
0.0164138

> <r_epik_Ionization_Penalty_Neutral>
1.24697e-05

> <r_epik_State_Penalty>
0.0129543

> <r_epik_Charging_Adjusted_Penalty>
0.0293681

> <i_epik_Tot_Q>
1

> <i_epik_Tot_abs_Q>
1

> <r_epik_Metal_State_Penalty>
0.0129806

> <b_epik_Metal_Only>
0

> <s_lp_Force_Field>
OPLS_2005

> <r_lp_Energy>
12.2787

> <b_lp_Chiralities_Consistent>
1

> <s_lp_Variant>
AV-unprocessed.smi:3117-1

> <Gold.Version>
5.8.1

> <Gold.Id.Protein>
6NUR|6NUR_protein|mol2

> <Gold.PLP.Fitness>
44.1112

> <Gold.PLP.PLP>
-33.1451

> <Gold.PLP.part.hbond>
-2.4719

> <Gold.PLP.part.metal>
0.0000

> <Gold.PLP.part.buried>
-3.3464

> <Gold.PLP.part.nonpolar>
-26.1174

> <Gold.PLP.part.repulsive>
0.0298

> <Gold.PLP.ligand.clash>
0.0000

> <Gold.PLP.ligand.torsion>
1.4251

> <Gold.PLP.Chemscore.Hbond>
3.5680

> <Gold.PLP.Chemscore.CHOScore>
1.0000

> <Gold.PLP.Chemscore.Metal>
0.0000

> <Gold.Chemscore.Hbonds>
donor molecule, donor type, donor heavy atom, donor atom, acceptor molecule, acceptor atom, score
      L1  H     3    37       P1  8028  1.92
      L1  H     8    29       P1  7957  0.91
      P1  H  7989  7998       L1     8  0.70
      L1  C    12    34       P1  8028  0.97

> <Gold.PLP.Chemscore.Internal.Correction>
0.1123

> <Gold.Rescore>
     Score         DG    S(hbond)    S(metal)    S(lipo)     H(rot)  DE(clash)    DE(int)     intcor
     15.96     -17.27       2.39        0.00      82.20       2.27       0.08       1.23       ----

> <Gold.Chemscore.Fitness>
15.9599

> <Gold.Chemscore.DG>
-17.2736

> <Gold.Chemscore.ZeroCoef>
-5.4800

> <Gold.Chemscore.Hbond>
2.3934

> <Gold.Chemscore.Metal>
0.0000

> <Gold.Chemscore.Lipo>
82.1992

> <Gold.Chemscore.Internal_Hbond>
0.0000

> <Gold.Chemscore.DEClash>
0.0792

> <Gold.Chemscore.DEInternal>
1.2344

> <Gold.Chemscore.Rot>
2.2725

> <Gold.Chemscore.Internal.Correction>
   9.000000E+99

> <Gold.Chemscore.Hbonds>
donor molecule, donor type, donor heavy atom, donor atom, acceptor molecule, acceptor atom, score
      L1  H     3    37       P1  8028  0.91
      L1  H     8    29       P1  7957  0.85
      P1  H  7989  7998       L1     8  0.30

> <Gold.Chemscore.Hbond.Weighted>
-7.9939

> <Gold.Chemscore.Metal.Weighted>
-0.0000

> <Gold.Chemscore.Lipo.Weighted>
-9.6173

> <Gold.Chemscore.Internal_Hbond.Weighted>
0.0000

> <Gold.Chemscore.DEClash.Weighted>
0.0792

> <Gold.Chemscore.DEInternal.Weighted>
1.2344

> <Gold.Chemscore.Rot.Weighted>
5.8176

> <Gold.Chemscore.Internal.Correction.Weighted>
   9.000000E+99

> <Gold.Protein.RotatedTorsions>
[ 6907 6896 6895 6894 ] final   -6.95 input  -60.11 | X-H torsion
[ 7974 7965 7964 7962 ] final   26.14 input  175.53 | X-H torsion
[ 8008 7997 7996 7995 ] final   14.45 input   59.86 | X-H torsion
[ 10167 10162 10161 10158 ] final  177.45 input  -65.29 | X-H torsion
[ 10718 10713 10712 10709 ] final   97.44 input   66.30 | X-H torsion
[ 10763 10752 10751 10750 ] final -102.65 input  -60.55 | X-H torsion
[ 11005 11000 10999 10996 ] final   20.71 input  -57.11 | X-H torsion

> <Gold.Protein.ActiveResidues>
 VAL166  LYS551  ARG553  GLY616  TRP617  ASP618  TYR619  PRO620  LYS621  CYS622 
 ASP623  PHE694  ASN695  SER759  ASP760  ASP761  ALA762  ILE779  LEU786  VAL792 
 PHE793  MET794  SER795  GLU796  ALA797  LYS798  CYS799  TRP800  GLU811  SER814 

> <Gold.Protein.RotatedAtoms>
  151.4574  135.1035  159.9714 H   0  0  0  0  0  0  0  0  0  0  0  0  # atno 6907 bound_to 6896
  152.4866  133.8384  159.7150 H   0  0  0  0  0  0  0  0  0  0  0  0  # atno 6908 bound_to 6896
  150.8980  133.7095  159.2913 H   0  0  0  0  0  0  0  0  0  0  0  0  # atno 6909 bound_to 6896
  146.1853  139.7369  142.8871 H   0  0  0  0  0  0  0  0  0  0  0  0  # atno 7974 bound_to 7965
  154.8487  140.2926  155.5612 H   0  0  0  0  0  0  0  0  0  0  0  0  # atno 8008 bound_to 7997
  156.3015  140.2500  156.3373 H   0  0  0  0  0  0  0  0  0  0  0  0  # atno 8009 bound_to 7997
  154.9045  140.0390  157.1901 H   0  0  0  0  0  0  0  0  0  0  0  0  # atno 8010 bound_to 7997
  139.5254  144.2796  152.0558 H   0  0  0  0  0  0  0  0  0  0  0  0  # atno 10167 bound_to 10162
  157.6912  131.0609  150.4644 H   0  0  0  0  0  0  0  0  0  0  0  0  # atno 10718 bound_to 10713
  154.7750  135.4852  153.9725 H   0  0  0  0  0  0  0  0  0  0  0  0  # atno 10763 bound_to 10752
  153.1417  135.6774  153.9025 H   0  0  0  0  0  0  0  0  0  0  0  0  # atno 10764 bound_to 10752
  153.8697  135.3145  155.3420 H   0  0  0  0  0  0  0  0  0  0  0  0  # atno 10765 bound_to 10752
  140.3996  134.1733  155.7663 H   0  0  0  0  0  0  0  0  0  0  0  0  # atno 11005 bound_to 11000
  145.3958  141.0378  143.3098 LP  0  0  0  0  0  0  0  0  0  0  0  0  # atno 17320 bound_to 7965
  144.8386  139.5510  143.6911 LP  0  0  0  0  0  0  0  0  0  0  0  0  # atno 17321 bound_to 7965
  140.2252  144.4425  150.6324 LP  0  0  0  0  0  0  0  0  0  0  0  0  # atno 17342 bound_to 10162
  140.6392  143.2200  151.6328 LP  0  0  0  0  0  0  0  0  0  0  0  0  # atno 17343 bound_to 10162
  156.4986  130.4112  149.6366 LP  0  0  0  0  0  0  0  0  0  0  0  0  # atno 17370 bound_to 10713
  156.3350  130.7351  151.2287 LP  0  0  0  0  0  0  0  0  0  0  0  0  # atno 17371 bound_to 10713
  141.1861  133.8308  157.1079 LP  0  0  0  0  0  0  0  0  0  0  0  0  # atno 17394 bound_to 11000
  140.0346  134.9884  157.0846 LP  0  0  0  0  0  0  0  0  0  0  0  0  # atno 17395 bound_to 11000

$$$$
