AV-unprocessed.smi:281|AV-procd|sdf|2113|dock8
  -GOLD-   2262021413D 1   1.00000     0.00000
 Structure written by MMmdl.
 55 59  0  0  0  0  0  0  0  0  1 V2000
  153.1392  139.1682  159.1107 C   0  0  0  0  0  0  0  0  0  0  0  0
  151.7283  138.9793  158.5454 C   0  0  2  0  0  0  0  0  0  0  0  0
  151.0067  137.7791  159.1777 C   0  0  0  0  0  0  0  0  0  0  0  0
  149.7115  137.6001  158.5344 N   0  0  0  0  0  0  0  0  0  0  0  0
  148.7822  136.8225  159.1439 C   0  0  0  0  0  0  0  0  0  0  0  0
  148.4266  137.0701  160.4329 N   0  0  0  0  0  0  0  0  0  0  0  0
  147.5171  136.3027  161.0408 C   0  0  0  0  0  0  0  0  0  0  0  0
  146.8459  135.2577  160.5528 N   0  0  0  0  0  0  0  0  0  0  0  0
  147.1894  135.0106  159.2563 C   0  0  0  0  0  0  0  0  0  0  0  0
  148.1411  135.7359  158.4848 C   0  0  0  0  0  0  0  0  0  0  0  0
  148.2199  135.1987  157.2055 N   0  0  0  0  0  0  0  0  0  0  0  0
  147.3740  134.2057  157.2236 C   0  0  0  0  0  0  0  0  0  0  0  0
  146.7023  134.0270  158.4124 N   0  0  0  0  0  0  0  0  0  0  0  0
  145.7081  133.0052  158.7060 C   0  0  0  0  0  0  0  0  0  0  0  0
  144.3597  133.2209  157.9771 C   0  0  1  0  0  0  0  0  0  0  0  0
  144.5873  133.2042  156.5794 O   0  0  0  0  0  0  0  0  0  0  0  0
  143.3293  132.1446  158.3258 C   0  0  0  0  0  0  0  0  0  0  0  0
  142.3188  132.8840  159.1943 C   0  0  0  0  0  0  0  0  0  0  0  0
  142.3015  134.1764  158.6160 O   0  0  0  0  0  0  0  0  0  0  0  0
  143.6515  134.5361  158.3609 C   0  0  0  0  0  0  0  0  0  0  0  0
  149.8151  137.4360  157.0899 C   0  0  0  0  0  0  0  0  0  0  0  0
  150.5897  138.6153  156.4524 C   0  0  1  0  0  0  0  0  0  0  0  0
  150.8747  138.3323  154.9862 C   0  0  0  0  0  0  0  0  0  0  0  0
  149.5761  138.7455  154.3010 C   0  0  0  0  0  0  0  0  0  0  0  0
  149.0144  139.7688  155.1167 O   0  0  0  0  0  0  0  0  0  0  0  0
  149.7409  139.9024  156.3373 C   0  0  2  0  0  0  0  0  0  0  0  0
  150.5487  141.2083  156.2076 C   0  0  0  0  0  0  0  0  0  0  0  0
  151.8374  138.7895  157.1331 O   0  0  0  0  0  0  0  0  0  0  0  0
  153.1114  139.3331  160.1880 H   0  0  0  0  0  0  0  0  0  0  0  0
  153.6283  140.0295  158.6552 H   0  0  0  0  0  0  0  0  0  0  0  0
  153.7611  138.2929  158.9211 H   0  0  0  0  0  0  0  0  0  0  0  0
  151.1525  139.8813  158.7525 H   0  0  0  0  0  0  0  0  0  0  0  0
  151.6010  136.8717  159.0602 H   0  0  0  0  0  0  0  0  0  0  0  0
  150.8769  137.9503  160.2474 H   0  0  0  0  0  0  0  0  0  0  0  0
  147.2950  136.5634  162.0651 H   0  0  0  0  0  0  0  0  0  0  0  0
  147.2107  133.5757  156.3614 H   0  0  0  0  0  0  0  0  0  0  0  0
  146.1298  132.0344  158.4418 H   0  0  0  0  0  0  0  0  0  0  0  0
  145.5477  132.9825  159.7848 H   0  0  0  0  0  0  0  0  0  0  0  0
  143.8638  132.7591  156.1651 H   0  0  0  0  0  0  0  0  0  0  0  0
  142.8253  131.7786  157.4297 H   0  0  0  0  0  0  0  0  0  0  0  0
  143.7572  131.2802  158.8344 H   0  0  0  0  0  0  0  0  0  0  0  0
  141.3320  132.4207  159.1819 H   0  0  0  0  0  0  0  0  0  0  0  0
  142.6611  132.9459  160.2289 H   0  0  0  0  0  0  0  0  0  0  0  0
  144.0594  134.9486  159.2843 H   0  0  0  0  0  0  0  0  0  0  0  0
  143.7209  135.3106  157.5960 H   0  0  0  0  0  0  0  0  0  0  0  0
  150.3428  136.5006  156.8975 H   0  0  0  0  0  0  0  0  0  0  0  0
  148.8347  137.3357  156.6262 H   0  0  0  0  0  0  0  0  0  0  0  0
  151.6912  138.9630  154.6320 H   0  0  0  0  0  0  0  0  0  0  0  0
  151.1517  137.2970  154.7853 H   0  0  0  0  0  0  0  0  0  0  0  0
  149.7398  139.0964  153.2818 H   0  0  0  0  0  0  0  0  0  0  0  0
  148.8782  137.9087  154.2611 H   0  0  0  0  0  0  0  0  0  0  0  0
  149.0457  139.9966  157.1725 H   0  0  0  0  0  0  0  0  0  0  0  0
  151.1349  141.4191  157.1006 H   0  0  0  0  0  0  0  0  0  0  0  0
  149.8813  142.0562  156.0540 H   0  0  0  0  0  0  0  0  0  0  0  0
  151.2356  141.1775  155.3620 H   0  0  0  0  0  0  0  0  0  0  0  0
  1  2  1  0  0  0  0
  1 29  1  0  0  0  0
  1 30  1  0  0  0  0
  1 31  1  0  0  0  0
  2 28  1  0  0  0  0
  2  3  1  0  0  0  0
  2 32  1  0  0  0  0
  3  4  1  0  0  0  0
  3 33  1  0  0  0  0
  3 34  1  0  0  0  0
  4  5  1  0  0  0  0
  4 21  1  0  0  0  0
  5 10  1  0  0  0  0
  5  6  2  0  0  0  0
  6  7  1  0  0  0  0
  7  8  2  0  0  0  0
  7 35  1  0  0  0  0
  8  9  1  0  0  0  0
  9 13  1  0  0  0  0
  9 10  2  0  0  0  0
 10 11  1  0  0  0  0
 11 12  2  0  0  0  0
 12 13  1  0  0  0  0
 12 36  1  0  0  0  0
 13 14  1  0  0  0  0
 14 15  1  0  0  0  0
 14 37  1  0  0  0  0
 14 38  1  0  0  0  0
 15 20  1  0  0  0  0
 15 16  1  0  0  0  0
 15 17  1  0  0  0  0
 16 39  1  0  0  0  0
 17 18  1  0  0  0  0
 17 40  1  0  0  0  0
 17 41  1  0  0  0  0
 18 19  1  0  0  0  0
 18 42  1  0  0  0  0
 18 43  1  0  0  0  0
 19 20  1  0  0  0  0
 20 44  1  0  0  0  0
 20 45  1  0  0  0  0
 21 22  1  0  0  0  0
 21 46  1  0  0  0  0
 21 47  1  0  0  0  0
 22 26  1  0  0  0  0
 22 23  1  0  0  0  0
 22 28  1  0  0  0  0
 23 24  1  0  0  0  0
 23 48  1  0  0  0  0
 23 49  1  0  0  0  0
 24 25  1  0  0  0  0
 24 50  1  0  0  0  0
 24 51  1  0  0  0  0
 25 26  1  0  0  0  0
 26 27  1  0  0  0  0
 26 52  1  0  0  0  0
 27 53  1  0  0  0  0
 27 54  1  0  0  0  0
 27 55  1  0  0  0  0
M  END
> <s_m_source_file>
AV-unprocessed.smi

> <i_m_source_file_index>
281

> <i_lp_mmshare_version>
43012

> <i_f3d_flags>
0

> <s_epik_input>
W0NIM11bQ0BASF0xT1tDSDJdW0NIMl1bQ0BAXTEyW0NIMl1OKFtDSDJdW0NASF0oTzIpW0NIM10pYyhuW2NIXW4zKWMoYzM0KW5bY0hdbjRbQ0gyXVtDQEBdNShbT0hdKVtDSDJdW0NIMl1PW0NIMl01

> <s_epik_cmdline>
J2VwaWtfcHl0aG9uJywgJy1waCcsICc3LjAnLCAnLXRuJywgJzgnLCAnLW1hJywgJzIwMCcsICctbWV0YWxfYmluZGluZycsICctaW1hZScsICc8aW5maWxlLm1hZT4nLCAnLW9tYWUnLCAnPG91dGZpbGUubWFlPic=

> <r_lp_tautomer_probability>
1

> <r_epik_Ionization_Penalty>
0.00571331

> <r_epik_Ionization_Penalty_Charging>
0

> <r_epik_Ionization_Penalty_Neutral>
0.00571331

> <r_epik_State_Penalty>
0.00399586

> <r_epik_Charging_Adjusted_Penalty>
0.00399586

> <i_epik_Tot_Q>
0

> <i_epik_Tot_abs_Q>
0

> <r_epik_Metal_State_Penalty>
-0

> <b_epik_Metal_Only>
0

> <s_lp_Force_Field>
OPLS_2005

> <r_lp_Energy>
53.7875

> <b_lp_Chiralities_Consistent>
1

> <s_lp_Variant>
AV-unprocessed.smi:281-13

> <Gold.Version>
5.8.1

> <Gold.Id.Protein>
6NUR|6NUR_protein|mol2

> <Gold.PLP.Fitness>
35.4307

> <Gold.PLP.PLP>
-27.2961

> <Gold.PLP.part.hbond>
-3.7655

> <Gold.PLP.part.metal>
0.0000

> <Gold.PLP.part.buried>
-6.1724

> <Gold.PLP.part.nonpolar>
-18.7259

> <Gold.PLP.part.repulsive>
0.0968

> <Gold.PLP.ligand.clash>
0.0000

> <Gold.PLP.ligand.torsion>
0.2793

> <Gold.PLP.Chemscore.Hbond>
2.7855

> <Gold.PLP.Chemscore.CHOScore>
0.0000

> <Gold.PLP.Chemscore.Metal>
0.0000

> <Gold.Chemscore.Hbonds>
donor molecule, donor type, donor heavy atom, donor atom, acceptor molecule, acceptor atom, score
      L1  H    16    39       P1 10957  0.96
      P1  H  6931  6943       L1     6  0.77
      P1  H  6934  6947       L1     6  0.06
      P1  H 11000 11005       L1    19  1.00

> <Gold.PLP.Chemscore.Internal.Correction>
0.3369

> <Gold.Rescore>
     Score         DG    S(hbond)    S(metal)    S(lipo)     H(rot)  DE(clash)    DE(int)     intcor
     12.75     -15.18       2.64        0.00      53.45       2.09       0.08       2.35       ----

> <Gold.Chemscore.Fitness>
12.7482

> <Gold.Chemscore.DG>
-15.1789

> <Gold.Chemscore.ZeroCoef>
-5.4800

> <Gold.Chemscore.Hbond>
2.6354

> <Gold.Chemscore.Metal>
0.0000

> <Gold.Chemscore.Lipo>
53.4523

> <Gold.Chemscore.Internal_Hbond>
0.0000

> <Gold.Chemscore.DEClash>
0.0811

> <Gold.Chemscore.DEInternal>
2.3497

> <Gold.Chemscore.Rot>
2.0927

> <Gold.Chemscore.Internal.Correction>
   9.000000E+99

> <Gold.Chemscore.Hbonds>
donor molecule, donor type, donor heavy atom, donor atom, acceptor molecule, acceptor atom, score
      L1  H    16    39       P1 10957  0.91
      P1  H  6931  6943       L1     6  0.29
      P1  H 11000 11005       L1    19  0.45

> <Gold.Chemscore.Hbond.Weighted>
-8.8024

> <Gold.Chemscore.Metal.Weighted>
-0.0000

> <Gold.Chemscore.Lipo.Weighted>
-6.2539

> <Gold.Chemscore.Internal_Hbond.Weighted>
0.0000

> <Gold.Chemscore.DEClash.Weighted>
0.0811

> <Gold.Chemscore.DEInternal.Weighted>
2.3497

> <Gold.Chemscore.Rot.Weighted>
5.3573

> <Gold.Chemscore.Internal.Correction.Weighted>
   9.000000E+99

> <Gold.Protein.RotatedTorsions>
[ 6907 6896 6895 6894 ] final   80.66 input  -60.11 | X-H torsion
[ 7974 7965 7964 7962 ] final  -48.79 input  175.53 | X-H torsion
[ 8008 7997 7996 7995 ] final  -44.22 input   59.86 | X-H torsion
[ 10167 10162 10161 10158 ] final  121.21 input  -65.29 | X-H torsion
[ 10718 10713 10712 10709 ] final -161.33 input   66.30 | X-H torsion
[ 10763 10752 10751 10750 ] final   57.57 input  -60.55 | X-H torsion
[ 11005 11000 10999 10996 ] final -125.10 input  -57.11 | X-H torsion

> <Gold.Protein.ActiveResidues>
 VAL166  LYS551  ARG553  GLY616  TRP617  ASP618  TYR619  PRO620  LYS621  CYS622 
 ASP623  PHE694  ASN695  SER759  ASP760  ASP761  ALA762  ILE779  LEU786  VAL792 
 PHE793  MET794  SER795  GLU796  ALA797  LYS798  CYS799  TRP800  GLU811  SER814 

> <Gold.Protein.RotatedAtoms>
  152.5242  134.3324  159.9187 H   0  0  0  0  0  0  0  0  0  0  0  0  # atno 6907 bound_to 6896
  151.3273  133.4009  159.2667 H   0  0  0  0  0  0  0  0  0  0  0  0  # atno 6908 bound_to 6896
  150.9909  134.9262  159.7957 H   0  0  0  0  0  0  0  0  0  0  0  0  # atno 6909 bound_to 6896
  145.9474  140.7605  142.9521 H   0  0  0  0  0  0  0  0  0  0  0  0  # atno 7974 bound_to 7965
  154.3997  140.1427  156.3648 H   0  0  0  0  0  0  0  0  0  0  0  0  # atno 8008 bound_to 7997
  155.8148  140.3471  155.5458 H   0  0  0  0  0  0  0  0  0  0  0  0  # atno 8009 bound_to 7997
  155.8349  140.0918  157.1760 H   0  0  0  0  0  0  0  0  0  0  0  0  # atno 8010 bound_to 7997
  139.5934  144.7033  151.3236 H   0  0  0  0  0  0  0  0  0  0  0  0  # atno 10167 bound_to 10162
  156.5947  130.8785  151.2899 H   0  0  0  0  0  0  0  0  0  0  0  0  # atno 10718 bound_to 10713
  152.9853  135.5637  154.5413 H   0  0  0  0  0  0  0  0  0  0  0  0  # atno 10763 bound_to 10752
  154.4867  135.2791  155.1531 H   0  0  0  0  0  0  0  0  0  0  0  0  # atno 10764 bound_to 10752
  154.3017  135.6306  153.5481 H   0  0  0  0  0  0  0  0  0  0  0  0  # atno 10765 bound_to 10752
  140.9789  134.0701  157.3787 H   0  0  0  0  0  0  0  0  0  0  0  0  # atno 11005 bound_to 11000
  144.6789  140.2379  143.7347 LP  0  0  0  0  0  0  0  0  0  0  0  0  # atno 17320 bound_to 7965
  145.8217  139.2047  143.1934 LP  0  0  0  0  0  0  0  0  0  0  0  0  # atno 17321 bound_to 7965
  140.7192  143.7184  150.7715 LP  0  0  0  0  0  0  0  0  0  0  0  0  # atno 17342 bound_to 10162
  140.0744  143.5029  152.2563 LP  0  0  0  0  0  0  0  0  0  0  0  0  # atno 17343 bound_to 10162
  157.7295  130.9671  150.1789 LP  0  0  0  0  0  0  0  0  0  0  0  0  # atno 17370 bound_to 10713
  156.2519  130.3701  149.8223 LP  0  0  0  0  0  0  0  0  0  0  0  0  # atno 17371 bound_to 10713
  139.8942  135.0134  156.6937 LP  0  0  0  0  0  0  0  0  0  0  0  0  # atno 17394 bound_to 11000
  140.7217  133.9135  155.8151 LP  0  0  0  0  0  0  0  0  0  0  0  0  # atno 17395 bound_to 11000

$$$$
