AV-unprocessed.smi:3271|AV-procd|sdf|12516|dock8
  -GOLD-   2272018423D 1   1.00000     0.00000
 Structure written by MMmdl.
 41 41  0  0  0  0  0  0  0  0  1 V2000
  152.3877  144.0891  158.1106 C   0  0  0  0  0  0  0  0  0  0  0  0
  153.2939  142.9882  158.6842 C   0  0  0  0  0  0  0  0  0  0  0  0
  152.5390  141.7351  159.1834 C   0  0  0  0  0  0  0  0  0  0  0  0
  153.2799  141.0956  160.3801 C   0  0  0  0  0  0  0  0  0  0  0  0
  153.3800  141.9934  161.6232 C   0  0  0  0  0  0  0  0  0  0  0  0
  152.3242  140.7229  158.0450 C   0  0  0  0  0  0  0  0  0  0  0  0
  152.7921  139.5871  158.1249 O   0  0  0  0  0  0  0  0  0  0  0  0
  151.6088  141.1517  156.9947 N   0  0  0  0  0  0  0  0  0  0  0  0
  151.2742  140.3564  155.8157 C   0  0  0  0  0  0  0  0  0  0  0  0
  149.8368  139.7685  155.8343 C   0  0  1  0  0  0  0  0  0  0  0  0
  149.7569  138.5379  154.9145 C   0  0  0  0  0  0  0  0  0  0  0  0
  149.6216  139.2572  157.1357 O   0  0  0  0  0  0  0  0  0  0  0  0
  148.7723  140.7725  155.4381 C   0  0  0  0  0  0  0  0  0  0  0  0
  147.8461  141.4566  156.2795 C   0  0  0  0  0  0  0  0  0  0  0  0
  147.0521  142.2805  155.6158 N   0  0  0  0  0  0  0  0  0  0  0  0
  147.4284  142.1430  154.3290 N   0  0  0  0  0  0  0  0  0  0  0  0
  146.7604  142.9145  153.3031 C   0  0  0  0  0  0  0  0  0  0  0  0
  148.4554  141.2358  154.1904 C   0  0  0  0  0  0  0  0  0  0  0  0
  152.9735  144.9689  157.8434 H   0  0  0  0  0  0  0  0  0  0  0  0
  151.6375  144.3996  158.8382 H   0  0  0  0  0  0  0  0  0  0  0  0
  151.8680  143.7582  157.2112 H   0  0  0  0  0  0  0  0  0  0  0  0
  154.0356  142.7046  157.9359 H   0  0  0  0  0  0  0  0  0  0  0  0
  153.8593  143.4151  159.5133 H   0  0  0  0  0  0  0  0  0  0  0  0
  151.5607  142.0602  159.5426 H   0  0  0  0  0  0  0  0  0  0  0  0
  152.8056  140.1525  160.6548 H   0  0  0  0  0  0  0  0  0  0  0  0
  154.2929  140.8379  160.0689 H   0  0  0  0  0  0  0  0  0  0  0  0
  154.0038  141.5277  162.3863 H   0  0  0  0  0  0  0  0  0  0  0  0
  152.4011  142.1674  162.0683 H   0  0  0  0  0  0  0  0  0  0  0  0
  153.8182  142.9619  161.3811 H   0  0  0  0  0  0  0  0  0  0  0  0
  151.2617  142.0994  157.0163 H   0  0  0  0  0  0  0  0  0  0  0  0
  151.3537  141.0544  154.9816 H   0  0  0  0  0  0  0  0  0  0  0  0
  152.0258  139.5877  155.6249 H   0  0  0  0  0  0  0  0  0  0  0  0
  149.9238  138.8115  153.8720 H   0  0  0  0  0  0  0  0  0  0  0  0
  148.7781  138.0598  154.9740 H   0  0  0  0  0  0  0  0  0  0  0  0
  150.5059  137.7907  155.1802 H   0  0  0  0  0  0  0  0  0  0  0  0
  149.7067  139.9681  157.7536 H   0  0  0  0  0  0  0  0  0  0  0  0
  147.7354  141.3871  157.3517 H   0  0  0  0  0  0  0  0  0  0  0  0
  146.9847  142.5006  152.3196 H   0  0  0  0  0  0  0  0  0  0  0  0
  147.1036  143.9487  153.3409 H   0  0  0  0  0  0  0  0  0  0  0  0
  145.6814  142.8884  153.4592 H   0  0  0  0  0  0  0  0  0  0  0  0
  148.8814  141.0023  153.2259 H   0  0  0  0  0  0  0  0  0  0  0  0
  1  2  1  0  0  0  0
  1 19  1  0  0  0  0
  1 20  1  0  0  0  0
  1 21  1  0  0  0  0
  2  3  1  0  0  0  0
  2 22  1  0  0  0  0
  2 23  1  0  0  0  0
  3  4  1  0  0  0  0
  3  6  1  0  0  0  0
  3 24  1  0  0  0  0
  4  5  1  0  0  0  0
  4 25  1  0  0  0  0
  4 26  1  0  0  0  0
  5 27  1  0  0  0  0
  5 28  1  0  0  0  0
  5 29  1  0  0  0  0
  6  7  2  0  0  0  0
  6  8  1  0  0  0  0
  8  9  1  0  0  0  0
  8 30  1  0  0  0  0
  9 10  1  0  0  0  0
  9 31  1  0  0  0  0
  9 32  1  0  0  0  0
 10 11  1  0  0  0  0
 10 12  1  0  0  0  0
 10 13  1  0  0  0  0
 11 33  1  0  0  0  0
 11 34  1  0  0  0  0
 11 35  1  0  0  0  0
 12 36  1  0  0  0  0
 13 18  2  0  0  0  0
 13 14  1  0  0  0  0
 14 15  2  0  0  0  0
 14 37  1  0  0  0  0
 15 16  1  0  0  0  0
 16 17  1  0  0  0  0
 16 18  1  0  0  0  0
 17 38  1  0  0  0  0
 17 39  1  0  0  0  0
 17 40  1  0  0  0  0
 18 41  1  0  0  0  0
M  END
> <s_m_source_file>
AV-unprocessed.smi

> <i_m_source_file_index>
3271

> <i_lp_mmshare_version>
43012

> <i_f3d_flags>
0

> <s_epik_input>
W0NIM11bQ0gyXVtDSF0oW0NIMl1bQ0gzXSlDKD1PKVtOSF1bQ0gyXVtDQEBdKFtDSDNdKShbT0hdKWMxW2NIXW5uKFtDSDNdKVtjSF0x

> <s_epik_cmdline>
J2VwaWtfcHl0aG9uJywgJy1waCcsICc3LjAnLCAnLXRuJywgJzgnLCAnLW1hJywgJzIwMCcsICctbWV0YWxfYmluZGluZycsICctaW1hZScsICc8aW5maWxlLm1hZT4nLCAnLW9tYWUnLCAnPG91dGZpbGUubWFlPic=

> <r_lp_tautomer_probability>
1

> <r_epik_Ionization_Penalty>
6.03488e-05

> <r_epik_Ionization_Penalty_Charging>
0

> <r_epik_Ionization_Penalty_Neutral>
6.03488e-05

> <r_epik_State_Penalty>
-0

> <r_epik_Charging_Adjusted_Penalty>
0

> <i_epik_Tot_Q>
0

> <i_epik_Tot_abs_Q>
0

> <r_epik_Metal_State_Penalty>
-0

> <b_epik_Metal_Only>
0

> <s_lp_Force_Field>
OPLS_2005

> <r_lp_Energy>
0.472609

> <b_lp_Chiralities_Consistent>
1

> <s_lp_Variant>
AV-unprocessed.smi:3271-1

> <Gold.Version>
5.8.1

> <Gold.Id.Protein>
6NUR|6NUR_protein|mol2

> <Gold.PLP.Fitness>
41.5919

> <Gold.PLP.PLP>
-38.9412

> <Gold.PLP.part.hbond>
-1.0000

> <Gold.PLP.part.metal>
0.0000

> <Gold.PLP.part.buried>
-3.9161

> <Gold.PLP.part.nonpolar>
-33.4394

> <Gold.PLP.part.repulsive>
0.2238

> <Gold.PLP.ligand.clash>
0.0000

> <Gold.PLP.ligand.torsion>
1.3681

> <Gold.PLP.Chemscore.Hbond>
0.9672

> <Gold.PLP.Chemscore.CHOScore>
0.7738

> <Gold.PLP.Chemscore.Metal>
0.0000

> <Gold.Chemscore.Hbonds>
donor molecule, donor type, donor heavy atom, donor atom, acceptor molecule, acceptor atom, score
      P1  H  7997  8010       L1     7  0.45
      L1  C    18    41       P1  7957  1.00

> <Gold.PLP.Chemscore.Internal.Correction>
0.1639

> <Gold.Rescore>
     Score         DG    S(hbond)    S(metal)    S(lipo)     H(rot)  DE(clash)    DE(int)     intcor
     12.35     -13.95       0.90        0.00      97.67       2.33       0.05       1.56       ----

> <Gold.Chemscore.Fitness>
12.3482

> <Gold.Chemscore.DG>
-13.9506

> <Gold.Chemscore.ZeroCoef>
-5.4800

> <Gold.Chemscore.Hbond>
0.9036

> <Gold.Chemscore.Metal>
0.0000

> <Gold.Chemscore.Lipo>
97.6732

> <Gold.Chemscore.Internal_Hbond>
0.0000

> <Gold.Chemscore.DEClash>
0.0453

> <Gold.Chemscore.DEInternal>
1.5571

> <Gold.Chemscore.Rot>
2.3341

> <Gold.Chemscore.Internal.Correction>
   9.000000E+99

> <Gold.Chemscore.Hbonds>
donor molecule, donor type, donor heavy atom, donor atom, acceptor molecule, acceptor atom, score
      P1  H  7997  8010       L1     7  0.04

> <Gold.Chemscore.Hbond.Weighted>
-3.0181

> <Gold.Chemscore.Metal.Weighted>
-0.0000

> <Gold.Chemscore.Lipo.Weighted>
-11.4278

> <Gold.Chemscore.Internal_Hbond.Weighted>
0.0000

> <Gold.Chemscore.DEClash.Weighted>
0.0453

> <Gold.Chemscore.DEInternal.Weighted>
1.5571

> <Gold.Chemscore.Rot.Weighted>
5.9753

> <Gold.Chemscore.Internal.Correction.Weighted>
   9.000000E+99

> <Gold.Protein.RotatedTorsions>
[ 6907 6896 6895 6894 ] final   39.31 input  -60.11 | X-H torsion
[ 7974 7965 7964 7962 ] final  -90.50 input  175.53 | X-H torsion
[ 8008 7997 7996 7995 ] final   44.81 input   59.86 | X-H torsion
[ 10167 10162 10161 10158 ] final  -76.66 input  -65.29 | X-H torsion
[ 10718 10713 10712 10709 ] final   30.25 input   66.30 | X-H torsion
[ 10763 10752 10751 10750 ] final -101.14 input  -60.55 | X-H torsion
[ 11005 11000 10999 10996 ] final -126.83 input  -57.11 | X-H torsion

> <Gold.Protein.ActiveResidues>
 VAL166  LYS551  ARG553  GLY616  TRP617  ASP618  TYR619  PRO620  LYS621  CYS622 
 ASP623  PHE694  ASN695  SER759  ASP760  ASP761  ALA762  ILE779  LEU786  VAL792 
 PHE793  MET794  SER795  GLU796  ALA797  LYS798  CYS799  TRP800  GLU811  SER814 

> <Gold.Protein.RotatedAtoms>
  152.1678  134.8859  160.0536 H   0  0  0  0  0  0  0  0  0  0  0  0  # atno 6907 bound_to 6896
  151.9830  133.3759  159.4123 H   0  0  0  0  0  0  0  0  0  0  0  0  # atno 6908 bound_to 6896
  150.6897  134.3941  159.5133 H   0  0  0  0  0  0  0  0  0  0  0  0  # atno 6909 bound_to 6896
  145.4257  140.9553  143.2156 H   0  0  0  0  0  0  0  0  0  0  0  0  # atno 7974 bound_to 7965
  155.3255  140.3399  155.4240 H   0  0  0  0  0  0  0  0  0  0  0  0  # atno 8008 bound_to 7997
  156.1887  140.1690  156.8171 H   0  0  0  0  0  0  0  0  0  0  0  0  # atno 8009 bound_to 7997
  154.5417  140.0723  156.8504 H   0  0  0  0  0  0  0  0  0  0  0  0  # atno 8010 bound_to 7997
  140.4838  143.2396  151.8016 H   0  0  0  0  0  0  0  0  0  0  0  0  # atno 10167 bound_to 10162
  157.2571  130.7143  149.6435 H   0  0  0  0  0  0  0  0  0  0  0  0  # atno 10718 bound_to 10713
  154.7635  135.4909  153.9509 H   0  0  0  0  0  0  0  0  0  0  0  0  # atno 10763 bound_to 10752
  153.1279  135.6746  153.9234 H   0  0  0  0  0  0  0  0  0  0  0  0  # atno 10764 bound_to 10752
  153.8946  135.3117  155.3426 H   0  0  0  0  0  0  0  0  0  0  0  0  # atno 10765 bound_to 10752
  140.9649  134.0885  157.3930 H   0  0  0  0  0  0  0  0  0  0  0  0  # atno 11005 bound_to 11000
  144.8216  139.5782  143.6984 LP  0  0  0  0  0  0  0  0  0  0  0  0  # atno 17320 bound_to 7965
  146.2633  139.6462  142.9346 LP  0  0  0  0  0  0  0  0  0  0  0  0  # atno 17321 bound_to 7965
  139.4838  144.4738  151.9392 LP  0  0  0  0  0  0  0  0  0  0  0  0  # atno 17342 bound_to 10162
  140.3824  144.2719  150.5907 LP  0  0  0  0  0  0  0  0  0  0  0  0  # atno 17343 bound_to 10162
  155.9665  130.4409  150.5319 LP  0  0  0  0  0  0  0  0  0  0  0  0  # atno 17370 bound_to 10713
  157.3215  131.0683  151.1928 LP  0  0  0  0  0  0  0  0  0  0  0  0  # atno 17371 bound_to 10713
  139.8891  135.0102  156.6659 LP  0  0  0  0  0  0  0  0  0  0  0  0  # atno 17394 bound_to 11000
  140.7414  133.8975  155.8280 LP  0  0  0  0  0  0  0  0  0  0  0  0  # atno 17395 bound_to 11000

$$$$
