AV-unprocessed.smi:1703|AV-procd|sdf|6859|dock3
  -GOLD-   22720 8 43D 1   1.00000     0.00000
 Structure written by MMmdl.
 49 51  0  0  0  0  0  0  0  0  2 V2000
  150.0314  131.9139  153.3019 C   0  0  0  0  0  0  0  0  0  0  0  0
  149.4958  133.3316  153.5305 C   0  0  2  0  0  0  0  0  0  0  0  0
  150.5797  134.2757  154.0819 C   0  0  0  0  0  0  0  0  0  0  0  0
  150.0030  135.6077  154.3730 N   0  3  2  0  0  0  0  0  0  0  0  0
  151.0259  136.5956  154.7987 C   0  0  0  0  0  0  0  0  0  0  0  0
  150.5305  138.0503  154.6475 C   0  0  2  0  0  0  0  0  0  0  0  0
  150.0001  138.2200  153.3486 O   0  0  0  0  0  0  0  0  0  0  0  0
  151.6350  139.1065  154.8499 C   0  0  0  0  0  0  0  0  0  0  0  0
  151.9063  139.3694  156.2571 N   0  0  0  0  0  0  0  0  0  0  0  0
  152.5879  138.6042  157.1481 C   0  0  0  0  0  0  0  0  0  0  0  0
  153.2003  137.2884  156.7770 C   0  0  0  0  0  0  0  0  0  0  0  0
  152.5645  136.1955  157.4041 O   0  0  0  0  0  0  0  0  0  0  0  0
  152.6773  139.0950  158.3845 N   0  0  0  0  0  0  0  0  0  0  0  0
  152.0022  140.2955  158.2858 C   0  0  0  0  0  0  0  0  0  0  0  0
  151.7480  141.2891  159.2581 C   0  0  0  0  0  0  0  0  0  0  0  0
  151.0240  142.4507  158.9189 C   0  0  0  0  0  0  0  0  0  0  0  0
  150.5451  142.6356  157.6057 C   0  0  0  0  0  0  0  0  0  0  0  0
  150.7875  141.6579  156.6217 C   0  0  0  0  0  0  0  0  0  0  0  0
  151.5092  140.4993  156.9658 C   0  0  0  0  0  0  0  0  0  0  0  0
  148.8715  135.4796  155.3240 C   0  0  0  0  0  0  0  0  0  0  0  0
  147.8107  134.4974  154.7905 C   0  0  1  0  0  0  0  0  0  0  0  0
  146.9756  135.0675  153.6301 C   0  0  0  0  0  0  0  0  0  0  0  0
  148.4182  133.2483  154.4599 O   0  0  0  0  0  0  0  0  0  0  0  0
  150.8551  131.9150  152.5876 H   0  0  0  0  0  0  0  0  0  0  0  0
  149.2518  131.2616  152.9077 H   0  0  0  0  0  0  0  0  0  0  0  0
  150.3946  131.4736  154.2311 H   0  0  0  0  0  0  0  0  0  0  0  0
  149.1303  133.7116  152.5763 H   0  0  0  0  0  0  0  0  0  0  0  0
  151.0207  133.8628  154.9908 H   0  0  0  0  0  0  0  0  0  0  0  0
  151.3828  134.3735  153.3503 H   0  0  0  0  0  0  0  0  0  0  0  0
  151.3113  136.3786  155.8288 H   0  0  0  0  0  0  0  0  0  0  0  0
  151.9320  136.4752  154.2027 H   0  0  0  0  0  0  0  0  0  0  0  0
  149.7299  138.2505  155.3583 H   0  0  0  0  0  0  0  0  0  0  0  0
  149.9089  137.3701  152.9445 H   0  0  0  0  0  0  0  0  0  0  0  0
  152.5520  138.7992  154.3482 H   0  0  0  0  0  0  0  0  0  0  0  0
  151.3394  140.0486  154.3855 H   0  0  0  0  0  0  0  0  0  0  0  0
  153.1377  137.1533  155.6965 H   0  0  0  0  0  0  0  0  0  0  0  0
  154.2602  137.2893  157.0306 H   0  0  0  0  0  0  0  0  0  0  0  0
  152.9920  135.3992  157.1280 H   0  0  0  0  0  0  0  0  0  0  0  0
  152.1122  141.1580  160.2663 H   0  0  0  0  0  0  0  0  0  0  0  0
  150.8367  143.2045  159.6696 H   0  0  0  0  0  0  0  0  0  0  0  0
  149.9933  143.5295  157.3543 H   0  0  0  0  0  0  0  0  0  0  0  0
  150.4243  141.7991  155.6146 H   0  0  0  0  0  0  0  0  0  0  0  0
  149.2509  135.1197  156.2817 H   0  0  0  0  0  0  0  0  0  0  0  0
  148.4108  136.4480  155.5164 H   0  0  0  0  0  0  0  0  0  0  0  0
  147.1154  134.2878  155.6040 H   0  0  0  0  0  0  0  0  0  0  0  0
  146.4253  135.9526  153.9501 H   0  0  0  0  0  0  0  0  0  0  0  0
  146.2468  134.3364  153.2800 H   0  0  0  0  0  0  0  0  0  0  0  0
  147.5909  135.3607  152.7802 H   0  0  0  0  0  0  0  0  0  0  0  0
  149.6237  135.9497  153.5011 H   0  0  0  0  0  0  0  0  0  0  0  0
  1  2  1  0  0  0  0
  1 24  1  0  0  0  0
  1 25  1  0  0  0  0
  1 26  1  0  0  0  0
  2 23  1  0  0  0  0
  2  3  1  0  0  0  0
  2 27  1  0  0  0  0
  3  4  1  0  0  0  0
  3 28  1  0  0  0  0
  3 29  1  0  0  0  0
  4  5  1  0  0  0  0
  4 20  1  0  0  0  0
  4 49  1  0  0  0  0
  5  6  1  0  0  0  0
  5 30  1  0  0  0  0
  5 31  1  0  0  0  0
  6  7  1  0  0  0  0
  6  8  1  0  0  0  0
  6 32  1  0  0  0  0
  7 33  1  0  0  0  0
  8  9  1  0  0  0  0
  8 34  1  0  0  0  0
  8 35  1  0  0  0  0
  9 19  1  0  0  0  0
  9 10  1  0  0  0  0
 10 11  1  0  0  0  0
 10 13  2  0  0  0  0
 11 12  1  0  0  0  0
 11 36  1  0  0  0  0
 11 37  1  0  0  0  0
 12 38  1  0  0  0  0
 13 14  1  0  0  0  0
 14 19  2  0  0  0  0
 14 15  1  0  0  0  0
 15 16  2  0  0  0  0
 15 39  1  0  0  0  0
 16 17  1  0  0  0  0
 16 40  1  0  0  0  0
 17 18  2  0  0  0  0
 17 41  1  0  0  0  0
 18 19  1  0  0  0  0
 18 42  1  0  0  0  0
 20 21  1  0  0  0  0
 20 43  1  0  0  0  0
 20 44  1  0  0  0  0
 21 22  1  0  0  0  0
 21 23  1  0  0  0  0
 21 45  1  0  0  0  0
 22 46  1  0  0  0  0
 22 47  1  0  0  0  0
 22 48  1  0  0  0  0
M  CHG  1   4   1
M  END
> <s_m_source_file>
AV-unprocessed.smi

> <i_m_source_file_index>
1703

> <i_lp_mmshare_version>
43012

> <i_f3d_flags>
0

> <s_epik_input>
W0NIM11bQ0BASF0xW0NIMl1OKFtDSDJdW0NASF0oTzEpW0NIM10pW0NIMl1bQ0BIXShbT0hdKVtDSDJdbihjKG4yKVtDSDJdW09IXSljKGMyMylbY0hdW2NIXVtjSF1bY0hdMw==

> <s_epik_cmdline>
J2VwaWtfcHl0aG9uJywgJy1waCcsICc3LjAnLCAnLXRuJywgJzgnLCAnLW1hJywgJzIwMCcsICctbWV0YWxfYmluZGluZycsICctaW1hZScsICc8aW5maWxlLm1hZT4nLCAnLW9tYWUnLCAnPG91dGZpbGUubWFlPic=

> <r_epik_Ionization_Penalty>
0.655661

> <r_epik_Ionization_Penalty_Charging>
0.608065

> <r_epik_Ionization_Penalty_Neutral>
0.0475963

> <r_epik_State_Penalty>
0.695267

> <r_epik_Charging_Adjusted_Penalty>
1.30333

> <i_epik_Tot_Q>
1

> <i_epik_Tot_abs_Q>
1

> <r_epik_Metal_State_Penalty>
0.653591

> <b_epik_Metal_Only>
0

> <s_lp_Force_Field>
OPLS_2005

> <r_lp_Energy>
25.4362

> <b_lp_Chiralities_Consistent>
1

> <s_lp_Variant>
AV-unprocessed.smi:1703-7

> <Gold.Version>
5.8.1

> <Gold.Id.Protein>
6NUR|6NUR_protein|mol2

> <Gold.PLP.Fitness>
45.2704

> <Gold.PLP.PLP>
-37.3893

> <Gold.PLP.part.hbond>
-3.9351

> <Gold.PLP.part.metal>
0.0000

> <Gold.PLP.part.buried>
-4.0011

> <Gold.PLP.part.nonpolar>
-28.5586

> <Gold.PLP.part.repulsive>
0.0813

> <Gold.PLP.ligand.clash>
0.0000

> <Gold.PLP.ligand.torsion>
0.6289

> <Gold.PLP.Chemscore.Hbond>
3.0000

> <Gold.PLP.Chemscore.CHOScore>
0.0000

> <Gold.PLP.Chemscore.Metal>
0.0000

> <Gold.Chemscore.Hbonds>
donor molecule, donor type, donor heavy atom, donor atom, acceptor molecule, acceptor atom, score
      L1  H     4    49       P1  7948  1.90
      L1  H     7    33       P1  7948  0.95

> <Gold.PLP.Chemscore.Internal.Correction>
0.1388

> <Gold.Rescore>
     Score         DG    S(hbond)    S(metal)    S(lipo)     H(rot)  DE(clash)    DE(int)     intcor
     13.83     -14.77       1.91        0.00      89.61       2.96       0.17       0.77       ----

> <Gold.Chemscore.Fitness>
13.8291

> <Gold.Chemscore.DG>
-14.7703

> <Gold.Chemscore.ZeroCoef>
-5.4800

> <Gold.Chemscore.Hbond>
1.9122

> <Gold.Chemscore.Metal>
0.0000

> <Gold.Chemscore.Lipo>
89.6068

> <Gold.Chemscore.Internal_Hbond>
0.0000

> <Gold.Chemscore.DEClash>
0.1668

> <Gold.Chemscore.DEInternal>
0.7745

> <Gold.Chemscore.Rot>
2.9611

> <Gold.Chemscore.Internal.Correction>
   9.000000E+99

> <Gold.Chemscore.Hbonds>
donor molecule, donor type, donor heavy atom, donor atom, acceptor molecule, acceptor atom, score
      L1  H     4    49       P1  7948  0.22
      L1  H     7    33       P1  7948  0.20

> <Gold.Chemscore.Hbond.Weighted>
-6.3867

> <Gold.Chemscore.Metal.Weighted>
-0.0000

> <Gold.Chemscore.Lipo.Weighted>
-10.4840

> <Gold.Chemscore.Internal_Hbond.Weighted>
0.0000

> <Gold.Chemscore.DEClash.Weighted>
0.1668

> <Gold.Chemscore.DEInternal.Weighted>
0.7745

> <Gold.Chemscore.Rot.Weighted>
7.5803

> <Gold.Chemscore.Internal.Correction.Weighted>
   9.000000E+99

> <Gold.Protein.RotatedTorsions>
[ 6907 6896 6895 6894 ] final  -78.34 input  -60.11 | X-H torsion
[ 7974 7965 7964 7962 ] final  -12.95 input  175.53 | X-H torsion
[ 8008 7997 7996 7995 ] final  -42.15 input   59.86 | X-H torsion
[ 10167 10162 10161 10158 ] final -133.58 input  -65.29 | X-H torsion
[ 10718 10713 10712 10709 ] final  138.56 input   66.30 | X-H torsion
[ 10763 10752 10751 10750 ] final -138.35 input  -60.55 | X-H torsion
[ 11005 11000 10999 10996 ] final    8.75 input  -57.11 | X-H torsion

> <Gold.Protein.ActiveResidues>
 VAL166  LYS551  ARG553  GLY616  TRP617  ASP618  TYR619  PRO620  LYS621  CYS622 
 ASP623  PHE694  ASN695  SER759  ASP760  ASP761  ALA762  ILE779  LEU786  VAL792 
 PHE793  MET794  SER795  GLU796  ALA797  LYS798  CYS799  TRP800  GLU811  SER814 

> <Gold.Protein.RotatedAtoms>
  150.6975  134.4286  159.5237 H   0  0  0  0  0  0  0  0  0  0  0  0  # atno 6907 bound_to 6896
  152.2017  134.8579  160.0516 H   0  0  0  0  0  0  0  0  0  0  0  0  # atno 6908 bound_to 6896
  151.9497  133.3627  159.4032 H   0  0  0  0  0  0  0  0  0  0  0  0  # atno 6909 bound_to 6896
  146.2133  140.3132  142.8384 H   0  0  0  0  0  0  0  0  0  0  0  0  # atno 7974 bound_to 7965
  154.4000  140.1481  156.3308 H   0  0  0  0  0  0  0  0  0  0  0  0  # atno 8008 bound_to 7997
  155.8445  140.3460  155.5632 H   0  0  0  0  0  0  0  0  0  0  0  0  # atno 8009 bound_to 7997
  155.8051  140.0876  157.1926 H   0  0  0  0  0  0  0  0  0  0  0  0  # atno 8010 bound_to 7997
  139.8968  143.6656  152.2602 H   0  0  0  0  0  0  0  0  0  0  0  0  # atno 10167 bound_to 10162
  157.4240  131.1041  151.0323 H   0  0  0  0  0  0  0  0  0  0  0  0  # atno 10718 bound_to 10713
  154.8639  135.3615  154.5371 H   0  0  0  0  0  0  0  0  0  0  0  0  # atno 10763 bound_to 10752
  153.5994  135.7013  153.5395 H   0  0  0  0  0  0  0  0  0  0  0  0  # atno 10764 bound_to 10752
  153.3304  135.4126  155.1452 H   0  0  0  0  0  0  0  0  0  0  0  0  # atno 10765 bound_to 10752
  140.5335  134.0443  155.7881 H   0  0  0  0  0  0  0  0  0  0  0  0  # atno 11005 bound_to 11000
  144.8973  140.7599  143.5889 LP  0  0  0  0  0  0  0  0  0  0  0  0  # atno 17320 bound_to 7965
  145.3056  139.1835  143.4666 LP  0  0  0  0  0  0  0  0  0  0  0  0  # atno 17321 bound_to 7965
  139.7061  144.7628  151.1191 LP  0  0  0  0  0  0  0  0  0  0  0  0  # atno 17342 bound_to 10162
  140.7715  143.5393  150.9331 LP  0  0  0  0  0  0  0  0  0  0  0  0  # atno 17343 bound_to 10162
  157.1243  130.6075  149.5513 LP  0  0  0  0  0  0  0  0  0  0  0  0  # atno 17370 bound_to 10713
  155.9890  130.4936  150.7195 LP  0  0  0  0  0  0  0  0  0  0  0  0  # atno 17371 bound_to 10713
  141.1268  133.9370  157.2619 LP  0  0  0  0  0  0  0  0  0  0  0  0  # atno 17394 bound_to 11000
  139.9541  135.0169  156.9079 LP  0  0  0  0  0  0  0  0  0  0  0  0  # atno 17395 bound_to 11000

$$$$
