AV-unprocessed.smi:243|AV-procd|sdf|1848|dock9
  -GOLD-   2262020473D 1   1.00000     0.00000
 Structure written by MMmdl.
 58 61  0  0  0  0  0  0  0  0  2 V2000
  148.5561  127.4939  150.9391 C   0  0  0  0  0  0  0  0  0  0  0  0
  147.1630  128.1089  151.1382 C   0  0  0  0  0  0  0  0  0  0  0  0
  147.2085  129.3863  151.8935 N   0  3  2  0  0  0  0  0  0  0  0  0
  148.0568  129.2913  153.1087 C   0  0  0  0  0  0  0  0  0  0  0  0
  148.2126  130.6613  153.7870 C   0  0  0  0  0  0  0  0  0  0  0  0
  146.8328  131.2681  154.1221 C   0  0  1  0  0  0  0  0  0  0  0  0
  146.8391  132.5074  154.9210 N   0  0  0  0  0  0  0  0  0  0  0  0
  147.6541  133.6133  154.4297 C   0  0  0  0  0  0  0  0  0  0  0  0
  146.5720  132.5072  156.2556 C   0  0  0  0  0  0  0  0  0  0  0  0
  145.4783  131.8301  156.6899 N   0  0  0  0  0  0  0  0  0  0  0  0
  145.1529  131.8184  157.9851 C   0  0  0  0  0  0  0  0  0  0  0  0
  145.7693  132.4180  159.0040 N   0  0  0  0  0  0  0  0  0  0  0  0
  146.8607  133.1151  158.5789 C   0  0  0  0  0  0  0  0  0  0  0  0
  147.3271  133.2189  157.2367 C   0  0  0  0  0  0  0  0  0  0  0  0
  148.4669  134.0161  157.2018 N   0  0  0  0  0  0  0  0  0  0  0  0
  148.6585  134.3638  158.4446 C   0  0  0  0  0  0  0  0  0  0  0  0
  147.7460  133.8571  159.3408 N   0  0  0  0  0  0  0  0  0  0  0  0
  147.7182  134.0784  160.7781 C   0  0  0  0  0  0  0  0  0  0  0  0
  146.6048  135.0519  161.2404 C   0  0  1  0  0  0  0  0  0  0  0  0
  145.3388  134.5125  160.9108 O   0  0  0  0  0  0  0  0  0  0  0  0
  146.6666  135.3272  162.7340 C   0  0  0  0  0  0  0  0  0  0  0  0
  147.6746  136.4713  162.8287 C   0  0  0  0  0  0  0  0  0  0  0  0
  147.6098  137.1601  161.5831 O   0  0  0  0  0  0  0  0  0  0  0  0
  146.7366  136.4779  160.6894 C   0  0  0  0  0  0  0  0  0  0  0  0
  145.9485  131.3341  152.8480 C   0  0  1  0  0  0  0  0  0  0  0  0
  146.3866  132.3786  151.8017 C   0  0  0  0  0  0  0  0  0  0  0  0
  145.8606  129.9308  152.2116 C   0  0  0  0  0  0  0  0  0  0  0  0
  148.4776  126.5162  150.4631 H   0  0  0  0  0  0  0  0  0  0  0  0
  149.0661  127.3553  151.8929 H   0  0  0  0  0  0  0  0  0  0  0  0
  149.1913  128.1101  150.3035 H   0  0  0  0  0  0  0  0  0  0  0  0
  146.6644  128.2570  150.1791 H   0  0  0  0  0  0  0  0  0  0  0  0
  146.5606  127.3866  151.6907 H   0  0  0  0  0  0  0  0  0  0  0  0
  147.6188  128.5732  153.8038 H   0  0  0  0  0  0  0  0  0  0  0  0
  149.0446  128.9130  152.8427 H   0  0  0  0  0  0  0  0  0  0  0  0
  148.8007  130.5434  154.6981 H   0  0  0  0  0  0  0  0  0  0  0  0
  148.7806  131.3176  153.1278 H   0  0  0  0  0  0  0  0  0  0  0  0
  146.3565  130.5391  154.7798 H   0  0  0  0  0  0  0  0  0  0  0  0
  147.4097  134.5426  154.9460 H   0  0  0  0  0  0  0  0  0  0  0  0
  147.4765  133.7729  153.3659 H   0  0  0  0  0  0  0  0  0  0  0  0
  148.7161  133.4096  154.5666 H   0  0  0  0  0  0  0  0  0  0  0  0
  144.2714  131.2493  158.2414 H   0  0  0  0  0  0  0  0  0  0  0  0
  149.4792  134.9996  158.7443 H   0  0  0  0  0  0  0  0  0  0  0  0
  147.5972  133.1109  161.2675 H   0  0  0  0  0  0  0  0  0  0  0  0
  148.6977  134.4487  161.0822 H   0  0  0  0  0  0  0  0  0  0  0  0
  144.7510  134.6652  161.6345 H   0  0  0  0  0  0  0  0  0  0  0  0
  145.6985  135.6768  163.0971 H   0  0  0  0  0  0  0  0  0  0  0  0
  146.9497  134.4581  163.3289 H   0  0  0  0  0  0  0  0  0  0  0  0
  147.4603  137.1401  163.6626 H   0  0  0  0  0  0  0  0  0  0  0  0
  148.6854  136.0841  162.9594 H   0  0  0  0  0  0  0  0  0  0  0  0
  147.0877  136.5301  159.6599 H   0  0  0  0  0  0  0  0  0  0  0  0
  145.7734  136.9897  160.7261 H   0  0  0  0  0  0  0  0  0  0  0  0
  144.9364  131.6018  153.1526 H   0  0  0  0  0  0  0  0  0  0  0  0
  147.4167  132.2319  151.4784 H   0  0  0  0  0  0  0  0  0  0  0  0
  146.2986  133.3921  152.1844 H   0  0  0  0  0  0  0  0  0  0  0  0
  145.7557  132.3266  150.9141 H   0  0  0  0  0  0  0  0  0  0  0  0
  145.2453  129.9822  151.3138 H   0  0  0  0  0  0  0  0  0  0  0  0
  145.3511  129.2461  152.8918 H   0  0  0  0  0  0  0  0  0  0  0  0
  147.6604  130.0573  151.2886 H   0  0  0  0  0  0  0  0  0  0  0  0
  1  2  1  0  0  0  0
  1 28  1  0  0  0  0
  1 29  1  0  0  0  0
  1 30  1  0  0  0  0
  2  3  1  0  0  0  0
  2 31  1  0  0  0  0
  2 32  1  0  0  0  0
  3 27  1  0  0  0  0
  3  4  1  0  0  0  0
  3 58  1  0  0  0  0
  4  5  1  0  0  0  0
  4 33  1  0  0  0  0
  4 34  1  0  0  0  0
  5  6  1  0  0  0  0
  5 35  1  0  0  0  0
  5 36  1  0  0  0  0
  6  7  1  0  0  0  0
  6 25  1  0  0  0  0
  6 37  1  0  0  0  0
  7  8  1  0  0  0  0
  7  9  1  0  0  0  0
  8 38  1  0  0  0  0
  8 39  1  0  0  0  0
  8 40  1  0  0  0  0
  9 14  1  0  0  0  0
  9 10  2  0  0  0  0
 10 11  1  0  0  0  0
 11 12  2  0  0  0  0
 11 41  1  0  0  0  0
 12 13  1  0  0  0  0
 13 17  1  0  0  0  0
 13 14  2  0  0  0  0
 14 15  1  0  0  0  0
 15 16  2  0  0  0  0
 16 17  1  0  0  0  0
 16 42  1  0  0  0  0
 17 18  1  0  0  0  0
 18 19  1  0  0  0  0
 18 43  1  0  0  0  0
 18 44  1  0  0  0  0
 19 24  1  0  0  0  0
 19 20  1  0  0  0  0
 19 21  1  0  0  0  0
 20 45  1  0  0  0  0
 21 22  1  0  0  0  0
 21 46  1  0  0  0  0
 21 47  1  0  0  0  0
 22 23  1  0  0  0  0
 22 48  1  0  0  0  0
 22 49  1  0  0  0  0
 23 24  1  0  0  0  0
 24 50  1  0  0  0  0
 24 51  1  0  0  0  0
 25 26  1  0  0  0  0
 25 27  1  0  0  0  0
 25 52  1  0  0  0  0
 26 53  1  0  0  0  0
 26 54  1  0  0  0  0
 26 55  1  0  0  0  0
 27 56  1  0  0  0  0
 27 57  1  0  0  0  0
M  CHG  1   3   1
M  END
> <s_m_source_file>
AV-unprocessed.smi

> <i_m_source_file_index>
243

> <i_lp_mmshare_version>
43012

> <i_f3d_flags>
0

> <s_epik_input>
W0NIM11bQ0gyXU4xW0NIMl1bQ0gyXVtDQEhdKFtDQEBIXShbQ0gzXSlbQ0gyXTEpTihbQ0gzXSljKG5bY0hdbjIpYyhjMjMpbltjSF1uM1tDSDJdW0NAQF00KFtPSF0pW0NIMl1bQ0gyXU9bQ0gyXTQ=

> <s_epik_cmdline>
J2VwaWtfcHl0aG9uJywgJy1waCcsICc3LjAnLCAnLXRuJywgJzgnLCAnLW1hJywgJzIwMCcsICctbWV0YWxfYmluZGluZycsICctaW1hZScsICc8aW5maWxlLm1hZT4nLCAnLW9tYWUnLCAnPG91dGZpbGUubWFlPic=

> <r_lp_tautomer_probability>
1

> <r_epik_Ionization_Penalty>
0.00253099

> <r_epik_Ionization_Penalty_Charging>
0.00137877

> <r_epik_Ionization_Penalty_Neutral>
0.00115221

> <r_epik_State_Penalty>
-0

> <r_epik_Charging_Adjusted_Penalty>
0.00137877

> <i_epik_Tot_Q>
1

> <i_epik_Tot_abs_Q>
1

> <r_epik_Metal_State_Penalty>
-0

> <b_epik_Metal_Only>
0

> <s_lp_Force_Field>
OPLS_2005

> <r_lp_Energy>
50.8982

> <b_lp_Chiralities_Consistent>
1

> <s_lp_Variant>
AV-unprocessed.smi:243-1

> <Gold.Version>
5.8.1

> <Gold.Id.Protein>
6NUR|6NUR_protein|mol2

> <Gold.PLP.Fitness>
45.4313

> <Gold.PLP.PLP>
-39.0218

> <Gold.PLP.part.hbond>
-3.0000

> <Gold.PLP.part.metal>
0.0000

> <Gold.PLP.part.buried>
-5.2152

> <Gold.PLP.part.nonpolar>
-31.1300

> <Gold.PLP.part.repulsive>
0.1989

> <Gold.PLP.ligand.clash>
0.0000

> <Gold.PLP.ligand.torsion>
1.0160

> <Gold.PLP.Chemscore.Hbond>
2.5541

> <Gold.PLP.Chemscore.CHOScore>
0.0000

> <Gold.PLP.Chemscore.Metal>
0.0000

> <Gold.Chemscore.Hbonds>
donor molecule, donor type, donor heavy atom, donor atom, acceptor molecule, acceptor atom, score
      L1  H     3    58       P1 10747  1.00
      P1  H  6931  6943       L1    23  0.79
      P1  H  6934  6947       L1    23  0.67

> <Gold.PLP.Chemscore.Internal.Correction>
0.7791

> <Gold.Rescore>
     Score         DG    S(hbond)    S(metal)    S(lipo)     H(rot)  DE(clash)    DE(int)     intcor
     15.43     -17.72       1.87        0.00     100.09       2.24       0.03       2.26       ----

> <Gold.Chemscore.Fitness>
15.4305

> <Gold.Chemscore.DG>
-17.7192

> <Gold.Chemscore.ZeroCoef>
-5.4800

> <Gold.Chemscore.Hbond>
1.8737

> <Gold.Chemscore.Metal>
0.0000

> <Gold.Chemscore.Lipo>
100.0867

> <Gold.Chemscore.Internal_Hbond>
0.0000

> <Gold.Chemscore.DEClash>
0.0259

> <Gold.Chemscore.DEInternal>
2.2629

> <Gold.Chemscore.Rot>
2.2379

> <Gold.Chemscore.Internal.Correction>
   9.000000E+99

> <Gold.Chemscore.Hbonds>
donor molecule, donor type, donor heavy atom, donor atom, acceptor molecule, acceptor atom, score
      L1  H     3    58       P1 10747  0.99
      P1  H  6931  6943       L1    23  0.11
      P1  H  6934  6947       L1    23  0.11

> <Gold.Chemscore.Hbond.Weighted>
-6.2582

> <Gold.Chemscore.Metal.Weighted>
-0.0000

> <Gold.Chemscore.Lipo.Weighted>
-11.7101

> <Gold.Chemscore.Internal_Hbond.Weighted>
0.0000

> <Gold.Chemscore.DEClash.Weighted>
0.0259

> <Gold.Chemscore.DEInternal.Weighted>
2.2629

> <Gold.Chemscore.Rot.Weighted>
5.7291

> <Gold.Chemscore.Internal.Correction.Weighted>
   9.000000E+99

> <Gold.Protein.RotatedTorsions>
[ 6907 6896 6895 6894 ] final  113.62 input  -60.11 | X-H torsion
[ 7974 7965 7964 7962 ] final  -53.03 input  175.53 | X-H torsion
[ 8008 7997 7996 7995 ] final   75.89 input   59.86 | X-H torsion
[ 10167 10162 10161 10158 ] final  125.95 input  -65.29 | X-H torsion
[ 10718 10713 10712 10709 ] final  171.76 input   66.30 | X-H torsion
[ 10763 10752 10751 10750 ] final   69.81 input  -60.55 | X-H torsion
[ 11005 11000 10999 10996 ] final  -80.14 input  -57.11 | X-H torsion

> <Gold.Protein.ActiveResidues>
 VAL166  LYS551  ARG553  GLY616  TRP617  ASP618  TYR619  PRO620  LYS621  CYS622 
 ASP623  PHE694  ASN695  SER759  ASP760  ASP761  ALA762  ILE779  LEU786  VAL792 
 PHE793  MET794  SER795  GLU796  ALA797  LYS798  CYS799  TRP800  GLU811  SER814 

> <Gold.Protein.RotatedAtoms>
  152.4850  133.8349  159.7122 H   0  0  0  0  0  0  0  0  0  0  0  0  # atno 6907 bound_to 6896
  150.8929  133.7210  159.2906 H   0  0  0  0  0  0  0  0  0  0  0  0  # atno 6908 bound_to 6896
  151.4677  135.1047  159.9795 H   0  0  0  0  0  0  0  0  0  0  0  0  # atno 6909 bound_to 6896
  145.9014  140.7991  142.9741 H   0  0  0  0  0  0  0  0  0  0  0  0  # atno 7974 bound_to 7965
  155.8194  140.3470  155.5505 H   0  0  0  0  0  0  0  0  0  0  0  0  # atno 8008 bound_to 7997
  155.8358  140.0934  157.1785 H   0  0  0  0  0  0  0  0  0  0  0  0  # atno 8009 bound_to 7997
  154.4004  140.1404  156.3656 H   0  0  0  0  0  0  0  0  0  0  0  0  # atno 8010 bound_to 7997
  139.5657  144.6910  151.3916 H   0  0  0  0  0  0  0  0  0  0  0  0  # atno 10167 bound_to 10162
  156.9888  131.0141  151.2862 H   0  0  0  0  0  0  0  0  0  0  0  0  # atno 10718 bound_to 10713
  153.0307  135.5197  154.7345 H   0  0  0  0  0  0  0  0  0  0  0  0  # atno 10763 bound_to 10752
  154.6363  135.2906  155.0160 H   0  0  0  0  0  0  0  0  0  0  0  0  # atno 10764 bound_to 10752
  154.1094  135.6624  153.4935 H   0  0  0  0  0  0  0  0  0  0  0  0  # atno 10765 bound_to 10752
  141.1668  133.7137  156.8228 H   0  0  0  0  0  0  0  0  0  0  0  0  # atno 11005 bound_to 11000
  144.6736  140.1682  143.7416 LP  0  0  0  0  0  0  0  0  0  0  0  0  # atno 17320 bound_to 7965
  145.8786  139.2311  143.1618 LP  0  0  0  0  0  0  0  0  0  0  0  0  # atno 17321 bound_to 7965
  140.6940  143.7792  150.7299 LP  0  0  0  0  0  0  0  0  0  0  0  0  # atno 17342 bound_to 10162
  140.1283  143.4549  152.2270 LP  0  0  0  0  0  0  0  0  0  0  0  0  # atno 17343 bound_to 10162
  157.5473  130.8159  149.8102 LP  0  0  0  0  0  0  0  0  0  0  0  0  # atno 17370 bound_to 10713
  156.0215  130.3794  150.1948 LP  0  0  0  0  0  0  0  0  0  0  0  0  # atno 17371 bound_to 10713
  140.2107  134.8829  157.3271 LP  0  0  0  0  0  0  0  0  0  0  0  0  # atno 17394 bound_to 11000
  140.2090  134.4162  155.7623 LP  0  0  0  0  0  0  0  0  0  0  0  0  # atno 17395 bound_to 11000

$$$$
