AV-unprocessed.smi:1413|AV-procd|sdf|5758|dock4
  -GOLD-   22720 5393D 1   1.00000     0.00000
 Structure written by MMmdl.
 53 55  0  0  0  0  0  0  0  0  1 V2000
  152.6899  144.5179  157.4699 C   0  0  0  0  0  0  0  0  0  0  0  0
  151.6003  143.8875  158.3555 C   0  0  1  0  0  0  0  0  0  0  0  0
  150.6343  142.9710  157.5791 C   0  0  0  0  0  0  0  0  0  0  0  0
  151.2672  141.6950  157.2570 N   0  0  0  0  0  0  0  0  0  0  0  0
  150.5969  140.9033  156.2996 C   0  0  0  0  0  0  0  0  0  0  0  0
  149.2522  141.1829  155.9612 C   0  0  0  0  0  0  0  0  0  0  0  0
  148.6023  140.3761  155.0085 C   0  0  0  0  0  0  0  0  0  0  0  0
  149.3017  139.3066  154.4169 C   0  0  0  0  0  0  0  0  0  0  0  0
  148.6182  138.5196  153.4499 N   0  0  0  0  0  0  0  0  0  0  0  0
  147.3433  138.6144  153.0347 C   0  0  0  0  0  0  0  0  0  0  0  0
  146.5247  139.4453  153.4270 O   0  0  0  0  0  0  0  0  0  0  0  0
  147.0674  137.6848  152.1092 N   0  0  0  0  0  0  0  0  0  0  0  0
  145.7859  137.5254  151.4260 C   0  0  2  0  0  0  0  0  0  0  0  0
  144.6397  137.6360  152.4467 C   0  0  0  0  0  0  0  0  0  0  0  0
  145.7748  136.1786  150.6775 C   0  0  1  0  0  0  0  0  0  0  0  0
  146.0542  134.9585  151.5572 C   0  0  0  0  0  0  0  0  0  0  0  0
  145.3969  133.8516  150.7661 C   0  0  0  0  0  0  0  0  0  0  0  0
  144.1482  134.5477  150.2348 C   0  0  0  0  0  0  0  0  0  0  0  0
  144.4852  135.9280  150.1198 O   0  0  0  0  0  0  0  0  0  0  0  0
  150.6499  139.1145  154.8025 C   0  0  0  0  0  0  0  0  0  0  0  0
  151.2768  139.8869  155.7150 N   0  0  0  0  0  0  0  0  0  0  0  0
  151.8415  141.0289  158.4231 C   0  0  0  0  0  0  0  0  0  0  0  0
  152.8154  141.9706  159.1535 C   0  0  2  0  0  0  0  0  0  0  0  0
  153.3362  141.3558  160.4568 C   0  0  0  0  0  0  0  0  0  0  0  0
  152.1501  143.1913  159.4762 O   0  0  0  0  0  0  0  0  0  0  0  0
  152.2439  145.1535  156.7046 H   0  0  0  0  0  0  0  0  0  0  0  0
  153.2902  143.7681  156.9552 H   0  0  0  0  0  0  0  0  0  0  0  0
  153.3628  145.1378  158.0625 H   0  0  0  0  0  0  0  0  0  0  0  0
  151.0156  144.7103  158.7675 H   0  0  0  0  0  0  0  0  0  0  0  0
  149.7542  142.7672  158.1905 H   0  0  0  0  0  0  0  0  0  0  0  0
  150.2801  143.4911  156.6902 H   0  0  0  0  0  0  0  0  0  0  0  0
  148.7198  142.0096  156.4074 H   0  0  0  0  0  0  0  0  0  0  0  0
  147.5765  140.5799  154.7380 H   0  0  0  0  0  0  0  0  0  0  0  0
  149.1837  137.8279  152.9802 H   0  0  0  0  0  0  0  0  0  0  0  0
  147.8036  137.0489  151.8403 H   0  0  0  0  0  0  0  0  0  0  0  0
  145.6742  138.3230  150.6891 H   0  0  0  0  0  0  0  0  0  0  0  0
  143.6664  137.5709  151.9602 H   0  0  0  0  0  0  0  0  0  0  0  0
  144.6713  138.5896  152.9749 H   0  0  0  0  0  0  0  0  0  0  0  0
  144.6937  136.8413  153.1915 H   0  0  0  0  0  0  0  0  0  0  0  0
  146.4920  136.1964  149.8547 H   0  0  0  0  0  0  0  0  0  0  0  0
  147.1179  134.7871  151.7245 H   0  0  0  0  0  0  0  0  0  0  0  0
  145.5666  135.0621  152.5277 H   0  0  0  0  0  0  0  0  0  0  0  0
  146.0408  133.5498  149.9391 H   0  0  0  0  0  0  0  0  0  0  0  0
  145.1722  132.9688  151.3654 H   0  0  0  0  0  0  0  0  0  0  0  0
  143.8204  134.1369  149.2798 H   0  0  0  0  0  0  0  0  0  0  0  0
  143.3257  134.4518  150.9444 H   0  0  0  0  0  0  0  0  0  0  0  0
  151.2681  138.3430  154.3717 H   0  0  0  0  0  0  0  0  0  0  0  0
  151.0367  140.7229  159.0931 H   0  0  0  0  0  0  0  0  0  0  0  0
  152.3740  140.1266  158.1191 H   0  0  0  0  0  0  0  0  0  0  0  0
  153.6728  142.1773  158.5130 H   0  0  0  0  0  0  0  0  0  0  0  0
  153.8667  140.4226  160.2662 H   0  0  0  0  0  0  0  0  0  0  0  0
  152.5194  141.1423  161.1467 H   0  0  0  0  0  0  0  0  0  0  0  0
  154.0270  142.0339  160.9585 H   0  0  0  0  0  0  0  0  0  0  0  0
  1  2  1  0  0  0  0
  1 26  1  0  0  0  0
  1 27  1  0  0  0  0
  1 28  1  0  0  0  0
  2 25  1  0  0  0  0
  2  3  1  0  0  0  0
  2 29  1  0  0  0  0
  3  4  1  0  0  0  0
  3 30  1  0  0  0  0
  3 31  1  0  0  0  0
  4  5  1  0  0  0  0
  4 22  1  0  0  0  0
  5 21  1  0  0  0  0
  5  6  2  0  0  0  0
  6  7  1  0  0  0  0
  6 32  1  0  0  0  0
  7  8  2  0  0  0  0
  7 33  1  0  0  0  0
  8  9  1  0  0  0  0
  8 20  1  0  0  0  0
  9 10  1  0  0  0  0
  9 34  1  0  0  0  0
 10 11  2  0  0  0  0
 10 12  1  0  0  0  0
 12 13  1  0  0  0  0
 12 35  1  0  0  0  0
 13 14  1  0  0  0  0
 13 15  1  0  0  0  0
 13 36  1  0  0  0  0
 14 37  1  0  0  0  0
 14 38  1  0  0  0  0
 14 39  1  0  0  0  0
 15 19  1  0  0  0  0
 15 16  1  0  0  0  0
 15 40  1  0  0  0  0
 16 17  1  0  0  0  0
 16 41  1  0  0  0  0
 16 42  1  0  0  0  0
 17 18  1  0  0  0  0
 17 43  1  0  0  0  0
 17 44  1  0  0  0  0
 18 19  1  0  0  0  0
 18 45  1  0  0  0  0
 18 46  1  0  0  0  0
 20 21  2  0  0  0  0
 20 47  1  0  0  0  0
 22 23  1  0  0  0  0
 22 48  1  0  0  0  0
 22 49  1  0  0  0  0
 23 24  1  0  0  0  0
 23 25  1  0  0  0  0
 23 50  1  0  0  0  0
 24 51  1  0  0  0  0
 24 52  1  0  0  0  0
 24 53  1  0  0  0  0
M  END
> <s_m_source_file>
AV-unprocessed.smi

> <i_m_source_file_index>
1413

> <i_lp_mmshare_version>
43012

> <i_f3d_flags>
0

> <s_epik_input>
W0NIM11bQ0BASF0xW0NIMl1OKFtDSDJdW0NASF0oTzEpW0NIM10pYzJbY0hdW2NIXWMoW2NIXW4yKVtOSF1DKD1PKVtOSF1bQ0BIXShbQ0gzXSlbQ0BASF0zW0NIMl1bQ0gyXVtDSDJdTzM=

> <s_epik_cmdline>
J2VwaWtfcHl0aG9uJywgJy1waCcsICc3LjAnLCAnLXRuJywgJzgnLCAnLW1hJywgJzIwMCcsICctbWV0YWxfYmluZGluZycsICctaW1hZScsICc8aW5maWxlLm1hZT4nLCAnLW9tYWUnLCAnPG91dGZpbGUubWFlPic=

> <r_lp_tautomer_probability>
1

> <r_epik_Ionization_Penalty>
0.00271172

> <r_epik_Ionization_Penalty_Charging>
0

> <r_epik_Ionization_Penalty_Neutral>
0.00271172

> <r_epik_State_Penalty>
0.00186503

> <r_epik_Charging_Adjusted_Penalty>
0.00186503

> <i_epik_Tot_Q>
0

> <i_epik_Tot_abs_Q>
0

> <r_epik_Metal_State_Penalty>
-0

> <b_epik_Metal_Only>
0

> <s_lp_Force_Field>
OPLS_2005

> <r_lp_Energy>
37.0266

> <b_lp_Chiralities_Consistent>
1

> <s_lp_Variant>
AV-unprocessed.smi:1413-11

> <Gold.Version>
5.8.1

> <Gold.Id.Protein>
6NUR|6NUR_protein|mol2

> <Gold.PLP.Fitness>
46.8704

> <Gold.PLP.PLP>
-41.7808

> <Gold.PLP.part.hbond>
-2.3324

> <Gold.PLP.part.metal>
0.0000

> <Gold.PLP.part.buried>
-7.2640

> <Gold.PLP.part.nonpolar>
-34.4369

> <Gold.PLP.part.repulsive>
0.5083

> <Gold.PLP.ligand.clash>
0.0000

> <Gold.PLP.ligand.torsion>
0.4172

> <Gold.PLP.Chemscore.Hbond>
1.8580

> <Gold.PLP.Chemscore.CHOScore>
0.0000

> <Gold.PLP.Chemscore.Metal>
0.0000

> <Gold.Chemscore.Hbonds>
donor molecule, donor type, donor heavy atom, donor atom, acceptor molecule, acceptor atom, score
      L1  H     9    34       P1  7948  0.82
      L1  H    12    35       P1  7948  0.63

> <Gold.PLP.Chemscore.Internal.Correction>
0.3501

> <Gold.Rescore>
     Score         DG    S(hbond)    S(metal)    S(lipo)     H(rot)  DE(clash)    DE(int)     intcor
     18.25     -21.48       1.76        0.00     115.99       1.35       0.37       2.87       ----

> <Gold.Chemscore.Fitness>
18.2462

> <Gold.Chemscore.DG>
-21.4819

> <Gold.Chemscore.ZeroCoef>
-5.4800

> <Gold.Chemscore.Hbond>
1.7603

> <Gold.Chemscore.Metal>
0.0000

> <Gold.Chemscore.Lipo>
115.9925

> <Gold.Chemscore.Internal_Hbond>
0.0000

> <Gold.Chemscore.DEClash>
0.3698

> <Gold.Chemscore.DEInternal>
2.8659

> <Gold.Chemscore.Rot>
1.3471

> <Gold.Chemscore.Internal.Correction>
   9.000000E+99

> <Gold.Chemscore.Hbonds>
donor molecule, donor type, donor heavy atom, donor atom, acceptor molecule, acceptor atom, score
      L1  H     9    34       P1  7948  0.80
      L1  H    12    35       P1  7948  0.65

> <Gold.Chemscore.Hbond.Weighted>
-5.8793

> <Gold.Chemscore.Metal.Weighted>
-0.0000

> <Gold.Chemscore.Lipo.Weighted>
-13.5711

> <Gold.Chemscore.Internal_Hbond.Weighted>
0.0000

> <Gold.Chemscore.DEClash.Weighted>
0.3698

> <Gold.Chemscore.DEInternal.Weighted>
2.8659

> <Gold.Chemscore.Rot.Weighted>
3.4485

> <Gold.Chemscore.Internal.Correction.Weighted>
   9.000000E+99

> <Gold.Protein.RotatedTorsions>
[ 6907 6896 6895 6894 ] final  -73.55 input  -60.11 | X-H torsion
[ 7974 7965 7964 7962 ] final  106.27 input  175.53 | X-H torsion
[ 8008 7997 7996 7995 ] final    7.67 input   59.86 | X-H torsion
[ 10167 10162 10161 10158 ] final   76.94 input  -65.29 | X-H torsion
[ 10718 10713 10712 10709 ] final   10.91 input   66.30 | X-H torsion
[ 10763 10752 10751 10750 ] final  146.51 input  -60.55 | X-H torsion
[ 11005 11000 10999 10996 ] final -168.31 input  -57.11 | X-H torsion

> <Gold.Protein.ActiveResidues>
 VAL166  LYS551  ARG553  GLY616  TRP617  ASP618  TYR619  PRO620  LYS621  CYS622 
 ASP623  PHE694  ASN695  SER759  ASP760  ASP761  ALA762  ILE779  LEU786  VAL792 
 PHE793  MET794  SER795  GLU796  ALA797  LYS798  CYS799  TRP800  GLU811  SER814 

> <Gold.Protein.RotatedAtoms>
  150.7126  134.5000  159.5556 H   0  0  0  0  0  0  0  0  0  0  0  0  # atno 6907 bound_to 6896
  152.2600  134.8041  160.0441 H   0  0  0  0  0  0  0  0  0  0  0  0  # atno 6908 bound_to 6896
  151.8759  133.3450  159.3787 H   0  0  0  0  0  0  0  0  0  0  0  0  # atno 6909 bound_to 6896
  145.3088  139.2547  143.3774 H   0  0  0  0  0  0  0  0  0  0  0  0  # atno 7974 bound_to 7965
  154.7569  140.2777  155.6246 H   0  0  0  0  0  0  0  0  0  0  0  0  # atno 8008 bound_to 7997
  156.2907  140.2667  156.2264 H   0  0  0  0  0  0  0  0  0  0  0  0  # atno 8009 bound_to 7997
  155.0067  140.0372  157.2372 H   0  0  0  0  0  0  0  0  0  0  0  0  # atno 8010 bound_to 7997
  139.9868  144.5786  150.7852 H   0  0  0  0  0  0  0  0  0  0  0  0  # atno 10167 bound_to 10162
  156.9879  130.6031  149.5683 H   0  0  0  0  0  0  0  0  0  0  0  0  # atno 10718 bound_to 10713
  154.0230  135.2904  155.3378 H   0  0  0  0  0  0  0  0  0  0  0  0  # atno 10763 bound_to 10752
  154.7034  135.5179  153.8563 H   0  0  0  0  0  0  0  0  0  0  0  0  # atno 10764 bound_to 10752
  153.0673  135.6635  154.0450 H   0  0  0  0  0  0  0  0  0  0  0  0  # atno 10765 bound_to 10752
  140.5435  134.5499  157.5105 H   0  0  0  0  0  0  0  0  0  0  0  0  # atno 11005 bound_to 11000
  146.3125  140.3619  142.8665 LP  0  0  0  0  0  0  0  0  0  0  0  0  # atno 17320 bound_to 7965
  144.9033  140.7669  143.5853 LP  0  0  0  0  0  0  0  0  0  0  0  0  # atno 17321 bound_to 7965
  140.7469  143.2898  151.3362 LP  0  0  0  0  0  0  0  0  0  0  0  0  # atno 17342 bound_to 10162
  139.6369  144.0613  152.2523 LP  0  0  0  0  0  0  0  0  0  0  0  0  # atno 17343 bound_to 10162
  156.0218  130.5313  150.8298 LP  0  0  0  0  0  0  0  0  0  0  0  0  # atno 17370 bound_to 10713
  157.5480  131.0943  150.9736 LP  0  0  0  0  0  0  0  0  0  0  0  0  # atno 17371 bound_to 10713
  139.9492  134.7647  156.0489 LP  0  0  0  0  0  0  0  0  0  0  0  0  # atno 17394 bound_to 11000
  141.1213  133.6612  156.3223 LP  0  0  0  0  0  0  0  0  0  0  0  0  # atno 17395 bound_to 11000

$$$$
