#       Name:                AV-unprocessed.smi:1779
#       Creating user name   scv26
#       Creation time:       Fri Mar 27 08:42:15 2020


#       File generated by GOLD software.
#

@<TRIPOS>MOLECULE
AV-unprocessed.smi:1779
    52    53     1
SMALL
NO_CHARGES


@<TRIPOS>ATOM
      1 ****        -4.8356   5.5769  -1.8372 C.3            1 S1                 0.0000
      2 ****        -4.1872   4.2274  -1.7415 C.2            1 S1                 0.0000
      3 ****        -2.7959   3.9244  -1.6802 C.2            1 S1                 0.0000
      4 ****        -2.7882   2.5583  -1.6054 C.2            1 S1                 0.0000
      5 ****        -1.7271   1.7116  -1.5268 N.am           1 S1                 0.0000
      6 ****        -0.4167   2.0090  -1.4811 C.2            1 S1                 0.0000
      7 ****         0.0597   3.1439  -1.4905 O.2            1 S1                 0.0000
      8 ****         0.3297   0.8977  -1.4208 N.am           1 S1                 0.0000
      9 ****         1.7875   0.8802  -1.3776 C.3            1 S1                 0.0000
     10 ****         2.3111  -0.4305  -0.7648 C.3            1 S1                 0.0000
     11 ****         3.7107  -0.4639  -0.9615 O.3            1 S1                 0.0000
     12 ****         2.0081  -0.5392   0.7462 C.3            1 S1                 0.0000
     13 ****         2.3995  -1.8517   1.3222 N.4            1 S1                 1.0000
     14 ****         2.6623  -1.7687   2.7830 C.3            1 S1                 0.0000
     15 ****         3.2032  -3.1013   3.3285 C.3            1 S1                 0.0000
     16 ****         2.2430  -4.2553   3.0133 C.3            1 S1                 0.0000
     17 ****         1.9581  -4.3018   1.5066 C.3            1 S1                 0.0000
     18 ****         1.4416  -2.9443   1.0012 C.3            1 S1                 0.0000
     19 ****        -4.0883   2.1044  -1.6243 N.pl3          1 S1                 0.0000
     20 ****        -4.5911   0.7456  -1.5656 C.3            1 S1                 0.0000
     21 ****        -4.9503   3.1408  -1.7064 N.2            1 S1                 0.0000
     22 ****        -4.0905   6.3729  -1.8409 H              1 S1                 0.0000
     23 ****        -5.5040   5.7524  -0.9940 H              1 S1                 0.0000
     24 ****        -5.4207   5.6670  -2.7527 H              1 S1                 0.0000
     25 ****        -1.9622   4.6103  -1.6918 H              1 S1                 0.0000
     26 ****        -1.9629   0.7306  -1.5050 H              1 S1                 0.0000
     27 ****        -0.1412   0.0049  -1.4266 H              1 S1                 0.0000
     28 ****         2.1511   0.9882  -2.4008 H              1 S1                 0.0000
     29 ****         2.1702   1.7339  -0.8148 H              1 S1                 0.0000
     30 ****         1.8785  -1.2657  -1.3148 H              1 S1                 0.0000
     31 ****         4.0314  -1.3279  -0.7534 H              1 S1                 0.0000
     32 ****         2.5394   0.2640   1.2597 H              1 S1                 0.0000
     33 ****         0.9485  -0.3705   0.9440 H              1 S1                 0.0000
     34 ****         3.3907  -0.9817   2.9831 H              1 S1                 0.0000
     35 ****         1.7443  -1.4917   3.3039 H              1 S1                 0.0000
     36 ****         4.1804  -3.3074   2.8896 H              1 S1                 0.0000
     37 ****         3.3574  -3.0288   4.4056 H              1 S1                 0.0000
     38 ****         2.6677  -5.2025   3.3473 H              1 S1                 0.0000
     39 ****         1.3098  -4.1196   3.5618 H              1 S1                 0.0000
     40 ****         2.8681  -4.5714   0.9688 H              1 S1                 0.0000
     41 ****         1.2282  -5.0826   1.2902 H              1 S1                 0.0000
     42 ****         0.4722  -2.7230   1.4507 H              1 S1                 0.0000
     43 ****         1.2808  -3.0078  -0.0741 H              1 S1                 0.0000
     44 ****        -4.1041   0.1399  -2.3304 H              1 S1                 0.0000
     45 ****        -5.6685   0.7271  -1.7350 H              1 S1                 0.0000
     46 ****        -4.3791   0.3203  -0.5843 H              1 S1                 0.0000
     47 ****         3.2819  -2.0965   0.8964 H              1 S1                 0.0000
     48 ****        -0.5446   3.9395  -1.5352 LP             1 S1                 0.0000
     49 ****         1.0509   3.2704  -1.4534 LP             1 S1                 0.0000
     50 ****         4.1488   0.2087  -0.3651 LP             1 S1                 0.0000
     51 ****         3.9200  -0.2497  -1.9156 LP             1 S1                 0.0000
     52 ****        -5.9491   3.0991  -1.7347 LP             1 S1                 0.0000
@<TRIPOS>BOND
    1    1    2 1     
    2    1   22 1     
    3    1   23 1     
    4    1   24 1     
    5    2   21 2     
    6    2    3 1     
    7    3    4 2     
    8    3   25 1     
    9    4    5 1     
   10    4   19 1     
   11    5    6 am    
   12    5   26 1     
   13    6    7 2     
   14    6    8 am    
   15    8    9 1     
   16    8   27 1     
   17    9   10 1     
   18    9   28 1     
   19    9   29 1     
   20   10   11 1     
   21   10   12 1     
   22   10   30 1     
   23   11   31 1     
   24   12   13 1     
   25   12   32 1     
   26   12   33 1     
   27   13   18 1     
   28   13   14 1     
   29   13   47 1     
   30   14   15 1     
   31   14   34 1     
   32   14   35 1     
   33   15   16 1     
   34   15   36 1     
   35   15   37 1     
   36   16   17 1     
   37   16   38 1     
   38   16   39 1     
   39   17   18 1     
   40   17   40 1     
   41   17   41 1     
   42   18   42 1     
   43   18   43 1     
   44   19   20 1     
   45   19   21 1     
   46   20   44 1     
   47   20   45 1     
   48   20   46 1     
   49    7   48 1     
   50    7   49 1     
   51   11   50 1     
   52   11   51 1     
   53   21   52 1     
@<TRIPOS>SUBSTRUCTURE
      1 S1             1
@<TRIPOS>SET
LONE_PAIRS      STATIC     ATOMS    <user>   **** ""
5 48 49 50 51 52
DONOR_HYDROGENS      STATIC     ATOMS    <user>   **** ""
4 26 27 31 47
ATOM$BLUE        STATIC     ATOMS    COLORGROUP SYSTEM
5 48 49 50 51 52
ATOM$RED        STATIC     ATOMS    COLORGROUP SYSTEM
4 26 27 31 47
