AV-unprocessed.smi:837|AV-procd|sdf|3901|dock4
  -GOLD-   22720 1363D 1   1.00000     0.00000
 Structure written by MMmdl.
 48 50  0  0  0  0  0  0  0  0  2 V2000
  149.5223  140.4834  154.6010 C   0  0  0  0  0  0  0  0  0  0  0  0
  150.3912  141.1337  155.7000 C   0  0  1  0  0  0  0  0  0  0  0  0
  149.4918  141.6434  156.8489 C   0  0  0  0  0  0  0  0  0  0  0  0
  150.3012  142.3684  157.9338 C   0  0  0  0  0  0  0  0  0  0  0  0
  151.4126  141.4707  158.4919 C   0  0  0  0  0  0  0  0  0  0  0  0
  152.3281  140.9620  157.3649 C   0  0  0  0  0  0  0  0  0  0  0  0
  151.5625  140.2369  156.2251 C   0  0  2  0  0  0  0  0  0  0  0  0
  152.5002  139.9494  155.1532 N   0  5  0  0  0  0  0  0  0  0  0  0
  152.6054  138.6087  155.0022 C   0  0  0  0  0  0  0  0  0  0  0  0
  153.3232  138.0130  154.1996 O   0  0  0  0  0  0  0  0  0  0  0  0
  151.8015  137.9609  155.8661 N   0  0  0  0  0  0  0  0  0  0  0  0
  151.6891  136.5000  155.9804 C   0  0  0  0  0  0  0  0  0  0  0  0
  150.2961  135.9613  155.6224 C   0  0  0  0  0  0  0  0  0  0  0  0
  149.2778  136.4306  156.1334 O   0  0  0  0  0  0  0  0  0  0  0  0
  150.2704  134.9659  154.7230 N   0  0  0  0  0  0  0  0  0  0  0  0
  149.0621  134.3126  154.2345 C   0  0  0  0  0  0  0  0  0  0  0  0
  149.3922  133.0780  153.3797 C   0  0  0  0  0  0  0  0  0  0  0  0
  148.1710  132.5438  152.6572 C   0  0  0  0  0  0  0  0  0  0  0  0
  147.7412  131.2151  152.8520 C   0  0  0  0  0  0  0  0  0  0  0  0
  146.5981  130.7645  152.1640 C   0  0  0  0  0  0  0  0  0  0  0  0
  145.9316  131.6650  151.3091 C   0  0  0  0  0  0  0  0  0  0  0  0
  146.3335  132.9399  151.1158 N   0  0  0  0  0  0  0  0  0  0  0  0
  147.4312  133.3639  151.7786 C   0  0  0  0  0  0  0  0  0  0  0  0
  151.1392  138.8287  156.6390 C   0  0  0  0  0  0  0  0  0  0  0  0
  150.3308  138.5627  157.5297 O   0  0  0  0  0  0  0  0  0  0  0  0
  148.9823  139.6122  154.9724 H   0  0  0  0  0  0  0  0  0  0  0  0
  150.1225  140.1658  153.7482 H   0  0  0  0  0  0  0  0  0  0  0  0
  148.7811  141.1891  154.2250 H   0  0  0  0  0  0  0  0  0  0  0  0
  150.8457  142.0167  155.2468 H   0  0  0  0  0  0  0  0  0  0  0  0
  148.7389  142.3251  156.4519 H   0  0  0  0  0  0  0  0  0  0  0  0
  148.9410  140.8152  157.2952 H   0  0  0  0  0  0  0  0  0  0  0  0
  150.7398  143.2759  157.5167 H   0  0  0  0  0  0  0  0  0  0  0  0
  149.6402  142.6864  158.7406 H   0  0  0  0  0  0  0  0  0  0  0  0
  152.0029  142.0256  159.2214 H   0  0  0  0  0  0  0  0  0  0  0  0
  150.9742  140.6325  159.0332 H   0  0  0  0  0  0  0  0  0  0  0  0
  152.8719  141.8132  156.9516 H   0  0  0  0  0  0  0  0  0  0  0  0
  153.0885  140.3053  157.7916 H   0  0  0  0  0  0  0  0  0  0  0  0
  152.4238  136.0184  155.3331 H   0  0  0  0  0  0  0  0  0  0  0  0
  151.9408  136.1862  156.9948 H   0  0  0  0  0  0  0  0  0  0  0  0
  151.1506  134.6400  154.3508 H   0  0  0  0  0  0  0  0  0  0  0  0
  148.4219  134.0371  155.0745 H   0  0  0  0  0  0  0  0  0  0  0  0
  148.5015  135.0362  153.6418 H   0  0  0  0  0  0  0  0  0  0  0  0
  150.1602  133.3251  152.6452 H   0  0  0  0  0  0  0  0  0  0  0  0
  149.8074  132.2843  154.0027 H   0  0  0  0  0  0  0  0  0  0  0  0
  148.2760  130.5531  153.5174 H   0  0  0  0  0  0  0  0  0  0  0  0
  146.2406  129.7531  152.2889 H   0  0  0  0  0  0  0  0  0  0  0  0
  145.0516  131.3528  150.7664 H   0  0  0  0  0  0  0  0  0  0  0  0
  147.7256  134.3883  151.6042 H   0  0  0  0  0  0  0  0  0  0  0  0
  1  2  1  0  0  0  0
  1 26  1  0  0  0  0
  1 27  1  0  0  0  0
  1 28  1  0  0  0  0
  2  7  1  0  0  0  0
  2  3  1  0  0  0  0
  2 29  1  0  0  0  0
  3  4  1  0  0  0  0
  3 30  1  0  0  0  0
  3 31  1  0  0  0  0
  4  5  1  0  0  0  0
  4 32  1  0  0  0  0
  4 33  1  0  0  0  0
  5  6  1  0  0  0  0
  5 34  1  0  0  0  0
  5 35  1  0  0  0  0
  6  7  1  0  0  0  0
  6 36  1  0  0  0  0
  6 37  1  0  0  0  0
  7 24  1  0  0  0  0
  7  8  1  0  0  0  0
  8  9  1  0  0  0  0
  9 10  2  0  0  0  0
  9 11  1  0  0  0  0
 11 12  1  0  0  0  0
 11 24  1  0  0  0  0
 12 13  1  0  0  0  0
 12 38  1  0  0  0  0
 12 39  1  0  0  0  0
 13 14  2  0  0  0  0
 13 15  1  0  0  0  0
 15 16  1  0  0  0  0
 15 40  1  0  0  0  0
 16 17  1  0  0  0  0
 16 41  1  0  0  0  0
 16 42  1  0  0  0  0
 17 18  1  0  0  0  0
 17 43  1  0  0  0  0
 17 44  1  0  0  0  0
 18 23  1  0  0  0  0
 18 19  2  0  0  0  0
 19 20  1  0  0  0  0
 19 45  1  0  0  0  0
 20 21  2  0  0  0  0
 20 46  1  0  0  0  0
 21 22  1  0  0  0  0
 21 47  1  0  0  0  0
 22 23  2  0  0  0  0
 23 48  1  0  0  0  0
 24 25  2  0  0  0  0
M  CHG  1   8  -1
M  END
> <s_m_source_file>
AV-unprocessed.smi

> <i_m_source_file_index>
837

> <i_lp_mmshare_version>
43012

> <i_f3d_flags>
0

> <s_epik_input>
W0NIMl0xW0NIMl1bQ0gyXVtDSDJdW0NAQEhdKFtDSDNdKVtDQEBdMTJbTkhdQyg9TylOKEMyPU8pW0NIMl1DKD1PKVtOSF1bQ0gyXVtDSDJdYzNbY0hdW2NIXVtjSF1uW2NIXTM=

> <s_epik_cmdline>
J2VwaWtfcHl0aG9uJywgJy1waCcsICc3LjAnLCAnLXRuJywgJzgnLCAnLW1hJywgJzIwMCcsICctbWV0YWxfYmluZGluZycsICctaW1hZScsICc8aW5maWxlLm1hZT4nLCAnLW9tYWUnLCAnPG91dGZpbGUubWFlPic=

> <r_lp_tautomer_probability>
1

> <r_epik_Ionization_Penalty>
6.03002

> <r_epik_Ionization_Penalty_Charging>
6.01728

> <r_epik_Ionization_Penalty_Neutral>
0.0127382

> <r_epik_State_Penalty>
6.02713

> <r_epik_Charging_Adjusted_Penalty>
12.0444

> <i_epik_Tot_Q>
-1

> <i_epik_Tot_abs_Q>
1

> <r_epik_Metal_State_Penalty>
1.99078

> <b_epik_Metal_Only>
1

> <s_lp_Force_Field>
OPLS_2005

> <r_lp_Energy>
14.5441

> <b_lp_Chiralities_Consistent>
1

> <s_lp_Variant>
AV-unprocessed.smi:837-10

> <Gold.Version>
5.8.1

> <Gold.Id.Protein>
6NUR|6NUR_protein|mol2

> <Gold.PLP.Fitness>
48.6596

> <Gold.PLP.PLP>
-39.2542

> <Gold.PLP.part.hbond>
-2.8268

> <Gold.PLP.part.metal>
0.0000

> <Gold.PLP.part.buried>
-4.8301

> <Gold.PLP.part.nonpolar>
-31.2913

> <Gold.PLP.part.repulsive>
0.2881

> <Gold.PLP.ligand.clash>
0.0000

> <Gold.PLP.ligand.torsion>
0.1629

> <Gold.PLP.Chemscore.Hbond>
2.3284

> <Gold.PLP.Chemscore.CHOScore>
0.9054

> <Gold.PLP.Chemscore.Metal>
0.0000

> <Gold.Chemscore.Hbonds>
donor molecule, donor type, donor heavy atom, donor atom, acceptor molecule, acceptor atom, score
      P1  H  7989  7998       L1     8  0.55
      P1  H  7997  8008       L1     8  1.27
      P1  H 10752 10764       L1    10  0.07
      L1  C    23    48       P1  7948  0.77

> <Gold.PLP.Chemscore.Internal.Correction>
0.0296

> <Gold.Rescore>
     Score         DG    S(hbond)    S(metal)    S(lipo)     H(rot)  DE(clash)    DE(int)     intcor
     11.95     -13.66       0.53        0.00      94.35       1.81       0.18       1.53       ----

> <Gold.Chemscore.Fitness>
11.9531

> <Gold.Chemscore.DG>
-13.6636

> <Gold.Chemscore.ZeroCoef>
-5.4800

> <Gold.Chemscore.Hbond>
0.5316

> <Gold.Chemscore.Metal>
0.0000

> <Gold.Chemscore.Lipo>
94.3505

> <Gold.Chemscore.Internal_Hbond>
0.0000

> <Gold.Chemscore.DEClash>
0.1757

> <Gold.Chemscore.DEInternal>
1.5349

> <Gold.Chemscore.Rot>
1.8090

> <Gold.Chemscore.Internal.Correction>
   9.000000E+99

> <Gold.Chemscore.Hbonds>
donor molecule, donor type, donor heavy atom, donor atom, acceptor molecule, acceptor atom, score
      P1  H  7989  7998       L1     8  0.20
      P1  H  7997  8008       L1     8  0.03
      P1  H 10752 10764       L1    10  0.06

> <Gold.Chemscore.Hbond.Weighted>
-1.7756

> <Gold.Chemscore.Metal.Weighted>
-0.0000

> <Gold.Chemscore.Lipo.Weighted>
-11.0390

> <Gold.Chemscore.Internal_Hbond.Weighted>
0.0000

> <Gold.Chemscore.DEClash.Weighted>
0.1757

> <Gold.Chemscore.DEInternal.Weighted>
1.5349

> <Gold.Chemscore.Rot.Weighted>
4.6310

> <Gold.Chemscore.Internal.Correction.Weighted>
   9.000000E+99

> <Gold.Protein.RotatedTorsions>
[ 6907 6896 6895 6894 ] final  -39.93 input  -60.11 | X-H torsion
[ 7974 7965 7964 7962 ] final  129.01 input  175.53 | X-H torsion
[ 8008 7997 7996 7995 ] final  -26.65 input   59.86 | X-H torsion
[ 10167 10162 10161 10158 ] final   -2.38 input  -65.29 | X-H torsion
[ 10718 10713 10712 10709 ] final   84.17 input   66.30 | X-H torsion
[ 10763 10752 10751 10750 ] final  -89.41 input  -60.55 | X-H torsion
[ 11005 11000 10999 10996 ] final  151.80 input  -57.11 | X-H torsion

> <Gold.Protein.ActiveResidues>
 VAL166  LYS551  ARG553  GLY616  TRP617  ASP618  TYR619  PRO620  LYS621  CYS622 
 ASP623  PHE694  ASN695  SER759  ASP760  ASP761  ALA762  ILE779  LEU786  VAL792 
 PHE793  MET794  SER795  GLU796  ALA797  LYS798  CYS799  TRP800  GLU811  SER814 

> <Gold.Protein.RotatedAtoms>
  150.9845  134.9193  159.7863 H   0  0  0  0  0  0  0  0  0  0  0  0  # atno 6907 bound_to 6896
  152.5232  134.3365  159.9212 H   0  0  0  0  0  0  0  0  0  0  0  0  # atno 6908 bound_to 6896
  151.3372  133.3936  159.2702 H   0  0  0  0  0  0  0  0  0  0  0  0  # atno 6909 bound_to 6896
  145.0333  139.4027  143.5139 H   0  0  0  0  0  0  0  0  0  0  0  0  # atno 7974 bound_to 7965
  154.4415  140.1894  156.0808 H   0  0  0  0  0  0  0  0  0  0  0  0  # atno 8008 bound_to 7997
  156.0440  140.3316  155.7249 H   0  0  0  0  0  0  0  0  0  0  0  0  # atno 8009 bound_to 7997
  155.5657  140.0608  157.2809 H   0  0  0  0  0  0  0  0  0  0  0  0  # atno 8010 bound_to 7997
  140.6848  143.6664  150.8222 H   0  0  0  0  0  0  0  0  0  0  0  0  # atno 10167 bound_to 10162
  157.6893  131.0122  150.2632 H   0  0  0  0  0  0  0  0  0  0  0  0  # atno 10718 bound_to 10713
  154.6550  135.5342  153.7947 H   0  0  0  0  0  0  0  0  0  0  0  0  # atno 10763 bound_to 10752
  153.0408  135.6491  154.0959 H   0  0  0  0  0  0  0  0  0  0  0  0  # atno 10764 bound_to 10752
  154.0873  135.2942  155.3258 H   0  0  0  0  0  0  0  0  0  0  0  0  # atno 10765 bound_to 10752
  140.1251  134.8838  157.2126 H   0  0  0  0  0  0  0  0  0  0  0  0  # atno 11005 bound_to 11000
  146.3501  139.9894  142.8687 LP  0  0  0  0  0  0  0  0  0  0  0  0  # atno 17320 bound_to 7965
  145.1743  140.9736  143.4303 LP  0  0  0  0  0  0  0  0  0  0  0  0  # atno 17321 bound_to 7965
  140.0369  143.5385  152.2735 LP  0  0  0  0  0  0  0  0  0  0  0  0  # atno 17342 bound_to 10162
  139.6199  144.7627  151.2764 LP  0  0  0  0  0  0  0  0  0  0  0  0  # atno 17343 bound_to 10162
  156.3208  130.3785  149.7577 LP  0  0  0  0  0  0  0  0  0  0  0  0  # atno 17370 bound_to 10713
  156.5148  130.8188  151.3182 LP  0  0  0  0  0  0  0  0  0  0  0  0  # atno 17371 bound_to 10713
  140.2914  134.3236  155.7314 LP  0  0  0  0  0  0  0  0  0  0  0  0  # atno 17394 bound_to 11000
  141.2159  133.7537  156.9509 LP  0  0  0  0  0  0  0  0  0  0  0  0  # atno 17395 bound_to 11000

$$$$
