AV-unprocessed.smi:1687|AV-procd|sdf|6768|dock10
  -GOLD-   22720 7533D 1   1.00000     0.00000
 Structure written by MMmdl.
 45 46  0  0  0  0  0  0  0  0  2 V2000
  151.0045  137.6172  157.0373 C   0  0  0  0  0  0  0  0  0  0  0  0
  150.8622  136.9350  155.6655 C   0  0  2  0  0  0  0  0  0  0  0  0
  151.2954  137.8465  154.5021 C   0  0  0  0  0  0  0  0  0  0  0  0
  150.2640  138.9518  154.2118 C   0  0  0  0  0  0  0  0  0  0  0  0
  148.9212  138.3691  153.9517 N   0  3  2  0  0  0  0  0  0  0  0  0
  147.9364  139.3573  153.4209 C   0  0  2  0  0  0  0  0  0  0  0  0
  147.7855  140.5976  154.3294 C   0  0  0  0  0  0  0  0  0  0  0  0
  146.5946  138.6595  153.0991 C   0  0  0  0  0  0  0  0  0  0  0  0
  146.7767  137.3271  152.5290 N   0  0  0  0  0  0  0  0  0  0  0  0
  145.7962  136.4427  152.2916 C   0  0  0  0  0  0  0  0  0  0  0  0
  144.6081  136.6707  152.5219 O   0  0  0  0  0  0  0  0  0  0  0  0
  146.2842  135.3032  151.7707 N   0  0  0  0  0  0  0  0  0  0  0  0
  145.5695  134.1382  151.3841 C   0  0  0  0  0  0  0  0  0  0  0  0
  146.3730  133.0136  151.0897 C   0  0  0  0  0  0  0  0  0  0  0  0
  145.7599  131.8073  150.6992 C   0  0  0  0  0  0  0  0  0  0  0  0
  144.3573  131.7571  150.6125 C   0  0  0  0  0  0  0  0  0  0  0  0
  143.6316  132.9221  150.9217 C   0  0  0  0  0  0  0  0  0  0  0  0
  144.2171  134.0793  151.2961 N   0  0  0  0  0  0  0  0  0  0  0  0
  148.4457  137.5468  155.0983 C   0  0  0  0  0  0  0  0  0  0  0  0
  149.4373  136.4103  155.4057 C   0  0  0  0  0  0  0  0  0  0  0  0
  150.3726  138.5005  157.1260 H   0  0  0  0  0  0  0  0  0  0  0  0
  152.0339  137.9309  157.2118 H   0  0  0  0  0  0  0  0  0  0  0  0
  150.7313  136.9349  157.8429 H   0  0  0  0  0  0  0  0  0  0  0  0
  151.5328  136.0747  155.6779 H   0  0  0  0  0  0  0  0  0  0  0  0
  152.2708  138.2880  154.7102 H   0  0  0  0  0  0  0  0  0  0  0  0
  151.4248  137.2402  153.6044 H   0  0  0  0  0  0  0  0  0  0  0  0
  150.2128  139.6534  155.0447 H   0  0  0  0  0  0  0  0  0  0  0  0
  150.5964  139.5211  153.3432 H   0  0  0  0  0  0  0  0  0  0  0  0
  148.3243  139.7105  152.4641 H   0  0  0  0  0  0  0  0  0  0  0  0
  147.2108  141.3809  153.8352 H   0  0  0  0  0  0  0  0  0  0  0  0
  148.7519  141.0321  154.5834 H   0  0  0  0  0  0  0  0  0  0  0  0
  147.2696  140.3574  155.2596 H   0  0  0  0  0  0  0  0  0  0  0  0
  146.0158  138.5440  154.0162 H   0  0  0  0  0  0  0  0  0  0  0  0
  145.9825  139.2708  152.4352 H   0  0  0  0  0  0  0  0  0  0  0  0
  147.7231  137.0540  152.3076 H   0  0  0  0  0  0  0  0  0  0  0  0
  147.2833  135.2630  151.6339 H   0  0  0  0  0  0  0  0  0  0  0  0
  147.4497  133.0691  151.1621 H   0  0  0  0  0  0  0  0  0  0  0  0
  146.3563  130.9363  150.4710 H   0  0  0  0  0  0  0  0  0  0  0  0
  143.8510  130.8499  150.3173 H   0  0  0  0  0  0  0  0  0  0  0  0
  142.5530  132.9256  150.8677 H   0  0  0  0  0  0  0  0  0  0  0  0
  148.3149  138.1717  155.9823 H   0  0  0  0  0  0  0  0  0  0  0  0
  147.4716  137.1127  154.8758 H   0  0  0  0  0  0  0  0  0  0  0  0
  149.4583  135.7213  154.5600 H   0  0  0  0  0  0  0  0  0  0  0  0
  149.0876  135.8284  156.2594 H   0  0  0  0  0  0  0  0  0  0  0  0
  149.0660  137.7190  153.1926 H   0  0  0  0  0  0  0  0  0  0  0  0
  1  2  1  0  0  0  0
  1 21  1  0  0  0  0
  1 22  1  0  0  0  0
  1 23  1  0  0  0  0
  2 20  1  0  0  0  0
  2  3  1  0  0  0  0
  2 24  1  0  0  0  0
  3  4  1  0  0  0  0
  3 25  1  0  0  0  0
  3 26  1  0  0  0  0
  4  5  1  0  0  0  0
  4 27  1  0  0  0  0
  4 28  1  0  0  0  0
  5  6  1  0  0  0  0
  5 19  1  0  0  0  0
  5 45  1  0  0  0  0
  6  7  1  0  0  0  0
  6  8  1  0  0  0  0
  6 29  1  0  0  0  0
  7 30  1  0  0  0  0
  7 31  1  0  0  0  0
  7 32  1  0  0  0  0
  8  9  1  0  0  0  0
  8 33  1  0  0  0  0
  8 34  1  0  0  0  0
  9 10  1  0  0  0  0
  9 35  1  0  0  0  0
 10 11  2  0  0  0  0
 10 12  1  0  0  0  0
 12 13  1  0  0  0  0
 12 36  1  0  0  0  0
 13 18  1  0  0  0  0
 13 14  2  0  0  0  0
 14 15  1  0  0  0  0
 14 37  1  0  0  0  0
 15 16  2  0  0  0  0
 15 38  1  0  0  0  0
 16 17  1  0  0  0  0
 16 39  1  0  0  0  0
 17 18  2  0  0  0  0
 17 40  1  0  0  0  0
 19 20  1  0  0  0  0
 19 41  1  0  0  0  0
 19 42  1  0  0  0  0
 20 43  1  0  0  0  0
 20 44  1  0  0  0  0
M  CHG  1   5   1
M  END
> <s_m_source_file>
AV-unprocessed.smi

> <i_m_source_file_index>
1687

> <i_lp_mmshare_version>
43012

> <i_f3d_flags>
0

> <s_epik_input>
W0NIM11bQ0hdMVtDSDJdW0NIMl1OKFtDSDJdW0NIMl0xKVtDQEhdKFtDSDNdKVtDSDJdW05IXUMoPU8pW05IXWMyW2NIXVtjSF1bY0hdW2NIXW4y

> <s_epik_cmdline>
J2VwaWtfcHl0aG9uJywgJy1waCcsICc3LjAnLCAnLXRuJywgJzgnLCAnLW1hJywgJzIwMCcsICctbWV0YWxfYmluZGluZycsICctaW1hZScsICc8aW5maWxlLm1hZT4nLCAnLW9tYWUnLCAnPG91dGZpbGUubWFlPic=

> <r_epik_Ionization_Penalty>
0.00142891

> <r_epik_Ionization_Penalty_Charging>
0.00139388

> <r_epik_Ionization_Penalty_Neutral>
3.50347e-05

> <r_epik_State_Penalty>
0.000929204

> <r_epik_Charging_Adjusted_Penalty>
0.00232308

> <i_epik_Tot_Q>
1

> <i_epik_Tot_abs_Q>
1

> <r_epik_Metal_State_Penalty>
-0

> <b_epik_Metal_Only>
0

> <s_lp_Force_Field>
OPLS_2005

> <r_lp_Energy>
23.5172

> <b_lp_Chiralities_Consistent>
1

> <s_lp_Variant>
AV-unprocessed.smi:1687-3

> <Gold.Version>
5.8.1

> <Gold.Id.Protein>
6NUR|6NUR_protein|mol2

> <Gold.PLP.Fitness>
47.0887

> <Gold.PLP.PLP>
-32.7745

> <Gold.PLP.part.hbond>
-3.1832

> <Gold.PLP.part.metal>
0.0000

> <Gold.PLP.part.buried>
-3.7692

> <Gold.PLP.part.nonpolar>
-27.1782

> <Gold.PLP.part.repulsive>
0.4658

> <Gold.PLP.ligand.clash>
0.0000

> <Gold.PLP.ligand.torsion>
0.2973

> <Gold.PLP.Chemscore.Hbond>
3.9280

> <Gold.PLP.Chemscore.CHOScore>
1.0000

> <Gold.PLP.Chemscore.Metal>
0.0000

> <Gold.Chemscore.Hbonds>
donor molecule, donor type, donor heavy atom, donor atom, acceptor molecule, acceptor atom, score
      L1  H     5    45       P1  7948  2.00
      L1  H     9    35       P1  7948  1.00
      L1  H    12    36       P1  7948  0.93
      L1  C    17    40       P1 10186  1.00

> <Gold.PLP.Chemscore.Internal.Correction>
0.1247

> <Gold.Rescore>
     Score         DG    S(hbond)    S(metal)    S(lipo)     H(rot)  DE(clash)    DE(int)     intcor
     19.52     -21.12       2.86        0.00      84.81       1.50       0.08       1.52       ----

> <Gold.Chemscore.Fitness>
19.5234

> <Gold.Chemscore.DG>
-21.1165

> <Gold.Chemscore.ZeroCoef>
-5.4800

> <Gold.Chemscore.Hbond>
2.8571

> <Gold.Chemscore.Metal>
0.0000

> <Gold.Chemscore.Lipo>
84.8081

> <Gold.Chemscore.Internal_Hbond>
0.0000

> <Gold.Chemscore.DEClash>
0.0757

> <Gold.Chemscore.DEInternal>
1.5175

> <Gold.Chemscore.Rot>
1.4956

> <Gold.Chemscore.Internal.Correction>
   9.000000E+99

> <Gold.Chemscore.Hbonds>
donor molecule, donor type, donor heavy atom, donor atom, acceptor molecule, acceptor atom, score
      L1  H     5    45       P1  7948  0.98
      L1  H     9    35       P1  7948  0.93
      L1  H    12    36       P1  7948  0.84

> <Gold.Chemscore.Hbond.Weighted>
-9.5429

> <Gold.Chemscore.Metal.Weighted>
-0.0000

> <Gold.Chemscore.Lipo.Weighted>
-9.9226

> <Gold.Chemscore.Internal_Hbond.Weighted>
0.0000

> <Gold.Chemscore.DEClash.Weighted>
0.0757

> <Gold.Chemscore.DEInternal.Weighted>
1.5175

> <Gold.Chemscore.Rot.Weighted>
3.8289

> <Gold.Chemscore.Internal.Correction.Weighted>
   9.000000E+99

> <Gold.Protein.RotatedTorsions>
[ 6907 6896 6895 6894 ] final -141.58 input  -60.11 | X-H torsion
[ 7974 7965 7964 7962 ] final  -52.86 input  175.53 | X-H torsion
[ 8008 7997 7996 7995 ] final  -56.53 input   59.86 | X-H torsion
[ 10167 10162 10161 10158 ] final   70.99 input  -65.29 | X-H torsion
[ 10718 10713 10712 10709 ] final   25.86 input   66.30 | X-H torsion
[ 10763 10752 10751 10750 ] final -137.86 input  -60.55 | X-H torsion
[ 11005 11000 10999 10996 ] final  142.18 input  -57.11 | X-H torsion

> <Gold.Protein.ActiveResidues>
 VAL166  LYS551  ARG553  GLY616  TRP617  ASP618  TYR619  PRO620  LYS621  CYS622 
 ASP623  PHE694  ASN695  SER759  ASP760  ASP761  ALA762  ILE779  LEU786  VAL792 
 PHE793  MET794  SER795  GLU796  ALA797  LYS798  CYS799  TRP800  GLU811  SER814 

> <Gold.Protein.RotatedAtoms>
  151.0757  133.5430  159.2623 H   0  0  0  0  0  0  0  0  0  0  0  0  # atno 6907 bound_to 6896
  151.2353  135.0568  159.9013 H   0  0  0  0  0  0  0  0  0  0  0  0  # atno 6908 bound_to 6896
  152.5417  134.0540  159.8176 H   0  0  0  0  0  0  0  0  0  0  0  0  # atno 6909 bound_to 6896
  145.9033  140.7976  142.9732 H   0  0  0  0  0  0  0  0  0  0  0  0  # atno 7974 bound_to 7965
  154.4233  140.1127  156.5652 H   0  0  0  0  0  0  0  0  0  0  0  0  # atno 8008 bound_to 7997
  155.6269  140.3495  155.4651 H   0  0  0  0  0  0  0  0  0  0  0  0  # atno 8009 bound_to 7997
  155.9979  140.1193  157.0565 H   0  0  0  0  0  0  0  0  0  0  0  0  # atno 8010 bound_to 7997
  140.0509  144.5312  150.7364 H   0  0  0  0  0  0  0  0  0  0  0  0  # atno 10167 bound_to 10162
  157.1990  130.6881  149.6180 H   0  0  0  0  0  0  0  0  0  0  0  0  # atno 10718 bound_to 10713
  154.8651  135.3629  154.5292 H   0  0  0  0  0  0  0  0  0  0  0  0  # atno 10763 bound_to 10752
  153.5918  135.7015  153.5425 H   0  0  0  0  0  0  0  0  0  0  0  0  # atno 10764 bound_to 10752
  153.3367  135.4109  155.1501 H   0  0  0  0  0  0  0  0  0  0  0  0  # atno 10765 bound_to 10752
  140.0457  134.9282  157.0925 H   0  0  0  0  0  0  0  0  0  0  0  0  # atno 11005 bound_to 11000
  144.6737  140.1711  143.7414 LP  0  0  0  0  0  0  0  0  0  0  0  0  # atno 17320 bound_to 7965
  145.8764  139.2299  143.1631 LP  0  0  0  0  0  0  0  0  0  0  0  0  # atno 17321 bound_to 7965
  140.7217  143.2595  151.4256 LP  0  0  0  0  0  0  0  0  0  0  0  0  # atno 17342 bound_to 10162
  139.5954  144.1410  152.2137 LP  0  0  0  0  0  0  0  0  0  0  0  0  # atno 17343 bound_to 10162
  155.9702  130.4589  150.6016 LP  0  0  0  0  0  0  0  0  0  0  0  0  # atno 17370 bound_to 10713
  157.3786  131.0777  151.1496 LP  0  0  0  0  0  0  0  0  0  0  0  0  # atno 17371 bound_to 10713
  140.3997  134.2095  155.7164 LP  0  0  0  0  0  0  0  0  0  0  0  0  # atno 17394 bound_to 11000
  141.1906  133.8214  157.0913 LP  0  0  0  0  0  0  0  0  0  0  0  0  # atno 17395 bound_to 11000

$$$$
