AV-unprocessed.smi:1389|AV-procd|sdf|5652|dock9
  -GOLD-   22720 5273D 1   1.00000     0.00000
 Structure written by MMmdl.
 53 55  0  0  0  0  0  0  0  0  3 V2000
  146.4722  133.9468  158.0911 C   0  0  0  0  0  0  0  0  0  0  0  0
  146.9838  135.2056  158.8352 C   0  0  2  0  0  0  0  0  0  0  0  0
  148.4693  135.4891  158.4755 C   0  0  0  0  0  0  0  0  0  0  0  0
  148.6659  136.7550  157.7710 N   0  0  0  0  0  0  0  0  0  0  0  0
  149.3894  137.7900  158.2231 C   0  0  0  0  0  0  0  0  0  0  0  0
  150.0062  137.7750  159.2881 O   0  0  0  0  0  0  0  0  0  0  0  0
  149.3375  138.8318  157.3763 N   0  0  0  0  0  0  0  0  0  0  0  0
  149.9520  140.1081  157.5236 C   0  0  0  0  0  0  0  0  0  0  0  0
  151.0300  140.3353  158.4169 C   0  0  0  0  0  0  0  0  0  0  0  0
  151.6081  141.6172  158.5029 C   0  0  0  0  0  0  0  0  0  0  0  0
  151.1082  142.6498  157.6887 C   0  0  0  0  0  0  0  0  0  0  0  0
  150.0920  142.3977  156.8371 N   0  3  0  0  0  0  0  0  0  0  0  0
  149.4998  141.1839  156.7172 C   0  0  0  0  0  0  0  0  0  0  0  0
  148.4514  141.0265  155.7940 N   0  0  0  0  0  0  0  0  0  0  0  0
  147.2616  141.8253  156.0399 C   0  0  0  0  0  0  0  0  0  0  0  0
  146.4639  141.7793  154.7344 C   0  0  0  0  0  0  0  0  0  0  0  0
  147.4956  141.4286  153.6552 C   0  0  0  0  0  0  0  0  0  0  0  0
  148.8189  141.2698  154.4093 C   0  0  0  0  0  0  0  0  0  0  0  0
  146.7917  135.1078  160.3225 N   0  3  0  0  0  0  0  0  0  0  0  0
  147.2433  133.8068  160.8922 C   0  0  0  0  0  0  0  0  0  0  0  0
  147.0012  133.7403  162.4091 C   0  0  0  0  0  0  0  0  0  0  0  0
  147.6735  134.8147  163.0456 O   0  0  0  0  0  0  0  0  0  0  0  0
  147.1672  136.0656  162.6090 C   0  0  0  0  0  0  0  0  0  0  0  0
  147.4011  136.2268  161.0969 C   0  0  0  0  0  0  0  0  0  0  0  0
  146.6412  134.0088  157.0171 H   0  0  0  0  0  0  0  0  0  0  0  0
  145.3963  133.8118  158.1957 H   0  0  0  0  0  0  0  0  0  0  0  0
  146.9682  133.0443  158.4498 H   0  0  0  0  0  0  0  0  0  0  0  0
  146.3859  136.0483  158.4845 H   0  0  0  0  0  0  0  0  0  0  0  0
  149.0800  135.5782  159.3715 H   0  0  0  0  0  0  0  0  0  0  0  0
  148.8831  134.6537  157.9080 H   0  0  0  0  0  0  0  0  0  0  0  0
  148.1947  136.8568  156.8837 H   0  0  0  0  0  0  0  0  0  0  0  0
  148.7144  138.7364  156.5877 H   0  0  0  0  0  0  0  0  0  0  0  0
  151.4335  139.5433  159.0291 H   0  0  0  0  0  0  0  0  0  0  0  0
  152.4279  141.8037  159.1814 H   0  0  0  0  0  0  0  0  0  0  0  0
  151.4910  143.6601  157.6875 H   0  0  0  0  0  0  0  0  0  0  0  0
  146.6862  141.4258  156.8757 H   0  0  0  0  0  0  0  0  0  0  0  0
  147.5283  142.8562  156.2767 H   0  0  0  0  0  0  0  0  0  0  0  0
  145.7004  141.0020  154.7841 H   0  0  0  0  0  0  0  0  0  0  0  0
  145.9610  142.7264  154.5367 H   0  0  0  0  0  0  0  0  0  0  0  0
  147.2199  140.4924  153.1682 H   0  0  0  0  0  0  0  0  0  0  0  0
  147.5648  142.1959  152.8837 H   0  0  0  0  0  0  0  0  0  0  0  0
  149.4100  142.1831  154.3277 H   0  0  0  0  0  0  0  0  0  0  0  0
  149.4125  140.4470  154.0098 H   0  0  0  0  0  0  0  0  0  0  0  0
  146.7101  132.9704  160.4459 H   0  0  0  0  0  0  0  0  0  0  0  0
  148.3039  133.6638  160.6794 H   0  0  0  0  0  0  0  0  0  0  0  0
  145.9342  133.7708  162.6369 H   0  0  0  0  0  0  0  0  0  0  0  0
  147.3834  132.8007  162.8084 H   0  0  0  0  0  0  0  0  0  0  0  0
  146.1064  136.1491  162.8513 H   0  0  0  0  0  0  0  0  0  0  0  0
  147.6791  136.8597  163.1531 H   0  0  0  0  0  0  0  0  0  0  0  0
  148.4707  136.2762  160.8874 H   0  0  0  0  0  0  0  0  0  0  0  0
  146.9663  137.1831  160.8103 H   0  0  0  0  0  0  0  0  0  0  0  0
  145.7965  135.1648  160.4863 H   0  0  0  0  0  0  0  0  0  0  0  0
  149.7521  143.1620  156.2530 H   0  0  0  0  0  0  0  0  0  0  0  0
  1  2  1  0  0  0  0
  1 25  1  0  0  0  0
  1 26  1  0  0  0  0
  1 27  1  0  0  0  0
  2  3  1  0  0  0  0
  2 19  1  0  0  0  0
  2 28  1  0  0  0  0
  3  4  1  0  0  0  0
  3 29  1  0  0  0  0
  3 30  1  0  0  0  0
  4  5  1  0  0  0  0
  4 31  1  0  0  0  0
  5  6  2  0  0  0  0
  5  7  1  0  0  0  0
  7  8  1  0  0  0  0
  7 32  1  0  0  0  0
  8 13  1  0  0  0  0
  8  9  2  0  0  0  0
  9 10  1  0  0  0  0
  9 33  1  0  0  0  0
 10 11  2  0  0  0  0
 10 34  1  0  0  0  0
 11 12  1  0  0  0  0
 11 35  1  0  0  0  0
 12 13  2  0  0  0  0
 12 53  1  0  0  0  0
 13 14  1  0  0  0  0
 14 18  1  0  0  0  0
 14 15  1  0  0  0  0
 15 16  1  0  0  0  0
 15 36  1  0  0  0  0
 15 37  1  0  0  0  0
 16 17  1  0  0  0  0
 16 38  1  0  0  0  0
 16 39  1  0  0  0  0
 17 18  1  0  0  0  0
 17 40  1  0  0  0  0
 17 41  1  0  0  0  0
 18 42  1  0  0  0  0
 18 43  1  0  0  0  0
 19 24  1  0  0  0  0
 19 20  1  0  0  0  0
 19 52  1  0  0  0  0
 20 21  1  0  0  0  0
 20 44  1  0  0  0  0
 20 45  1  0  0  0  0
 21 22  1  0  0  0  0
 21 46  1  0  0  0  0
 21 47  1  0  0  0  0
 22 23  1  0  0  0  0
 23 24  1  0  0  0  0
 23 48  1  0  0  0  0
 23 49  1  0  0  0  0
 24 50  1  0  0  0  0
 24 51  1  0  0  0  0
M  CHG  1  12   1
M  CHG  1  19   1
M  END
> <s_m_source_file>
AV-unprocessed.smi

> <i_m_source_file_index>
1389

> <i_lp_mmshare_version>
43012

> <i_f3d_flags>
0

> <s_epik_input>
W0NIMl0xW0NIMl1PW0NIMl1bQ0gyXU4xW0NASF0oW0NIM10pW0NIMl1bTkhdQyg9TylbTkhdYzJbY0hdW2NIXVtjSF1uYzJOM1tDSDJdW0NIMl1bQ0gyXVtDSDJdMw==

> <s_epik_cmdline>
J2VwaWtfcHl0aG9uJywgJy1waCcsICc3LjAnLCAnLXRuJywgJzgnLCAnLW1hJywgJzIwMCcsICctbWV0YWxfYmluZGluZycsICctaW1hZScsICc8aW5maWxlLm1hZT4nLCAnLW9tYWUnLCAnPG91dGZpbGUubWFlPic=

> <r_lp_tautomer_probability>
0.999994

> <r_epik_Ionization_Penalty>
1.80872

> <r_epik_Ionization_Penalty_Charging>
1.8087

> <r_epik_Ionization_Penalty_Neutral>
2.02981e-05

> <r_epik_State_Penalty>
1.84892

> <r_epik_Charging_Adjusted_Penalty>
3.65762

> <i_epik_Tot_Q>
2

> <i_epik_Tot_abs_Q>
2

> <r_epik_Metal_State_Penalty>
1.9311

> <b_epik_Metal_Only>
0

> <s_lp_Force_Field>
OPLS_2005

> <r_lp_Energy>
59.2072

> <b_lp_Chiralities_Consistent>
1

> <s_lp_Variant>
AV-unprocessed.smi:1389-7

> <Gold.Version>
5.8.1

> <Gold.Id.Protein>
6NUR|6NUR_protein|mol2

> <Gold.PLP.Fitness>
39.6354

> <Gold.PLP.PLP>
-35.5214

> <Gold.PLP.part.hbond>
-2.0000

> <Gold.PLP.part.metal>
0.0000

> <Gold.PLP.part.buried>
-7.2826

> <Gold.PLP.part.nonpolar>
-27.8353

> <Gold.PLP.part.repulsive>
0.2212

> <Gold.PLP.ligand.clash>
0.0000

> <Gold.PLP.ligand.torsion>
0.9820

> <Gold.PLP.Chemscore.Hbond>
2.0000

> <Gold.PLP.Chemscore.CHOScore>
0.0000

> <Gold.PLP.Chemscore.Metal>
0.0000

> <Gold.Chemscore.Hbonds>
donor molecule, donor type, donor heavy atom, donor atom, acceptor molecule, acceptor atom, score
      L1  H    12    53       P1  8028  2.00

> <Gold.PLP.Chemscore.Internal.Correction>
0.0780

> <Gold.Rescore>
     Score         DG    S(hbond)    S(metal)    S(lipo)     H(rot)  DE(clash)    DE(int)     intcor
     12.67     -14.80       0.98        0.00      88.20       1.66       0.02       2.11       ----

> <Gold.Chemscore.Fitness>
12.6725

> <Gold.Chemscore.DG>
-14.8031

> <Gold.Chemscore.ZeroCoef>
-5.4800

> <Gold.Chemscore.Hbond>
0.9755

> <Gold.Chemscore.Metal>
0.0000

> <Gold.Chemscore.Lipo>
88.2025

> <Gold.Chemscore.Internal_Hbond>
0.0000

> <Gold.Chemscore.DEClash>
0.0158

> <Gold.Chemscore.DEInternal>
2.1148

> <Gold.Chemscore.Rot>
1.6620

> <Gold.Chemscore.Internal.Correction>
   9.000000E+99

> <Gold.Chemscore.Hbonds>
donor molecule, donor type, donor heavy atom, donor atom, acceptor molecule, acceptor atom, score
      L1  H    12    53       P1  8028  1.00

> <Gold.Chemscore.Hbond.Weighted>
-3.2581

> <Gold.Chemscore.Metal.Weighted>
-0.0000

> <Gold.Chemscore.Lipo.Weighted>
-10.3197

> <Gold.Chemscore.Internal_Hbond.Weighted>
0.0000

> <Gold.Chemscore.DEClash.Weighted>
0.0158

> <Gold.Chemscore.DEInternal.Weighted>
2.1148

> <Gold.Chemscore.Rot.Weighted>
4.2547

> <Gold.Chemscore.Internal.Correction.Weighted>
   9.000000E+99

> <Gold.Protein.RotatedTorsions>
[ 6907 6896 6895 6894 ] final -107.51 input  -60.11 | X-H torsion
[ 7974 7965 7964 7962 ] final  127.75 input  175.53 | X-H torsion
[ 8008 7997 7996 7995 ] final  167.79 input   59.86 | X-H torsion
[ 10167 10162 10161 10158 ] final   30.96 input  -65.29 | X-H torsion
[ 10718 10713 10712 10709 ] final  171.13 input   66.30 | X-H torsion
[ 10763 10752 10751 10750 ] final -156.01 input  -60.55 | X-H torsion
[ 11005 11000 10999 10996 ] final -109.54 input  -57.11 | X-H torsion

> <Gold.Protein.ActiveResidues>
 VAL166  LYS551  ARG553  GLY616  TRP617  ASP618  TYR619  PRO620  LYS621  CYS622 
 ASP623  PHE694  ASN695  SER759  ASP760  ASP761  ALA762  ILE779  LEU786  VAL792 
 PHE793  MET794  SER795  GLU796  ALA797  LYS798  CYS799  TRP800  GLU811  SER814 

> <Gold.Protein.RotatedAtoms>
  150.7448  133.9815  159.3577 H   0  0  0  0  0  0  0  0  0  0  0  0  # atno 6907 bound_to 6896
  151.7757  135.0773  160.0376 H   0  0  0  0  0  0  0  0  0  0  0  0  # atno 6908 bound_to 6896
  152.3309  133.5920  159.5845 H   0  0  0  0  0  0  0  0  0  0  0  0  # atno 6909 bound_to 6896
  145.0471  139.3913  143.5072 H   0  0  0  0  0  0  0  0  0  0  0  0  # atno 7974 bound_to 7965
  156.1604  140.1607  156.8622 H   0  0  0  0  0  0  0  0  0  0  0  0  # atno 8008 bound_to 7997
  154.5155  140.0790  156.8108 H   0  0  0  0  0  0  0  0  0  0  0  0  # atno 8009 bound_to 7997
  155.3719  140.3400  155.4246 H   0  0  0  0  0  0  0  0  0  0  0  0  # atno 8010 bound_to 7997
  140.4632  144.0876  150.6218 H   0  0  0  0  0  0  0  0  0  0  0  0  # atno 10167 bound_to 10162
  156.9980  131.0167  151.2838 H   0  0  0  0  0  0  0  0  0  0  0  0  # atno 10718 bound_to 10713
  154.7745  135.3155  154.8121 H   0  0  0  0  0  0  0  0  0  0  0  0  # atno 10763 bound_to 10752
  153.8848  135.6831  153.4768 H   0  0  0  0  0  0  0  0  0  0  0  0  # atno 10764 bound_to 10752
  153.1365  135.4757  154.9366 H   0  0  0  0  0  0  0  0  0  0  0  0  # atno 10765 bound_to 10752
  141.0842  133.9168  157.2222 H   0  0  0  0  0  0  0  0  0  0  0  0  # atno 11005 bound_to 11000
  146.3515  140.0103  142.8668 LP  0  0  0  0  0  0  0  0  0  0  0  0  # atno 17320 bound_to 7965
  145.1573  140.9655  143.4397 LP  0  0  0  0  0  0  0  0  0  0  0  0  # atno 17321 bound_to 7965
  140.4068  143.2676  151.9881 LP  0  0  0  0  0  0  0  0  0  0  0  0  # atno 17342 bound_to 10162
  139.4809  144.5950  151.7706 LP  0  0  0  0  0  0  0  0  0  0  0  0  # atno 17343 bound_to 10162
  157.5411  130.8120  149.8030 LP  0  0  0  0  0  0  0  0  0  0  0  0  # atno 17370 bound_to 10713
  156.0182  130.3805  150.2045 LP  0  0  0  0  0  0  0  0  0  0  0  0  # atno 17371 bound_to 10713
  139.9658  135.0142  156.9384 LP  0  0  0  0  0  0  0  0  0  0  0  0  # atno 17394 bound_to 11000
  140.5401  134.0729  155.7339 LP  0  0  0  0  0  0  0  0  0  0  0  0  # atno 17395 bound_to 11000

$$$$
