#       Name:                AV-unprocessed.smi:258
#       Creating user name   scv26
#       Creation time:       Thu Mar 26 21:13:02 2020


#       File generated by GOLD software.
#

@<TRIPOS>MOLECULE
AV-unprocessed.smi:258
    69    72     1
SMALL
NO_CHARGES


@<TRIPOS>ATOM
      1 ****        -5.6379   4.1227   2.2112 O.3            1 S1                 0.0000
      2 ****        -5.7334   3.1945   1.1525 C.3            1 S1                 0.0000
      3 ****        -4.7461   3.5731   0.0378 C.3            1 S1                 0.0000
      4 ****        -4.9027   2.7246  -1.0926 O.3            1 S1                 0.0000
      5 ****        -4.2282   1.4745  -1.0134 C.3            1 S1                 0.0000
      6 ****        -4.9257   0.5036  -1.9797 C.3            1 S1                 0.0000
      7 ****        -4.1784  -0.8376  -2.0198 C.3            1 S1                 0.0000
      8 ****        -2.6979  -0.6306  -2.3777 C.3            1 S1                 0.0000
      9 ****        -2.0740   0.3390  -1.4776 N.3            1 S1                 0.0000
     10 ****        -0.7168   0.3330  -1.4960 C.ar           1 S1                 0.0000
     11 ****        -0.0379   1.4351  -1.9143 N.ar           1 S1                 0.0000
     12 ****         1.2979   1.4340  -1.9474 C.ar           1 S1                 0.0000
     13 ****         2.1398   0.4569  -1.6070 N.ar           1 S1                 0.0000
     14 ****         1.4668  -0.6477  -1.1757 C.ar           1 S1                 0.0000
     15 ****         0.0530  -0.7946  -1.0925 C.ar           1 S1                 0.0000
     16 ****        -0.2624  -2.0575  -0.6046 N.2            1 S1                 0.0000
     17 ****         0.8969  -2.6275  -0.4196 C.2            1 S1                 0.0000
     18 ****         1.9896  -1.8446  -0.7177 N.pl3          1 S1                 0.0000
     19 ****         3.3866  -2.2268  -0.6092 C.3            1 S1                 0.0000
     20 ****         4.2149  -1.4037   0.4171 C.3            1 S1                 0.0000
     21 ****         5.7015  -1.8263   0.3236 C.3            1 S1                 0.0000
     22 ****         6.2400  -1.5404  -0.9508 O.3            1 S1                 0.0000
     23 ****         3.6775  -1.5250   1.8750 C.3            1 S1                 0.0000
     24 ****         4.5632  -0.9033   2.9454 C.3            1 S1                 0.0000
     25 ****         3.6031  -0.7533   4.1153 C.3            1 S1                 0.0000
     26 ****         2.3828  -0.3550   3.5132 O.3            1 S1                 0.0000
     27 ****         2.3491  -0.8013   2.1607 C.3            1 S1                 0.0000
     28 ****        -2.7445   1.6388  -1.4017 C.3            1 S1                 0.0000
     29 ****        -4.7598   4.0922   2.5589 H              1 S1                 0.0000
     30 ****        -5.5337   2.1965   1.5412 H              1 S1                 0.0000
     31 ****        -6.7550   3.1979   0.7722 H              1 S1                 0.0000
     32 ****        -4.9572   4.5907  -0.2923 H              1 S1                 0.0000
     33 ****        -3.7186   3.5743   0.4027 H              1 S1                 0.0000
     34 ****        -4.2981   1.0619  -0.0061 H              1 S1                 0.0000
     35 ****        -5.9610   0.3477  -1.6746 H              1 S1                 0.0000
     36 ****        -4.9560   0.9356  -2.9809 H              1 S1                 0.0000
     37 ****        -4.2534  -1.3279  -1.0484 H              1 S1                 0.0000
     38 ****        -4.6467  -1.5060  -2.7424 H              1 S1                 0.0000
     39 ****        -2.1838  -1.5906  -2.3490 H              1 S1                 0.0000
     40 ****        -2.6121  -0.2620  -3.4007 H              1 S1                 0.0000
     41 ****         1.7576   2.3471  -2.2961 H              1 S1                 0.0000
     42 ****         0.9867  -3.6366  -0.0443 H              1 S1                 0.0000
     43 ****         3.4361  -3.2869  -0.3573 H              1 S1                 0.0000
     44 ****         3.8133  -2.1337  -1.6081 H              1 S1                 0.0000
     45 ****         4.1681  -0.3508   0.1363 H              1 S1                 0.0000
     46 ****         6.3171  -1.2879   1.0429 H              1 S1                 0.0000
     47 ****         5.8169  -2.8899   0.5345 H              1 S1                 0.0000
     48 ****         7.1499  -1.7960  -0.9579 H              1 S1                 0.0000
     49 ****         3.5554  -2.5809   2.1217 H              1 S1                 0.0000
     50 ****         5.4266  -1.5178   3.2018 H              1 S1                 0.0000
     51 ****         4.9194   0.0778   2.6274 H              1 S1                 0.0000
     52 ****         3.4573  -1.7107   4.6174 H              1 S1                 0.0000
     53 ****         3.9445  -0.0268   4.8528 H              1 S1                 0.0000
     54 ****         2.2266   0.0747   1.5231 H              1 S1                 0.0000
     55 ****         1.4890  -1.4523   2.0103 H              1 S1                 0.0000
     56 ****        -2.6674   2.1380  -2.3687 H              1 S1                 0.0000
     57 ****        -2.2364   2.2697  -0.6719 H              1 S1                 0.0000
     58 ****        -6.2930   3.8848   2.9283 LP             1 S1                 0.0000
     59 ****        -5.8345   5.0426   1.8719 LP             1 S1                 0.0000
     60 ****        -4.5571   3.2117  -1.8946 LP             1 S1                 0.0000
     61 ****        -5.8790   2.5419  -1.2087 LP             1 S1                 0.0000
     62 ****        -2.2579  -0.0115  -0.5592 LP             1 S1                 0.0000
     63 ****        -0.5415   2.2509  -2.1987 LP             1 S1                 0.0000
     64 ****         3.1359   0.5256  -1.6611 LP             1 S1                 0.0000
     65 ****        -1.1700  -2.4414  -0.4343 LP             1 S1                 0.0000
     66 ****         6.1637  -0.5608  -1.1367 LP             1 S1                 0.0000
     67 ****         5.7408  -2.0522  -1.6500 LP             1 S1                 0.0000
     68 ****         2.3100   0.6420   3.5366 LP             1 S1                 0.0000
     69 ****         1.6171  -0.7569   4.0155 LP             1 S1                 0.0000
@<TRIPOS>BOND
    1    1    2 1     
    2    1   29 1     
    3    2    3 1     
    4    2   30 1     
    5    2   31 1     
    6    3    4 1     
    7    3   32 1     
    8    3   33 1     
    9    4    5 1     
   10    5   28 1     
   11    5    6 1     
   12    5   34 1     
   13    6    7 1     
   14    6   35 1     
   15    6   36 1     
   16    7    8 1     
   17    7   37 1     
   18    7   38 1     
   19    8    9 1     
   20    8   39 1     
   21    8   40 1     
   22    9   10 1     
   23    9   28 1     
   24   10   15 ar    
   25   10   11 ar    
   26   11   12 ar    
   27   12   13 ar    
   28   12   41 1     
   29   13   14 ar    
   30   14   18 1     
   31   14   15 ar    
   32   15   16 1     
   33   16   17 2     
   34   17   18 1     
   35   17   42 1     
   36   18   19 1     
   37   19   20 1     
   38   19   43 1     
   39   19   44 1     
   40   20   21 1     
   41   20   23 1     
   42   20   45 1     
   43   21   22 1     
   44   21   46 1     
   45   21   47 1     
   46   22   48 1     
   47   23   27 1     
   48   23   24 1     
   49   23   49 1     
   50   24   25 1     
   51   24   50 1     
   52   24   51 1     
   53   25   26 1     
   54   25   52 1     
   55   25   53 1     
   56   26   27 1     
   57   27   54 1     
   58   27   55 1     
   59   28   56 1     
   60   28   57 1     
   61    1   58 1     
   62    1   59 1     
   63    4   60 1     
   64    4   61 1     
   65    9   62 1     
   66   11   63 1     
   67   13   64 1     
   68   16   65 1     
   69   22   66 1     
   70   22   67 1     
   71   26   68 1     
   72   26   69 1     
@<TRIPOS>SUBSTRUCTURE
      1 S1             1
@<TRIPOS>SET
LONE_PAIRS      STATIC     ATOMS    <user>   **** ""
12 58 59 60 61 62 63 64 65 66 67 68 69
DONOR_HYDROGENS      STATIC     ATOMS    <user>   **** ""
2 29 48
ATOM$BLUE        STATIC     ATOMS    COLORGROUP SYSTEM
12 58 59 60 61 62 63 64 65 66 67 68 69
ATOM$RED        STATIC     ATOMS    COLORGROUP SYSTEM
2 29 48
