AV-unprocessed.smi:995|AV-procd|sdf|4345|dock10
  -GOLD-   22720 2243D 1   1.00000     0.00000
 Structure written by MMmdl.
 37 38  0  0  0  0  0  0  0  0  1 V2000
  145.4342  133.5309  153.5602 O   0  0  0  0  0  0  0  0  0  0  0  0
  146.3420  133.9943  152.8705 C   0  0  0  0  0  0  0  0  0  0  0  0
  147.4780  134.5269  153.3590 N   0  0  0  0  0  0  0  0  0  0  0  0
  147.8981  134.6714  154.7098 C   0  0  0  0  0  0  0  0  0  0  0  0
  149.0718  135.3467  155.1234 C   0  0  0  0  0  0  0  0  0  0  0  0
  149.3718  135.4104  156.4978 C   0  0  0  0  0  0  0  0  0  0  0  0
  148.4999  134.7931  157.4162 C   0  0  0  0  0  0  0  0  0  0  0  0
  148.7978  134.8668  158.7614 O   0  0  0  0  0  0  0  0  0  0  0  0
  147.9152  134.2408  159.6892 C   0  0  0  0  0  0  0  0  0  0  0  0
  147.2414  135.3174  160.5529 C   0  0  0  0  0  0  0  0  0  0  0  0
  148.1699  136.1527  161.0208 F   0  0  0  0  0  0  0  0  0  0  0  0
  146.3836  135.9895  159.7839 F   0  0  0  0  0  0  0  0  0  0  0  0
  146.4607  134.7180  161.7337 C   0  0  0  0  0  0  0  0  0  0  0  0
  147.2450  133.9476  162.4881 F   0  0  0  0  0  0  0  0  0  0  0  0
  145.9297  135.6816  162.4865 F   0  0  0  0  0  0  0  0  0  0  0  0
  147.3831  134.1310  157.0266 N   0  0  0  0  0  0  0  0  0  0  0  0
  147.1004  134.0754  155.7085 C   0  0  0  0  0  0  0  0  0  0  0  0
  146.2314  133.9888  151.3335 C   0  0  2  0  0  0  0  0  0  0  0  0
  145.0160  134.7638  150.7713 C   0  0  0  0  0  0  0  0  0  0  0  0
  143.8096  134.0601  151.0437 O   0  0  0  0  0  0  0  0  0  0  0  0
  143.8247  132.7612  150.4691 C   0  0  0  0  0  0  0  0  0  0  0  0
  144.9882  131.9596  151.0737 C   0  0  0  0  0  0  0  0  0  0  0  0
  146.2099  132.6518  150.8257 O   0  0  0  0  0  0  0  0  0  0  0  0
  148.1534  134.8162  152.6661 H   0  0  0  0  0  0  0  0  0  0  0  0
  149.7523  135.8072  154.4253 H   0  0  0  0  0  0  0  0  0  0  0  0
  150.2577  135.9235  156.8417 H   0  0  0  0  0  0  0  0  0  0  0  0
  147.1505  133.6699  159.1594 H   0  0  0  0  0  0  0  0  0  0  0  0
  148.4725  133.5485  160.3225 H   0  0  0  0  0  0  0  0  0  0  0  0
  145.6385  134.0915  161.3866 H   0  0  0  0  0  0  0  0  0  0  0  0
  146.2014  133.5382  155.4435 H   0  0  0  0  0  0  0  0  0  0  0  0
  147.1398  134.4618  150.9590 H   0  0  0  0  0  0  0  0  0  0  0  0
  144.9538  135.7638  151.2023 H   0  0  0  0  0  0  0  0  0  0  0  0
  145.1228  134.9010  149.6942 H   0  0  0  0  0  0  0  0  0  0  0  0
  142.8758  132.2676  150.6797 H   0  0  0  0  0  0  0  0  0  0  0  0
  143.9188  132.8281  149.3841 H   0  0  0  0  0  0  0  0  0  0  0  0
  144.8358  131.8004  152.1419 H   0  0  0  0  0  0  0  0  0  0  0  0
  145.0437  130.9725  150.6147 H   0  0  0  0  0  0  0  0  0  0  0  0
  1  2  2  0  0  0  0
  2  3  1  0  0  0  0
  2 18  1  0  0  0  0
  3  4  1  0  0  0  0
  3 24  1  0  0  0  0
  4 17  1  0  0  0  0
  4  5  2  0  0  0  0
  5  6  1  0  0  0  0
  5 25  1  0  0  0  0
  6  7  2  0  0  0  0
  6 26  1  0  0  0  0
  7  8  1  0  0  0  0
  7 16  1  0  0  0  0
  8  9  1  0  0  0  0
  9 10  1  0  0  0  0
  9 27  1  0  0  0  0
  9 28  1  0  0  0  0
 10 11  1  0  0  0  0
 10 12  1  0  0  0  0
 10 13  1  0  0  0  0
 13 14  1  0  0  0  0
 13 15  1  0  0  0  0
 13 29  1  0  0  0  0
 16 17  2  0  0  0  0
 17 30  1  0  0  0  0
 18 23  1  0  0  0  0
 18 19  1  0  0  0  0
 18 31  1  0  0  0  0
 19 20  1  0  0  0  0
 19 32  1  0  0  0  0
 19 33  1  0  0  0  0
 20 21  1  0  0  0  0
 21 22  1  0  0  0  0
 21 34  1  0  0  0  0
 21 35  1  0  0  0  0
 22 23  1  0  0  0  0
 22 36  1  0  0  0  0
 22 37  1  0  0  0  0
M  END
> <s_m_source_file>
AV-unprocessed.smi

> <i_m_source_file_index>
995

> <i_lp_mmshare_version>
43012

> <i_f3d_flags>
0

> <s_epik_input>
TzFbQ0gyXVtDSDJdT1tDSDJdW0NASF0xQyg9TylbTkhdYzJbY0hdW2NIXWMobltjSF0yKU9bQ0gyXUMoRikoRilbQ0hdKEYpRg==

> <s_epik_cmdline>
J2VwaWtfcHl0aG9uJywgJy1waCcsICc3LjAnLCAnLXRuJywgJzgnLCAnLW1hJywgJzIwMCcsICctbWV0YWxfYmluZGluZycsICctaW1hZScsICc8aW5maWxlLm1hZT4nLCAnLW9tYWUnLCAnPG91dGZpbGUubWFlPic=

> <r_lp_tautomer_probability>
1

> <r_epik_Ionization_Penalty>
2.54436e-06

> <r_epik_Ionization_Penalty_Charging>
0

> <r_epik_Ionization_Penalty_Neutral>
2.54436e-06

> <r_epik_State_Penalty>
-0

> <r_epik_Charging_Adjusted_Penalty>
0

> <i_epik_Tot_Q>
0

> <i_epik_Tot_abs_Q>
0

> <r_epik_Metal_State_Penalty>
-0

> <b_epik_Metal_Only>
0

> <s_lp_Force_Field>
OPLS_2005

> <r_lp_Energy>
9.34037

> <b_lp_Chiralities_Consistent>
1

> <s_lp_Variant>
AV-unprocessed.smi:995-1

> <Gold.Version>
5.8.1

> <Gold.Id.Protein>
6NUR|6NUR_protein|mol2

> <Gold.PLP.Fitness>
37.4065

> <Gold.PLP.PLP>
-32.4796

> <Gold.PLP.part.hbond>
-2.0000

> <Gold.PLP.part.metal>
0.0000

> <Gold.PLP.part.buried>
-5.7533

> <Gold.PLP.part.nonpolar>
-25.2904

> <Gold.PLP.part.repulsive>
0.4578

> <Gold.PLP.ligand.clash>
0.0000

> <Gold.PLP.ligand.torsion>
0.5044

> <Gold.PLP.Chemscore.Hbond>
1.9440

> <Gold.PLP.Chemscore.CHOScore>
0.0000

> <Gold.PLP.Chemscore.Metal>
0.0000

> <Gold.Chemscore.Hbonds>
donor molecule, donor type, donor heavy atom, donor atom, acceptor molecule, acceptor atom, score
      L1  H     3    24       P1  7948  0.94
      P1  H  6896  6907       L1     8  1.00

> <Gold.PLP.Chemscore.Internal.Correction>
0.1038

> <Gold.Rescore>
     Score         DG    S(hbond)    S(metal)    S(lipo)     H(rot)  DE(clash)    DE(int)     intcor
      8.30     -11.91       1.72        0.00      52.06       2.12       0.00       3.60       ----

> <Gold.Chemscore.Fitness>
8.3019

> <Gold.Chemscore.DG>
-11.9069

> <Gold.Chemscore.ZeroCoef>
-5.4800

> <Gold.Chemscore.Hbond>
1.7233

> <Gold.Chemscore.Metal>
0.0000

> <Gold.Chemscore.Lipo>
52.0613

> <Gold.Chemscore.Internal_Hbond>
0.0000

> <Gold.Chemscore.DEClash>
0.0025

> <Gold.Chemscore.DEInternal>
3.6025

> <Gold.Chemscore.Rot>
2.1172

> <Gold.Chemscore.Internal.Correction>
   9.000000E+99

> <Gold.Chemscore.Hbonds>
donor molecule, donor type, donor heavy atom, donor atom, acceptor molecule, acceptor atom, score
      L1  H     3    24       P1  7948  0.64
      P1  H  6896  6907       L1     8  0.37

> <Gold.Chemscore.Hbond.Weighted>
-5.7557

> <Gold.Chemscore.Metal.Weighted>
-0.0000

> <Gold.Chemscore.Lipo.Weighted>
-6.0912

> <Gold.Chemscore.Internal_Hbond.Weighted>
0.0000

> <Gold.Chemscore.DEClash.Weighted>
0.0025

> <Gold.Chemscore.DEInternal.Weighted>
3.6025

> <Gold.Chemscore.Rot.Weighted>
5.4200

> <Gold.Chemscore.Internal.Correction.Weighted>
   9.000000E+99

> <Gold.Protein.RotatedTorsions>
[ 6907 6896 6895 6894 ] final  -79.27 input  -60.11 | X-H torsion
[ 7974 7965 7964 7962 ] final   -2.18 input  175.53 | X-H torsion
[ 8008 7997 7996 7995 ] final -101.66 input   59.86 | X-H torsion
[ 10167 10162 10161 10158 ] final  176.13 input  -65.29 | X-H torsion
[ 10718 10713 10712 10709 ] final  118.36 input   66.30 | X-H torsion
[ 10763 10752 10751 10750 ] final   23.11 input  -60.55 | X-H torsion
[ 11005 11000 10999 10996 ] final   84.58 input  -57.11 | X-H torsion

> <Gold.Protein.ActiveResidues>
 VAL166  LYS551  ARG553  GLY616  TRP617  ASP618  TYR619  PRO620  LYS621  CYS622 
 ASP623  PHE694  ASN695  SER759  ASP760  ASP761  ALA762  ILE779  LEU786  VAL792 
 PHE793  MET794  SER795  GLU796  ALA797  LYS798  CYS799  TRP800  GLU811  SER814 

> <Gold.Protein.RotatedAtoms>
  150.6953  134.4147  159.5177 H   0  0  0  0  0  0  0  0  0  0  0  0  # atno 6907 bound_to 6896
  152.1899  134.8678  160.0527 H   0  0  0  0  0  0  0  0  0  0  0  0  # atno 6908 bound_to 6896
  151.9637  133.3668  159.4082 H   0  0  0  0  0  0  0  0  0  0  0  0  # atno 6909 bound_to 6896
  146.2408  140.1532  142.8333 H   0  0  0  0  0  0  0  0  0  0  0  0  # atno 7974 bound_to 7965
  154.8458  140.0433  157.1571 H   0  0  0  0  0  0  0  0  0  0  0  0  # atno 8008 bound_to 7997
  154.8997  140.2998  155.5304 H   0  0  0  0  0  0  0  0  0  0  0  0  # atno 8009 bound_to 7997
  156.2994  140.2378  156.4023 H   0  0  0  0  0  0  0  0  0  0  0  0  # atno 8010 bound_to 7997
  139.5203  144.2951  152.0429 H   0  0  0  0  0  0  0  0  0  0  0  0  # atno 10167 bound_to 10162
  157.6035  131.1047  150.7745 H   0  0  0  0  0  0  0  0  0  0  0  0  # atno 10718 bound_to 10713
  153.0863  135.6634  153.9942 H   0  0  0  0  0  0  0  0  0  0  0  0  # atno 10763 bound_to 10752
  153.9551  135.2980  155.3438 H   0  0  0  0  0  0  0  0  0  0  0  0  # atno 10764 bound_to 10752
  154.7271  135.5139  153.8977 H   0  0  0  0  0  0  0  0  0  0  0  0  # atno 10765 bound_to 10752
  139.8996  134.8227  156.2465 H   0  0  0  0  0  0  0  0  0  0  0  0  # atno 11005 bound_to 11000
  145.0151  140.8746  143.5201 LP  0  0  0  0  0  0  0  0  0  0  0  0  # atno 17320 bound_to 7965
  145.1571  139.2480  143.5411 LP  0  0  0  0  0  0  0  0  0  0  0  0  # atno 17321 bound_to 7965
  140.2400  144.4279  150.6264 LP  0  0  0  0  0  0  0  0  0  0  0  0  # atno 17342 bound_to 10162
  140.6297  143.2186  151.6522 LP  0  0  0  0  0  0  0  0  0  0  0  0  # atno 17343 bound_to 10162
  156.8138  130.4961  149.5352 LP  0  0  0  0  0  0  0  0  0  0  0  0  # atno 17370 bound_to 10713
  156.1115  130.6044  151.0054 LP  0  0  0  0  0  0  0  0  0  0  0  0  # atno 17371 bound_to 10713
  141.0251  133.7019  156.1334 LP  0  0  0  0  0  0  0  0  0  0  0  0  # atno 17394 bound_to 11000
  140.7177  134.4392  157.5577 LP  0  0  0  0  0  0  0  0  0  0  0  0  # atno 17395 bound_to 11000

$$$$
