AV-unprocessed.smi:109|AV-procd|sdf|1031|dock1
  -GOLD-   2262018 33D 1   1.00000     0.00000
 Structure written by MMmdl.
 58 61  0  0  0  0  0  0  0  0  1 V2000
  151.0668  139.9915  154.1411 O   0  0  0  0  0  0  0  0  0  0  0  0
  151.4859  139.2662  155.2768 C   0  0  0  0  0  0  0  0  0  0  0  0
  151.8834  140.2381  156.4012 C   0  0  0  0  0  0  0  0  0  0  0  0
  150.7169  140.6325  157.3402 C   0  0  2  0  0  0  0  0  0  0  0  0
  149.5019  140.8370  156.5479 N   0  0  0  0  0  0  0  0  0  0  0  0
  148.4281  140.0210  156.6464 C   0  0  0  0  0  0  0  0  0  0  0  0
  147.3310  140.1913  155.8638 N   0  0  0  0  0  0  0  0  0  0  0  0
  146.2852  139.3694  155.9881 C   0  0  0  0  0  0  0  0  0  0  0  0
  146.1323  138.3349  156.8170 N   0  0  0  0  0  0  0  0  0  0  0  0
  147.2308  138.1582  157.6069 C   0  0  0  0  0  0  0  0  0  0  0  0
  148.4101  138.9537  157.5810 C   0  0  0  0  0  0  0  0  0  0  0  0
  149.3168  138.4819  158.5210 N   0  0  0  0  0  0  0  0  0  0  0  0
  148.7051  137.4651  159.0669 C   0  0  0  0  0  0  0  0  0  0  0  0
  147.4442  137.2021  158.5791 N   0  0  0  0  0  0  0  0  0  0  0  0
  146.5114  136.1148  159.0048 C   0  0  2  0  0  0  0  0  0  0  0  0
  145.2891  136.6984  159.3365 O   0  0  0  0  0  0  0  0  0  0  0  0
  144.7703  136.0883  160.5123 C   0  0  2  0  0  0  0  0  0  0  0  0
  143.7970  137.0504  161.2107 C   0  0  0  0  0  0  0  0  0  0  0  0
  144.3910  138.3235  161.3489 O   0  0  0  0  0  0  0  0  0  0  0  0
  146.0366  135.8039  161.3217 C   0  0  1  0  0  0  0  0  0  0  0  0
  145.8404  134.8220  162.3224 O   0  0  0  0  0  0  0  0  0  0  0  0
  147.0440  135.3884  160.2512 C   0  0  1  0  0  0  0  0  0  0  0  0
  147.0619  133.9873  160.0467 O   0  0  0  0  0  0  0  0  0  0  0  0
  151.0027  141.9061  158.1874 C   0  0  0  0  0  0  0  0  0  0  0  0
  151.3683  143.1405  157.3246 C   0  0  0  0  0  0  0  0  0  0  0  0
  151.6933  144.3793  158.1761 C   0  0  0  0  0  0  0  0  0  0  0  0
  152.8164  144.0915  159.1794 C   0  0  0  0  0  0  0  0  0  0  0  0
  152.4530  142.8931  160.0635 C   0  0  0  0  0  0  0  0  0  0  0  0
  152.1392  141.6530  159.2124 C   0  0  0  0  0  0  0  0  0  0  0  0
  146.4115  135.4724  158.1284 H   0  0  0  0  0  0  0  0  0  0  0  0
  144.2821  135.1479  160.2475 H   0  0  0  0  0  0  0  0  0  0  0  0
  146.3796  136.7208  161.8011 H   0  0  0  0  0  0  0  0  0  0  0  0
  148.0539  135.7179  160.5001 H   0  0  0  0  0  0  0  0  0  0  0  0
  150.1690  139.7639  153.9538 H   0  0  0  0  0  0  0  0  0  0  0  0
  150.6717  138.6116  155.5879 H   0  0  0  0  0  0  0  0  0  0  0  0
  152.3294  138.6328  155.0005 H   0  0  0  0  0  0  0  0  0  0  0  0
  152.6702  139.7496  156.9734 H   0  0  0  0  0  0  0  0  0  0  0  0
  152.3287  141.1362  155.9707 H   0  0  0  0  0  0  0  0  0  0  0  0
  150.5787  139.8182  158.0510 H   0  0  0  0  0  0  0  0  0  0  0  0
  149.5100  141.6492  155.9475 H   0  0  0  0  0  0  0  0  0  0  0  0
  145.4527  139.5689  155.3298 H   0  0  0  0  0  0  0  0  0  0  0  0
  149.1605  136.8762  159.8498 H   0  0  0  0  0  0  0  0  0  0  0  0
  142.8954  137.1746  160.6104 H   0  0  0  0  0  0  0  0  0  0  0  0
  143.4878  136.6655  162.1830 H   0  0  0  0  0  0  0  0  0  0  0  0
  143.7689  138.9023  161.7624 H   0  0  0  0  0  0  0  0  0  0  0  0
  146.6270  134.3024  162.3892 H   0  0  0  0  0  0  0  0  0  0  0  0
  147.9503  133.7246  159.8593 H   0  0  0  0  0  0  0  0  0  0  0  0
  150.0969  142.1493  158.7454 H   0  0  0  0  0  0  0  0  0  0  0  0
  152.2209  142.9035  156.6868 H   0  0  0  0  0  0  0  0  0  0  0  0
  150.5480  143.4082  156.6606 H   0  0  0  0  0  0  0  0  0  0  0  0
  151.9792  145.2086  157.5286 H   0  0  0  0  0  0  0  0  0  0  0  0
  150.7985  144.7000  158.7111 H   0  0  0  0  0  0  0  0  0  0  0  0
  153.7448  143.8867  158.6445 H   0  0  0  0  0  0  0  0  0  0  0  0
  153.0008  144.9702  159.7981 H   0  0  0  0  0  0  0  0  0  0  0  0
  153.2732  142.6752  160.7481 H   0  0  0  0  0  0  0  0  0  0  0  0
  151.5900  143.1407  160.6828 H   0  0  0  0  0  0  0  0  0  0  0  0
  151.8792  140.8364  159.8861 H   0  0  0  0  0  0  0  0  0  0  0  0
  153.0419  141.3379  158.6867 H   0  0  0  0  0  0  0  0  0  0  0  0
  1  2  1  0  0  0  0
  1 34  1  0  0  0  0
  2  3  1  0  0  0  0
  2 35  1  0  0  0  0
  2 36  1  0  0  0  0
  3  4  1  0  0  0  0
  3 37  1  0  0  0  0
  3 38  1  0  0  0  0
  4  5  1  0  0  0  0
  4 24  1  0  0  0  0
  4 39  1  0  0  0  0
  5  6  1  0  0  0  0
  5 40  1  0  0  0  0
  6 11  1  0  0  0  0
  6  7  2  0  0  0  0
  7  8  1  0  0  0  0
  8  9  2  0  0  0  0
  8 41  1  0  0  0  0
  9 10  1  0  0  0  0
 10 14  1  0  0  0  0
 10 11  2  0  0  0  0
 11 12  1  0  0  0  0
 12 13  2  0  0  0  0
 13 14  1  0  0  0  0
 13 42  1  0  0  0  0
 14 15  1  0  0  0  0
 15 30  1  0  0  0  0
 15 22  1  0  0  0  0
 15 16  1  0  0  0  0
 16 17  1  0  0  0  0
 17 31  1  0  0  0  0
 17 18  1  0  0  0  0
 17 20  1  0  0  0  0
 18 19  1  0  0  0  0
 18 43  1  0  0  0  0
 18 44  1  0  0  0  0
 19 45  1  0  0  0  0
 20 32  1  0  0  0  0
 20 21  1  0  0  0  0
 20 22  1  0  0  0  0
 21 46  1  0  0  0  0
 22 33  1  0  0  0  0
 22 23  1  0  0  0  0
 23 47  1  0  0  0  0
 24 29  1  0  0  0  0
 24 25  1  0  0  0  0
 24 48  1  0  0  0  0
 25 26  1  0  0  0  0
 25 49  1  0  0  0  0
 25 50  1  0  0  0  0
 26 27  1  0  0  0  0
 26 51  1  0  0  0  0
 26 52  1  0  0  0  0
 27 28  1  0  0  0  0
 27 53  1  0  0  0  0
 27 54  1  0  0  0  0
 28 29  1  0  0  0  0
 28 55  1  0  0  0  0
 28 56  1  0  0  0  0
 29 57  1  0  0  0  0
 29 58  1  0  0  0  0
M  END
> <s_m_source_file>
AV-unprocessed.smi

> <i_m_source_file_index>
109

> <i_lp_mmshare_version>
43012

> <i_f3d_flags>
0

> <s_epik_input>
W0NIMl0xW0NIMl1bQ0gyXVtDSDJdW0NIMl1bQ0hdMVtDQEhdKFtDSDJdW0NIMl1bT0hdKVtOSF1jKG5bY0hdbjIpYyhjMjMpbltjSF1uM1tDQEBIXTRPW0NASF0oW0NIMl1bT0hdKVtDQEBIXShbT0hdKVtDQEhdNFtPSF0=

> <s_epik_cmdline>
J2VwaWtfcHl0aG9uJywgJy1waCcsICc3LjAnLCAnLXRuJywgJzgnLCAnLW1hJywgJzIwMCcsICctbWV0YWxfYmluZGluZycsICctaW1hZScsICc8aW5maWxlLm1hZT4nLCAnLW9tYWUnLCAnPG91dGZpbGUubWFlPic=

> <r_lp_tautomer_probability>
1

> <r_epik_Ionization_Penalty>
0.000793976

> <r_epik_Ionization_Penalty_Charging>
0

> <r_epik_Ionization_Penalty_Neutral>
0.000793976

> <r_epik_State_Penalty>
-0

> <r_epik_Charging_Adjusted_Penalty>
0

> <i_epik_Tot_Q>
0

> <i_epik_Tot_abs_Q>
0

> <r_epik_Metal_State_Penalty>
-0

> <b_epik_Metal_Only>
0

> <s_epik_Chemistry_Notes>
This compound contains an acetal/aminal-like group ( X-CH(R)-Y where X, Y are N, S, or O) that may be acid/base labile, releasing an aldehyde.

> <s_lp_Force_Field>
OPLS_2005

> <r_lp_Energy>
54.5538

> <b_lp_Chiralities_Consistent>
1

> <s_lp_Variant>
AV-unprocessed.smi:109-1

> <Gold.Version>
5.8.1

> <Gold.Id.Protein>
6NUR|6NUR_protein|mol2

> <Gold.PLP.Fitness>
47.2677

> <Gold.PLP.PLP>
-45.0315

> <Gold.PLP.part.hbond>
-3.4901

> <Gold.PLP.part.metal>
0.0000

> <Gold.PLP.part.buried>
-6.8304

> <Gold.PLP.part.nonpolar>
-34.4020

> <Gold.PLP.part.repulsive>
0.0218

> <Gold.PLP.ligand.clash>
0.0000

> <Gold.PLP.ligand.torsion>
0.5617

> <Gold.PLP.Chemscore.Hbond>
1.0000

> <Gold.PLP.Chemscore.CHOScore>
0.0000

> <Gold.PLP.Chemscore.Metal>
0.0000

> <Gold.Chemscore.Hbonds>
donor molecule, donor type, donor heavy atom, donor atom, acceptor molecule, acceptor atom, score
      P1  H  7989  7998       L1     1  0.23

> <Gold.PLP.Chemscore.Internal.Correction>
0.3597

> <Gold.Rescore>
     Score         DG    S(hbond)    S(metal)    S(lipo)     H(rot)  DE(clash)    DE(int)     intcor
      6.16      -8.08       1.02        0.00     112.70       5.47       0.04       1.88       ----

> <Gold.Chemscore.Fitness>
6.1600

> <Gold.Chemscore.DG>
-8.0806

> <Gold.Chemscore.ZeroCoef>
-5.4800

> <Gold.Chemscore.Hbond>
1.0205

> <Gold.Chemscore.Metal>
0.0000

> <Gold.Chemscore.Lipo>
112.6970

> <Gold.Chemscore.Internal_Hbond>
0.0000

> <Gold.Chemscore.DEClash>
0.0411

> <Gold.Chemscore.DEInternal>
1.8796

> <Gold.Chemscore.Rot>
5.4662

> <Gold.Chemscore.Internal.Correction>
   9.000000E+99

> <Gold.Chemscore.Hbonds>
donor molecule, donor type, donor heavy atom, donor atom, acceptor molecule, acceptor atom, score
      P1  H  7989  7998       L1     1  0.23

> <Gold.Chemscore.Hbond.Weighted>
-3.4086

> <Gold.Chemscore.Metal.Weighted>
-0.0000

> <Gold.Chemscore.Lipo.Weighted>
-13.1855

> <Gold.Chemscore.Internal_Hbond.Weighted>
0.0000

> <Gold.Chemscore.DEClash.Weighted>
0.0411

> <Gold.Chemscore.DEInternal.Weighted>
1.8796

> <Gold.Chemscore.Rot.Weighted>
13.9935

> <Gold.Chemscore.Internal.Correction.Weighted>
   9.000000E+99

> <Gold.Protein.RotatedTorsions>
[ 6907 6896 6895 6894 ] final   35.92 input  -60.11 | X-H torsion
[ 7974 7965 7964 7962 ] final  -48.99 input  175.53 | X-H torsion
[ 8008 7997 7996 7995 ] final   38.98 input   59.86 | X-H torsion
[ 10167 10162 10161 10158 ] final -150.27 input  -65.29 | X-H torsion
[ 10718 10713 10712 10709 ] final  -68.64 input   66.30 | X-H torsion
[ 10763 10752 10751 10750 ] final  -46.42 input  -60.55 | X-H torsion
[ 11005 11000 10999 10996 ] final  -28.22 input  -57.11 | X-H torsion

> <Gold.Protein.ActiveResidues>
 VAL166  LYS551  ARG553  GLY616  TRP617  ASP618  TYR619  PRO620  LYS621  CYS622 
 ASP623  PHE694  ASN695  SER759  ASP760  ASP761  ALA762  ILE779  LEU786  VAL792 
 PHE793  MET794  SER795  GLU796  ALA797  LYS798  CYS799  TRP800  GLU811  SER814 

> <Gold.Protein.RotatedAtoms>
  152.1227  134.9193  160.0562 H   0  0  0  0  0  0  0  0  0  0  0  0  # atno 6907 bound_to 6896
  152.0328  133.3939  159.4312 H   0  0  0  0  0  0  0  0  0  0  0  0  # atno 6908 bound_to 6896
  150.6850  134.3423  159.4917 H   0  0  0  0  0  0  0  0  0  0  0  0  # atno 6909 bound_to 6896
  145.9453  140.7623  142.9531 H   0  0  0  0  0  0  0  0  0  0  0  0  # atno 7974 bound_to 7965
  155.2292  140.3337  155.4305 H   0  0  0  0  0  0  0  0  0  0  0  0  # atno 8008 bound_to 7997
  156.2302  140.1847  156.7308 H   0  0  0  0  0  0  0  0  0  0  0  0  # atno 8009 bound_to 7997
  154.5965  140.0630  156.9295 H   0  0  0  0  0  0  0  0  0  0  0  0  # atno 8010 bound_to 7997
  139.7369  143.8722  152.2551 H   0  0  0  0  0  0  0  0  0  0  0  0  # atno 10167 bound_to 10162
  156.0495  130.4298  150.2031 H   0  0  0  0  0  0  0  0  0  0  0  0  # atno 10718 bound_to 10713
  154.0447  135.6639  153.4794 H   0  0  0  0  0  0  0  0  0  0  0  0  # atno 10763 bound_to 10752
  153.0487  135.5098  154.7808 H   0  0  0  0  0  0  0  0  0  0  0  0  # atno 10764 bound_to 10752
  154.6795  135.3042  154.9598 H   0  0  0  0  0  0  0  0  0  0  0  0  # atno 10765 bound_to 10752
  140.9189  133.7412  156.0773 H   0  0  0  0  0  0  0  0  0  0  0  0  # atno 11005 bound_to 11000
  144.6786  140.2347  143.7351 LP  0  0  0  0  0  0  0  0  0  0  0  0  # atno 17320 bound_to 7965
  145.8244  139.2058  143.1919 LP  0  0  0  0  0  0  0  0  0  0  0  0  # atno 17321 bound_to 7965
  139.8661  144.7092  150.9042 LP  0  0  0  0  0  0  0  0  0  0  0  0  # atno 17342 bound_to 10162
  140.7780  143.3776  151.1534 LP  0  0  0  0  0  0  0  0  0  0  0  0  # atno 17343 bound_to 10162
  157.0116  130.9952  151.3364 LP  0  0  0  0  0  0  0  0  0  0  0  0  # atno 17370 bound_to 10713
  157.5406  130.8117  149.8024 LP  0  0  0  0  0  0  0  0  0  0  0  0  # atno 17371 bound_to 10713
  140.8014  134.3504  157.5438 LP  0  0  0  0  0  0  0  0  0  0  0  0  # atno 17394 bound_to 11000
  139.8771  134.9200  156.3240 LP  0  0  0  0  0  0  0  0  0  0  0  0  # atno 17395 bound_to 11000

$$$$
