#       Name:                AV-unprocessed.smi:1765
#       Creating user name   scv26
#       Creation time:       Fri Mar 27 08:37:09 2020


#       File generated by GOLD software.
#

@<TRIPOS>MOLECULE
AV-unprocessed.smi:1765
    45    46     1
SMALL
NO_CHARGES


@<TRIPOS>ATOM
      1 ****        -6.0685  -3.2831  -1.3501 C.3            1 S1                 0.0000
      2 ****        -5.1550  -2.1505  -1.3553 N.am           1 S1                 0.0000
      3 ****        -3.8191  -2.2495  -1.2547 C.2            1 S1                 0.0000
      4 ****        -3.2581  -3.3412  -1.1451 O.2            1 S1                 0.0000
      5 ****        -3.1252  -0.9597  -1.2910 C.2            1 S1                 0.0000
      6 ****        -3.8189   0.3140  -1.4135 C.2            1 S1                 0.0000
      7 ****        -3.1285   1.4710  -1.4372 C.2            1 S1                 0.0000
      8 ****        -1.6663   1.4996  -1.3431 C.2            1 S1                 0.0000
      9 ****        -1.0312   2.5543  -1.3631 O.2            1 S1                 0.0000
     10 ****        -1.0536   0.2819  -1.2338 N.am           1 S1                 0.0000
     11 ****         0.4125   0.1852  -1.1342 C.3            1 S1                 0.0000
     12 ****         0.9399   0.4369   0.2853 C.2            1 S1                 0.0000
     13 ****         0.2456   0.1807   1.2699 O.2            1 S1                 0.0000
     14 ****         2.1881   0.9209   0.3709 N.am           1 S1                 0.0000
     15 ****         2.8888   1.2306   1.6143 C.3            1 S1                 0.0000
     16 ****         4.0201   2.2475   1.3664 C.3            1 S1                 0.0000
     17 ****         5.2675   1.6675   2.0354 C.3            1 S1                 0.0000
     18 ****         5.0617   0.1574   1.9772 C.3            1 S1                 0.0000
     19 ****         3.5614  -0.0228   2.2081 C.3            1 S1                 0.0000
     20 ****        -1.7807  -0.9246  -1.2063 C.2            1 S1                 0.0000
     21 ****        -7.0941  -2.9338  -1.4689 H              1 S1                 0.0000
     22 ****        -6.0017  -3.8316  -0.4097 H              1 S1                 0.0000
     23 ****        -5.8445  -3.9669  -2.1698 H              1 S1                 0.0000
     24 ****        -5.5613  -1.2306  -1.4440 H              1 S1                 0.0000
     25 ****        -4.8953   0.3635  -1.4863 H              1 S1                 0.0000
     26 ****        -3.6653   2.4040  -1.5277 H              1 S1                 0.0000
     27 ****         0.7560  -0.8002  -1.4517 H              1 S1                 0.0000
     28 ****         0.8810   0.8856  -1.8285 H              1 S1                 0.0000
     29 ****         2.6886   1.0940  -0.4888 H              1 S1                 0.0000
     30 ****         2.1847   1.6435   2.3395 H              1 S1                 0.0000
     31 ****         4.2101   2.3618   0.2979 H              1 S1                 0.0000
     32 ****         3.7757   3.2363   1.7555 H              1 S1                 0.0000
     33 ****         6.1906   1.9860   1.5502 H              1 S1                 0.0000
     34 ****         5.3096   1.9907   3.0764 H              1 S1                 0.0000
     35 ****         5.3289  -0.2125   0.9865 H              1 S1                 0.0000
     36 ****         5.6669  -0.3787   2.7088 H              1 S1                 0.0000
     37 ****         3.3655  -0.0590   3.2805 H              1 S1                 0.0000
     38 ****         3.1923  -0.9581   1.7854 H              1 S1                 0.0000
     39 ****        -1.1690  -1.8104  -1.1064 H              1 S1                 0.0000
     40 ****        -3.7991  -4.1820  -1.1293 LP             1 S1                 0.0000
     41 ****        -2.2618  -3.3863  -1.0719 LP             1 S1                 0.0000
     42 ****        -1.5131   3.4266  -1.4456 LP             1 S1                 0.0000
     43 ****        -0.0335   2.5385  -1.2968 LP             1 S1                 0.0000
     44 ****        -0.6730  -0.1957   1.1497 LP             1 S1                 0.0000
     45 ****         0.6005   0.3492   2.1895 LP             1 S1                 0.0000
@<TRIPOS>BOND
    1    1    2 1     
    2    1   21 1     
    3    1   22 1     
    4    1   23 1     
    5    2    3 am    
    6    2   24 1     
    7    3    4 2     
    8    3    5 1     
    9    5   20 2     
   10    5    6 1     
   11    6    7 2     
   12    6   25 1     
   13    7    8 1     
   14    7   26 1     
   15    8    9 2     
   16    8   10 am    
   17   10   11 1     
   18   10   20 1     
   19   11   12 1     
   20   11   27 1     
   21   11   28 1     
   22   12   13 2     
   23   12   14 am    
   24   14   15 1     
   25   14   29 1     
   26   15   19 1     
   27   15   16 1     
   28   15   30 1     
   29   16   17 1     
   30   16   31 1     
   31   16   32 1     
   32   17   18 1     
   33   17   33 1     
   34   17   34 1     
   35   18   19 1     
   36   18   35 1     
   37   18   36 1     
   38   19   37 1     
   39   19   38 1     
   40   20   39 1     
   41    4   40 1     
   42    4   41 1     
   43    9   42 1     
   44    9   43 1     
   45   13   44 1     
   46   13   45 1     
@<TRIPOS>SUBSTRUCTURE
      1 S1             1
@<TRIPOS>SET
LONE_PAIRS      STATIC     ATOMS    <user>   **** ""
6 40 41 42 43 44 45
DONOR_HYDROGENS      STATIC     ATOMS    <user>   **** ""
2 24 29
ATOM$BLUE        STATIC     ATOMS    COLORGROUP SYSTEM
6 40 41 42 43 44 45
ATOM$RED        STATIC     ATOMS    COLORGROUP SYSTEM
2 24 29
