AV-unprocessed.smi:1776|AV-procd|sdf|7174|dock5
  -GOLD-   22720 8413D 1   1.00000     0.00000
 Structure written by MMmdl.
 31 32  0  0  0  0  0  0  0  0  1 V2000
  149.9213  142.4540  158.1105 O   0  0  0  0  0  0  0  0  0  0  0  0
  151.0686  142.0081  158.1087 C   0  0  0  0  0  0  0  0  0  0  0  0
  151.5477  141.1034  157.2307 N   0  0  0  0  0  0  0  0  0  0  0  0
  150.9189  140.4680  156.1455 C   0  0  0  0  0  0  0  0  0  0  0  0
  149.6626  140.7323  155.6983 C   0  0  0  0  0  0  0  0  0  0  0  0
  149.0848  140.0348  154.5615 C   0  0  0  0  0  0  0  0  0  0  0  0
  147.6523  140.2899  154.1186 C   0  0  0  0  0  0  0  0  0  0  0  0
  147.3207  139.5232  153.0789 F   0  0  0  0  0  0  0  0  0  0  0  0
  146.7959  140.0435  155.1102 F   0  0  0  0  0  0  0  0  0  0  0  0
  147.5110  141.5643  153.7570 F   0  0  0  0  0  0  0  0  0  0  0  0
  149.8545  139.0988  153.9764 C   0  0  0  0  0  0  0  0  0  0  0  0
  151.1516  138.8317  154.4188 N   0  0  0  0  0  0  0  0  0  0  0  0
  151.7407  139.4527  155.4651 C   0  0  0  0  0  0  0  0  0  0  0  0
  152.8896  139.1585  155.7934 O   0  0  0  0  0  0  0  0  0  0  0  0
  152.0795  142.4921  159.1593 C   0  0  1  0  0  0  0  0  0  0  0  0
  151.5129  143.5857  160.0948 C   0  0  0  0  0  0  0  0  0  0  0  0
  152.5000  143.9417  161.0544 O   0  0  0  0  0  0  0  0  0  0  0  0
  152.8841  142.8228  161.8414 C   0  0  0  0  0  0  0  0  0  0  0  0
  153.4595  141.7382  160.9164 C   0  0  0  0  0  0  0  0  0  0  0  0
  152.4753  141.3783  159.9563 O   0  0  0  0  0  0  0  0  0  0  0  0
  151.6704  138.1243  153.9186 H   0  0  0  0  0  0  0  0  0  0  0  0
  152.5045  140.8157  157.3810 H   0  0  0  0  0  0  0  0  0  0  0  0
  149.0469  141.4831  156.1634 H   0  0  0  0  0  0  0  0  0  0  0  0
  149.5431  138.4881  153.1418 H   0  0  0  0  0  0  0  0  0  0  0  0
  152.9490  142.8801  158.6257 H   0  0  0  0  0  0  0  0  0  0  0  0
  151.2482  144.4791  159.5278 H   0  0  0  0  0  0  0  0  0  0  0  0
  150.6077  143.2452  160.6012 H   0  0  0  0  0  0  0  0  0  0  0  0
  153.6324  143.1376  162.5689 H   0  0  0  0  0  0  0  0  0  0  0  0
  152.0287  142.4432  162.4027 H   0  0  0  0  0  0  0  0  0  0  0  0
  154.3635  142.0905  160.4170 H   0  0  0  0  0  0  0  0  0  0  0  0
  153.7333  140.8547  161.4930 H   0  0  0  0  0  0  0  0  0  0  0  0
  1  2  2  0  0  0  0
  2  3  1  0  0  0  0
  2 15  1  0  0  0  0
  3  4  1  0  0  0  0
  3 22  1  0  0  0  0
  4 13  1  0  0  0  0
  4  5  2  0  0  0  0
  5  6  1  0  0  0  0
  5 23  1  0  0  0  0
  6  7  1  0  0  0  0
  6 11  2  0  0  0  0
  7  8  1  0  0  0  0
  7  9  1  0  0  0  0
  7 10  1  0  0  0  0
 11 12  1  0  0  0  0
 11 24  1  0  0  0  0
 12 21  1  0  0  0  0
 12 13  1  0  0  0  0
 13 14  2  0  0  0  0
 15 20  1  0  0  0  0
 15 16  1  0  0  0  0
 15 25  1  0  0  0  0
 16 17  1  0  0  0  0
 16 26  1  0  0  0  0
 16 27  1  0  0  0  0
 17 18  1  0  0  0  0
 18 19  1  0  0  0  0
 18 28  1  0  0  0  0
 18 29  1  0  0  0  0
 19 20  1  0  0  0  0
 19 30  1  0  0  0  0
 19 31  1  0  0  0  0
M  END
> <s_m_source_file>
AV-unprocessed.smi

> <i_m_source_file_index>
1776

> <i_lp_mmshare_version>
43012

> <i_f3d_flags>
0

> <s_epik_input>
TzFbQ0gyXVtDSDJdT1tDSDJdW0NASF0xQyg9TylbTkhdYzJbY0hdYyhDKEYpKEYpRilbY0hdW25IXWMyPU8=

> <s_epik_cmdline>
J2VwaWtfcHl0aG9uJywgJy1waCcsICc3LjAnLCAnLXRuJywgJzgnLCAnLW1hJywgJzIwMCcsICctbWV0YWxfYmluZGluZycsICctaW1hZScsICc8aW5maWxlLm1hZT4nLCAnLW9tYWUnLCAnPG91dGZpbGUubWFlPic=

> <r_lp_tautomer_probability>
0.999

> <r_epik_Ionization_Penalty>
0.0100875

> <r_epik_Ionization_Penalty_Charging>
0.0100873

> <r_epik_Ionization_Penalty_Neutral>
1.79075e-07

> <r_epik_State_Penalty>
0.00769562

> <r_epik_Charging_Adjusted_Penalty>
0.017783

> <i_epik_Tot_Q>
0

> <i_epik_Tot_abs_Q>
0

> <r_epik_Metal_State_Penalty>
0.325451

> <b_epik_Metal_Only>
0

> <s_lp_Force_Field>
OPLS_2005

> <r_lp_Energy>
23.697

> <b_lp_Chiralities_Consistent>
1

> <s_lp_Variant>
AV-unprocessed.smi:1776-2

> <Gold.Version>
5.8.1

> <Gold.Id.Protein>
6NUR|6NUR_protein|mol2

> <Gold.PLP.Fitness>
41.9271

> <Gold.PLP.PLP>
-36.2365

> <Gold.PLP.part.hbond>
-1.0000

> <Gold.PLP.part.metal>
0.0000

> <Gold.PLP.part.buried>
-2.7013

> <Gold.PLP.part.nonpolar>
-32.7283

> <Gold.PLP.part.repulsive>
0.4420

> <Gold.PLP.ligand.clash>
1.0331

> <Gold.PLP.ligand.torsion>
0.0346

> <Gold.PLP.Chemscore.Hbond>
1.0000

> <Gold.PLP.Chemscore.CHOScore>
1.2539

> <Gold.PLP.Chemscore.Metal>
0.0000

> <Gold.Chemscore.Hbonds>
donor molecule, donor type, donor heavy atom, donor atom, acceptor molecule, acceptor atom, score
      P1  H  7997  8010       L1    14  1.00
      L1  C    11    24       P1  7948  0.77
      L1  C    11    24       P1  7957  0.51

> <Gold.PLP.Chemscore.Internal.Correction>
0.0311

> <Gold.Rescore>
     Score         DG    S(hbond)    S(metal)    S(lipo)     H(rot)  DE(clash)    DE(int)     intcor
     14.02     -15.24       1.00        0.00      76.87       1.00       0.08       1.14       ----

> <Gold.Chemscore.Fitness>
14.0232

> <Gold.Chemscore.DG>
-15.2447

> <Gold.Chemscore.ZeroCoef>
-5.4800

> <Gold.Chemscore.Hbond>
0.9972

> <Gold.Chemscore.Metal>
0.0000

> <Gold.Chemscore.Lipo>
76.8716

> <Gold.Chemscore.Internal_Hbond>
0.0000

> <Gold.Chemscore.DEClash>
0.0796

> <Gold.Chemscore.DEInternal>
1.1419

> <Gold.Chemscore.Rot>
1.0000

> <Gold.Chemscore.Internal.Correction>
   9.000000E+99

> <Gold.Chemscore.Hbonds>
donor molecule, donor type, donor heavy atom, donor atom, acceptor molecule, acceptor atom, score
      P1  H  7997  8010       L1    14  1.00

> <Gold.Chemscore.Hbond.Weighted>
-3.3307

> <Gold.Chemscore.Metal.Weighted>
-0.0000

> <Gold.Chemscore.Lipo.Weighted>
-8.9940

> <Gold.Chemscore.Internal_Hbond.Weighted>
0.0000

> <Gold.Chemscore.DEClash.Weighted>
0.0796

> <Gold.Chemscore.DEInternal.Weighted>
1.1419

> <Gold.Chemscore.Rot.Weighted>
2.5600

> <Gold.Chemscore.Internal.Correction.Weighted>
   9.000000E+99

> <Gold.Protein.RotatedTorsions>
[ 6907 6896 6895 6894 ] final  -32.95 input  -60.11 | X-H torsion
[ 7974 7965 7964 7962 ] final -150.55 input  175.53 | X-H torsion
[ 8008 7997 7996 7995 ] final   86.54 input   59.86 | X-H torsion
[ 10167 10162 10161 10158 ] final  170.18 input  -65.29 | X-H torsion
[ 10718 10713 10712 10709 ] final -142.80 input   66.30 | X-H torsion
[ 10763 10752 10751 10750 ] final -169.38 input  -60.55 | X-H torsion
[ 11005 11000 10999 10996 ] final  134.65 input  -57.11 | X-H torsion

> <Gold.Protein.ActiveResidues>
 VAL166  LYS551  ARG553  GLY616  TRP617  ASP618  TYR619  PRO620  LYS621  CYS622 
 ASP623  PHE694  ASN695  SER759  ASP760  ASP761  ALA762  ILE779  LEU786  VAL792 
 PHE793  MET794  SER795  GLU796  ALA797  LYS798  CYS799  TRP800  GLU811  SER814 

> <Gold.Protein.RotatedAtoms>
  151.0720  134.9804  159.8313 H   0  0  0  0  0  0  0  0  0  0  0  0  # atno 6907 bound_to 6896
  152.5409  134.2287  159.8826 H   0  0  0  0  0  0  0  0  0  0  0  0  # atno 6908 bound_to 6896
  151.2312  133.4406  159.2637 H   0  0  0  0  0  0  0  0  0  0  0  0  # atno 6909 bound_to 6896
  144.7901  140.4916  143.5779 H   0  0  0  0  0  0  0  0  0  0  0  0  # atno 7974 bound_to 7965
  155.9640  140.3391  155.6516 H   0  0  0  0  0  0  0  0  0  0  0  0  # atno 8008 bound_to 7997
  155.6761  140.0732  157.2520 H   0  0  0  0  0  0  0  0  0  0  0  0  # atno 8009 bound_to 7997
  154.4150  140.1683  156.1919 H   0  0  0  0  0  0  0  0  0  0  0  0  # atno 8010 bound_to 7997
  139.5011  144.3625  151.9810 H   0  0  0  0  0  0  0  0  0  0  0  0  # atno 10167 bound_to 10162
  156.3503  130.7684  151.1836 H   0  0  0  0  0  0  0  0  0  0  0  0  # atno 10718 bound_to 10713
  154.6529  135.2914  154.9964 H   0  0  0  0  0  0  0  0  0  0  0  0  # atno 10763 bound_to 10752
  154.1051  135.6571  153.4879 H   0  0  0  0  0  0  0  0  0  0  0  0  # atno 10764 bound_to 10752
  153.0386  135.5252  154.7445 H   0  0  0  0  0  0  0  0  0  0  0  0  # atno 10765 bound_to 10752
  139.9928  134.9508  156.9896 H   0  0  0  0  0  0  0  0  0  0  0  0  # atno 11005 bound_to 11000
  145.5818  139.1489  143.3231 LP  0  0  0  0  0  0  0  0  0  0  0  0  # atno 17320 bound_to 7965
  146.2149  140.5947  142.9043 LP  0  0  0  0  0  0  0  0  0  0  0  0  # atno 17321 bound_to 7965
  140.3061  144.3591  150.6046 LP  0  0  0  0  0  0  0  0  0  0  0  0  # atno 17342 bound_to 10162
  140.5835  143.2171  151.7385 LP  0  0  0  0  0  0  0  0  0  0  0  0  # atno 17343 bound_to 10162
  157.7460  131.0429  150.4719 LP  0  0  0  0  0  0  0  0  0  0  0  0  # atno 17370 bound_to 10713
  156.4913  130.4096  149.6405 LP  0  0  0  0  0  0  0  0  0  0  0  0  # atno 17371 bound_to 10713
  140.4875  134.1227  155.7227 LP  0  0  0  0  0  0  0  0  0  0  0  0  # atno 17394 bound_to 11000
  141.1580  133.8846  157.1925 LP  0  0  0  0  0  0  0  0  0  0  0  0  # atno 17395 bound_to 11000

$$$$
