AV-unprocessed.smi:1372|AV-procd|sdf|5582|dock1
  -GOLD-   22720 5183D 1   1.00000     0.00000
 Structure written by MMmdl.
 41 43  0  0  0  0  0  0  0  0  1 V2000
  152.6063  137.1354  156.9267 C   0  0  0  0  0  0  0  0  0  0  0  0
  152.5534  137.9559  158.5717 S   0  0  0  0  0  0  0  0  0  0  0  0
  152.3544  136.9193  159.5962 O   0  0  0  0  0  0  0  0  0  0  0  0
  153.7044  138.8661  158.6710 O   0  0  0  0  0  0  0  0  0  0  0  0
  151.0075  138.9611  158.4379 C   0  0  0  0  0  0  0  0  0  0  0  0
  151.2629  140.4259  158.6651 C   0  0  0  0  0  0  0  0  0  0  0  0
  152.1805  140.8714  159.5260 N   0  0  0  0  0  0  0  0  0  0  0  0
  152.0765  142.2426  159.4101 C   0  0  0  0  0  0  0  0  0  0  0  0
  152.7910  143.2767  160.0561 C   0  0  0  0  0  0  0  0  0  0  0  0
  152.5026  144.6280  159.7727 C   0  0  0  0  0  0  0  0  0  0  0  0
  151.4973  144.9632  158.8426 C   0  0  0  0  0  0  0  0  0  0  0  0
  150.7736  143.9474  158.1889 C   0  0  0  0  0  0  0  0  0  0  0  0
  151.0671  142.6004  158.4742 C   0  0  0  0  0  0  0  0  0  0  0  0
  150.5565  141.3895  158.0169 N   0  0  0  0  0  0  0  0  0  0  0  0
  149.4811  141.2403  157.0440 C   0  0  0  0  0  0  0  0  0  0  0  0
  149.8780  140.3350  155.8598 C   0  0  2  0  0  0  0  0  0  0  0  0
  151.1576  140.7318  155.4104 O   0  0  0  0  0  0  0  0  0  0  0  0
  148.8439  140.3432  154.7421 C   0  0  0  0  0  0  0  0  0  0  0  0
  148.3440  139.1227  154.2397 C   0  0  0  0  0  0  0  0  0  0  0  0
  147.3749  139.1182  153.2181 C   0  0  0  0  0  0  0  0  0  0  0  0
  146.8947  140.3346  152.6965 C   0  0  0  0  0  0  0  0  0  0  0  0
  147.3875  141.5559  153.1942 C   0  0  0  0  0  0  0  0  0  0  0  0
  148.3609  141.5608  154.2121 C   0  0  0  0  0  0  0  0  0  0  0  0
  153.4836  136.4911  156.8728 H   0  0  0  0  0  0  0  0  0  0  0  0
  152.6654  137.8917  156.1442 H   0  0  0  0  0  0  0  0  0  0  0  0
  151.7074  136.5352  156.7878 H   0  0  0  0  0  0  0  0  0  0  0  0
  150.6039  138.7906  157.4432 H   0  0  0  0  0  0  0  0  0  0  0  0
  150.2853  138.5944  159.1667 H   0  0  0  0  0  0  0  0  0  0  0  0
  153.5624  143.0291  160.7701 H   0  0  0  0  0  0  0  0  0  0  0  0
  153.0548  145.4106  160.2719 H   0  0  0  0  0  0  0  0  0  0  0  0
  151.2820  146.0005  158.6312 H   0  0  0  0  0  0  0  0  0  0  0  0
  150.0034  144.2004  157.4758 H   0  0  0  0  0  0  0  0  0  0  0  0
  148.5752  140.8823  157.5327 H   0  0  0  0  0  0  0  0  0  0  0  0
  149.2400  142.2381  156.6747 H   0  0  0  0  0  0  0  0  0  0  0  0
  149.9882  139.3104  156.2175 H   0  0  0  0  0  0  0  0  0  0  0  0
  151.6940  140.9198  156.1656 H   0  0  0  0  0  0  0  0  0  0  0  0
  148.6966  138.1844  154.6429 H   0  0  0  0  0  0  0  0  0  0  0  0
  146.9933  138.1808  152.8410 H   0  0  0  0  0  0  0  0  0  0  0  0
  146.1468  140.3302  151.9174 H   0  0  0  0  0  0  0  0  0  0  0  0
  147.0172  142.4892  152.7966 H   0  0  0  0  0  0  0  0  0  0  0  0
  148.7269  142.5037  154.5917 H   0  0  0  0  0  0  0  0  0  0  0  0
  1  2  1  0  0  0  0
  1 24  1  0  0  0  0
  1 25  1  0  0  0  0
  1 26  1  0  0  0  0
  2  3  2  0  0  0  0
  2  4  2  0  0  0  0
  2  5  1  0  0  0  0
  5  6  1  0  0  0  0
  5 27  1  0  0  0  0
  5 28  1  0  0  0  0
  6 14  1  0  0  0  0
  6  7  2  0  0  0  0
  7  8  1  0  0  0  0
  8 13  2  0  0  0  0
  8  9  1  0  0  0  0
  9 10  2  0  0  0  0
  9 29  1  0  0  0  0
 10 11  1  0  0  0  0
 10 30  1  0  0  0  0
 11 12  2  0  0  0  0
 11 31  1  0  0  0  0
 12 13  1  0  0  0  0
 12 32  1  0  0  0  0
 13 14  1  0  0  0  0
 14 15  1  0  0  0  0
 15 16  1  0  0  0  0
 15 33  1  0  0  0  0
 15 34  1  0  0  0  0
 16 17  1  0  0  0  0
 16 18  1  0  0  0  0
 16 35  1  0  0  0  0
 17 36  1  0  0  0  0
 18 23  1  0  0  0  0
 18 19  2  0  0  0  0
 19 20  1  0  0  0  0
 19 37  1  0  0  0  0
 20 21  2  0  0  0  0
 20 38  1  0  0  0  0
 21 22  1  0  0  0  0
 21 39  1  0  0  0  0
 22 23  2  0  0  0  0
 22 40  1  0  0  0  0
 23 41  1  0  0  0  0
M  END
> <s_m_source_file>
AV-unprocessed.smi

> <i_m_source_file_index>
1372

> <i_lp_mmshare_version>
43012

> <i_f3d_flags>
0

> <s_epik_input>
W2NIXTFbY0hdW2NIXVtjSF1jKGMxMiluKGMobjIpW0NIMl1TKD1PKSg9TylbQ0gzXSlbQ0gyXVtDQEhdKFtPSF0pYzNbY0hdW2NIXVtjSF1bY0hdW2NIXTM=

> <s_epik_cmdline>
J2VwaWtfcHl0aG9uJywgJy1waCcsICc3LjAnLCAnLXRuJywgJzgnLCAnLW1hJywgJzIwMCcsICctbWV0YWxfYmluZGluZycsICctaW1hZScsICc8aW5maWxlLm1hZT4nLCAnLW9tYWUnLCAnPG91dGZpbGUubWFlPic=

> <r_epik_Ionization_Penalty>
0.0151431

> <r_epik_Ionization_Penalty_Charging>
0

> <r_epik_Ionization_Penalty_Neutral>
0.0151431

> <r_epik_State_Penalty>
0.0118835

> <r_epik_Charging_Adjusted_Penalty>
0.0118835

> <i_epik_Tot_Q>
0

> <i_epik_Tot_abs_Q>
0

> <r_epik_Metal_State_Penalty>
1.20034e-05

> <b_epik_Metal_Only>
0

> <s_lp_Force_Field>
OPLS_2005

> <r_lp_Energy>
10.1971

> <b_lp_Chiralities_Consistent>
1

> <s_lp_Variant>
AV-unprocessed.smi:1372-1

> <Gold.Version>
5.8.1

> <Gold.Id.Protein>
6NUR|6NUR_protein|mol2

> <Gold.PLP.Fitness>
49.3427

> <Gold.PLP.PLP>
-42.0838

> <Gold.PLP.part.hbond>
-3.0000

> <Gold.PLP.part.metal>
0.0000

> <Gold.PLP.part.buried>
-4.7325

> <Gold.PLP.part.nonpolar>
-34.4778

> <Gold.PLP.part.repulsive>
0.0000

> <Gold.PLP.ligand.clash>
0.0000

> <Gold.PLP.ligand.torsion>
0.7017

> <Gold.PLP.Chemscore.Hbond>
2.8000

> <Gold.PLP.Chemscore.CHOScore>
0.0000

> <Gold.PLP.Chemscore.Metal>
0.0000

> <Gold.Chemscore.Hbonds>
donor molecule, donor type, donor heavy atom, donor atom, acceptor molecule, acceptor atom, score
      P1  H  6896  6909       L1     3  1.00
      P1  H  7989  7998       L1    17  0.80
      P1  H  7997  8008       L1     4  0.63

> <Gold.PLP.Chemscore.Internal.Correction>
0.2623

> <Gold.Rescore>
     Score         DG    S(hbond)    S(metal)    S(lipo)     H(rot)  DE(clash)    DE(int)     intcor
     20.77     -23.03       2.74        0.00     122.85       2.33       0.04       2.22       ----

> <Gold.Chemscore.Fitness>
20.7672

> <Gold.Chemscore.DG>
-23.0271

> <Gold.Chemscore.ZeroCoef>
-5.4800

> <Gold.Chemscore.Hbond>
2.7365

> <Gold.Chemscore.Metal>
0.0000

> <Gold.Chemscore.Lipo>
122.8510

> <Gold.Chemscore.Internal_Hbond>
0.0000

> <Gold.Chemscore.DEClash>
0.0437

> <Gold.Chemscore.DEInternal>
2.2162

> <Gold.Chemscore.Rot>
2.3306

> <Gold.Chemscore.Internal.Correction>
   9.000000E+99

> <Gold.Chemscore.Hbonds>
donor molecule, donor type, donor heavy atom, donor atom, acceptor molecule, acceptor atom, score
      P1  H  6896  6909       L1     3  1.00
      P1  H  7989  7998       L1    17  0.78
      P1  H  7997  8008       L1     4  0.63

> <Gold.Chemscore.Hbond.Weighted>
-9.1399

> <Gold.Chemscore.Metal.Weighted>
-0.0000

> <Gold.Chemscore.Lipo.Weighted>
-14.3736

> <Gold.Chemscore.Internal_Hbond.Weighted>
0.0000

> <Gold.Chemscore.DEClash.Weighted>
0.0437

> <Gold.Chemscore.DEInternal.Weighted>
2.2162

> <Gold.Chemscore.Rot.Weighted>
5.9664

> <Gold.Chemscore.Internal.Correction.Weighted>
   9.000000E+99

> <Gold.Protein.RotatedTorsions>
[ 6907 6896 6895 6894 ] final  133.77 input  -60.11 | X-H torsion
[ 7974 7965 7964 7962 ] final  -89.68 input  175.53 | X-H torsion
[ 8008 7997 7996 7995 ] final -108.60 input   59.86 | X-H torsion
[ 10167 10162 10161 10158 ] final  -73.12 input  -65.29 | X-H torsion
[ 10718 10713 10712 10709 ] final  -44.75 input   66.30 | X-H torsion
[ 10763 10752 10751 10750 ] final -160.49 input  -60.55 | X-H torsion
[ 11005 11000 10999 10996 ] final -118.84 input  -57.11 | X-H torsion

> <Gold.Protein.ActiveResidues>
 VAL166  LYS551  ARG553  GLY616  TRP617  ASP618  TYR619  PRO620  LYS621  CYS622 
 ASP623  PHE694  ASN695  SER759  ASP760  ASP761  ALA762  ILE779  LEU786  VAL792 
 PHE793  MET794  SER795  GLU796  ALA797  LYS798  CYS799  TRP800  GLU811  SER814 

> <Gold.Protein.RotatedAtoms>
  152.3184  133.5827  159.5727 H   0  0  0  0  0  0  0  0  0  0  0  0  # atno 6907 bound_to 6896
  150.7358  134.0047  159.3659 H   0  0  0  0  0  0  0  0  0  0  0  0  # atno 6908 bound_to 6896
  151.7934  135.0730  160.0441 H   0  0  0  0  0  0  0  0  0  0  0  0  # atno 6909 bound_to 6896
  145.4366  140.9557  143.2098 H   0  0  0  0  0  0  0  0  0  0  0  0  # atno 7974 bound_to 7965
  154.9467  140.0401  157.2124 H   0  0  0  0  0  0  0  0  0  0  0  0  # atno 8008 bound_to 7997
  154.8017  140.2853  155.5895 H   0  0  0  0  0  0  0  0  0  0  0  0  # atno 8009 bound_to 7997
  156.2962  140.2554  156.2886 H   0  0  0  0  0  0  0  0  0  0  0  0  # atno 8010 bound_to 7997
  140.5136  143.2341  151.7551 H   0  0  0  0  0  0  0  0  0  0  0  0  # atno 10167 bound_to 10162
  156.2353  130.4175  149.8825 H   0  0  0  0  0  0  0  0  0  0  0  0  # atno 10718 bound_to 10713
  154.7386  135.3063  154.8768 H   0  0  0  0  0  0  0  0  0  0  0  0  # atno 10763 bound_to 10752
  153.9590  135.6755  153.4749 H   0  0  0  0  0  0  0  0  0  0  0  0  # atno 10764 bound_to 10752
  153.0986  135.4923  154.8749 H   0  0  0  0  0  0  0  0  0  0  0  0  # atno 10765 bound_to 10752
  141.0257  134.0056  157.3217 H   0  0  0  0  0  0  0  0  0  0  0  0  # atno 11005 bound_to 11000
  144.8148  139.5896  143.7013 LP  0  0  0  0  0  0  0  0  0  0  0  0  # atno 17320 bound_to 7965
  146.2579  139.6343  142.9382 LP  0  0  0  0  0  0  0  0  0  0  0  0  # atno 17321 bound_to 7965
  139.4903  144.4355  151.9824 LP  0  0  0  0  0  0  0  0  0  0  0  0  # atno 17342 bound_to 10162
  140.3448  144.3159  150.5960 LP  0  0  0  0  0  0  0  0  0  0  0  0  # atno 17343 bound_to 10162
  156.6425  130.8711  151.3516 LP  0  0  0  0  0  0  0  0  0  0  0  0  # atno 17370 bound_to 10713
  157.7151  130.9488  150.1228 LP  0  0  0  0  0  0  0  0  0  0  0  0  # atno 17371 bound_to 10713
  139.9175  135.0198  156.7936 LP  0  0  0  0  0  0  0  0  0  0  0  0  # atno 17394 bound_to 11000
  140.6495  133.9745  155.7748 LP  0  0  0  0  0  0  0  0  0  0  0  0  # atno 17395 bound_to 11000

$$$$
