AV-unprocessed.smi:164|AV-procd|sdf|1383|dock10
  -GOLD-   2262019113D 1   1.00000     0.00000
 Structure written by MMmdl.
 53 55  0  0  0  0  0  0  0  0  1 V2000
  151.6903  144.6328  157.9107 C   0  0  0  0  0  0  0  0  0  0  0  0
  152.1896  143.3598  158.5725 C   0  0  0  0  0  0  0  0  0  0  0  0
  153.0857  143.4604  159.6564 C   0  0  0  0  0  0  0  0  0  0  0  0
  153.5717  142.3026  160.2888 C   0  0  0  0  0  0  0  0  0  0  0  0
  153.1590  141.0299  159.8496 C   0  0  0  0  0  0  0  0  0  0  0  0
  153.6945  139.7875  160.5373 C   0  0  0  0  0  0  0  0  0  0  0  0
  152.2484  140.9187  158.7735 C   0  0  0  0  0  0  0  0  0  0  0  0
  151.8505  139.6733  158.3603 O   0  0  0  0  0  0  0  0  0  0  0  0
  150.4644  139.4269  158.5493 C   0  0  0  0  0  0  0  0  0  0  0  0
  150.2035  137.9194  158.4018 C   0  0  1  0  0  0  0  0  0  0  0  0
  150.5470  137.3169  159.6340 O   0  0  0  0  0  0  0  0  0  0  0  0
  148.7140  137.6216  158.1159 C   0  0  0  0  0  0  0  0  0  0  0  0
  148.2480  136.3833  158.7197 N   0  0  0  0  0  0  0  0  0  0  0  0
  148.4251  135.1872  157.9811 C   0  0  0  0  0  0  0  0  0  0  0  0
  148.9319  135.1809  156.8575 O   0  0  0  0  0  0  0  0  0  0  0  0
  147.9772  133.9799  158.6662 C   0  0  0  0  0  0  0  0  0  0  0  0
  148.1093  132.7859  158.0640 F   0  0  0  0  0  0  0  0  0  0  0  0
  147.4372  134.0402  159.9025 C   0  0  0  0  0  0  0  0  0  0  0  0
  147.2607  135.2243  160.5950 N   0  0  0  0  0  0  0  0  0  0  0  0
  146.6980  135.1813  161.9969 C   0  0  2  0  0  0  0  0  0  0  0  0
  146.3516  133.7602  162.4803 C   0  0  0  0  0  0  0  0  0  0  0  0
  144.8700  133.8626  162.8036 C   0  0  0  0  0  0  0  0  0  0  0  0
  144.6676  135.3612  162.9994 C   0  0  0  0  0  0  0  0  0  0  0  0
  145.5272  135.9377  162.0289 O   0  0  0  0  0  0  0  0  0  0  0  0
  147.6987  136.4418  160.0230 C   0  0  0  0  0  0  0  0  0  0  0  0
  147.6115  137.5035  160.6429 O   0  0  0  0  0  0  0  0  0  0  0  0
  151.7739  142.0830  158.1183 C   0  0  0  0  0  0  0  0  0  0  0  0
  150.8230  141.9631  156.9348 C   0  0  0  0  0  0  0  0  0  0  0  0
  151.9921  145.5174  158.4725 H   0  0  0  0  0  0  0  0  0  0  0  0
  150.6018  144.6347  157.8485 H   0  0  0  0  0  0  0  0  0  0  0  0
  152.0970  144.7210  156.9031 H   0  0  0  0  0  0  0  0  0  0  0  0
  153.4097  144.4298  160.0063 H   0  0  0  0  0  0  0  0  0  0  0  0
  154.2633  142.3968  161.1131 H   0  0  0  0  0  0  0  0  0  0  0  0
  154.0171  139.0498  159.8023 H   0  0  0  0  0  0  0  0  0  0  0  0
  152.9216  139.3370  161.1600 H   0  0  0  0  0  0  0  0  0  0  0  0
  154.5489  140.0229  161.1724 H   0  0  0  0  0  0  0  0  0  0  0  0
  150.1081  139.7976  159.5125 H   0  0  0  0  0  0  0  0  0  0  0  0
  149.9192  139.9745  157.7795 H   0  0  0  0  0  0  0  0  0  0  0  0
  150.8323  137.5196  157.6052 H   0  0  0  0  0  0  0  0  0  0  0  0
  149.7959  137.3530  160.2062 H   0  0  0  0  0  0  0  0  0  0  0  0
  148.0568  138.4379  158.4206 H   0  0  0  0  0  0  0  0  0  0  0  0
  148.5301  137.5198  157.0449 H   0  0  0  0  0  0  0  0  0  0  0  0
  147.1298  133.1136  160.3650 H   0  0  0  0  0  0  0  0  0  0  0  0
  147.4458  135.6524  162.6365 H   0  0  0  0  0  0  0  0  0  0  0  0
  146.5735  132.9969  161.7338 H   0  0  0  0  0  0  0  0  0  0  0  0
  146.9351  133.5467  163.3764 H   0  0  0  0  0  0  0  0  0  0  0  0
  144.2758  133.5151  161.9582 H   0  0  0  0  0  0  0  0  0  0  0  0
  144.5839  133.2787  163.6786 H   0  0  0  0  0  0  0  0  0  0  0  0
  143.6323  135.6697  162.8538 H   0  0  0  0  0  0  0  0  0  0  0  0
  144.9841  135.6702  163.9969 H   0  0  0  0  0  0  0  0  0  0  0  0
  150.7965  140.9526  156.5274 H   0  0  0  0  0  0  0  0  0  0  0  0
  151.1264  142.6240  156.1231 H   0  0  0  0  0  0  0  0  0  0  0  0
  149.8110  142.2318  157.2383 H   0  0  0  0  0  0  0  0  0  0  0  0
  1  2  1  0  0  0  0
  1 29  1  0  0  0  0
  1 30  1  0  0  0  0
  1 31  1  0  0  0  0
  2 27  1  0  0  0  0
  2  3  2  0  0  0  0
  3  4  1  0  0  0  0
  3 32  1  0  0  0  0
  4  5  2  0  0  0  0
  4 33  1  0  0  0  0
  5  6  1  0  0  0  0
  5  7  1  0  0  0  0
  6 34  1  0  0  0  0
  6 35  1  0  0  0  0
  6 36  1  0  0  0  0
  7  8  1  0  0  0  0
  7 27  2  0  0  0  0
  8  9  1  0  0  0  0
  9 10  1  0  0  0  0
  9 37  1  0  0  0  0
  9 38  1  0  0  0  0
 10 11  1  0  0  0  0
 10 12  1  0  0  0  0
 10 39  1  0  0  0  0
 11 40  1  0  0  0  0
 12 13  1  0  0  0  0
 12 41  1  0  0  0  0
 12 42  1  0  0  0  0
 13 25  1  0  0  0  0
 13 14  1  0  0  0  0
 14 15  2  0  0  0  0
 14 16  1  0  0  0  0
 16 17  1  0  0  0  0
 16 18  2  0  0  0  0
 18 19  1  0  0  0  0
 18 43  1  0  0  0  0
 19 20  1  0  0  0  0
 19 25  1  0  0  0  0
 20 24  1  0  0  0  0
 20 21  1  0  0  0  0
 20 44  1  0  0  0  0
 21 22  1  0  0  0  0
 21 45  1  0  0  0  0
 21 46  1  0  0  0  0
 22 23  1  0  0  0  0
 22 47  1  0  0  0  0
 22 48  1  0  0  0  0
 23 24  1  0  0  0  0
 23 49  1  0  0  0  0
 23 50  1  0  0  0  0
 25 26  2  0  0  0  0
 27 28  1  0  0  0  0
 28 51  1  0  0  0  0
 28 52  1  0  0  0  0
 28 53  1  0  0  0  0
M  END
> <s_m_source_file>
AV-unprocessed.smi

> <i_m_source_file_index>
164

> <i_lp_mmshare_version>
43012

> <i_f3d_flags>
0

> <s_epik_input>
W0NIM11jMVtjSF1bY0hdYyhbQ0gzXSljKGMxW0NIM10pT1tDSDJdW0NASF0oW09IXSlbQ0gyXW4yYyg9TyljKEYpW2NIXW4oYzI9TylbQ0BASF0zW0NIMl1bQ0gyXVtDSDJdTzM=

> <s_epik_cmdline>
J2VwaWtfcHl0aG9uJywgJy1waCcsICc3LjAnLCAnLXRuJywgJzgnLCAnLW1hJywgJzIwMCcsICctbWV0YWxfYmluZGluZycsICctaW1hZScsICc8aW5maWxlLm1hZT4nLCAnLW9tYWUnLCAnPG91dGZpbGUubWFlPic=

> <r_lp_tautomer_probability>
1

> <r_epik_Ionization_Penalty>
1.45842e-07

> <r_epik_Ionization_Penalty_Charging>
2.86622e-08

> <r_epik_Ionization_Penalty_Neutral>
1.1718e-07

> <r_epik_State_Penalty>
-0

> <r_epik_Charging_Adjusted_Penalty>
2.86622e-08

> <i_epik_Tot_Q>
0

> <i_epik_Tot_abs_Q>
0

> <r_epik_Metal_State_Penalty>
-0

> <b_epik_Metal_Only>
0

> <s_epik_Chemistry_Notes>
This compound contains an acetal/aminal-like group ( X-CH(R)-Y where X, Y are N, S, or O) that may be acid/base labile, releasing an aldehyde.

> <s_lp_Force_Field>
OPLS_2005

> <r_lp_Energy>
41.2459

> <b_lp_Chiralities_Consistent>
1

> <s_lp_Variant>
AV-unprocessed.smi:164-2

> <Gold.Version>
5.8.1

> <Gold.Id.Protein>
6NUR|6NUR_protein|mol2

> <Gold.PLP.Fitness>
58.3480

> <Gold.PLP.PLP>
-53.5203

> <Gold.PLP.part.hbond>
-2.7691

> <Gold.PLP.part.metal>
0.0000

> <Gold.PLP.part.buried>
-6.9758

> <Gold.PLP.part.nonpolar>
-44.1116

> <Gold.PLP.part.repulsive>
0.0000

> <Gold.PLP.ligand.clash>
0.0000

> <Gold.PLP.ligand.torsion>
1.0894

> <Gold.PLP.Chemscore.Hbond>
2.2878

> <Gold.PLP.Chemscore.CHOScore>
0.0000

> <Gold.PLP.Chemscore.Metal>
0.0000

> <Gold.Chemscore.Hbonds>
donor molecule, donor type, donor heavy atom, donor atom, acceptor molecule, acceptor atom, score
      P1  H  6896  6909       L1    11  0.10
      P1  H  6931  6943       L1    26  0.63
      P1  H  6934  6947       L1    26  0.93

> <Gold.PLP.Chemscore.Internal.Correction>
0.1429

> <Gold.Rescore>
     Score         DG    S(hbond)    S(metal)    S(lipo)     H(rot)  DE(clash)    DE(int)     intcor
     19.54     -21.96       2.46        0.00     130.43       2.73       0.04       2.38       ----

> <Gold.Chemscore.Fitness>
19.5371

> <Gold.Chemscore.DG>
-21.9553

> <Gold.Chemscore.ZeroCoef>
-5.4800

> <Gold.Chemscore.Hbond>
2.4574

> <Gold.Chemscore.Metal>
0.0000

> <Gold.Chemscore.Lipo>
130.4282

> <Gold.Chemscore.Internal_Hbond>
0.0000

> <Gold.Chemscore.DEClash>
0.0380

> <Gold.Chemscore.DEInternal>
2.3802

> <Gold.Chemscore.Rot>
2.7315

> <Gold.Chemscore.Internal.Correction>
   9.000000E+99

> <Gold.Chemscore.Hbonds>
donor molecule, donor type, donor heavy atom, donor atom, acceptor molecule, acceptor atom, score
      P1  H  6896  6909       L1    11  0.07
      P1  H  6931  6943       L1    26  0.59
      P1  H  6934  6947       L1    26  0.88

> <Gold.Chemscore.Hbond.Weighted>
-8.2078

> <Gold.Chemscore.Metal.Weighted>
-0.0000

> <Gold.Chemscore.Lipo.Weighted>
-15.2601

> <Gold.Chemscore.Internal_Hbond.Weighted>
0.0000

> <Gold.Chemscore.DEClash.Weighted>
0.0380

> <Gold.Chemscore.DEInternal.Weighted>
2.3802

> <Gold.Chemscore.Rot.Weighted>
6.9925

> <Gold.Chemscore.Internal.Correction.Weighted>
   9.000000E+99

> <Gold.Protein.RotatedTorsions>
[ 6907 6896 6895 6894 ] final  119.21 input  -60.11 | X-H torsion
[ 7974 7965 7964 7962 ] final   55.17 input  175.53 | X-H torsion
[ 8008 7997 7996 7995 ] final  -70.18 input   59.86 | X-H torsion
[ 10167 10162 10161 10158 ] final -137.91 input  -65.29 | X-H torsion
[ 10718 10713 10712 10709 ] final  -12.70 input   66.30 | X-H torsion
[ 10763 10752 10751 10750 ] final -151.74 input  -60.55 | X-H torsion
[ 11005 11000 10999 10996 ] final -113.97 input  -57.11 | X-H torsion

> <Gold.Protein.ActiveResidues>
 VAL166  LYS551  ARG553  GLY616  TRP617  ASP618  TYR619  PRO620  LYS621  CYS622 
 ASP623  PHE694  ASN695  SER759  ASP760  ASP761  ALA762  ILE779  LEU786  VAL792 
 PHE793  MET794  SER795  GLU796  ALA797  LYS798  CYS799  TRP800  GLU811  SER814 

> <Gold.Protein.RotatedAtoms>
  152.4488  133.7588  159.6734 H   0  0  0  0  0  0  0  0  0  0  0  0  # atno 6907 bound_to 6896
  150.8394  133.7950  159.3073 H   0  0  0  0  0  0  0  0  0  0  0  0  # atno 6908 bound_to 6896
  151.5579  135.1069  160.0017 H   0  0  0  0  0  0  0  0  0  0  0  0  # atno 6909 bound_to 6896
  145.9531  139.3991  143.0293 H   0  0  0  0  0  0  0  0  0  0  0  0  # atno 7974 bound_to 7965
  154.4993  140.0839  156.7764 H   0  0  0  0  0  0  0  0  0  0  0  0  # atno 8008 bound_to 7997
  155.4041  140.3438  155.4241 H   0  0  0  0  0  0  0  0  0  0  0  0  # atno 8009 bound_to 7997
  156.1435  140.1536  156.8870 H   0  0  0  0  0  0  0  0  0  0  0  0  # atno 8010 bound_to 7997
  139.8530  143.7174  152.2656 H   0  0  0  0  0  0  0  0  0  0  0  0  # atno 10167 bound_to 10162
  156.6409  130.4927  149.6095 H   0  0  0  0  0  0  0  0  0  0  0  0  # atno 10718 bound_to 10713
  154.8039  135.3253  154.7482 H   0  0  0  0  0  0  0  0  0  0  0  0  # atno 10763 bound_to 10752
  153.8144  135.6893  153.4840 H   0  0  0  0  0  0  0  0  0  0  0  0  # atno 10764 bound_to 10752
  153.1771  135.4600  154.9924 H   0  0  0  0  0  0  0  0  0  0  0  0  # atno 10765 bound_to 10752
  141.0581  133.9580  157.2717 H   0  0  0  0  0  0  0  0  0  0  0  0  # atno 11005 bound_to 11000
  145.8143  140.9710  143.0932 LP  0  0  0  0  0  0  0  0  0  0  0  0  # atno 17320 bound_to 7965
  144.6800  139.9961  143.7484 LP  0  0  0  0  0  0  0  0  0  0  0  0  # atno 17321 bound_to 7965
  139.7447  144.7550  151.0599 LP  0  0  0  0  0  0  0  0  0  0  0  0  # atno 17342 bound_to 10162
  140.7785  143.4931  150.9868 LP  0  0  0  0  0  0  0  0  0  0  0  0  # atno 17343 bound_to 10162
  156.2160  130.6708  151.1319 LP  0  0  0  0  0  0  0  0  0  0  0  0  # atno 17370 bound_to 10713
  157.7171  131.0703  150.6283 LP  0  0  0  0  0  0  0  0  0  0  0  0  # atno 17371 bound_to 10713
  139.9408  135.0191  156.8702 LP  0  0  0  0  0  0  0  0  0  0  0  0  # atno 17394 bound_to 11000
  140.5923  134.0250  155.7504 LP  0  0  0  0  0  0  0  0  0  0  0  0  # atno 17395 bound_to 11000

$$$$
