AV-unprocessed.smi:20|AV-procd|sdf|118|dock8
  -GOLD-   2262015283D 1   1.00000     0.00000
 Structure written by MMmdl.
 57 61  0  0  0  0  0  0  0  0  1 V2000
  145.0326  133.4862  151.9942 O   0  0  0  0  0  0  0  0  0  0  0  0
  145.8530  132.9544  152.7385 C   0  0  0  0  0  0  0  0  0  0  0  0
  147.3357  132.8475  152.4222 C   0  0  0  0  0  0  0  0  0  0  0  0
  147.9652  132.4689  153.7805 C   0  0  1  0  0  0  0  0  0  0  0  0
  149.1546  131.4964  153.6122 C   0  0  0  0  0  0  0  0  0  0  0  0
  149.8435  131.2095  154.9555 C   0  0  0  0  0  0  0  0  0  0  0  0
  150.2784  132.5128  155.6402 C   0  0  0  0  0  0  0  0  0  0  0  0
  149.1514  133.4383  155.7556 N   0  0  0  0  0  0  0  0  0  0  0  0
  149.2638  134.4016  156.7067 C   0  0  0  0  0  0  0  0  0  0  0  0
  148.4395  134.3103  157.7830 N   0  0  0  0  0  0  0  0  0  0  0  0
  148.4860  135.2245  158.7554 C   0  0  0  0  0  0  0  0  0  0  0  0
  149.2704  136.2981  158.8530 N   0  0  0  0  0  0  0  0  0  0  0  0
  150.1046  136.3976  157.7793 C   0  0  0  0  0  0  0  0  0  0  0  0
  150.1701  135.5050  156.6702 C   0  0  0  0  0  0  0  0  0  0  0  0
  151.1549  135.9375  155.7867 N   0  0  0  0  0  0  0  0  0  0  0  0
  151.6337  137.0201  156.3351 C   0  0  0  0  0  0  0  0  0  0  0  0
  151.0556  137.3707  157.5327 N   0  0  0  0  0  0  0  0  0  0  0  0
  151.3885  138.5158  158.3615 C   0  0  0  0  0  0  0  0  0  0  0  0
  151.1539  139.8715  157.6502 C   0  0  2  0  0  0  0  0  0  0  0  0
  151.9765  140.0096  156.3464 C   0  0  0  0  0  0  0  0  0  0  0  0
  151.1706  140.4456  155.2706 O   0  0  0  0  0  0  0  0  0  0  0  0
  151.3678  141.0645  158.6156 C   0  0  1  0  0  0  0  0  0  0  0  0
  152.7759  141.1966  159.1689 C   0  0  0  0  0  0  0  0  0  0  0  0
  152.7966  142.6419  159.6526 C   0  0  0  0  0  0  0  0  0  0  0  0
  151.9574  143.3568  158.7535 O   0  0  0  0  0  0  0  0  0  0  0  0
  151.1929  142.4446  157.9710 C   0  0  0  0  0  0  0  0  0  0  0  0
  148.4488  133.7491  154.5110 C   0  0  0  0  0  0  0  0  0  0  0  0
  146.7749  131.8309  154.5404 C   0  0  0  0  0  0  0  0  0  0  0  0
  145.5923  132.3923  153.9165 N   0  0  0  0  0  0  0  0  0  0  0  0
  147.4749  132.0618  151.6787 H   0  0  0  0  0  0  0  0  0  0  0  0
  147.7293  133.7784  152.0123 H   0  0  0  0  0  0  0  0  0  0  0  0
  148.8243  130.5617  153.1573 H   0  0  0  0  0  0  0  0  0  0  0  0
  149.8824  131.9291  152.9246 H   0  0  0  0  0  0  0  0  0  0  0  0
  149.1646  130.6618  155.6101 H   0  0  0  0  0  0  0  0  0  0  0  0
  150.7093  130.5651  154.8016 H   0  0  0  0  0  0  0  0  0  0  0  0
  150.7097  132.2764  156.6132 H   0  0  0  0  0  0  0  0  0  0  0  0
  151.0646  132.9951  155.0582 H   0  0  0  0  0  0  0  0  0  0  0  0
  147.7953  135.0743  159.5724 H   0  0  0  0  0  0  0  0  0  0  0  0
  152.4233  137.5981  155.8771 H   0  0  0  0  0  0  0  0  0  0  0  0
  150.7893  138.4479  159.2695 H   0  0  0  0  0  0  0  0  0  0  0  0
  152.4299  138.4266  158.6736 H   0  0  0  0  0  0  0  0  0  0  0  0
  150.1052  139.8923  157.3498 H   0  0  0  0  0  0  0  0  0  0  0  0
  152.7989  140.7132  156.4759 H   0  0  0  0  0  0  0  0  0  0  0  0
  152.4379  139.0601  156.0758 H   0  0  0  0  0  0  0  0  0  0  0  0
  150.4488  140.9464  155.6191 H   0  0  0  0  0  0  0  0  0  0  0  0
  150.6739  140.9864  159.4544 H   0  0  0  0  0  0  0  0  0  0  0  0
  152.9940  140.4885  159.9687 H   0  0  0  0  0  0  0  0  0  0  0  0
  153.5129  141.0572  158.3765 H   0  0  0  0  0  0  0  0  0  0  0  0
  152.3727  142.7133  160.6549 H   0  0  0  0  0  0  0  0  0  0  0  0
  153.8032  143.0601  159.6792 H   0  0  0  0  0  0  0  0  0  0  0  0
  151.5913  142.4518  156.9553 H   0  0  0  0  0  0  0  0  0  0  0  0
  150.1481  142.7521  157.9240 H   0  0  0  0  0  0  0  0  0  0  0  0
  149.1284  134.3070  153.8655 H   0  0  0  0  0  0  0  0  0  0  0  0
  147.5956  134.3972  154.7161 H   0  0  0  0  0  0  0  0  0  0  0  0
  146.7491  130.7480  154.4108 H   0  0  0  0  0  0  0  0  0  0  0  0
  146.7888  132.0368  155.6112 H   0  0  0  0  0  0  0  0  0  0  0  0
  144.6746  132.3433  154.3349 H   0  0  0  0  0  0  0  0  0  0  0  0
  1  2  2  0  0  0  0
  2 29  1  0  0  0  0
  2  3  1  0  0  0  0
  3  4  1  0  0  0  0
  3 30  1  0  0  0  0
  3 31  1  0  0  0  0
  4 27  1  0  0  0  0
  4  5  1  0  0  0  0
  4 28  1  0  0  0  0
  5  6  1  0  0  0  0
  5 32  1  0  0  0  0
  5 33  1  0  0  0  0
  6  7  1  0  0  0  0
  6 34  1  0  0  0  0
  6 35  1  0  0  0  0
  7  8  1  0  0  0  0
  7 36  1  0  0  0  0
  7 37  1  0  0  0  0
  8  9  1  0  0  0  0
  8 27  1  0  0  0  0
  9 14  1  0  0  0  0
  9 10  2  0  0  0  0
 10 11  1  0  0  0  0
 11 12  2  0  0  0  0
 11 38  1  0  0  0  0
 12 13  1  0  0  0  0
 13 17  1  0  0  0  0
 13 14  2  0  0  0  0
 14 15  1  0  0  0  0
 15 16  2  0  0  0  0
 16 17  1  0  0  0  0
 16 39  1  0  0  0  0
 17 18  1  0  0  0  0
 18 19  1  0  0  0  0
 18 40  1  0  0  0  0
 18 41  1  0  0  0  0
 19 20  1  0  0  0  0
 19 22  1  0  0  0  0
 19 42  1  0  0  0  0
 20 21  1  0  0  0  0
 20 43  1  0  0  0  0
 20 44  1  0  0  0  0
 21 45  1  0  0  0  0
 22 26  1  0  0  0  0
 22 23  1  0  0  0  0
 22 46  1  0  0  0  0
 23 24  1  0  0  0  0
 23 47  1  0  0  0  0
 23 48  1  0  0  0  0
 24 25  1  0  0  0  0
 24 49  1  0  0  0  0
 24 50  1  0  0  0  0
 25 26  1  0  0  0  0
 26 51  1  0  0  0  0
 26 52  1  0  0  0  0
 27 53  1  0  0  0  0
 27 54  1  0  0  0  0
 28 29  1  0  0  0  0
 28 55  1  0  0  0  0
 28 56  1  0  0  0  0
 29 57  1  0  0  0  0
M  END
> <s_m_source_file>
AV-unprocessed.smi

> <i_m_source_file_index>
20

> <i_lp_mmshare_version>
43012

> <i_f3d_flags>
0

> <s_epik_input>
W0NIMl0xW05IXUMoPU8pW0NIMl1bQ0BAXTEyW0NIMl1bQ0gyXVtDSDJdTihbQ0gyXTIpYyhuW2NIXW4zKWMoYzM0KW5bY0hdbjRbQ0gyXVtDQEhdKFtDSDJdW09IXSlbQ0BASF01W0NIMl1bQ0gyXU9bQ0gyXTU=

> <s_epik_cmdline>
J2VwaWtfcHl0aG9uJywgJy1waCcsICc3LjAnLCAnLXRuJywgJzgnLCAnLW1hJywgJzIwMCcsICctbWV0YWxfYmluZGluZycsICctaW1hZScsICc8aW5maWxlLm1hZT4nLCAnLW9tYWUnLCAnPG91dGZpbGUubWFlPic=

> <r_lp_tautomer_probability>
1

> <r_epik_Ionization_Penalty>
0.0019697

> <r_epik_Ionization_Penalty_Charging>
0

> <r_epik_Ionization_Penalty_Neutral>
0.0019697

> <r_epik_State_Penalty>
0.00113613

> <r_epik_Charging_Adjusted_Penalty>
0.00113613

> <i_epik_Tot_Q>
0

> <i_epik_Tot_abs_Q>
0

> <r_epik_Metal_State_Penalty>
-0

> <b_epik_Metal_Only>
0

> <s_lp_Force_Field>
OPLS_2005

> <r_lp_Energy>
59.1367

> <b_lp_Chiralities_Consistent>
1

> <s_lp_Variant>
AV-unprocessed.smi:20-6

> <Gold.Version>
5.8.1

> <Gold.Id.Protein>
6NUR|6NUR_protein|mol2

> <Gold.PLP.Fitness>
42.3417

> <Gold.PLP.PLP>
-38.3783

> <Gold.PLP.part.hbond>
-3.3705

> <Gold.PLP.part.metal>
0.0000

> <Gold.PLP.part.buried>
-6.8034

> <Gold.PLP.part.nonpolar>
-29.7049

> <Gold.PLP.part.repulsive>
0.1726

> <Gold.PLP.ligand.clash>
0.0000

> <Gold.PLP.ligand.torsion>
2.0495

> <Gold.PLP.Chemscore.Hbond>
2.5536

> <Gold.PLP.Chemscore.CHOScore>
0.0000

> <Gold.PLP.Chemscore.Metal>
0.0000

> <Gold.Chemscore.Hbonds>
donor molecule, donor type, donor heavy atom, donor atom, acceptor molecule, acceptor atom, score
      L1  H    29    57       P1 10957  0.78
      P1  H  6896  6908       L1    12  0.03
      P1  H  7989  7998       L1    21  0.98
      P1  H 10752 10765       L1    15  0.48

> <Gold.PLP.Chemscore.Internal.Correction>
0.4015

> <Gold.Rescore>
     Score         DG    S(hbond)    S(metal)    S(lipo)     H(rot)  DE(clash)    DE(int)     intcor
     12.89     -14.94       1.74        0.00      84.26       2.43       0.01       2.04       ----

> <Gold.Chemscore.Fitness>
12.8855

> <Gold.Chemscore.DG>
-14.9376

> <Gold.Chemscore.ZeroCoef>
-5.4800

> <Gold.Chemscore.Hbond>
1.7432

> <Gold.Chemscore.Metal>
0.0000

> <Gold.Chemscore.Lipo>
84.2614

> <Gold.Chemscore.Internal_Hbond>
0.0000

> <Gold.Chemscore.DEClash>
0.0126

> <Gold.Chemscore.DEInternal>
2.0395

> <Gold.Chemscore.Rot>
2.4309

> <Gold.Chemscore.Internal.Correction>
   9.000000E+99

> <Gold.Chemscore.Hbonds>
donor molecule, donor type, donor heavy atom, donor atom, acceptor molecule, acceptor atom, score
      L1  H    29    57       P1 10957  0.38
      P1  H  7989  7998       L1    21  0.84
      P1  H 10752 10765       L1    15  0.04

> <Gold.Chemscore.Hbond.Weighted>
-5.8221

> <Gold.Chemscore.Metal.Weighted>
-0.0000

> <Gold.Chemscore.Lipo.Weighted>
-9.8586

> <Gold.Chemscore.Internal_Hbond.Weighted>
0.0000

> <Gold.Chemscore.DEClash.Weighted>
0.0126

> <Gold.Chemscore.DEInternal.Weighted>
2.0395

> <Gold.Chemscore.Rot.Weighted>
6.2231

> <Gold.Chemscore.Internal.Correction.Weighted>
   9.000000E+99

> <Gold.Protein.RotatedTorsions>
[ 6907 6896 6895 6894 ] final -159.74 input  -60.11 | X-H torsion
[ 7974 7965 7964 7962 ] final  -18.38 input  175.53 | X-H torsion
[ 8008 7997 7996 7995 ] final -163.02 input   59.86 | X-H torsion
[ 10167 10162 10161 10158 ] final -145.42 input  -65.29 | X-H torsion
[ 10718 10713 10712 10709 ] final   11.36 input   66.30 | X-H torsion
[ 10763 10752 10751 10750 ] final -174.11 input  -60.55 | X-H torsion
[ 11005 11000 10999 10996 ] final -105.56 input  -57.11 | X-H torsion

> <Gold.Protein.ActiveResidues>
 VAL166  LYS551  ARG553  GLY616  TRP617  ASP618  TYR619  PRO620  LYS621  CYS622 
 ASP623  PHE694  ASN695  SER759  ASP760  ASP761  ALA762  ILE779  LEU786  VAL792 
 PHE793  MET794  SER795  GLU796  ALA797  LYS798  CYS799  TRP800  GLU811  SER814 

> <Gold.Protein.RotatedAtoms>
  151.3382  133.3973  159.2668 H   0  0  0  0  0  0  0  0  0  0  0  0  # atno 6907 bound_to 6896
  150.9899  134.9237  159.7904 H   0  0  0  0  0  0  0  0  0  0  0  0  # atno 6908 bound_to 6896
  152.5244  134.3347  159.9248 H   0  0  0  0  0  0  0  0  0  0  0  0  # atno 6909 bound_to 6896
  146.1895  140.3912  142.8463 H   0  0  0  0  0  0  0  0  0  0  0  0  # atno 7974 bound_to 7965
  155.8152  140.0911  157.1881 H   0  0  0  0  0  0  0  0  0  0  0  0  # atno 8008 bound_to 7997
  154.3979  140.1447  156.3494 H   0  0  0  0  0  0  0  0  0  0  0  0  # atno 8009 bound_to 7997
  155.8323  140.3442  155.5583 H   0  0  0  0  0  0  0  0  0  0  0  0  # atno 8010 bound_to 7997
  139.7807  143.8105  152.2638 H   0  0  0  0  0  0  0  0  0  0  0  0  # atno 10167 bound_to 10162
  156.9945  130.6055  149.5689 H   0  0  0  0  0  0  0  0  0  0  0  0  # atno 10718 bound_to 10713
  154.6001  135.2853  155.0545 H   0  0  0  0  0  0  0  0  0  0  0  0  # atno 10763 bound_to 10752
  154.1813  135.6456  153.5039 H   0  0  0  0  0  0  0  0  0  0  0  0  # atno 10764 bound_to 10752
  153.0153  135.5424  154.6716 H   0  0  0  0  0  0  0  0  0  0  0  0  # atno 10765 bound_to 10752
  141.1047  133.8818  157.1749 H   0  0  0  0  0  0  0  0  0  0  0  0  # atno 11005 bound_to 11000
  144.8460  140.6929  143.6199 LP  0  0  0  0  0  0  0  0  0  0  0  0  # atno 17320 bound_to 7965
  145.3836  139.1631  143.4267 LP  0  0  0  0  0  0  0  0  0  0  0  0  # atno 17321 bound_to 7965
  139.8166  144.7313  150.9627 LP  0  0  0  0  0  0  0  0  0  0  0  0  # atno 17342 bound_to 10162
  140.7818  143.4199  151.0858 LP  0  0  0  0  0  0  0  0  0  0  0  0  # atno 17343 bound_to 10162
  156.0194  130.5289  150.8232 LP  0  0  0  0  0  0  0  0  0  0  0  0  # atno 17370 bound_to 10713
  157.5435  131.0941  150.9795 LP  0  0  0  0  0  0  0  0  0  0  0  0  # atno 17371 bound_to 10713
  139.9913  135.0063  156.9981 LP  0  0  0  0  0  0  0  0  0  0  0  0  # atno 17394 bound_to 11000
  140.4932  134.1172  155.7236 LP  0  0  0  0  0  0  0  0  0  0  0  0  # atno 17395 bound_to 11000

$$$$
