AV-unprocessed.smi:155|AV-procd|sdf|1286|dock4
  -GOLD-   2262018563D 1   1.00000     0.00000
 Structure written by MMmdl.
 64 67  0  0  0  0  0  0  0  0  3 V2000
  147.1313  130.5787  153.3182 C   0  0  0  0  0  0  0  0  0  0  0  0
  148.4458  131.2435  153.1658 N   0  3  0  0  0  0  0  0  0  0  0  0
  149.4015  130.8030  154.2064 C   0  0  0  0  0  0  0  0  0  0  0  0
  148.3470  132.7230  153.0870 C   0  0  0  0  0  0  0  0  0  0  0  0
  147.4831  133.1977  151.8994 C   0  0  0  0  0  0  0  0  0  0  0  0
  146.5831  134.3249  152.2617 N   0  3  1  0  0  0  0  0  0  0  0  0
  145.6866  134.7371  151.1483 C   0  0  0  0  0  0  0  0  0  0  0  0
  145.6253  136.2713  151.0449 C   0  0  0  0  0  0  0  0  0  0  0  0
  144.8207  136.9438  152.1711 C   0  0  0  0  0  0  0  0  0  0  0  0
  145.2861  136.5666  153.5044 N   0  0  0  0  0  0  0  0  0  0  0  0
  146.3479  137.1864  154.1044 C   0  0  0  0  0  0  0  0  0  0  0  0
  147.0406  136.4835  155.0416 N   0  0  0  0  0  0  0  0  0  0  0  0
  148.0912  137.0151  155.6701 C   0  0  0  0  0  0  0  0  0  0  0  0
  148.6270  138.2238  155.5142 N   0  0  0  0  0  0  0  0  0  0  0  0
  147.9481  138.9458  154.5798 C   0  0  0  0  0  0  0  0  0  0  0  0
  146.8098  138.5145  153.8340 C   0  0  0  0  0  0  0  0  0  0  0  0
  146.4158  139.5401  152.9787 N   0  0  0  0  0  0  0  0  0  0  0  0
  147.2577  140.5094  153.2071 C   0  0  0  0  0  0  0  0  0  0  0  0
  148.2122  140.2363  154.1565 N   0  0  0  0  0  0  0  0  0  0  0  0
  149.2695  141.1281  154.6025 C   0  0  0  0  0  0  0  0  0  0  0  0
  150.2145  140.4611  155.6249 C   0  0  1  0  0  0  0  0  0  0  0  0
  151.2433  139.8022  154.9113 O   0  0  0  0  0  0  0  0  0  0  0  0
  150.8804  141.4692  156.5833 C   0  0  1  0  0  0  0  0  0  0  0  0
  149.9126  142.2407  157.4822 C   0  0  0  0  0  0  0  0  0  0  0  0
  150.7802  142.6613  158.6557 C   0  0  0  0  0  0  0  0  0  0  0  0
  151.9580  141.6855  158.6063 C   0  0  0  0  0  0  0  0  0  0  0  0
  151.6509  140.7784  157.5559 O   0  0  0  0  0  0  0  0  0  0  0  0
  144.8856  135.2295  153.9532 C   0  0  0  0  0  0  0  0  0  0  0  0
  145.8723  134.1081  153.5540 C   0  0  0  0  0  0  0  0  0  0  0  0
  146.6427  130.8842  154.2443 H   0  0  0  0  0  0  0  0  0  0  0  0
  147.2506  129.4949  153.3399 H   0  0  0  0  0  0  0  0  0  0  0  0
  146.4677  130.8143  152.4867 H   0  0  0  0  0  0  0  0  0  0  0  0
  149.0729  131.1167  155.1981 H   0  0  0  0  0  0  0  0  0  0  0  0
  150.3924  131.2208  154.0259 H   0  0  0  0  0  0  0  0  0  0  0  0
  149.4993  129.7168  154.2065 H   0  0  0  0  0  0  0  0  0  0  0  0
  147.9731  133.1148  154.0339 H   0  0  0  0  0  0  0  0  0  0  0  0
  149.3528  133.1268  152.9572 H   0  0  0  0  0  0  0  0  0  0  0  0
  148.1637  133.5336  151.1156 H   0  0  0  0  0  0  0  0  0  0  0  0
  146.8977  132.3791  151.4787 H   0  0  0  0  0  0  0  0  0  0  0  0
  146.0671  134.3643  150.1969 H   0  0  0  0  0  0  0  0  0  0  0  0
  144.6929  134.3000  151.2580 H   0  0  0  0  0  0  0  0  0  0  0  0
  146.6384  136.6725  151.0102 H   0  0  0  0  0  0  0  0  0  0  0  0
  145.1673  136.5423  150.0932 H   0  0  0  0  0  0  0  0  0  0  0  0
  144.8008  138.0256  152.0535 H   0  0  0  0  0  0  0  0  0  0  0  0
  143.7759  136.6444  152.0790 H   0  0  0  0  0  0  0  0  0  0  0  0
  148.5704  136.3817  156.4023 H   0  0  0  0  0  0  0  0  0  0  0  0
  147.2057  141.4552  152.6871 H   0  0  0  0  0  0  0  0  0  0  0  0
  149.8308  141.4743  153.7338 H   0  0  0  0  0  0  0  0  0  0  0  0
  148.7958  142.0090  155.0360 H   0  0  0  0  0  0  0  0  0  0  0  0
  149.6569  139.7211  156.2006 H   0  0  0  0  0  0  0  0  0  0  0  0
  151.7940  139.3464  155.5291 H   0  0  0  0  0  0  0  0  0  0  0  0
  151.5133  142.1725  156.0378 H   0  0  0  0  0  0  0  0  0  0  0  0
  149.4483  143.0885  156.9777 H   0  0  0  0  0  0  0  0  0  0  0  0
  149.1191  141.5798  157.8342 H   0  0  0  0  0  0  0  0  0  0  0  0
  151.1329  143.6863  158.5351 H   0  0  0  0  0  0  0  0  0  0  0  0
  150.2337  142.6013  159.5973 H   0  0  0  0  0  0  0  0  0  0  0  0
  152.8847  142.2114  158.3727 H   0  0  0  0  0  0  0  0  0  0  0  0
  152.0964  141.1521  159.5466 H   0  0  0  0  0  0  0  0  0  0  0  0
  144.7073  135.2159  155.0293 H   0  0  0  0  0  0  0  0  0  0  0  0
  143.9137  135.0048  153.5124 H   0  0  0  0  0  0  0  0  0  0  0  0
  145.3448  133.1534  153.5362 H   0  0  0  0  0  0  0  0  0  0  0  0
  146.6192  134.0302  154.3432 H   0  0  0  0  0  0  0  0  0  0  0  0
  148.8306  130.9296  152.2861 H   0  0  0  0  0  0  0  0  0  0  0  0
  147.1912  135.1184  152.4059 H   0  0  0  0  0  0  0  0  0  0  0  0
  1  2  1  0  0  0  0
  1 30  1  0  0  0  0
  1 31  1  0  0  0  0
  1 32  1  0  0  0  0
  2  3  1  0  0  0  0
  2  4  1  0  0  0  0
  2 63  1  0  0  0  0
  3 33  1  0  0  0  0
  3 34  1  0  0  0  0
  3 35  1  0  0  0  0
  4  5  1  0  0  0  0
  4 36  1  0  0  0  0
  4 37  1  0  0  0  0
  5  6  1  0  0  0  0
  5 38  1  0  0  0  0
  5 39  1  0  0  0  0
  6 29  1  0  0  0  0
  6  7  1  0  0  0  0
  6 64  1  0  0  0  0
  7  8  1  0  0  0  0
  7 40  1  0  0  0  0
  7 41  1  0  0  0  0
  8  9  1  0  0  0  0
  8 42  1  0  0  0  0
  8 43  1  0  0  0  0
  9 10  1  0  0  0  0
  9 44  1  0  0  0  0
  9 45  1  0  0  0  0
 10 11  1  0  0  0  0
 10 28  1  0  0  0  0
 11 16  1  0  0  0  0
 11 12  2  0  0  0  0
 12 13  1  0  0  0  0
 13 14  2  0  0  0  0
 13 46  1  0  0  0  0
 14 15  1  0  0  0  0
 15 19  1  0  0  0  0
 15 16  2  0  0  0  0
 16 17  1  0  0  0  0
 17 18  2  0  0  0  0
 18 19  1  0  0  0  0
 18 47  1  0  0  0  0
 19 20  1  0  0  0  0
 20 21  1  0  0  0  0
 20 48  1  0  0  0  0
 20 49  1  0  0  0  0
 21 22  1  0  0  0  0
 21 23  1  0  0  0  0
 21 50  1  0  0  0  0
 22 51  1  0  0  0  0
 23 27  1  0  0  0  0
 23 24  1  0  0  0  0
 23 52  1  0  0  0  0
 24 25  1  0  0  0  0
 24 53  1  0  0  0  0
 24 54  1  0  0  0  0
 25 26  1  0  0  0  0
 25 55  1  0  0  0  0
 25 56  1  0  0  0  0
 26 27  1  0  0  0  0
 26 57  1  0  0  0  0
 26 58  1  0  0  0  0
 28 29  1  0  0  0  0
 28 59  1  0  0  0  0
 28 60  1  0  0  0  0
 29 61  1  0  0  0  0
 29 62  1  0  0  0  0
M  CHG  1   2   1
M  CHG  1   6   1
M  END
> <s_m_source_file>
AV-unprocessed.smi

> <i_m_source_file_index>
155

> <i_lp_mmshare_version>
43012

> <i_f3d_flags>
0

> <s_epik_input>
W0NIM11OKFtDSDNdKVtDSDJdW0NIMl1OMVtDSDJdW0NIMl1bQ0gyXU4oW0NIMl1bQ0gyXTEpYyhuW2NIXW4yKWMoYzIzKW5bY0hdbjNbQ0gyXVtDQEhdKFtPSF0pW0NAQEhdNFtDSDJdW0NIMl1bQ0gyXU80

> <s_epik_cmdline>
J2VwaWtfcHl0aG9uJywgJy1waCcsICc3LjAnLCAnLXRuJywgJzgnLCAnLW1hJywgJzIwMCcsICctbWV0YWxfYmluZGluZycsICctaW1hZScsICc8aW5maWxlLm1hZT4nLCAnLW9tYWUnLCAnPG91dGZpbGUubWFlPic=

> <r_lp_tautomer_probability>
1

> <r_epik_Ionization_Penalty>
3.0333

> <r_epik_Ionization_Penalty_Charging>
3.03317

> <r_epik_Ionization_Penalty_Neutral>
0.000131872

> <r_epik_State_Penalty>
1.99939

> <r_epik_Charging_Adjusted_Penalty>
5.03256

> <i_epik_Tot_Q>
2

> <i_epik_Tot_abs_Q>
2

> <r_epik_Metal_State_Penalty>
2.00021

> <b_epik_Metal_Only>
0

> <s_lp_Force_Field>
OPLS_2005

> <r_lp_Energy>
62.6942

> <b_lp_Chiralities_Consistent>
1

> <s_lp_Variant>
AV-unprocessed.smi:155-20

> <Gold.Version>
5.8.1

> <Gold.Id.Protein>
6NUR|6NUR_protein|mol2

> <Gold.PLP.Fitness>
50.6765

> <Gold.PLP.PLP>
-40.0857

> <Gold.PLP.part.hbond>
-3.0000

> <Gold.PLP.part.metal>
0.0000

> <Gold.PLP.part.buried>
-2.8787

> <Gold.PLP.part.nonpolar>
-34.4709

> <Gold.PLP.part.repulsive>
0.8679

> <Gold.PLP.ligand.clash>
0.1653

> <Gold.PLP.ligand.torsion>
0.8562

> <Gold.PLP.Chemscore.Hbond>
3.9840

> <Gold.PLP.Chemscore.CHOScore>
0.0000

> <Gold.PLP.Chemscore.Metal>
0.0000

> <Gold.Chemscore.Hbonds>
donor molecule, donor type, donor heavy atom, donor atom, acceptor molecule, acceptor atom, score
      L1  H     2    63       P1 10747  1.00
      L1  H     6    64       P1  7948  1.47
      P1  H  7989  7998       L1    22  1.00

> <Gold.PLP.Chemscore.Internal.Correction>
0.5164

> <Gold.Rescore>
     Score         DG    S(hbond)    S(metal)    S(lipo)     H(rot)  DE(clash)    DE(int)     intcor
     13.41     -17.90       2.68        0.00      89.90       2.75       0.75       3.74       ----

> <Gold.Chemscore.Fitness>
13.4104

> <Gold.Chemscore.DG>
-17.8996

> <Gold.Chemscore.ZeroCoef>
-5.4800

> <Gold.Chemscore.Hbond>
2.6764

> <Gold.Chemscore.Metal>
0.0000

> <Gold.Chemscore.Lipo>
89.9036

> <Gold.Chemscore.Internal_Hbond>
0.0000

> <Gold.Chemscore.DEClash>
0.7523

> <Gold.Chemscore.DEInternal>
3.7370

> <Gold.Chemscore.Rot>
2.7493

> <Gold.Chemscore.Internal.Correction>
   9.000000E+99

> <Gold.Chemscore.Hbonds>
donor molecule, donor type, donor heavy atom, donor atom, acceptor molecule, acceptor atom, score
      L1  H     2    63       P1 10747  0.62
      L1  H     6    64       P1  7948  0.69
      P1  H  7989  7998       L1    22  0.55

> <Gold.Chemscore.Hbond.Weighted>
-8.9392

> <Gold.Chemscore.Metal.Weighted>
-0.0000

> <Gold.Chemscore.Lipo.Weighted>
-10.5187

> <Gold.Chemscore.Internal_Hbond.Weighted>
0.0000

> <Gold.Chemscore.DEClash.Weighted>
0.7523

> <Gold.Chemscore.DEInternal.Weighted>
3.7370

> <Gold.Chemscore.Rot.Weighted>
7.0383

> <Gold.Chemscore.Internal.Correction.Weighted>
   9.000000E+99

> <Gold.Protein.RotatedTorsions>
[ 6907 6896 6895 6894 ] final   -3.61 input  -60.11 | X-H torsion
[ 7974 7965 7964 7962 ] final   41.19 input  175.53 | X-H torsion
[ 8008 7997 7996 7995 ] final  -20.63 input   59.86 | X-H torsion
[ 10167 10162 10161 10158 ] final   14.88 input  -65.29 | X-H torsion
[ 10718 10713 10712 10709 ] final  107.67 input   66.30 | X-H torsion
[ 10763 10752 10751 10750 ] final  127.25 input  -60.55 | X-H torsion
[ 11005 11000 10999 10996 ] final   21.16 input  -57.11 | X-H torsion

> <Gold.Protein.ActiveResidues>
 VAL166  LYS551  ARG553  GLY616  TRP617  ASP618  TYR619  PRO620  LYS621  CYS622 
 ASP623  PHE694  ASN695  SER759  ASP760  ASP761  ALA762  ILE779  LEU786  VAL792 
 PHE793  MET794  SER795  GLU796  ALA797  LYS798  CYS799  TRP800  GLU811  SER814 

> <Gold.Protein.RotatedAtoms>
  151.5109  135.1065  159.9853 H   0  0  0  0  0  0  0  0  0  0  0  0  # atno 6907 bound_to 6896
  152.4662  133.7924  159.6919 H   0  0  0  0  0  0  0  0  0  0  0  0  # atno 6908 bound_to 6896
  150.8647  133.7529  159.3006 H   0  0  0  0  0  0  0  0  0  0  0  0  # atno 6909 bound_to 6896
  146.0844  139.5445  142.9516 H   0  0  0  0  0  0  0  0  0  0  0  0  # atno 7974 bound_to 7965
  154.4757  140.2056  155.9884 H   0  0  0  0  0  0  0  0  0  0  0  0  # atno 8008 bound_to 7997
  156.1085  140.3232  155.8010 H   0  0  0  0  0  0  0  0  0  0  0  0  # atno 8009 bound_to 7997
  155.4675  140.0529  157.2974 H   0  0  0  0  0  0  0  0  0  0  0  0  # atno 8010 bound_to 7997
  140.5906  143.8804  150.6870 H   0  0  0  0  0  0  0  0  0  0  0  0  # atno 10167 bound_to 10162
  157.6618  131.0877  150.6191 H   0  0  0  0  0  0  0  0  0  0  0  0  # atno 10718 bound_to 10713
  153.7063  135.3275  155.3236 H   0  0  0  0  0  0  0  0  0  0  0  0  # atno 10763 bound_to 10752
  154.8398  135.4466  154.1359 H   0  0  0  0  0  0  0  0  0  0  0  0  # atno 10764 bound_to 10752
  153.2441  135.6974  153.7830 H   0  0  0  0  0  0  0  0  0  0  0  0  # atno 10765 bound_to 10752
  140.3946  134.1783  155.7663 H   0  0  0  0  0  0  0  0  0  0  0  0  # atno 11005 bound_to 11000
  145.6158  141.0331  143.1941 LP  0  0  0  0  0  0  0  0  0  0  0  0  # atno 17320 bound_to 7965
  144.7315  139.7711  143.7345 LP  0  0  0  0  0  0  0  0  0  0  0  0  # atno 17321 bound_to 7965
  140.2325  143.3724  152.1553 LP  0  0  0  0  0  0  0  0  0  0  0  0  # atno 17342 bound_to 10162
  139.5225  144.7059  151.5355 LP  0  0  0  0  0  0  0  0  0  0  0  0  # atno 17343 bound_to 10162
  156.6494  130.4481  149.5725 LP  0  0  0  0  0  0  0  0  0  0  0  0  # atno 17370 bound_to 10713
  156.2149  130.6702  151.1308 LP  0  0  0  0  0  0  0  0  0  0  0  0  # atno 17371 bound_to 10713
  141.1879  133.8272  157.1016 LP  0  0  0  0  0  0  0  0  0  0  0  0  # atno 17394 bound_to 11000
  140.0381  134.9868  157.0910 LP  0  0  0  0  0  0  0  0  0  0  0  0  # atno 17395 bound_to 11000

$$$$
