AV-unprocessed.smi:1131|AV-procd|sdf|4852|dock4
  -GOLD-   22720 3423D 1   1.00000     0.00000
 Structure written by MMmdl.
 32 33  0  0  0  0  0  0  0  0  2 V2000
  150.4586  140.4724  155.1217 O   0  0  0  0  0  0  0  0  0  0  0  0
  149.7545  141.4741  155.2546 C   0  0  0  0  0  0  0  0  0  0  0  0
  148.4784  141.6437  154.4212 C   0  0  0  0  0  0  0  0  0  0  0  0
  147.6776  140.4107  154.3681 N   0  0  0  0  0  0  0  0  0  0  0  0
  147.3747  139.8781  153.1026 C   0  0  0  0  0  0  0  0  0  0  0  0
  146.6458  138.7546  152.9609 C   0  0  0  0  0  0  0  0  0  0  0  0
  146.1660  138.0865  154.1644 C   0  0  0  0  0  0  0  0  0  0  0  0
  145.5024  137.0574  154.0542 O   0  0  0  0  0  0  0  0  0  0  0  0
  146.4827  138.6447  155.3694 N   0  5  0  0  0  0  0  0  0  0  0  0
  147.2236  139.7887  155.4983 C   0  0  0  0  0  0  0  0  0  0  0  0
  147.4967  140.2766  156.5959 O   0  0  0  0  0  0  0  0  0  0  0  0
  150.0286  142.4579  156.1237 N   0  0  0  0  0  0  0  0  0  0  0  0
  151.2109  142.5231  156.9747 C   0  0  0  0  0  0  0  0  0  0  0  0
  151.2139  143.7843  157.8608 C   0  0  2  0  0  0  0  0  0  0  0  0
  152.4964  143.9856  158.6410 C   0  0  0  0  0  0  0  0  0  0  0  0
  152.0432  144.9567  159.7239 C   0  0  0  0  0  0  0  0  0  0  0  0
  150.7194  144.5503  160.0498 O   0  0  0  0  0  0  0  0  0  0  0  0
  150.1634  143.7928  158.9768 C   0  0  0  0  0  0  0  0  0  0  0  0
  147.8991  142.4618  154.8507 H   0  0  0  0  0  0  0  0  0  0  0  0
  148.7280  141.9687  153.4092 H   0  0  0  0  0  0  0  0  0  0  0  0
  147.7621  140.4364  152.2631 H   0  0  0  0  0  0  0  0  0  0  0  0
  146.4198  138.3597  151.9814 H   0  0  0  0  0  0  0  0  0  0  0  0
  149.3909  143.2397  156.1670 H   0  0  0  0  0  0  0  0  0  0  0  0
  151.2249  141.6278  157.5969 H   0  0  0  0  0  0  0  0  0  0  0  0
  152.1127  142.4876  156.3616 H   0  0  0  0  0  0  0  0  0  0  0  0
  151.0587  144.6670  157.2377 H   0  0  0  0  0  0  0  0  0  0  0  0
  152.8236  143.0479  159.0928 H   0  0  0  0  0  0  0  0  0  0  0  0
  153.3120  144.3776  158.0326 H   0  0  0  0  0  0  0  0  0  0  0  0
  152.6932  144.9463  160.5990 H   0  0  0  0  0  0  0  0  0  0  0  0
  152.0123  145.9747  159.3335 H   0  0  0  0  0  0  0  0  0  0  0  0
  149.2176  144.2203  158.6416 H   0  0  0  0  0  0  0  0  0  0  0  0
  149.9653  142.7833  159.3385 H   0  0  0  0  0  0  0  0  0  0  0  0
  1  2  2  0  0  0  0
  2  3  1  0  0  0  0
  2 12  1  0  0  0  0
  3  4  1  0  0  0  0
  3 19  1  0  0  0  0
  3 20  1  0  0  0  0
  4 10  1  0  0  0  0
  4  5  1  0  0  0  0
  5  6  2  0  0  0  0
  5 21  1  0  0  0  0
  6  7  1  0  0  0  0
  6 22  1  0  0  0  0
  7  8  2  0  0  0  0
  7  9  1  0  0  0  0
  9 10  1  0  0  0  0
 10 11  2  0  0  0  0
 12 13  1  0  0  0  0
 12 23  1  0  0  0  0
 13 14  1  0  0  0  0
 13 24  1  0  0  0  0
 13 25  1  0  0  0  0
 14 18  1  0  0  0  0
 14 15  1  0  0  0  0
 14 26  1  0  0  0  0
 15 16  1  0  0  0  0
 15 27  1  0  0  0  0
 15 28  1  0  0  0  0
 16 17  1  0  0  0  0
 16 29  1  0  0  0  0
 16 30  1  0  0  0  0
 17 18  1  0  0  0  0
 18 31  1  0  0  0  0
 18 32  1  0  0  0  0
M  CHG  1   9  -1
M  END
> <s_m_source_file>
AV-unprocessed.smi

> <i_m_source_file_index>
1131

> <i_lp_mmshare_version>
43012

> <i_f3d_flags>
0

> <s_epik_input>
W0NIMl0xT1tDSDJdW0NIMl1bQ0BIXTFbQ0gyXVtOSF1DKD1PKVtDSDJdbjJbY0hdW2NIXWMoPU8pW25IXWMyPU8=

> <s_epik_cmdline>
J2VwaWtfcHl0aG9uJywgJy1waCcsICc3LjAnLCAnLXRuJywgJzgnLCAnLW1hJywgJzIwMCcsICctbWV0YWxfYmluZGluZycsICctaW1hZScsICc8aW5maWxlLm1hZT4nLCAnLW9tYWUnLCAnPG91dGZpbGUubWFlPic=

> <r_lp_tautomer_probability>
0.999537

> <r_epik_Ionization_Penalty>
3.07866

> <r_epik_Ionization_Penalty_Charging>
2.6898e-08

> <r_epik_Ionization_Penalty_Neutral>
3.07866

> <r_epik_State_Penalty>
3.07769

> <r_epik_Charging_Adjusted_Penalty>
3.07769

> <i_epik_Tot_Q>
-1

> <i_epik_Tot_abs_Q>
1

> <r_epik_Metal_State_Penalty>
0.459839

> <b_epik_Metal_Only>
1

> <s_lp_Force_Field>
OPLS_2005

> <r_lp_Energy>
26.4243

> <b_lp_Chiralities_Consistent>
1

> <s_lp_Variant>
AV-unprocessed.smi:1131-3

> <Gold.Version>
5.8.1

> <Gold.Id.Protein>
6NUR|6NUR_protein|mol2

> <Gold.PLP.Fitness>
38.9287

> <Gold.PLP.PLP>
-30.3803

> <Gold.PLP.part.hbond>
-2.0000

> <Gold.PLP.part.metal>
0.0000

> <Gold.PLP.part.buried>
-3.1150

> <Gold.PLP.part.nonpolar>
-25.6204

> <Gold.PLP.part.repulsive>
0.4516

> <Gold.PLP.ligand.clash>
0.0000

> <Gold.PLP.ligand.torsion>
0.2331

> <Gold.PLP.Chemscore.Hbond>
2.0000

> <Gold.PLP.Chemscore.CHOScore>
1.0000

> <Gold.PLP.Chemscore.Metal>
0.0000

> <Gold.Chemscore.Hbonds>
donor molecule, donor type, donor heavy atom, donor atom, acceptor molecule, acceptor atom, score
      L1  H    12    23       P1  8028  1.00
      P1  H  7989  7998       L1     1  0.98
      L1  C     5    21       P1  7957  0.96

> <Gold.PLP.Chemscore.Internal.Correction>
0.0146

> <Gold.Rescore>
     Score         DG    S(hbond)    S(metal)    S(lipo)     H(rot)  DE(clash)    DE(int)     intcor
     12.95     -14.72       1.69        0.00      75.60       2.05       0.21       1.56       ----

> <Gold.Chemscore.Fitness>
12.9512

> <Gold.Chemscore.DG>
-14.7210

> <Gold.Chemscore.ZeroCoef>
-5.4800

> <Gold.Chemscore.Hbond>
1.6870

> <Gold.Chemscore.Metal>
0.0000

> <Gold.Chemscore.Lipo>
75.5982

> <Gold.Chemscore.Internal_Hbond>
0.0000

> <Gold.Chemscore.DEClash>
0.2064

> <Gold.Chemscore.DEInternal>
1.5633

> <Gold.Chemscore.Rot>
2.0463

> <Gold.Chemscore.Internal.Correction>
   9.000000E+99

> <Gold.Chemscore.Hbonds>
donor molecule, donor type, donor heavy atom, donor atom, acceptor molecule, acceptor atom, score
      L1  H    12    23       P1  8028  0.96
      P1  H  7989  7998       L1     1  0.39

> <Gold.Chemscore.Hbond.Weighted>
-5.6346

> <Gold.Chemscore.Metal.Weighted>
-0.0000

> <Gold.Chemscore.Lipo.Weighted>
-8.8450

> <Gold.Chemscore.Internal_Hbond.Weighted>
0.0000

> <Gold.Chemscore.DEClash.Weighted>
0.2064

> <Gold.Chemscore.DEInternal.Weighted>
1.5633

> <Gold.Chemscore.Rot.Weighted>
5.2386

> <Gold.Chemscore.Internal.Correction.Weighted>
   9.000000E+99

> <Gold.Protein.RotatedTorsions>
[ 6907 6896 6895 6894 ] final -150.91 input  -60.11 | X-H torsion
[ 7974 7965 7964 7962 ] final  -18.25 input  175.53 | X-H torsion
[ 8008 7997 7996 7995 ] final -175.23 input   59.86 | X-H torsion
[ 10167 10162 10161 10158 ] final -164.59 input  -65.29 | X-H torsion
[ 10718 10713 10712 10709 ] final  -71.74 input   66.30 | X-H torsion
[ 10763 10752 10751 10750 ] final -170.39 input  -60.55 | X-H torsion
[ 11005 11000 10999 10996 ] final  -53.14 input  -57.11 | X-H torsion

> <Gold.Protein.ActiveResidues>
 VAL166  LYS551  ARG553  GLY616  TRP617  ASP618  TYR619  PRO620  LYS621  CYS622 
 ASP623  PHE694  ASN695  SER759  ASP760  ASP761  ALA762  ILE779  LEU786  VAL792 
 PHE793  MET794  SER795  GLU796  ALA797  LYS798  CYS799  TRP800  GLU811  SER814 

> <Gold.Protein.RotatedAtoms>
  151.2054  133.4586  159.2596 H   0  0  0  0  0  0  0  0  0  0  0  0  # atno 6907 bound_to 6896
  151.1028  134.9982  159.8467 H   0  0  0  0  0  0  0  0  0  0  0  0  # atno 6908 bound_to 6896
  152.5444  134.1979  159.8753 H   0  0  0  0  0  0  0  0  0  0  0  0  # atno 6909 bound_to 6896
  146.1901  140.3895  142.8461 H   0  0  0  0  0  0  0  0  0  0  0  0  # atno 7974 bound_to 7965
  155.9800  140.1180  157.0735 H   0  0  0  0  0  0  0  0  0  0  0  0  # atno 8008 bound_to 7997
  154.4180  140.1146  156.5491 H   0  0  0  0  0  0  0  0  0  0  0  0  # atno 8009 bound_to 7997
  155.6483  140.3473  155.4741 H   0  0  0  0  0  0  0  0  0  0  0  0  # atno 8010 bound_to 7997
  139.6240  144.0569  152.1958 H   0  0  0  0  0  0  0  0  0  0  0  0  # atno 10167 bound_to 10162
  156.0350  130.4357  150.2489 H   0  0  0  0  0  0  0  0  0  0  0  0  # atno 10718 bound_to 10713
  154.6420  135.2900  155.0092 H   0  0  0  0  0  0  0  0  0  0  0  0  # atno 10763 bound_to 10752
  154.1215  135.6547  153.4908 H   0  0  0  0  0  0  0  0  0  0  0  0  # atno 10764 bound_to 10752
  153.0331  135.5289  154.7291 H   0  0  0  0  0  0  0  0  0  0  0  0  # atno 10765 bound_to 10752
  141.0961  133.6624  156.4129 H   0  0  0  0  0  0  0  0  0  0  0  0  # atno 11005 bound_to 11000
  144.8471  140.6945  143.6192 LP  0  0  0  0  0  0  0  0  0  0  0  0  # atno 17320 bound_to 7965
  145.3818  139.1635  143.4276 LP  0  0  0  0  0  0  0  0  0  0  0  0  # atno 17321 bound_to 7965
  140.0217  144.6148  150.7561 LP  0  0  0  0  0  0  0  0  0  0  0  0  # atno 17342 bound_to 10162
  140.7399  143.2798  151.3633 LP  0  0  0  0  0  0  0  0  0  0  0  0  # atno 17343 bound_to 10162
  157.0589  131.0084  151.3229 LP  0  0  0  0  0  0  0  0  0  0  0  0  # atno 17370 bound_to 10713
  157.5085  130.7924  149.7680 LP  0  0  0  0  0  0  0  0  0  0  0  0  # atno 17371 bound_to 10713
  140.5137  134.6371  157.5293 LP  0  0  0  0  0  0  0  0  0  0  0  0  # atno 17394 bound_to 11000
  139.9798  134.7156  155.9881 LP  0  0  0  0  0  0  0  0  0  0  0  0  # atno 17395 bound_to 11000

$$$$
