AV-unprocessed.smi:1177|AV-procd|sdf|4954|dock6
  -GOLD-   22720 3543D 1   1.00000     0.00000
 Structure written by MMmdl.
 30 31  0  0  0  0  0  0  0  0  1 V2000
  149.3176  144.3716  161.0617 O   0  0  0  0  0  0  0  0  0  0  0  0
  148.9440  144.9430  160.0372 C   0  0  0  0  0  0  0  0  0  0  0  0
  149.7282  145.1631  158.9727 N   0  0  0  0  0  0  0  0  0  0  0  0
  151.1276  144.7657  158.8684 C   0  0  0  0  0  0  0  0  0  0  0  0
  151.8808  144.9847  160.1912 C   0  0  0  0  0  0  0  0  0  0  0  0
  152.7194  143.7818  160.5803 C   0  0  0  0  0  0  0  0  0  0  0  0
  153.0066  143.5118  161.9356 C   0  0  0  0  0  0  0  0  0  0  0  0
  153.7945  142.3856  162.2429 C   0  0  0  0  0  0  0  0  0  0  0  0
  154.2641  141.5782  161.1890 C   0  0  0  0  0  0  0  0  0  0  0  0
  153.9238  141.9350  159.8689 C   0  0  0  0  0  0  0  0  0  0  0  0
  153.1687  143.0121  159.5634 N   0  0  0  0  0  0  0  0  0  0  0  0
  147.7072  145.4227  159.8495 N   0  0  0  0  0  0  0  0  0  0  0  0
  146.6403  145.3505  160.7946 C   0  0  0  0  0  0  0  0  0  0  0  0
  146.4671  144.0572  161.5613 C   0  0  0  0  0  0  0  0  0  0  0  0
  145.4859  144.4227  160.4820 C   0  0  0  0  0  0  0  0  0  0  0  0
  149.3289  145.6380  158.1763 H   0  0  0  0  0  0  0  0  0  0  0  0
  151.1978  143.7227  158.5544 H   0  0  0  0  0  0  0  0  0  0  0  0
  151.5880  145.3594  158.0784 H   0  0  0  0  0  0  0  0  0  0  0  0
  152.5262  145.8605  160.1119 H   0  0  0  0  0  0  0  0  0  0  0  0
  151.1767  145.1963  160.9974 H   0  0  0  0  0  0  0  0  0  0  0  0
  152.6344  144.1519  162.7220 H   0  0  0  0  0  0  0  0  0  0  0  0
  154.0354  142.1463  163.2683 H   0  0  0  0  0  0  0  0  0  0  0  0
  154.8710  140.7072  161.3870 H   0  0  0  0  0  0  0  0  0  0  0  0
  154.2676  141.3395  159.0361 H   0  0  0  0  0  0  0  0  0  0  0  0
  147.5038  145.8769  158.9711 H   0  0  0  0  0  0  0  0  0  0  0  0
  146.3869  146.2628  161.3331 H   0  0  0  0  0  0  0  0  0  0  0  0
  147.1601  143.2439  161.3538 H   0  0  0  0  0  0  0  0  0  0  0  0
  146.1283  144.1278  162.5930 H   0  0  0  0  0  0  0  0  0  0  0  0
  144.4915  144.7364  160.7930 H   0  0  0  0  0  0  0  0  0  0  0  0
  145.5254  143.8542  159.5548 H   0  0  0  0  0  0  0  0  0  0  0  0
  1  2  2  0  0  0  0
  2  3  1  0  0  0  0
  2 12  1  0  0  0  0
  3  4  1  0  0  0  0
  3 16  1  0  0  0  0
  4  5  1  0  0  0  0
  4 17  1  0  0  0  0
  4 18  1  0  0  0  0
  5  6  1  0  0  0  0
  5 19  1  0  0  0  0
  5 20  1  0  0  0  0
  6 11  1  0  0  0  0
  6  7  2  0  0  0  0
  7  8  1  0  0  0  0
  7 21  1  0  0  0  0
  8  9  2  0  0  0  0
  8 22  1  0  0  0  0
  9 10  1  0  0  0  0
  9 23  1  0  0  0  0
 10 11  2  0  0  0  0
 10 24  1  0  0  0  0
 12 13  1  0  0  0  0
 12 25  1  0  0  0  0
 13 15  1  0  0  0  0
 13 14  1  0  0  0  0
 13 26  1  0  0  0  0
 14 15  1  0  0  0  0
 14 27  1  0  0  0  0
 14 28  1  0  0  0  0
 15 29  1  0  0  0  0
 15 30  1  0  0  0  0
M  END
> <s_m_source_file>
AV-unprocessed.smi

> <i_m_source_file_index>
1177

> <i_lp_mmshare_version>
43012

> <i_f3d_flags>
0

> <s_epik_input>
W0NIMl0xW0NIMl1bQ0hdMVtOSF1DKD1PKVtOSF1bQ0gyXVtDSDJdYzJbY0hdW2NIXVtjSF1bY0hdbjI=

> <s_epik_cmdline>
J2VwaWtfcHl0aG9uJywgJy1waCcsICc3LjAnLCAnLXRuJywgJzgnLCAnLW1hJywgJzIwMCcsICctbWV0YWxfYmluZGluZycsICctaW1hZScsICc8aW5maWxlLm1hZT4nLCAnLW9tYWUnLCAnPG91dGZpbGUubWFlPic=

> <r_epik_Ionization_Penalty>
0.0440342

> <r_epik_Ionization_Penalty_Charging>
0

> <r_epik_Ionization_Penalty_Neutral>
0.0440342

> <r_epik_State_Penalty>
0.0372351

> <r_epik_Charging_Adjusted_Penalty>
0.0372351

> <i_epik_Tot_Q>
0

> <i_epik_Tot_abs_Q>
0

> <r_epik_Metal_State_Penalty>
0.0346506

> <b_epik_Metal_Only>
0

> <s_lp_Force_Field>
OPLS_2005

> <r_lp_Energy>
12.265

> <b_lp_Chiralities_Consistent>
1

> <s_lp_Variant>
AV-unprocessed.smi:1177-1

> <Gold.Version>
5.8.1

> <Gold.Id.Protein>
6NUR|6NUR_protein|mol2

> <Gold.PLP.Fitness>
46.5301

> <Gold.PLP.PLP>
-41.1558

> <Gold.PLP.part.hbond>
-3.0000

> <Gold.PLP.part.metal>
0.0000

> <Gold.PLP.part.buried>
-7.9245

> <Gold.PLP.part.nonpolar>
-31.4828

> <Gold.PLP.part.repulsive>
0.6062

> <Gold.PLP.ligand.clash>
0.0000

> <Gold.PLP.ligand.torsion>
1.0194

> <Gold.PLP.Chemscore.Hbond>
2.4560

> <Gold.PLP.Chemscore.CHOScore>
0.0000

> <Gold.PLP.Chemscore.Metal>
0.0000

> <Gold.Chemscore.Hbonds>
donor molecule, donor type, donor heavy atom, donor atom, acceptor molecule, acceptor atom, score
      L1  H     3    16       P1  8029  0.94
      L1  H    12    25       P1  8029  0.93
      P1  H  6933  6944       L1     1  0.32

> <Gold.PLP.Chemscore.Internal.Correction>
0.0450

> <Gold.Rescore>
     Score         DG    S(hbond)    S(metal)    S(lipo)     H(rot)  DE(clash)    DE(int)     intcor
     18.73     -20.78       2.56        0.00      93.15       1.61       0.04       2.00       ----

> <Gold.Chemscore.Fitness>
18.7335

> <Gold.Chemscore.DG>
-20.7802

> <Gold.Chemscore.ZeroCoef>
-5.4800

> <Gold.Chemscore.Hbond>
2.5553

> <Gold.Chemscore.Metal>
0.0000

> <Gold.Chemscore.Lipo>
93.1545

> <Gold.Chemscore.Internal_Hbond>
0.0000

> <Gold.Chemscore.DEClash>
0.0446

> <Gold.Chemscore.DEInternal>
2.0022

> <Gold.Chemscore.Rot>
1.6147

> <Gold.Chemscore.Internal.Correction>
   9.000000E+99

> <Gold.Chemscore.Hbonds>
donor molecule, donor type, donor heavy atom, donor atom, acceptor molecule, acceptor atom, score
      L1  H     3    16       P1  8029  0.68
      L1  H    12    25       P1  8029  0.91
      P1  H  6933  6944       L1     1  0.30

> <Gold.Chemscore.Hbond.Weighted>
-8.5347

> <Gold.Chemscore.Metal.Weighted>
-0.0000

> <Gold.Chemscore.Lipo.Weighted>
-10.8991

> <Gold.Chemscore.Internal_Hbond.Weighted>
0.0000

> <Gold.Chemscore.DEClash.Weighted>
0.0446

> <Gold.Chemscore.DEInternal.Weighted>
2.0022

> <Gold.Chemscore.Rot.Weighted>
4.1336

> <Gold.Chemscore.Internal.Correction.Weighted>
   9.000000E+99

> <Gold.Protein.RotatedTorsions>
[ 6907 6896 6895 6894 ] final  166.48 input  -60.11 | X-H torsion
[ 7974 7965 7964 7962 ] final  122.10 input  175.53 | X-H torsion
[ 8008 7997 7996 7995 ] final   73.41 input   59.86 | X-H torsion
[ 10167 10162 10161 10158 ] final -172.79 input  -65.29 | X-H torsion
[ 10718 10713 10712 10709 ] final -111.71 input   66.30 | X-H torsion
[ 10763 10752 10751 10750 ] final  -32.78 input  -60.55 | X-H torsion
[ 11005 11000 10999 10996 ] final  -38.53 input  -57.11 | X-H torsion

> <Gold.Protein.ActiveResidues>
 VAL166  LYS551  ARG553  GLY616  TRP617  ASP618  TYR619  PRO620  LYS621  CYS622 
 ASP623  PHE694  ASN695  SER759  ASP760  ASP761  ALA762  ILE779  LEU786  VAL792 
 PHE793  MET794  SER795  GLU796  ALA797  LYS798  CYS799  TRP800  GLU811  SER814 

> <Gold.Protein.RotatedAtoms>
  151.8782  133.3490  159.3757 H   0  0  0  0  0  0  0  0  0  0  0  0  # atno 6907 bound_to 6896
  150.7134  134.5045  159.5586 H   0  0  0  0  0  0  0  0  0  0  0  0  # atno 6908 bound_to 6896
  152.2591  134.8053  160.0484 H   0  0  0  0  0  0  0  0  0  0  0  0  # atno 6909 bound_to 6896
  145.1115  139.3449  143.4760 H   0  0  0  0  0  0  0  0  0  0  0  0  # atno 7974 bound_to 7965
  155.7832  140.3481  155.5309 H   0  0  0  0  0  0  0  0  0  0  0  0  # atno 8008 bound_to 7997
  155.8708  140.0986  157.1572 H   0  0  0  0  0  0  0  0  0  0  0  0  # atno 8009 bound_to 7997
  154.4017  140.1341  156.4063 H   0  0  0  0  0  0  0  0  0  0  0  0  # atno 8010 bound_to 7997
  139.5724  144.1610  152.1403 H   0  0  0  0  0  0  0  0  0  0  0  0  # atno 10167 bound_to 10162
  156.0663  130.5881  150.8410 H   0  0  0  0  0  0  0  0  0  0  0  0  # atno 10718 bound_to 10713
  153.8194  135.6875  153.4829 H   0  0  0  0  0  0  0  0  0  0  0  0  # atno 10763 bound_to 10752
  153.1579  135.4592  154.9728 H   0  0  0  0  0  0  0  0  0  0  0  0  # atno 10764 bound_to 10752
  154.7934  135.3310  154.7667 H   0  0  0  0  0  0  0  0  0  0  0  0  # atno 10765 bound_to 10752
  141.0034  133.6944  156.2065 H   0  0  0  0  0  0  0  0  0  0  0  0  # atno 11005 bound_to 11000
  146.3526  140.1036  142.8607 LP  0  0  0  0  0  0  0  0  0  0  0  0  # atno 17320 bound_to 7965
  145.0841  140.9241  143.4807 LP  0  0  0  0  0  0  0  0  0  0  0  0  # atno 17321 bound_to 7965
  140.1146  144.5427  150.6903 LP  0  0  0  0  0  0  0  0  0  0  0  0  # atno 17342 bound_to 10162
  140.7008  143.2434  151.4869 LP  0  0  0  0  0  0  0  0  0  0  0  0  # atno 17343 bound_to 10162
  157.5706  131.0946  150.9423 LP  0  0  0  0  0  0  0  0  0  0  0  0  # atno 17370 bound_to 10713
  156.9641  130.5466  149.5287 LP  0  0  0  0  0  0  0  0  0  0  0  0  # atno 17371 bound_to 10713
  140.6852  134.4725  157.5589 LP  0  0  0  0  0  0  0  0  0  0  0  0  # atno 17394 bound_to 11000
  139.9051  134.8468  156.1740 LP  0  0  0  0  0  0  0  0  0  0  0  0  # atno 17395 bound_to 11000

$$$$
