#       Name:                AV-unprocessed.smi:3163
#       Creating user name   scv26
#       Creation time:       Fri Mar 27 17:50:38 2020


#       File generated by GOLD software.
#

@<TRIPOS>MOLECULE
AV-unprocessed.smi:3163
    39    40     1
SMALL
NO_CHARGES


@<TRIPOS>ATOM
      1 ****        -3.6712  -2.1631  -0.5797 C.3            1 S1                 0.0000
      2 ****        -2.6299  -1.8837  -1.5907 N.4            1 S1                 1.0000
      3 ****        -3.1380  -1.2413  -2.8220 C.3            1 S1                 0.0000
      4 ****        -1.9982  -0.3548  -3.3177 C.3            1 S1                 0.0000
      5 ****        -1.3754   0.1461  -2.0172 C.3            1 S1                 0.0000
      6 ****         0.0485   0.7104  -2.1857 C.3            1 S1                 0.0000
      7 ****         0.5559   1.3044  -0.9520 N.am           1 S1                 0.0000
      8 ****         1.3038   0.6762  -0.0331 C.2            1 S1                 0.0000
      9 ****         1.6276  -0.5080  -0.1171 O.2            1 S1                 0.0000
     10 ****         1.6225   1.4991   0.9812 N.am           1 S1                 0.0000
     11 ****         2.4002   1.2216   2.1390 C.ar           1 S1                 0.0000
     12 ****         2.2439   2.0791   3.2509 C.ar           1 S1                 0.0000
     13 ****         3.0032   1.8530   4.4171 C.ar           1 S1                 0.0000
     14 ****         3.8799   0.8272   4.4600 N.pl3          1 S1                 1.0000
     15 ****         4.0753  -0.0099   3.4186 C.ar           1 S1                 0.0000
     16 ****         3.3442   0.1662   2.2260 C.ar           1 S1                 0.0000
     17 ****        -1.4926  -1.0756  -1.0916 C.3            1 S1                 0.0000
     18 ****        -4.1218  -1.2396  -0.2141 H              1 S1                 0.0000
     19 ****        -3.2437  -2.6959   0.2702 H              1 S1                 0.0000
     20 ****        -4.4584  -2.7858  -1.0059 H              1 S1                 0.0000
     21 ****        -3.4470  -1.9807  -3.5613 H              1 S1                 0.0000
     22 ****        -4.0038  -0.6190  -2.5882 H              1 S1                 0.0000
     23 ****        -1.2780  -0.9517  -3.8797 H              1 S1                 0.0000
     24 ****        -2.3431   0.4542  -3.9625 H              1 S1                 0.0000
     25 ****        -2.0222   0.9333  -1.6252 H              1 S1                 0.0000
     26 ****         0.7287  -0.0590  -2.5554 H              1 S1                 0.0000
     27 ****         0.0389   1.4944  -2.9434 H              1 S1                 0.0000
     28 ****         0.3347   2.2776  -0.7981 H              1 S1                 0.0000
     29 ****         1.2163   2.4228   0.9451 H              1 S1                 0.0000
     30 ****         1.5448   2.9025   3.2171 H              1 S1                 0.0000
     31 ****         2.9373   2.4589   5.3091 H              1 S1                 0.0000
     32 ****         4.8105  -0.7875   3.5667 H              1 S1                 0.0000
     33 ****         3.5328  -0.5030   1.4007 H              1 S1                 0.0000
     34 ****        -1.6093  -0.7781  -0.0485 H              1 S1                 0.0000
     35 ****        -0.5993  -1.6974  -1.1569 H              1 S1                 0.0000
     36 ****        -2.2396  -2.7730  -1.8687 H              1 S1                 0.0000
     37 ****         4.4215   0.6816   5.3126 H              1 S1                 0.0000
     38 ****         1.3309  -1.0531  -0.9012 LP             1 S1                 0.0000
     39 ****         2.1875  -0.9253   0.5988 LP             1 S1                 0.0000
@<TRIPOS>BOND
    1    1    2 1     
    2    1   18 1     
    3    1   19 1     
    4    1   20 1     
    5    2   17 1     
    6    2    3 1     
    7    2   36 1     
    8    3    4 1     
    9    3   21 1     
   10    3   22 1     
   11    4    5 1     
   12    4   23 1     
   13    4   24 1     
   14    5    6 1     
   15    5   17 1     
   16    5   25 1     
   17    6    7 1     
   18    6   26 1     
   19    6   27 1     
   20    7    8 am    
   21    7   28 1     
   22    8    9 2     
   23    8   10 am    
   24   10   11 1     
   25   10   29 1     
   26   11   16 ar    
   27   11   12 ar    
   28   12   13 ar    
   29   12   30 1     
   30   13   14 ar    
   31   13   31 1     
   32   14   15 ar    
   33   14   37 1     
   34   15   16 ar    
   35   15   32 1     
   36   16   33 1     
   37   17   34 1     
   38   17   35 1     
   39    9   38 1     
   40    9   39 1     
@<TRIPOS>SUBSTRUCTURE
      1 S1             1
@<TRIPOS>SET
LONE_PAIRS      STATIC     ATOMS    <user>   **** ""
2 38 39
DONOR_HYDROGENS      STATIC     ATOMS    <user>   **** ""
4 36 28 29 37
ATOM$BLUE        STATIC     ATOMS    COLORGROUP SYSTEM
2 38 39
ATOM$RED        STATIC     ATOMS    COLORGROUP SYSTEM
4 36 28 29 37
