#       Name:                AV-unprocessed.smi:1929
#       Creating user name   scv26
#       Creation time:       Fri Mar 27 09:54:47 2020


#       File generated by GOLD software.
#

@<TRIPOS>MOLECULE
AV-unprocessed.smi:1929
    48    49     1
SMALL
NO_CHARGES


@<TRIPOS>ATOM
      1 ****        -4.4853   3.7728   1.9273 C.3            1 S1                 0.0000
      2 ****        -3.8926   2.4472   1.7926 N.pl3          1 S1                -1.0000
      3 ****        -3.2656   1.7981   2.8102 C.2            1 S1                 0.0000
      4 ****        -3.0597   2.1397   3.9795 O.2            1 S1                 0.0000
      5 ****        -2.7328   0.4361   2.3504 C.3            1 S1                 0.0000
      6 ****        -1.2492   0.4513   2.2976 N.4            1 S1                 1.0000
      7 ****        -0.7111   1.1697   1.1104 C.3            1 S1                 0.0000
      8 ****         0.8238   1.2614   1.1633 C.3            1 S1                 0.0000
      9 ****         1.4789  -0.1274   1.2942 C.3            1 S1                 0.0000
     10 ****         1.3309  -0.9143   0.0698 N.am           1 S1                 0.0000
     11 ****         2.0479  -0.7474  -1.0513 C.2            1 S1                 0.0000
     12 ****         2.9353   0.0974  -1.1665 O.2            1 S1                 0.0000
     13 ****         1.6496  -1.5992  -2.0121 N.am           1 S1                 0.0000
     14 ****         2.1255  -1.7236  -3.3459 C.ar           1 S1                 0.0000
     15 ****         1.2950  -2.3792  -4.2783 C.ar           1 S1                 0.0000
     16 ****         1.7477  -2.5288  -5.6044 C.ar           1 S1                 0.0000
     17 ****         2.9469  -2.0826  -6.0334 N.ar           1 S1                 0.0000
     18 ****         3.7466  -1.4677  -5.1365 C.ar           1 S1                 0.0000
     19 ****         3.3905  -1.2663  -3.7878 C.ar           1 S1                 0.0000
     20 ****         0.8640  -0.8725   2.4913 C.3            1 S1                 0.0000
     21 ****        -0.6738  -0.9125   2.4205 C.3            1 S1                 0.0000
     22 ****        -4.8373   4.1577   0.9702 H              1 S1                 0.0000
     23 ****        -3.7792   4.5088   2.3137 H              1 S1                 0.0000
     24 ****        -5.3449   3.7767   2.5983 H              1 S1                 0.0000
     25 ****        -3.0702  -0.2975   3.0838 H              1 S1                 0.0000
     26 ****        -3.1460   0.1213   1.3893 H              1 S1                 0.0000
     27 ****        -1.0300   0.6614   0.1993 H              1 S1                 0.0000
     28 ****        -1.1182   2.1797   1.0620 H              1 S1                 0.0000
     29 ****         1.1968   1.7828   0.2813 H              1 S1                 0.0000
     30 ****         1.1129   1.8749   2.0177 H              1 S1                 0.0000
     31 ****         2.5459   0.0011   1.4856 H              1 S1                 0.0000
     32 ****         0.6233  -1.6341   0.0748 H              1 S1                 0.0000
     33 ****         0.8615  -2.1863  -1.7823 H              1 S1                 0.0000
     34 ****         0.3255  -2.7579  -3.9896 H              1 S1                 0.0000
     35 ****         1.1294  -3.0218  -6.3400 H              1 S1                 0.0000
     36 ****         4.7046  -1.1300  -5.5031 H              1 S1                 0.0000
     37 ****         4.0933  -0.7818  -3.1282 H              1 S1                 0.0000
     38 ****         1.2633  -1.8858   2.5526 H              1 S1                 0.0000
     39 ****         1.1633  -0.3736   3.4142 H              1 S1                 0.0000
     40 ****        -1.0577  -1.3925   3.3216 H              1 S1                 0.0000
     41 ****        -0.9999  -1.5216   1.5761 H              1 S1                 0.0000
     42 ****        -0.9484   0.9648   3.1138 H              1 S1                 0.0000
     43 ****        -3.9502   1.9911   0.9045 LP             1 S1                 0.0000
     44 ****        -3.3791   3.0301   4.3039 LP             1 S1                 0.0000
     45 ****        -2.5737   1.5259   4.6015 LP             1 S1                 0.0000
     46 ****         3.1522   0.7024  -0.4004 LP             1 S1                 0.0000
     47 ****         3.4395   0.1790  -2.0263 LP             1 S1                 0.0000
     48 ****         3.2334  -2.2034  -6.9839 LP             1 S1                 0.0000
@<TRIPOS>BOND
    1    1    2 1     
    2    1   22 1     
    3    1   23 1     
    4    1   24 1     
    5    2    3 1     
    6    3    4 2     
    7    3    5 1     
    8    5    6 1     
    9    5   25 1     
   10    5   26 1     
   11    6   21 1     
   12    6    7 1     
   13    6   42 1     
   14    7    8 1     
   15    7   27 1     
   16    7   28 1     
   17    8    9 1     
   18    8   29 1     
   19    8   30 1     
   20    9   10 1     
   21    9   20 1     
   22    9   31 1     
   23   10   11 am    
   24   10   32 1     
   25   11   12 2     
   26   11   13 am    
   27   13   14 1     
   28   13   33 1     
   29   14   19 ar    
   30   14   15 ar    
   31   15   16 ar    
   32   15   34 1     
   33   16   17 ar    
   34   16   35 1     
   35   17   18 ar    
   36   18   19 ar    
   37   18   36 1     
   38   19   37 1     
   39   20   21 1     
   40   20   38 1     
   41   20   39 1     
   42   21   40 1     
   43   21   41 1     
   44    2   43 1     
   45    4   44 1     
   46    4   45 1     
   47   12   46 1     
   48   12   47 1     
   49   17   48 1     
@<TRIPOS>SUBSTRUCTURE
      1 S1             1
@<TRIPOS>SET
LONE_PAIRS      STATIC     ATOMS    <user>   **** ""
6 43 44 45 46 47 48
DONOR_HYDROGENS      STATIC     ATOMS    <user>   **** ""
3 42 32 33
ATOM$BLUE        STATIC     ATOMS    COLORGROUP SYSTEM
6 43 44 45 46 47 48
ATOM$RED        STATIC     ATOMS    COLORGROUP SYSTEM
3 42 32 33
