#       Name:                AV-unprocessed.smi:1489
#       Creating user name   scv26
#       Creation time:       Fri Mar 27 06:12:59 2020


#       File generated by GOLD software.
#

@<TRIPOS>MOLECULE
AV-unprocessed.smi:1489
    52    54     1
SMALL
NO_CHARGES


@<TRIPOS>ATOM
      1 ****        -1.0136   1.3665   0.2871 O.2            1 S1                 0.0000
      2 ****        -1.3600   0.1858   0.2538 C.2            1 S1                 0.0000
      3 ****        -0.5243  -0.8672   0.2466 N.am           1 S1                 0.0000
      4 ****         0.8965  -0.8647   0.2189 C.ar           1 S1                 0.0000
      5 ****         1.6753   0.2107  -0.2768 C.ar           1 S1                 0.0000
      6 ****         3.0814   0.1080  -0.2757 C.ar           1 S1                 0.0000
      7 ****         3.6939  -1.0697   0.2124 C.ar           1 S1                 0.0000
      8 ****         5.0818  -1.2644   0.2619 N.3            1 S1                 0.0000
      9 ****         5.7873  -0.3478   1.1427 C.3            1 S1                 0.0000
     10 ****         7.2594  -0.4180   0.7256 C.3            1 S1                 0.0000
     11 ****         7.2435  -1.0103  -0.6883 C.3            1 S1                 0.0000
     12 ****         5.7607  -1.1900  -1.0212 C.3            1 S1                 0.0000
     13 ****         2.9139  -2.0767   0.6625 N.pl3          1 S1                 1.0000
     14 ****         1.5644  -2.0198   0.6772 C.ar           1 S1                 0.0000
     15 ****        -2.6413  -0.2095   0.2388 N.am           1 S1                 0.0000
     16 ****        -3.7998   0.6798   0.2524 C.3            1 S1                 0.0000
     17 ****        -5.0331  -0.0916   0.7608 C.3            1 S1                 0.0000
     18 ****        -6.2966   0.7840   0.7378 C.3            1 S1                 0.0000
     19 ****        -6.5498   1.3530  -0.6686 C.3            1 S1                 0.0000
     20 ****        -7.6769   2.2028  -0.6386 O.3            1 S1                 0.0000
     21 ****        -5.3265   2.1361  -1.1751 C.3            1 S1                 0.0000
     22 ****        -4.0611   1.2633  -1.1530 C.3            1 S1                 0.0000
     23 ****        -0.9560  -1.7772   0.3169 H              1 S1                 0.0000
     24 ****         1.2226   1.1076  -0.6702 H              1 S1                 0.0000
     25 ****         3.6771   0.9281  -0.6487 H              1 S1                 0.0000
     26 ****         5.4119   0.6692   1.0210 H              1 S1                 0.0000
     27 ****         5.6545  -0.6314   2.1872 H              1 S1                 0.0000
     28 ****         7.7284   0.5660   0.7559 H              1 S1                 0.0000
     29 ****         7.8173  -1.0715   1.3973 H              1 S1                 0.0000
     30 ****         7.7466  -0.3709  -1.4145 H              1 S1                 0.0000
     31 ****         7.7503  -1.9762  -0.6896 H              1 S1                 0.0000
     32 ****         5.5895  -2.0925  -1.6087 H              1 S1                 0.0000
     33 ****         5.4017  -0.3384  -1.6002 H              1 S1                 0.0000
     34 ****         1.0633  -2.8964   1.0618 H              1 S1                 0.0000
     35 ****        -2.8334  -1.2003   0.2192 H              1 S1                 0.0000
     36 ****        -3.6048   1.5011   0.9450 H              1 S1                 0.0000
     37 ****        -5.1976  -0.9751   0.1420 H              1 S1                 0.0000
     38 ****        -4.8570  -0.4530   1.7748 H              1 S1                 0.0000
     39 ****        -7.1564   0.1989   1.0664 H              1 S1                 0.0000
     40 ****        -6.1843   1.5993   1.4541 H              1 S1                 0.0000
     41 ****        -6.7661   0.5348  -1.3568 H              1 S1                 0.0000
     42 ****        -7.5004   2.9159  -0.0440 H              1 S1                 0.0000
     43 ****        -5.5061   2.4991  -2.1877 H              1 S1                 0.0000
     44 ****        -5.1670   3.0186  -0.5535 H              1 S1                 0.0000
     45 ****        -3.2072   1.8565  -1.4822 H              1 S1                 0.0000
     46 ****        -4.1698   0.4525  -1.8749 H              1 S1                 0.0000
     47 ****         3.3667  -2.9229   1.0086 H              1 S1                 0.0000
     48 ****        -0.0420   1.6020   0.3115 LP             1 S1                 0.0000
     49 ****        -1.7037   2.0901   0.2898 LP             1 S1                 0.0000
     50 ****         5.1243  -2.1982   0.6172 LP             1 S1                 0.0000
     51 ****        -8.4763   1.6913  -0.3236 LP             1 S1                 0.0000
     52 ****        -7.8516   2.5633  -1.5548 LP             1 S1                 0.0000
@<TRIPOS>BOND
    1    1    2 2     
    2    2    3 am    
    3    2   15 am    
    4    3    4 1     
    5    3   23 1     
    6    4   14 ar    
    7    4    5 ar    
    8    5    6 ar    
    9    5   24 1     
   10    6    7 ar    
   11    6   25 1     
   12    7    8 1     
   13    7   13 ar    
   14    8   12 1     
   15    8    9 1     
   16    9   10 1     
   17    9   26 1     
   18    9   27 1     
   19   10   11 1     
   20   10   28 1     
   21   10   29 1     
   22   11   12 1     
   23   11   30 1     
   24   11   31 1     
   25   12   32 1     
   26   12   33 1     
   27   13   14 ar    
   28   13   47 1     
   29   14   34 1     
   30   15   16 1     
   31   15   35 1     
   32   16   22 1     
   33   16   17 1     
   34   16   36 1     
   35   17   18 1     
   36   17   37 1     
   37   17   38 1     
   38   18   19 1     
   39   18   39 1     
   40   18   40 1     
   41   19   20 1     
   42   19   21 1     
   43   19   41 1     
   44   20   42 1     
   45   21   22 1     
   46   21   43 1     
   47   21   44 1     
   48   22   45 1     
   49   22   46 1     
   50    1   48 1     
   51    1   49 1     
   52    8   50 1     
   53   20   51 1     
   54   20   52 1     
@<TRIPOS>SUBSTRUCTURE
      1 S1             1
@<TRIPOS>SET
LONE_PAIRS      STATIC     ATOMS    <user>   **** ""
5 48 49 50 51 52
DONOR_HYDROGENS      STATIC     ATOMS    <user>   **** ""
4 23 47 35 42
ATOM$BLUE        STATIC     ATOMS    COLORGROUP SYSTEM
5 48 49 50 51 52
ATOM$RED        STATIC     ATOMS    COLORGROUP SYSTEM
4 23 47 35 42
