#       Name:                AV-unprocessed.smi:2261
#       Creating user name   scv26
#       Creation time:       Fri Mar 27 12:34:15 2020


#       File generated by GOLD software.
#

@<TRIPOS>MOLECULE
AV-unprocessed.smi:2261
    46    47     1
SMALL
NO_CHARGES


@<TRIPOS>ATOM
      1 ****        -3.3771  -2.3377   1.0003 C.3            1 S1                 0.0000
      2 ****        -2.8958  -1.0218   0.3701 C.3            1 S1                 0.0000
      3 ****        -3.9235   0.1023   0.5859 C.3            1 S1                 0.0000
      4 ****        -1.4977  -0.6213   0.8570 C.3            1 S1                 0.0000
      5 ****        -0.8648  -0.0036  -0.3743 C.3            1 S1                 0.0000
      6 ****         0.5939  -0.0619  -0.3106 N.am           1 S1                 0.0000
      7 ****         1.4331   0.7736  -0.9406 C.2            1 S1                 0.0000
      8 ****         1.0602   1.7060  -1.6518 O.2            1 S1                 0.0000
      9 ****         2.9261   0.5194  -0.7346 C.3            1 S1                 0.0000
     10 ****         3.4342   1.3120   0.4557 C.ar           1 S1                 0.0000
     11 ****         3.4355   0.7554   1.7517 C.ar           1 S1                 0.0000
     12 ****         3.9150   1.5328   2.8232 C.ar           1 S1                 0.0000
     13 ****         4.3747   2.8372   2.5525 C.ar           1 S1                 0.0000
     14 ****         4.3791   3.3804   1.3162 N.ar           1 S1                 0.0000
     15 ****         3.9168   2.6285   0.2941 C.ar           1 S1                 0.0000
     16 ****        -1.4784  -0.8409  -1.5182 C.3            1 S1                 0.0000
     17 ****        -1.6781  -0.0208  -2.8026 C.3            1 S1                 0.0000
     18 ****        -0.7251  -2.1534  -1.8205 C.3            1 S1                 0.0000
     19 ****        -2.7686  -1.2153  -1.0378 O.3            1 S1                 0.0000
     20 ****        -3.4702  -2.2456   2.0827 H              1 S1                 0.0000
     21 ****        -2.6825  -3.1525   0.7937 H              1 S1                 0.0000
     22 ****        -4.3504  -2.6308   0.6058 H              1 S1                 0.0000
     23 ****        -4.0633   0.3111   1.6469 H              1 S1                 0.0000
     24 ****        -4.8951  -0.1686   0.1712 H              1 S1                 0.0000
     25 ****        -3.6098   1.0288   0.1045 H              1 S1                 0.0000
     26 ****        -1.5179   0.0593   1.7090 H              1 S1                 0.0000
     27 ****        -0.9354  -1.5060   1.1605 H              1 S1                 0.0000
     28 ****        -1.2003   1.0331  -0.4436 H              1 S1                 0.0000
     29 ****         0.9942  -0.7975   0.2531 H              1 S1                 0.0000
     30 ****         3.1114  -0.5450  -0.5826 H              1 S1                 0.0000
     31 ****         3.4736   0.8087  -1.6326 H              1 S1                 0.0000
     32 ****         3.0736  -0.2477   1.9237 H              1 S1                 0.0000
     33 ****         3.9299   1.1397   3.8288 H              1 S1                 0.0000
     34 ****         4.7492   3.4607   3.3508 H              1 S1                 0.0000
     35 ****         3.9311   3.0922  -0.6815 H              1 S1                 0.0000
     36 ****        -0.7236   0.2886  -3.2284 H              1 S1                 0.0000
     37 ****        -2.2645   0.8783  -2.6106 H              1 S1                 0.0000
     38 ****        -2.2054  -0.6002  -3.5608 H              1 S1                 0.0000
     39 ****         0.2634  -1.9621  -2.2392 H              1 S1                 0.0000
     40 ****        -1.2720  -2.7578  -2.5446 H              1 S1                 0.0000
     41 ****        -0.5961  -2.7595  -0.9236 H              1 S1                 0.0000
     42 ****         0.0834   1.8735  -1.7852 LP             1 S1                 0.0000
     43 ****         1.7340   2.2963  -2.0963 LP             1 S1                 0.0000
     44 ****         4.7141   4.3100   1.1624 LP             1 S1                 0.0000
     45 ****        -3.4589  -0.6609  -1.5028 LP             1 S1                 0.0000
     46 ****        -2.9218  -2.1814  -1.2453 LP             1 S1                 0.0000
@<TRIPOS>BOND
    1    1    2 1     
    2    1   20 1     
    3    1   21 1     
    4    1   22 1     
    5    2   19 1     
    6    2    3 1     
    7    2    4 1     
    8    3   23 1     
    9    3   24 1     
   10    3   25 1     
   11    4    5 1     
   12    4   26 1     
   13    4   27 1     
   14    5    6 1     
   15    5   16 1     
   16    5   28 1     
   17    6    7 am    
   18    6   29 1     
   19    7    8 2     
   20    7    9 1     
   21    9   10 1     
   22    9   30 1     
   23    9   31 1     
   24   10   15 ar    
   25   10   11 ar    
   26   11   12 ar    
   27   11   32 1     
   28   12   13 ar    
   29   12   33 1     
   30   13   14 ar    
   31   13   34 1     
   32   14   15 ar    
   33   15   35 1     
   34   16   17 1     
   35   16   18 1     
   36   16   19 1     
   37   17   36 1     
   38   17   37 1     
   39   17   38 1     
   40   18   39 1     
   41   18   40 1     
   42   18   41 1     
   43    8   42 1     
   44    8   43 1     
   45   14   44 1     
   46   19   45 1     
   47   19   46 1     
@<TRIPOS>SUBSTRUCTURE
      1 S1             1
@<TRIPOS>SET
LONE_PAIRS      STATIC     ATOMS    <user>   **** ""
5 42 43 44 45 46
DONOR_HYDROGENS      STATIC     ATOMS    <user>   **** ""
1 29
ATOM$BLUE        STATIC     ATOMS    COLORGROUP SYSTEM
5 42 43 44 45 46
ATOM$RED        STATIC     ATOMS    COLORGROUP SYSTEM
1 29
