AV-unprocessed.smi:1173|AV-procd|sdf|4945|dock1
  -GOLD-   22720 3533D 1   1.00000     0.00000
 Structure written by MMmdl.
 37 38  0  0  0  0  0  0  0  0  1 V2000
  151.3674  139.5023  156.6705 C   0  0  0  0  0  0  0  0  0  0  0  0
  150.9314  138.3522  157.4716 N   0  0  0  0  0  0  0  0  0  0  0  0
  150.0282  137.3955  156.8107 C   0  0  0  0  0  0  0  0  0  0  0  0
  150.4580  137.0528  155.3773 C   0  0  0  0  0  0  0  0  0  0  0  0
  149.5569  137.2679  154.4160 N   0  0  0  0  0  0  0  0  0  0  0  0
  151.5708  136.5869  155.1364 O   0  0  0  0  0  0  0  0  0  0  0  0
  151.3434  138.1502  158.7490 C   0  0  0  0  0  0  0  0  0  0  0  0
  151.0480  137.1522  159.4076 O   0  0  0  0  0  0  0  0  0  0  0  0
  152.2005  139.2065  159.3828 C   0  0  0  0  0  0  0  0  0  0  0  0
  151.8245  140.4919  159.1976 N   0  0  0  0  0  0  0  0  0  0  0  0
  152.5738  141.4580  159.7442 C   0  0  0  0  0  0  0  0  0  0  0  0
  152.1670  142.7841  159.5449 N   0  0  0  0  0  0  0  0  0  0  0  0
  151.9335  143.6947  160.6692 C   0  0  0  0  0  0  0  0  0  0  0  0
  152.2097  145.1520  160.2627 C   0  0  0  0  0  0  0  0  0  0  0  0
  151.4320  145.4898  159.1213 O   0  0  0  0  0  0  0  0  0  0  0  0
  151.7685  144.6789  158.0028 C   0  0  0  0  0  0  0  0  0  0  0  0
  151.4770  143.2027  158.3217 C   0  0  0  0  0  0  0  0  0  0  0  0
  153.6824  141.2491  160.4666 N   0  0  0  0  0  0  0  0  0  0  0  0
  154.0822  139.9734  160.6532 C   0  0  0  0  0  0  0  0  0  0  0  0
  153.3662  138.8857  160.1189 C   0  0  0  0  0  0  0  0  0  0  0  0
  153.9220  137.2644  160.3526 Cl  0  0  0  0  0  0  0  0  0  0  0  0
  150.9643  140.4312  157.0738 H   0  0  0  0  0  0  0  0  0  0  0  0
  151.0336  139.4373  155.6348 H   0  0  0  0  0  0  0  0  0  0  0  0
  152.4557  139.5770  156.6519 H   0  0  0  0  0  0  0  0  0  0  0  0
  149.9686  136.4669  157.3790 H   0  0  0  0  0  0  0  0  0  0  0  0
  149.0082  137.7847  156.7985 H   0  0  0  0  0  0  0  0  0  0  0  0
  149.7832  137.0580  153.4546 H   0  0  0  0  0  0  0  0  0  0  0  0
  148.6482  137.6382  154.6550 H   0  0  0  0  0  0  0  0  0  0  0  0
  150.8984  143.5870  160.9950 H   0  0  0  0  0  0  0  0  0  0  0  0
  152.5615  143.4570  161.5273 H   0  0  0  0  0  0  0  0  0  0  0  0
  151.9481  145.8242  161.0801 H   0  0  0  0  0  0  0  0  0  0  0  0
  153.2700  145.3034  160.0537 H   0  0  0  0  0  0  0  0  0  0  0  0
  151.1792  144.9992  157.1435 H   0  0  0  0  0  0  0  0  0  0  0  0
  152.8179  144.8197  157.7382 H   0  0  0  0  0  0  0  0  0  0  0  0
  151.7736  142.6051  157.4601 H   0  0  0  0  0  0  0  0  0  0  0  0
  150.4054  143.0534  158.4581 H   0  0  0  0  0  0  0  0  0  0  0  0
  154.9838  139.8218  161.2281 H   0  0  0  0  0  0  0  0  0  0  0  0
  1  2  1  0  0  0  0
  1 22  1  0  0  0  0
  1 23  1  0  0  0  0
  1 24  1  0  0  0  0
  2  3  1  0  0  0  0
  2  7  1  0  0  0  0
  3  4  1  0  0  0  0
  3 25  1  0  0  0  0
  3 26  1  0  0  0  0
  4  5  1  0  0  0  0
  4  6  2  0  0  0  0
  5 27  1  0  0  0  0
  5 28  1  0  0  0  0
  7  8  2  0  0  0  0
  7  9  1  0  0  0  0
  9 20  1  0  0  0  0
  9 10  2  0  0  0  0
 10 11  1  0  0  0  0
 11 12  1  0  0  0  0
 11 18  2  0  0  0  0
 12 17  1  0  0  0  0
 12 13  1  0  0  0  0
 13 14  1  0  0  0  0
 13 29  1  0  0  0  0
 13 30  1  0  0  0  0
 14 15  1  0  0  0  0
 14 31  1  0  0  0  0
 14 32  1  0  0  0  0
 15 16  1  0  0  0  0
 16 17  1  0  0  0  0
 16 33  1  0  0  0  0
 16 34  1  0  0  0  0
 17 35  1  0  0  0  0
 17 36  1  0  0  0  0
 18 19  1  0  0  0  0
 19 20  2  0  0  0  0
 19 37  1  0  0  0  0
 20 21  1  0  0  0  0
M  END
> <s_m_source_file>
AV-unprocessed.smi

> <i_m_source_file_index>
1173

> <i_lp_mmshare_version>
43012

> <i_f3d_flags>
0

> <s_epik_input>
W05IMl1DKD1PKVtDSDJdTihbQ0gzXSlDKD1PKWMxbmMobltjSF1jMUNsKU4yW0NIMl1bQ0gyXU9bQ0gyXVtDSDJdMg==

> <s_epik_cmdline>
J2VwaWtfcHl0aG9uJywgJy1waCcsICc3LjAnLCAnLXRuJywgJzgnLCAnLW1hJywgJzIwMCcsICctbWV0YWxfYmluZGluZycsICctaW1hZScsICc8aW5maWxlLm1hZT4nLCAnLW9tYWUnLCAnPG91dGZpbGUubWFlPic=

> <r_lp_tautomer_probability>
1

> <r_epik_Ionization_Penalty>
9.52456e-08

> <r_epik_Ionization_Penalty_Charging>
0

> <r_epik_Ionization_Penalty_Neutral>
9.52456e-08

> <r_epik_State_Penalty>
-0

> <r_epik_Charging_Adjusted_Penalty>
0

> <i_epik_Tot_Q>
0

> <i_epik_Tot_abs_Q>
0

> <r_epik_Metal_State_Penalty>
-0

> <b_epik_Metal_Only>
0

> <s_lp_Force_Field>
OPLS_2005

> <r_lp_Energy>
19.8888

> <b_lp_Chiralities_Consistent>
1

> <s_lp_Variant>
AV-unprocessed.smi:1173-1

> <Gold.Version>
5.8.1

> <Gold.Id.Protein>
6NUR|6NUR_protein|mol2

> <Gold.PLP.Fitness>
44.1205

> <Gold.PLP.PLP>
-36.9610

> <Gold.PLP.part.hbond>
-3.6883

> <Gold.PLP.part.metal>
0.0000

> <Gold.PLP.part.buried>
-7.7201

> <Gold.PLP.part.nonpolar>
-26.2854

> <Gold.PLP.part.repulsive>
0.2601

> <Gold.PLP.ligand.clash>
0.0000

> <Gold.PLP.ligand.torsion>
1.6847

> <Gold.PLP.Chemscore.Hbond>
2.9033

> <Gold.PLP.Chemscore.CHOScore>
0.0000

> <Gold.PLP.Chemscore.Metal>
0.0000

> <Gold.Chemscore.Hbonds>
donor molecule, donor type, donor heavy atom, donor atom, acceptor molecule, acceptor atom, score
      L1  H     5    27       P1  7948  0.82
      P1  H  6896  6908       L1     8  0.84
      P1  H 10752 10763       L1     6  1.00

> <Gold.PLP.Chemscore.Internal.Correction>
1.8192

> <Gold.Rescore>
     Score         DG    S(hbond)    S(metal)    S(lipo)     H(rot)  DE(clash)    DE(int)     intcor
     16.43     -20.43       2.94        0.00      77.53       1.54       0.00       4.00       ----

> <Gold.Chemscore.Fitness>
16.4312

> <Gold.Chemscore.DG>
-20.4336

> <Gold.Chemscore.ZeroCoef>
-5.4800

> <Gold.Chemscore.Hbond>
2.9399

> <Gold.Chemscore.Metal>
0.0000

> <Gold.Chemscore.Lipo>
77.5294

> <Gold.Chemscore.Internal_Hbond>
0.0000

> <Gold.Chemscore.DEClash>
0.0038

> <Gold.Chemscore.DEInternal>
3.9987

> <Gold.Chemscore.Rot>
1.5377

> <Gold.Chemscore.Internal.Correction>
   9.000000E+99

> <Gold.Chemscore.Hbonds>
donor molecule, donor type, donor heavy atom, donor atom, acceptor molecule, acceptor atom, score
      L1  H     5    27       P1  7948  0.45
      P1  H  6896  6908       L1     8  0.84
      P1  H 10752 10763       L1     6  1.00

> <Gold.Chemscore.Hbond.Weighted>
-9.8193

> <Gold.Chemscore.Metal.Weighted>
-0.0000

> <Gold.Chemscore.Lipo.Weighted>
-9.0709

> <Gold.Chemscore.Internal_Hbond.Weighted>
0.0000

> <Gold.Chemscore.DEClash.Weighted>
0.0038

> <Gold.Chemscore.DEInternal.Weighted>
3.9987

> <Gold.Chemscore.Rot.Weighted>
3.9366

> <Gold.Chemscore.Internal.Correction.Weighted>
   9.000000E+99

> <Gold.Protein.RotatedTorsions>
[ 6907 6896 6895 6894 ] final -140.84 input  -60.11 | X-H torsion
[ 7974 7965 7964 7962 ] final  -30.39 input  175.53 | X-H torsion
[ 8008 7997 7996 7995 ] final  -43.19 input   59.86 | X-H torsion
[ 10167 10162 10161 10158 ] final  -66.98 input  -65.29 | X-H torsion
[ 10718 10713 10712 10709 ] final -119.00 input   66.30 | X-H torsion
[ 10763 10752 10751 10750 ] final   70.62 input  -60.55 | X-H torsion
[ 11005 11000 10999 10996 ] final   20.59 input  -57.11 | X-H torsion

> <Gold.Protein.ActiveResidues>
 VAL166  LYS551  ARG553  GLY616  TRP617  ASP618  TYR619  PRO620  LYS621  CYS622 
 ASP623  PHE694  ASN695  SER759  ASP760  ASP761  ALA762  ILE779  LEU786  VAL792 
 PHE793  MET794  SER795  GLU796  ALA797  LYS798  CYS799  TRP800  GLU811  SER814 

> <Gold.Protein.RotatedAtoms>
  151.0660  133.5505  159.2630 H   0  0  0  0  0  0  0  0  0  0  0  0  # atno 6907 bound_to 6896
  151.2462  135.0605  159.9054 H   0  0  0  0  0  0  0  0  0  0  0  0  # atno 6908 bound_to 6896
  152.5405  134.0427  159.8128 H   0  0  0  0  0  0  0  0  0  0  0  0  # atno 6909 bound_to 6896
  146.1146  140.5534  142.8762 H   0  0  0  0  0  0  0  0  0  0  0  0  # atno 7974 bound_to 7965
  154.3997  140.1454  156.3478 H   0  0  0  0  0  0  0  0  0  0  0  0  # atno 8008 bound_to 7997
  155.8296  140.3466  155.5543 H   0  0  0  0  0  0  0  0  0  0  0  0  # atno 8009 bound_to 7997
  155.8202  140.0897  157.1844 H   0  0  0  0  0  0  0  0  0  0  0  0  # atno 8010 bound_to 7997
  140.5617  143.2313  151.6715 H   0  0  0  0  0  0  0  0  0  0  0  0  # atno 10167 bound_to 10162
  156.1148  130.6277  150.9361 H   0  0  0  0  0  0  0  0  0  0  0  0  # atno 10718 bound_to 10713
  153.0352  135.5167  154.7468 H   0  0  0  0  0  0  0  0  0  0  0  0  # atno 10763 bound_to 10752
  154.6451  135.2917  155.0059 H   0  0  0  0  0  0  0  0  0  0  0  0  # atno 10764 bound_to 10752
  154.0963  135.6643  153.4913 H   0  0  0  0  0  0  0  0  0  0  0  0  # atno 10765 bound_to 10752
  140.4009  134.1719  155.7664 H   0  0  0  0  0  0  0  0  0  0  0  0  # atno 11005 bound_to 11000
  144.7542  140.5265  143.6781 LP  0  0  0  0  0  0  0  0  0  0  0  0  # atno 17320 bound_to 7965
  145.5593  139.1479  143.3350 LP  0  0  0  0  0  0  0  0  0  0  0  0  # atno 17321 bound_to 7965
  139.5073  144.3650  152.0525 LP  0  0  0  0  0  0  0  0  0  0  0  0  # atno 17342 bound_to 10162
  140.2777  144.3894  150.6129 LP  0  0  0  0  0  0  0  0  0  0  0  0  # atno 17343 bound_to 10162
  157.6331  131.0919  150.8403 LP  0  0  0  0  0  0  0  0  0  0  0  0  # atno 17370 bound_to 10713
  156.8508  130.5080  149.5312 LP  0  0  0  0  0  0  0  0  0  0  0  0  # atno 17371 bound_to 10713
  141.1857  133.8318  157.1096 LP  0  0  0  0  0  0  0  0  0  0  0  0  # atno 17394 bound_to 11000
  140.0337  134.9889  157.0829 LP  0  0  0  0  0  0  0  0  0  0  0  0  # atno 17395 bound_to 11000

$$$$
