AV-unprocessed.smi:747|AV-procd|sdf|3580|dock5
  -GOLD-   22720 0573D 1   1.00000     0.00000
 Structure written by MMmdl.
 48 49  0  0  0  0  0  0  0  0  1 V2000
  154.9058  132.4953  161.9889 C   0  0  0  0  0  0  0  0  0  0  0  0
  154.7619  133.9362  161.9829 N   0  0  0  0  0  0  0  0  0  0  0  0
  154.8053  134.6417  163.2101 C   0  0  0  0  0  0  0  0  0  0  0  0
  154.9578  134.0808  164.2956 O   0  0  0  0  0  0  0  0  0  0  0  0
  154.6542  136.0861  163.0799 C   0  0  0  0  0  0  0  0  0  0  0  0
  154.4869  136.6605  161.8687 C   0  0  0  0  0  0  0  0  0  0  0  0
  154.4467  135.9468  160.6849 N   0  0  0  0  0  0  0  0  0  0  0  0
  154.2773  136.6623  159.4139 C   0  0  0  0  0  0  0  0  0  0  0  0
  152.9663  137.4560  159.3294 C   0  0  0  0  0  0  0  0  0  0  0  0
  151.9882  137.1485  160.0125 O   0  0  0  0  0  0  0  0  0  0  0  0
  152.9648  138.4797  158.4630 N   0  0  0  0  0  0  0  0  0  0  0  0
  151.8310  139.3635  158.1819 C   0  0  2  0  0  0  0  0  0  0  0  0
  151.1896  139.0049  156.8106 C   0  0  0  0  0  0  0  0  0  0  0  0
  150.8604  137.5195  156.5920 C   0  0  0  0  0  0  0  0  0  0  0  0
  149.5811  137.2143  156.3620 N   0  0  0  0  0  0  0  0  0  0  0  0
  151.7357  136.6571  156.6362 O   0  0  0  0  0  0  0  0  0  0  0  0
  152.2586  140.8519  158.3379 C   0  0  0  0  0  0  0  0  0  0  0  0
  152.9567  141.1141  159.6962 C   0  0  0  0  0  0  0  0  0  0  0  0
  153.3790  142.5830  159.8599 C   0  0  0  0  0  0  0  0  0  0  0  0
  152.1822  143.5279  159.6928 C   0  0  0  0  0  0  0  0  0  0  0  0
  151.4907  143.2952  158.3433 C   0  0  0  0  0  0  0  0  0  0  0  0
  151.0676  141.8269  158.1769 C   0  0  0  0  0  0  0  0  0  0  0  0
  154.5891  134.5434  160.7196 C   0  0  0  0  0  0  0  0  0  0  0  0
  154.5642  133.8805  159.6795 O   0  0  0  0  0  0  0  0  0  0  0  0
  155.0296  132.1114  163.0008 H   0  0  0  0  0  0  0  0  0  0  0  0
  155.7881  132.2566  161.3924 H   0  0  0  0  0  0  0  0  0  0  0  0
  154.0004  132.0782  161.5443 H   0  0  0  0  0  0  0  0  0  0  0  0
  154.6779  136.7048  163.9650 H   0  0  0  0  0  0  0  0  0  0  0  0
  154.3837  137.7352  161.8247 H   0  0  0  0  0  0  0  0  0  0  0  0
  155.1159  137.3380  159.2375 H   0  0  0  0  0  0  0  0  0  0  0  0
  154.2998  135.9477  158.5897 H   0  0  0  0  0  0  0  0  0  0  0  0
  153.8110  138.6536  157.9402 H   0  0  0  0  0  0  0  0  0  0  0  0
  151.0721  139.1772  158.9443 H   0  0  0  0  0  0  0  0  0  0  0  0
  150.2628  139.5658  156.6849 H   0  0  0  0  0  0  0  0  0  0  0  0
  151.8365  139.3524  156.0047 H   0  0  0  0  0  0  0  0  0  0  0  0
  149.3103  136.2539  156.2087 H   0  0  0  0  0  0  0  0  0  0  0  0
  148.8879  137.9483  156.3394 H   0  0  0  0  0  0  0  0  0  0  0  0
  152.9824  141.0829  157.5549 H   0  0  0  0  0  0  0  0  0  0  0  0
  152.2868  140.8372  160.5113 H   0  0  0  0  0  0  0  0  0  0  0  0
  153.8427  140.4882  159.8041 H   0  0  0  0  0  0  0  0  0  0  0  0
  153.8339  142.7307  160.8400 H   0  0  0  0  0  0  0  0  0  0  0  0
  154.1453  142.8277  159.1233 H   0  0  0  0  0  0  0  0  0  0  0  0
  151.4703  143.3658  160.5032 H   0  0  0  0  0  0  0  0  0  0  0  0
  152.5110  144.5646  159.7701 H   0  0  0  0  0  0  0  0  0  0  0  0
  150.6188  143.9445  158.2566 H   0  0  0  0  0  0  0  0  0  0  0  0
  152.1656  143.5748  157.5334 H   0  0  0  0  0  0  0  0  0  0  0  0
  150.6108  141.7164  157.1942 H   0  0  0  0  0  0  0  0  0  0  0  0
  150.2933  141.5862  158.9067 H   0  0  0  0  0  0  0  0  0  0  0  0
  1  2  1  0  0  0  0
  1 25  1  0  0  0  0
  1 26  1  0  0  0  0
  1 27  1  0  0  0  0
  2 23  1  0  0  0  0
  2  3  1  0  0  0  0
  3  4  2  0  0  0  0
  3  5  1  0  0  0  0
  5  6  2  0  0  0  0
  5 28  1  0  0  0  0
  6  7  1  0  0  0  0
  6 29  1  0  0  0  0
  7  8  1  0  0  0  0
  7 23  1  0  0  0  0
  8  9  1  0  0  0  0
  8 30  1  0  0  0  0
  8 31  1  0  0  0  0
  9 10  2  0  0  0  0
  9 11  1  0  0  0  0
 11 12  1  0  0  0  0
 11 32  1  0  0  0  0
 12 13  1  0  0  0  0
 12 17  1  0  0  0  0
 12 33  1  0  0  0  0
 13 14  1  0  0  0  0
 13 34  1  0  0  0  0
 13 35  1  0  0  0  0
 14 15  1  0  0  0  0
 14 16  2  0  0  0  0
 15 36  1  0  0  0  0
 15 37  1  0  0  0  0
 17 22  1  0  0  0  0
 17 18  1  0  0  0  0
 17 38  1  0  0  0  0
 18 19  1  0  0  0  0
 18 39  1  0  0  0  0
 18 40  1  0  0  0  0
 19 20  1  0  0  0  0
 19 41  1  0  0  0  0
 19 42  1  0  0  0  0
 20 21  1  0  0  0  0
 20 43  1  0  0  0  0
 20 44  1  0  0  0  0
 21 22  1  0  0  0  0
 21 45  1  0  0  0  0
 21 46  1  0  0  0  0
 22 47  1  0  0  0  0
 22 48  1  0  0  0  0
 23 24  2  0  0  0  0
M  END
> <s_m_source_file>
AV-unprocessed.smi

> <i_m_source_file_index>
747

> <i_lp_mmshare_version>
43012

> <i_f3d_flags>
0

> <s_epik_input>
W0NIM11uMWMoPU8pW2NIXVtjSF1uKGMxPU8pW0NIMl1DKD1PKVtOSF1bQ0BIXShbQ0gyXUMoPU8pW05IMl0pW0NIXTJbQ0gyXVtDSDJdW0NIMl1bQ0gyXVtDSDJdMg==

> <s_epik_cmdline>
J2VwaWtfcHl0aG9uJywgJy1waCcsICc3LjAnLCAnLXRuJywgJzgnLCAnLW1hJywgJzIwMCcsICctbWV0YWxfYmluZGluZycsICctaW1hZScsICc8aW5maWxlLm1hZT4nLCAnLW9tYWUnLCAnPG91dGZpbGUubWFlPic=

> <r_lp_tautomer_probability>
1

> <r_epik_Ionization_Penalty>
6.11221e-08

> <r_epik_Ionization_Penalty_Charging>
1.14855e-08

> <r_epik_Ionization_Penalty_Neutral>
4.96365e-08

> <r_epik_State_Penalty>
-0

> <r_epik_Charging_Adjusted_Penalty>
1.14855e-08

> <i_epik_Tot_Q>
0

> <i_epik_Tot_abs_Q>
0

> <r_epik_Metal_State_Penalty>
-0

> <b_epik_Metal_Only>
0

> <s_lp_Force_Field>
OPLS_2005

> <r_lp_Energy>
14.8557

> <b_lp_Chiralities_Consistent>
1

> <s_lp_Variant>
AV-unprocessed.smi:747-1

> <Gold.Version>
5.8.1

> <Gold.Id.Protein>
6NUR|6NUR_protein|mol2

> <Gold.PLP.Fitness>
44.7319

> <Gold.PLP.PLP>
-39.5754

> <Gold.PLP.part.hbond>
-1.9785

> <Gold.PLP.part.metal>
0.0000

> <Gold.PLP.part.buried>
-5.9517

> <Gold.PLP.part.nonpolar>
-32.7697

> <Gold.PLP.part.repulsive>
0.5123

> <Gold.PLP.ligand.clash>
0.0000

> <Gold.PLP.ligand.torsion>
0.5207

> <Gold.PLP.Chemscore.Hbond>
2.0000

> <Gold.PLP.Chemscore.CHOScore>
0.0000

> <Gold.PLP.Chemscore.Metal>
0.0000

> <Gold.Chemscore.Hbonds>
donor molecule, donor type, donor heavy atom, donor atom, acceptor molecule, acceptor atom, score
      P1  H  6896  6908       L1    10  1.00
      P1  H  6896  6909       L1    24  0.40

> <Gold.PLP.Chemscore.Internal.Correction>
0.1978

> <Gold.Rescore>
     Score         DG    S(hbond)    S(metal)    S(lipo)     H(rot)  DE(clash)    DE(int)     intcor
     13.67     -15.43       1.96        0.00      92.82       2.91       0.00       1.77       ----

> <Gold.Chemscore.Fitness>
13.6655

> <Gold.Chemscore.DG>
-15.4309

> <Gold.Chemscore.ZeroCoef>
-5.4800

> <Gold.Chemscore.Hbond>
1.9601

> <Gold.Chemscore.Metal>
0.0000

> <Gold.Chemscore.Lipo>
92.8161

> <Gold.Chemscore.Internal_Hbond>
0.0000

> <Gold.Chemscore.DEClash>
0.0000

> <Gold.Chemscore.DEInternal>
1.7654

> <Gold.Chemscore.Rot>
2.9122

> <Gold.Chemscore.Internal.Correction>
   9.000000E+99

> <Gold.Chemscore.Hbonds>
donor molecule, donor type, donor heavy atom, donor atom, acceptor molecule, acceptor atom, score
      P1  H  6896  6908       L1    10  0.71
      P1  H  6896  6909       L1    24  0.06
      P1  H 10752 10763       L1    16  0.06

> <Gold.Chemscore.Hbond.Weighted>
-6.5468

> <Gold.Chemscore.Metal.Weighted>
-0.0000

> <Gold.Chemscore.Lipo.Weighted>
-10.8595

> <Gold.Chemscore.Internal_Hbond.Weighted>
0.0000

> <Gold.Chemscore.DEClash.Weighted>
0.0000

> <Gold.Chemscore.DEInternal.Weighted>
1.7654

> <Gold.Chemscore.Rot.Weighted>
7.4553

> <Gold.Chemscore.Internal.Correction.Weighted>
   9.000000E+99

> <Gold.Protein.RotatedTorsions>
[ 6907 6896 6895 6894 ] final -110.08 input  -60.11 | X-H torsion
[ 7974 7965 7964 7962 ] final  156.97 input  175.53 | X-H torsion
[ 8008 7997 7996 7995 ] final  136.65 input   59.86 | X-H torsion
[ 10167 10162 10161 10158 ] final -147.98 input  -65.29 | X-H torsion
[ 10718 10713 10712 10709 ] final   75.20 input   66.30 | X-H torsion
[ 10763 10752 10751 10750 ] final   99.23 input  -60.55 | X-H torsion
[ 11005 11000 10999 10996 ] final -168.42 input  -57.11 | X-H torsion

> <Gold.Protein.ActiveResidues>
 VAL166  LYS551  ARG553  GLY616  TRP617  ASP618  TYR619  PRO620  LYS621  CYS622 
 ASP623  PHE694  ASN695  SER759  ASP760  ASP761  ALA762  ILE779  LEU786  VAL792 
 PHE793  MET794  SER795  GLU796  ALA797  LYS798  CYS799  TRP800  GLU811  SER814 

> <Gold.Protein.RotatedAtoms>
  150.7602  133.9435  159.3463 H   0  0  0  0  0  0  0  0  0  0  0  0  # atno 6907 bound_to 6896
  151.7346  135.0865  160.0315 H   0  0  0  0  0  0  0  0  0  0  0  0  # atno 6908 bound_to 6896
  152.3568  133.6209  159.6021 H   0  0  0  0  0  0  0  0  0  0  0  0  # atno 6909 bound_to 6896
  144.7931  139.7276  143.6213 H   0  0  0  0  0  0  0  0  0  0  0  0  # atno 7974 bound_to 7965
  156.3004  140.2439  156.3781 H   0  0  0  0  0  0  0  0  0  0  0  0  # atno 8008 bound_to 7997
  154.8726  140.0415  157.1753 H   0  0  0  0  0  0  0  0  0  0  0  0  # atno 8009 bound_to 7997
  154.8779  140.2945  155.5446 H   0  0  0  0  0  0  0  0  0  0  0  0  # atno 8010 bound_to 7997
  139.7572  143.8430  152.2599 H   0  0  0  0  0  0  0  0  0  0  0  0  # atno 10167 bound_to 10162
  157.6624  130.9715  150.1320 H   0  0  0  0  0  0  0  0  0  0  0  0  # atno 10718 bound_to 10713
  153.2988  135.4121  155.1234 H   0  0  0  0  0  0  0  0  0  0  0  0  # atno 10763 bound_to 10752
  154.8543  135.3536  154.5880 H   0  0  0  0  0  0  0  0  0  0  0  0  # atno 10764 bound_to 10752
  153.6305  135.7061  153.5335 H   0  0  0  0  0  0  0  0  0  0  0  0  # atno 10765 bound_to 10752
  140.5421  134.5512  157.5102 H   0  0  0  0  0  0  0  0  0  0  0  0  # atno 11005 bound_to 11000
  146.2190  139.5601  142.9631 LP  0  0  0  0  0  0  0  0  0  0  0  0  # atno 17320 bound_to 7965
  145.5743  141.0390  143.2157 LP  0  0  0  0  0  0  0  0  0  0  0  0  # atno 17321 bound_to 7965
  139.8425  144.7203  150.9313 LP  0  0  0  0  0  0  0  0  0  0  0  0  # atno 17342 bound_to 10162
  140.7804  143.3970  151.1212 LP  0  0  0  0  0  0  0  0  0  0  0  0  # atno 17343 bound_to 10162
  156.2164  130.3670  149.8608 LP  0  0  0  0  0  0  0  0  0  0  0  0  # atno 17370 bound_to 10713
  156.6472  130.8729  151.3525 LP  0  0  0  0  0  0  0  0  0  0  0  0  # atno 17371 bound_to 10713
  139.9498  134.7637  156.0475 LP  0  0  0  0  0  0  0  0  0  0  0  0  # atno 17394 bound_to 11000
  141.1221  133.6610  156.3241 LP  0  0  0  0  0  0  0  0  0  0  0  0  # atno 17395 bound_to 11000

$$$$
