AV-unprocessed.smi:92|AV-procd|sdf|846|dock3
  -GOLD-   2262017283D 1   1.00000     0.00000
 Structure written by MMmdl.
 61 64  0  0  0  0  0  0  0  0  2 V2000
  145.8797  143.0111  154.5387 C   0  0  0  0  0  0  0  0  0  0  0  0
  147.1458  142.2654  154.0936 C   0  0  0  0  0  0  0  0  0  0  0  0
  148.1482  142.1424  155.1856 N   0  3  1  0  0  0  0  0  0  0  0  0
  147.5812  141.6137  156.4522 C   0  0  0  0  0  0  0  0  0  0  0  0
  147.3113  140.1033  156.3661 C   0  0  0  0  0  0  0  0  0  0  0  0
  148.5946  139.3322  155.9940 C   0  0  1  0  0  0  0  0  0  0  0  0
  148.3542  137.8837  155.9195 N   0  0  0  0  0  0  0  0  0  0  0  0
  149.2493  136.9489  156.5974 C   0  0  0  0  0  0  0  0  0  0  0  0
  147.5566  137.3739  154.9400 C   0  0  0  0  0  0  0  0  0  0  0  0
  146.9929  138.2167  154.0334 N   0  0  0  0  0  0  0  0  0  0  0  0
  146.2146  137.7443  153.0563 C   0  0  0  0  0  0  0  0  0  0  0  0
  145.8688  136.4821  152.8043 N   0  0  0  0  0  0  0  0  0  0  0  0
  146.4189  135.6251  153.7107 C   0  0  0  0  0  0  0  0  0  0  0  0
  147.2666  135.9837  154.7994 C   0  0  0  0  0  0  0  0  0  0  0  0
  147.6179  134.8428  155.5121 N   0  0  0  0  0  0  0  0  0  0  0  0
  147.0240  133.8696  154.8784 C   0  0  0  0  0  0  0  0  0  0  0  0
  146.2821  134.2473  153.7825 N   0  0  0  0  0  0  0  0  0  0  0  0
  145.5336  133.3737  152.9208 C   0  0  0  0  0  0  0  0  0  0  0  0
  146.2120  132.2325  152.1556 C   0  0  0  0  0  0  0  0  0  0  0  0
  145.2774  132.4817  150.9479 C   0  0  0  0  0  0  0  0  0  0  0  0
  145.9448  132.4968  149.5596 C   0  0  0  0  0  0  0  0  0  0  0  0
  146.6740  131.3169  149.2866 O   0  0  0  0  0  0  0  0  0  0  0  0
  144.0787  131.5196  150.8042 C   0  0  0  0  0  0  0  0  0  0  0  0
  143.2022  131.8637  149.7499 O   0  0  0  0  0  0  0  0  0  0  0  0
  144.9741  133.8611  151.5800 C   0  0  0  0  0  0  0  0  0  0  0  0
  149.2140  139.9002  154.6922 C   0  0  2  0  0  0  0  0  0  0  0  0
  150.5585  139.2312  154.3560 C   0  0  0  0  0  0  0  0  0  0  0  0
  149.4008  141.4313  154.8110 C   0  0  0  0  0  0  0  0  0  0  0  0
  145.1303  142.9965  153.7470 H   0  0  0  0  0  0  0  0  0  0  0  0
  146.0788  144.0561  154.7730 H   0  0  0  0  0  0  0  0  0  0  0  0
  145.4369  142.5451  155.4193 H   0  0  0  0  0  0  0  0  0  0  0  0
  146.8438  141.2663  153.7773 H   0  0  0  0  0  0  0  0  0  0  0  0
  147.5795  142.7422  153.2148 H   0  0  0  0  0  0  0  0  0  0  0  0
  148.2903  141.8105  157.2576 H   0  0  0  0  0  0  0  0  0  0  0  0
  146.6696  142.1520  156.7139 H   0  0  0  0  0  0  0  0  0  0  0  0
  146.9281  139.7513  157.3242 H   0  0  0  0  0  0  0  0  0  0  0  0
  146.5225  139.9140  155.6378 H   0  0  0  0  0  0  0  0  0  0  0  0
  149.3306  139.5210  156.7767 H   0  0  0  0  0  0  0  0  0  0  0  0
  149.5697  136.1508  155.9267 H   0  0  0  0  0  0  0  0  0  0  0  0
  148.7456  136.4997  157.4534 H   0  0  0  0  0  0  0  0  0  0  0  0
  150.1475  137.4436  156.9647 H   0  0  0  0  0  0  0  0  0  0  0  0
  145.8118  138.4825  152.3790 H   0  0  0  0  0  0  0  0  0  0  0  0
  147.1121  132.8417  155.1992 H   0  0  0  0  0  0  0  0  0  0  0  0
  144.7230  132.9718  153.5303 H   0  0  0  0  0  0  0  0  0  0  0  0
  147.2628  132.4333  151.9444 H   0  0  0  0  0  0  0  0  0  0  0  0
  146.0985  131.2546  152.6244 H   0  0  0  0  0  0  0  0  0  0  0  0
  145.1988  132.6135  148.7727 H   0  0  0  0  0  0  0  0  0  0  0  0
  146.6318  133.3389  149.4689 H   0  0  0  0  0  0  0  0  0  0  0  0
  147.5697  131.4464  149.5586 H   0  0  0  0  0  0  0  0  0  0  0  0
  144.4216  130.4996  150.6262 H   0  0  0  0  0  0  0  0  0  0  0  0
  143.4922  131.4950  151.7232 H   0  0  0  0  0  0  0  0  0  0  0  0
  142.5329  131.1995  149.6861 H   0  0  0  0  0  0  0  0  0  0  0  0
  143.9164  134.1249  151.6103 H   0  0  0  0  0  0  0  0  0  0  0  0
  145.5574  134.6766  151.1517 H   0  0  0  0  0  0  0  0  0  0  0  0
  148.5401  139.7058  153.8586 H   0  0  0  0  0  0  0  0  0  0  0  0
  151.2795  139.3604  155.1638 H   0  0  0  0  0  0  0  0  0  0  0  0
  150.9933  139.6570  153.4512 H   0  0  0  0  0  0  0  0  0  0  0  0
  150.4420  138.1609  154.1841 H   0  0  0  0  0  0  0  0  0  0  0  0
  149.8077  141.8388  153.8863 H   0  0  0  0  0  0  0  0  0  0  0  0
  150.1457  141.6442  155.5791 H   0  0  0  0  0  0  0  0  0  0  0  0
  148.4199  143.0928  155.3934 H   0  0  0  0  0  0  0  0  0  0  0  0
  1  2  1  0  0  0  0
  1 29  1  0  0  0  0
  1 30  1  0  0  0  0
  1 31  1  0  0  0  0
  2  3  1  0  0  0  0
  2 32  1  0  0  0  0
  2 33  1  0  0  0  0
  3 28  1  0  0  0  0
  3  4  1  0  0  0  0
  3 61  1  0  0  0  0
  4  5  1  0  0  0  0
  4 34  1  0  0  0  0
  4 35  1  0  0  0  0
  5  6  1  0  0  0  0
  5 36  1  0  0  0  0
  5 37  1  0  0  0  0
  6  7  1  0  0  0  0
  6 26  1  0  0  0  0
  6 38  1  0  0  0  0
  7  8  1  0  0  0  0
  7  9  1  0  0  0  0
  8 39  1  0  0  0  0
  8 40  1  0  0  0  0
  8 41  1  0  0  0  0
  9 14  1  0  0  0  0
  9 10  2  0  0  0  0
 10 11  1  0  0  0  0
 11 12  2  0  0  0  0
 11 42  1  0  0  0  0
 12 13  1  0  0  0  0
 13 17  1  0  0  0  0
 13 14  2  0  0  0  0
 14 15  1  0  0  0  0
 15 16  2  0  0  0  0
 16 17  1  0  0  0  0
 16 43  1  0  0  0  0
 17 18  1  0  0  0  0
 18 25  1  0  0  0  0
 18 19  1  0  0  0  0
 18 44  1  0  0  0  0
 19 20  1  0  0  0  0
 19 45  1  0  0  0  0
 19 46  1  0  0  0  0
 20 21  1  0  0  0  0
 20 23  1  0  0  0  0
 20 25  1  0  0  0  0
 21 22  1  0  0  0  0
 21 47  1  0  0  0  0
 21 48  1  0  0  0  0
 22 49  1  0  0  0  0
 23 24  1  0  0  0  0
 23 50  1  0  0  0  0
 23 51  1  0  0  0  0
 24 52  1  0  0  0  0
 25 53  1  0  0  0  0
 25 54  1  0  0  0  0
 26 27  1  0  0  0  0
 26 28  1  0  0  0  0
 26 55  1  0  0  0  0
 27 56  1  0  0  0  0
 27 57  1  0  0  0  0
 27 58  1  0  0  0  0
 28 59  1  0  0  0  0
 28 60  1  0  0  0  0
M  CHG  1   3   1
M  END
> <s_m_source_file>
AV-unprocessed.smi

> <i_m_source_file_index>
92

> <i_lp_mmshare_version>
43012

> <i_f3d_flags>
0

> <s_epik_input>
W0NIM11bQ0gyXU4xW0NIMl1bQ0gyXVtDQEhdKFtDQEBIXShbQ0gzXSlbQ0gyXTEpTihbQ0gzXSljKG5bY0hdbjIpYyhjMjMpbltjSF1uM1tDSF0oW0NIMl00KVtDSDJdQzQoW0NIMl1bT0hdKVtDSDJdW09IXQ==

> <s_epik_cmdline>
J2VwaWtfcHl0aG9uJywgJy1waCcsICc3LjAnLCAnLXRuJywgJzgnLCAnLW1hJywgJzIwMCcsICctbWV0YWxfYmluZGluZycsICctaW1hZScsICc8aW5maWxlLm1hZT4nLCAnLW9tYWUnLCAnPG91dGZpbGUubWFlPic=

> <r_lp_tautomer_probability>
1

> <r_epik_Ionization_Penalty>
0.00235514

> <r_epik_Ionization_Penalty_Charging>
0.00137877

> <r_epik_Ionization_Penalty_Neutral>
0.000976366

> <r_epik_State_Penalty>
-0

> <r_epik_Charging_Adjusted_Penalty>
0.00137877

> <i_epik_Tot_Q>
1

> <i_epik_Tot_abs_Q>
1

> <r_epik_Metal_State_Penalty>
-0

> <b_epik_Metal_Only>
0

> <s_lp_Force_Field>
OPLS_2005

> <r_lp_Energy>
55.2069

> <b_lp_Chiralities_Consistent>
1

> <s_lp_Variant>
AV-unprocessed.smi:92-6

> <Gold.Version>
5.8.1

> <Gold.Id.Protein>
6NUR|6NUR_protein|mol2

> <Gold.PLP.Fitness>
48.9234

> <Gold.PLP.PLP>
-37.3207

> <Gold.PLP.part.hbond>
-3.6165

> <Gold.PLP.part.metal>
0.0000

> <Gold.PLP.part.buried>
-5.4064

> <Gold.PLP.part.nonpolar>
-27.9809

> <Gold.PLP.part.repulsive>
0.5020

> <Gold.PLP.ligand.clash>
0.0000

> <Gold.PLP.ligand.torsion>
0.6926

> <Gold.PLP.Chemscore.Hbond>
4.0000

> <Gold.PLP.Chemscore.CHOScore>
0.0000

> <Gold.PLP.Chemscore.Metal>
0.0000

> <Gold.Chemscore.Hbonds>
donor molecule, donor type, donor heavy atom, donor atom, acceptor molecule, acceptor atom, score
      L1  H     3    61       P1  8028  2.00
      L1  H    22    49       P1 10747  1.00
      L1  H    24    52       P1 10952  1.00
      L1  C    11    42       P1 10175  0.06

> <Gold.PLP.Chemscore.Internal.Correction>
0.9878

> <Gold.Rescore>
     Score         DG    S(hbond)    S(metal)    S(lipo)     H(rot)  DE(clash)    DE(int)     intcor
     12.83     -17.32       2.99        0.00      86.42       3.22       0.20       4.29       ----

> <Gold.Chemscore.Fitness>
12.8258

> <Gold.Chemscore.DG>
-17.3161

> <Gold.Chemscore.ZeroCoef>
-5.4800

> <Gold.Chemscore.Hbond>
2.9860

> <Gold.Chemscore.Metal>
0.0000

> <Gold.Chemscore.Lipo>
86.4196

> <Gold.Chemscore.Internal_Hbond>
0.0000

> <Gold.Chemscore.DEClash>
0.2040

> <Gold.Chemscore.DEInternal>
4.2863

> <Gold.Chemscore.Rot>
3.2219

> <Gold.Chemscore.Internal.Correction>
   9.000000E+99

> <Gold.Chemscore.Hbonds>
donor molecule, donor type, donor heavy atom, donor atom, acceptor molecule, acceptor atom, score
      L1  H     3    61       P1  8028  1.00
      L1  H    22    49       P1 10747  0.94
      L1  H    24    52       P1 10952  0.99

> <Gold.Chemscore.Hbond.Weighted>
-9.9732

> <Gold.Chemscore.Metal.Weighted>
-0.0000

> <Gold.Chemscore.Lipo.Weighted>
-10.1111

> <Gold.Chemscore.Internal_Hbond.Weighted>
0.0000

> <Gold.Chemscore.DEClash.Weighted>
0.2040

> <Gold.Chemscore.DEInternal.Weighted>
4.2863

> <Gold.Chemscore.Rot.Weighted>
8.2482

> <Gold.Chemscore.Internal.Correction.Weighted>
   9.000000E+99

> <Gold.Protein.RotatedTorsions>
[ 6907 6896 6895 6894 ] final    7.80 input  -60.11 | X-H torsion
[ 7974 7965 7964 7962 ] final  176.20 input  175.53 | X-H torsion
[ 8008 7997 7996 7995 ] final  -70.07 input   59.86 | X-H torsion
[ 10167 10162 10161 10158 ] final   71.63 input  -65.29 | X-H torsion
[ 10718 10713 10712 10709 ] final -126.38 input   66.30 | X-H torsion
[ 10763 10752 10751 10750 ] final  -47.96 input  -60.55 | X-H torsion
[ 11005 11000 10999 10996 ] final -140.48 input  -57.11 | X-H torsion

> <Gold.Protein.ActiveResidues>
 VAL166  LYS551  ARG553  GLY616  TRP617  ASP618  TYR619  PRO620  LYS621  CYS622 
 ASP623  PHE694  ASN695  SER759  ASP760  ASP761  ALA762  ILE779  LEU786  VAL792 
 PHE793  MET794  SER795  GLU796  ALA797  LYS798  CYS799  TRP800  GLU811  SER814 

> <Gold.Protein.RotatedAtoms>
  151.6957  135.0939  160.0241 H   0  0  0  0  0  0  0  0  0  0  0  0  # atno 6907 bound_to 6896
  152.3751  133.6466  159.6126 H   0  0  0  0  0  0  0  0  0  0  0  0  # atno 6908 bound_to 6896
  150.7703  133.9122  159.3414 H   0  0  0  0  0  0  0  0  0  0  0  0  # atno 6909 bound_to 6896
  144.7188  140.0061  143.6440 H   0  0  0  0  0  0  0  0  0  0  0  0  # atno 7974 bound_to 7965
  154.4985  140.0841  156.7748 H   0  0  0  0  0  0  0  0  0  0  0  0  # atno 8008 bound_to 7997
  155.4059  140.3439  155.4242 H   0  0  0  0  0  0  0  0  0  0  0  0  # atno 8009 bound_to 7997
  156.1425  140.1534  156.8885 H   0  0  0  0  0  0  0  0  0  0  0  0  # atno 8010 bound_to 7997
  140.0440  144.5366  150.7413 H   0  0  0  0  0  0  0  0  0  0  0  0  # atno 10167 bound_to 10162
  156.1760  130.6700  151.0242 H   0  0  0  0  0  0  0  0  0  0  0  0  # atno 10718 bound_to 10713
  154.0700  135.6606  153.4823 H   0  0  0  0  0  0  0  0  0  0  0  0  # atno 10763 bound_to 10752
  153.0394  135.5155  154.7576 H   0  0  0  0  0  0  0  0  0  0  0  0  # atno 10764 bound_to 10752
  154.6639  135.3019  154.9798 H   0  0  0  0  0  0  0  0  0  0  0  0  # atno 10765 bound_to 10752
  140.8419  134.2392  157.4806 H   0  0  0  0  0  0  0  0  0  0  0  0  # atno 11005 bound_to 11000
  146.0296  139.3323  143.0763 LP  0  0  0  0  0  0  0  0  0  0  0  0  # atno 17320 bound_to 7965
  145.8469  140.9550  143.0770 LP  0  0  0  0  0  0  0  0  0  0  0  0  # atno 17321 bound_to 7965
  140.7247  143.2624  151.4160 LP  0  0  0  0  0  0  0  0  0  0  0  0  # atno 17342 bound_to 10162
  139.5996  144.1325  152.2182 LP  0  0  0  0  0  0  0  0  0  0  0  0  # atno 17343 bound_to 10162
  157.6836  131.0831  150.7304 LP  0  0  0  0  0  0  0  0  0  0  0  0  # atno 17370 bound_to 10713
  156.7362  130.4725  149.5488 LP  0  0  0  0  0  0  0  0  0  0  0  0  # atno 17371 bound_to 10713
  139.8703  134.9639  156.4479 LP  0  0  0  0  0  0  0  0  0  0  0  0  # atno 17394 bound_to 11000
  140.8886  133.7865  155.9546 LP  0  0  0  0  0  0  0  0  0  0  0  0  # atno 17395 bound_to 11000

$$$$
