#       Name:                AV-unprocessed.smi:3019
#       Creating user name   scv26
#       Creation time:       Fri Mar 27 16:43:08 2020


#       File generated by GOLD software.
#

@<TRIPOS>MOLECULE
AV-unprocessed.smi:3019
    35    36     1
SMALL
NO_CHARGES


@<TRIPOS>ATOM
      1 ****        -3.7143   0.9865   1.5381 C.3            1 S1                 0.0000
      2 ****        -3.1228   1.5998   0.2616 C.3            1 S1                 0.0000
      3 ****        -3.6866   0.9765  -1.0225 C.3            1 S1                 0.0000
      4 ****        -1.6064   1.5714   0.2788 C.2            1 S1                 0.0000
      5 ****        -0.7989   2.6472   0.2954 N.pl3          1 S1                -1.0000
      6 ****         0.4604   2.2618   0.3092 N.2            1 S1                 0.0000
      7 ****         0.4223   0.9211   0.3115 C.2            1 S1                 0.0000
      8 ****         1.6458   0.0293   0.2843 C.3            1 S1                 0.0000
      9 ****         2.0789  -0.2711  -1.1643 C.3            1 S1                 0.0000
     10 ****         3.2595  -1.1565  -1.1729 N.4            1 S1                 1.0000
     11 ****         3.0206  -2.3874  -0.3951 C.3            1 S1                 0.0000
     12 ****         2.5601  -2.0297   1.0278 C.3            1 S1                 0.0000
     13 ****         1.4042  -1.2030   0.9613 O.3            1 S1                 0.0000
     14 ****        -0.8438   0.4818   0.2811 N.2            1 S1                 0.0000
     15 ****        -3.3430   1.4988   2.4262 H              1 S1                 0.0000
     16 ****        -3.4519  -0.0680   1.6276 H              1 S1                 0.0000
     17 ****        -4.8018   1.0616   1.5424 H              1 S1                 0.0000
     18 ****        -3.4088   2.6525   0.2542 H              1 S1                 0.0000
     19 ****        -3.2976   1.4823  -1.9067 H              1 S1                 0.0000
     20 ****        -4.7741   1.0500  -1.0502 H              1 S1                 0.0000
     21 ****        -3.4216  -0.0786  -1.0984 H              1 S1                 0.0000
     22 ****         2.4455   0.5609   0.8036 H              1 S1                 0.0000
     23 ****         1.2667  -0.7522  -1.7114 H              1 S1                 0.0000
     24 ****         2.3202   0.6513  -1.6934 H              1 S1                 0.0000
     25 ****         3.4892  -1.3990  -2.1262 H              1 S1                 0.0000
     26 ****         2.2601  -2.9867  -0.8974 H              1 S1                 0.0000
     27 ****         3.9338  -2.9821  -0.3665 H              1 S1                 0.0000
     28 ****         2.3153  -2.9355   1.5828 H              1 S1                 0.0000
     29 ****         3.3530  -1.5227   1.5798 H              1 S1                 0.0000
     30 ****         4.0367  -0.6595  -0.7616 H              1 S1                 0.0000
     31 ****        -1.1087   3.5980   0.2971 LP             1 S1                 0.0000
     32 ****         1.2726   2.8450   0.3165 LP             1 S1                 0.0000
     33 ****         0.6840  -1.6987   0.4759 LP             1 S1                 0.0000
     34 ****         1.1008  -1.0020   1.8928 LP             1 S1                 0.0000
     35 ****        -1.1516  -0.4695   0.2638 LP             1 S1                 0.0000
@<TRIPOS>BOND
    1    1    2 1     
    2    1   15 1     
    3    1   16 1     
    4    1   17 1     
    5    2    3 1     
    6    2    4 1     
    7    2   18 1     
    8    3   19 1     
    9    3   20 1     
   10    3   21 1     
   11    4   14 2     
   12    4    5 1     
   13    5    6 1     
   14    6    7 2     
   15    7    8 1     
   16    7   14 1     
   17    8   13 1     
   18    8    9 1     
   19    8   22 1     
   20    9   10 1     
   21    9   23 1     
   22    9   24 1     
   23   10   11 1     
   24   10   25 1     
   25   10   30 1     
   26   11   12 1     
   27   11   26 1     
   28   11   27 1     
   29   12   13 1     
   30   12   28 1     
   31   12   29 1     
   32    5   31 1     
   33    6   32 1     
   34   13   33 1     
   35   13   34 1     
   36   14   35 1     
@<TRIPOS>SUBSTRUCTURE
      1 S1             1
@<TRIPOS>SET
LONE_PAIRS      STATIC     ATOMS    <user>   **** ""
5 31 32 33 34 35
DONOR_HYDROGENS      STATIC     ATOMS    <user>   **** ""
2 25 30
ATOM$BLUE        STATIC     ATOMS    COLORGROUP SYSTEM
5 31 32 33 34 35
ATOM$RED        STATIC     ATOMS    COLORGROUP SYSTEM
2 25 30
