#       Name:                AV-unprocessed.smi:231
#       Creating user name   scv26
#       Creation time:       Thu Mar 26 20:30:06 2020


#       File generated by GOLD software.
#

@<TRIPOS>MOLECULE
AV-unprocessed.smi:231
    59    62     1
SMALL
NO_CHARGES


@<TRIPOS>ATOM
      1 ****        -4.4019  -0.9107   1.5564 C.3            1 S1                 0.0000
      2 ****        -4.2771   0.5355   1.0608 C.3            1 S1                 0.0000
      3 ****        -3.5761   0.6518  -0.2159 N.pl3          1 S1                 0.0000
      4 ****        -2.2710   1.0084  -0.1580 C.ar           1 S1                 0.0000
      5 ****        -1.9783   2.3311  -0.2238 N.ar           1 S1                 0.0000
      6 ****        -0.7060   2.7373  -0.1846 C.ar           1 S1                 0.0000
      7 ****         0.4019   2.0016  -0.0751 N.ar           1 S1                 0.0000
      8 ****         0.1083   0.6727   0.0184 C.ar           1 S1                 0.0000
      9 ****        -1.1914   0.0934  -0.0114 C.ar           1 S1                 0.0000
     10 ****        -1.0947  -1.2874   0.1049 N.2            1 S1                 0.0000
     11 ****         0.1883  -1.5134   0.1770 C.2            1 S1                 0.0000
     12 ****         0.9836  -0.3900   0.1565 N.pl3          1 S1                 0.0000
     13 ****         2.4161  -0.3472   0.1734 C.3            1 S1                 0.0000
     14 ****         3.2442  -1.4500   0.8424 C.3            1 S1                 0.0000
     15 ****         4.3142  -0.3975   1.2156 C.3            1 S1                 0.0000
     16 ****         4.9749  -0.5447   2.6004 C.3            1 S1                 0.0000
     17 ****         4.0313  -0.7290   3.6367 O.3            1 S1                 0.0000
     18 ****         5.4494  -0.2606   0.1826 C.3            1 S1                 0.0000
     19 ****         6.1527   0.9551   0.3403 O.3            1 S1                 0.0000
     20 ****         3.1671   0.6313   1.0811 C.3            1 S1                 0.0000
     21 ****        -4.1869   0.2072  -1.4794 C.3            1 S1                 0.0000
     22 ****        -3.9047   1.1632  -2.6570 C.3            1 S1                 0.0000
     23 ****        -2.8678   0.4478  -3.5349 C.3            1 S1                 0.0000
     24 ****        -2.9460  -0.9394  -3.1235 N.am           1 S1                 0.0000
     25 ****        -3.6369  -1.1199  -1.9984 C.2            1 S1                 0.0000
     26 ****        -3.8347  -2.2022  -1.4511 O.2            1 S1                 0.0000
     27 ****        -4.8987  -0.9417   2.5260 H              1 S1                 0.0000
     28 ****        -3.4248  -1.3790   1.6724 H              1 S1                 0.0000
     29 ****        -4.9905  -1.5183   0.8697 H              1 S1                 0.0000
     30 ****        -5.2713   0.9695   0.9492 H              1 S1                 0.0000
     31 ****        -3.7735   1.1355   1.8206 H              1 S1                 0.0000
     32 ****        -0.5539   3.8044  -0.2516 H              1 S1                 0.0000
     33 ****         0.5894  -2.5137   0.2502 H              1 S1                 0.0000
     34 ****         2.7202  -0.2148  -0.8662 H              1 S1                 0.0000
     35 ****         2.7357  -1.8852   1.7041 H              1 S1                 0.0000
     36 ****         3.5867  -2.2298   0.1616 H              1 S1                 0.0000
     37 ****         5.6573  -1.3951   2.6157 H              1 S1                 0.0000
     38 ****         5.5659   0.3373   2.8491 H              1 S1                 0.0000
     39 ****         4.4961  -0.7984   4.4566 H              1 S1                 0.0000
     40 ****         6.1560  -1.0871   0.2646 H              1 S1                 0.0000
     41 ****         5.0649  -0.2909  -0.8370 H              1 S1                 0.0000
     42 ****         6.8169   1.0070  -0.3300 H              1 S1                 0.0000
     43 ****         3.4414   1.5694   0.5981 H              1 S1                 0.0000
     44 ****         2.6351   0.8193   2.0152 H              1 S1                 0.0000
     45 ****        -5.2640   0.1107  -1.3351 H              1 S1                 0.0000
     46 ****        -4.8232   1.2943  -3.2311 H              1 S1                 0.0000
     47 ****        -3.5850   2.1617  -2.3602 H              1 S1                 0.0000
     48 ****        -3.0768   0.5624  -4.5988 H              1 S1                 0.0000
     49 ****        -1.8621   0.8213  -3.3365 H              1 S1                 0.0000
     50 ****        -2.5010  -1.6852  -3.6388 H              1 S1                 0.0000
     51 ****        -2.7151   3.0027  -0.3017 LP             1 S1                 0.0000
     52 ****         1.3289   2.3766  -0.0631 LP             1 S1                 0.0000
     53 ****        -1.8384  -1.9555   0.1280 LP             1 S1                 0.0000
     54 ****         3.5095  -1.5661   3.4728 LP             1 S1                 0.0000
     55 ****         3.4074   0.0520   3.6676 LP             1 S1                 0.0000
     56 ****         6.5820   0.9817   1.2431 LP             1 S1                 0.0000
     57 ****         5.5206   1.7246   0.2490 LP             1 S1                 0.0000
     58 ****        -4.3836  -2.2475  -0.6164 LP             1 S1                 0.0000
     59 ****        -3.4468  -3.0376  -1.8404 LP             1 S1                 0.0000
@<TRIPOS>BOND
    1    1    2 1     
    2    1   27 1     
    3    1   28 1     
    4    1   29 1     
    5    2    3 1     
    6    2   30 1     
    7    2   31 1     
    8    3    4 1     
    9    3   21 1     
   10    4    9 ar    
   11    4    5 ar    
   12    5    6 ar    
   13    6    7 ar    
   14    6   32 1     
   15    7    8 ar    
   16    8   12 1     
   17    8    9 ar    
   18    9   10 1     
   19   10   11 2     
   20   11   12 1     
   21   11   33 1     
   22   12   13 1     
   23   13   20 1     
   24   13   14 1     
   25   13   34 1     
   26   14   15 1     
   27   14   35 1     
   28   14   36 1     
   29   15   16 1     
   30   15   18 1     
   31   15   20 1     
   32   16   17 1     
   33   16   37 1     
   34   16   38 1     
   35   17   39 1     
   36   18   19 1     
   37   18   40 1     
   38   18   41 1     
   39   19   42 1     
   40   20   43 1     
   41   20   44 1     
   42   21   25 1     
   43   21   22 1     
   44   21   45 1     
   45   22   23 1     
   46   22   46 1     
   47   22   47 1     
   48   23   24 1     
   49   23   48 1     
   50   23   49 1     
   51   24   25 am    
   52   24   50 1     
   53   25   26 2     
   54    5   51 1     
   55    7   52 1     
   56   10   53 1     
   57   17   54 1     
   58   17   55 1     
   59   19   56 1     
   60   19   57 1     
   61   26   58 1     
   62   26   59 1     
@<TRIPOS>SUBSTRUCTURE
      1 S1             1
@<TRIPOS>SET
LONE_PAIRS      STATIC     ATOMS    <user>   **** ""
9 51 52 53 54 55 56 57 58 59
DONOR_HYDROGENS      STATIC     ATOMS    <user>   **** ""
3 39 42 50
ATOM$BLUE        STATIC     ATOMS    COLORGROUP SYSTEM
9 51 52 53 54 55 56 57 58 59
ATOM$RED        STATIC     ATOMS    COLORGROUP SYSTEM
3 39 42 50
