#       Name:                AV-unprocessed.smi:3021
#       Creating user name   scv26
#       Creation time:       Fri Mar 27 16:43:35 2020


#       File generated by GOLD software.
#

@<TRIPOS>MOLECULE
AV-unprocessed.smi:3021
    43    45     1
SMALL
NO_CHARGES


@<TRIPOS>ATOM
      1 ****        -0.7096  -0.0032  -2.0553 O.3            1 S1                 0.0000
      2 ****        -0.0656   0.5916  -0.9456 C.3            1 S1                 0.0000
      3 ****         1.4528   0.4949  -1.1578 C.3            1 S1                 0.0000
      4 ****         1.8838  -0.8080  -0.8023 O.3            1 S1                 0.0000
      5 ****         3.2810  -0.9900  -0.9707 C.3            1 S1                 0.0000
      6 ****         3.6177  -2.3907  -0.5663 C.2            1 S1                 0.0000
      7 ****         4.7726  -3.1213  -0.6252 C.2            1 S1                 0.0000
      8 ****         4.4707  -4.4000  -0.0802 C.2            1 S1                 0.0000
      9 ****         3.1521  -4.3568   0.2725 C.2            1 S1                 0.0000
     10 ****         2.6175  -3.1390  -0.0150 O.3            1 S1                 0.0000
     11 ****        -0.5367   2.0530  -0.8126 C.3            1 S1                 0.0000
     12 ****        -1.9663   2.1570  -0.5762 N.pl3          1 S1                 0.0000
     13 ****        -2.7936   2.5274  -1.5945 N.2            1 S1                 0.0000
     14 ****        -4.0150   2.5509  -1.1507 N.2            1 S1                 0.0000
     15 ****        -3.9923   2.1889   0.1858 C.ar           1 S1                 0.0000
     16 ****        -5.0225   2.0508   1.1427 C.ar           1 S1                 0.0000
     17 ****        -4.7205   1.6597   2.4657 C.ar           1 S1                 0.0000
     18 ****        -6.0079   1.5012   3.6073 Cl             1 S1                 0.0000
     19 ****        -3.3813   1.4022   2.8467 C.ar           1 S1                 0.0000
     20 ****        -2.9943   0.9223   4.4606 Cl             1 S1                 0.0000
     21 ****        -2.3437   1.5365   1.9028 C.ar           1 S1                 0.0000
     22 ****        -2.6661   1.9263   0.5919 C.ar           1 S1                 0.0000
     23 ****        -0.4305  -0.9044  -2.1138 H              1 S1                 0.0000
     24 ****        -0.3423   0.0465  -0.0421 H              1 S1                 0.0000
     25 ****         1.7249   0.7402  -2.1861 H              1 S1                 0.0000
     26 ****         1.9610   1.2105  -0.5093 H              1 S1                 0.0000
     27 ****         3.5636  -0.8232  -2.0110 H              1 S1                 0.0000
     28 ****         3.8356  -0.2810  -0.3545 H              1 S1                 0.0000
     29 ****         5.7198  -2.7769  -1.0133 H              1 S1                 0.0000
     30 ****         5.1339  -5.2439   0.0387 H              1 S1                 0.0000
     31 ****         2.4706  -5.0662   0.7180 H              1 S1                 0.0000
     32 ****        -0.0257   2.5367   0.0207 H              1 S1                 0.0000
     33 ****        -0.2778   2.6217  -1.7075 H              1 S1                 0.0000
     34 ****        -6.0462   2.2455   0.8583 H              1 S1                 0.0000
     35 ****        -1.3180   1.3423   2.1797 H              1 S1                 0.0000
     36 ****        -0.4587   0.4832  -2.8923 LP             1 S1                 0.0000
     37 ****        -1.7012   0.0360  -1.9315 LP             1 S1                 0.0000
     38 ****         1.4036  -1.4712  -1.3766 LP             1 S1                 0.0000
     39 ****         1.6538  -0.9699   0.1573 LP             1 S1                 0.0000
     40 ****         1.8636  -3.2384  -0.6645 LP             1 S1                 0.0000
     41 ****         2.2823  -2.7040   0.8207 LP             1 S1                 0.0000
     42 ****        -2.5082   2.7449  -2.5279 LP             1 S1                 0.0000
     43 ****        -4.8286   2.7887  -1.6814 LP             1 S1                 0.0000
@<TRIPOS>BOND
    1    1    2 1     
    2    1   23 1     
    3    2    3 1     
    4    2   11 1     
    5    2   24 1     
    6    3    4 1     
    7    3   25 1     
    8    3   26 1     
    9    4    5 1     
   10    5    6 1     
   11    5   27 1     
   12    5   28 1     
   13    6   10 1     
   14    6    7 2     
   15    7    8 1     
   16    7   29 1     
   17    8    9 2     
   18    8   30 1     
   19    9   10 1     
   20    9   31 1     
   21   11   12 1     
   22   11   32 1     
   23   11   33 1     
   24   12   22 1     
   25   12   13 1     
   26   13   14 2     
   27   14   15 1     
   28   15   22 ar    
   29   15   16 ar    
   30   16   17 ar    
   31   16   34 1     
   32   17   18 1     
   33   17   19 ar    
   34   19   20 1     
   35   19   21 ar    
   36   21   22 ar    
   37   21   35 1     
   38    1   36 1     
   39    1   37 1     
   40    4   38 1     
   41    4   39 1     
   42   10   40 1     
   43   10   41 1     
   44   13   42 1     
   45   14   43 1     
@<TRIPOS>SUBSTRUCTURE
      1 S1             1
@<TRIPOS>SET
LONE_PAIRS      STATIC     ATOMS    <user>   **** ""
8 36 37 38 39 40 41 42 43
DONOR_HYDROGENS      STATIC     ATOMS    <user>   **** ""
1 23
ATOM$BLUE        STATIC     ATOMS    COLORGROUP SYSTEM
8 36 37 38 39 40 41 42 43
ATOM$RED        STATIC     ATOMS    COLORGROUP SYSTEM
1 23
