AV-unprocessed.smi:2013|AV-procd|sdf|8159|dock2
  -GOLD-   2272010403D 1   1.00000     0.00000
 Structure written by MMmdl.
 50 51  0  0  0  0  0  0  0  0  1 V2000
  152.8294  144.0231  158.7228 C   0  0  0  0  0  0  0  0  0  0  0  0
  152.1359  142.9767  159.6126 C   0  0  0  0  0  0  0  0  0  0  0  0
  152.5045  143.1751  161.0980 C   0  0  0  0  0  0  0  0  0  0  0  0
  152.2612  141.5252  159.0452 C   0  0  2  0  0  0  0  0  0  0  0  0
  153.5186  140.7653  159.5465 C   0  0  0  0  0  0  0  0  0  0  0  0
  153.2452  139.3495  159.7600 N   0  0  0  0  0  0  0  0  0  0  0  0
  153.9513  138.5527  160.5732 C   0  0  0  0  0  0  0  0  0  0  0  0
  154.9297  138.9414  161.2128 O   0  0  0  0  0  0  0  0  0  0  0  0
  153.4753  137.0957  160.6571 C   0  0  0  0  0  0  0  0  0  0  0  0
  154.1541  136.3149  161.6998 N   0  0  0  0  0  0  0  0  0  0  0  0
  154.1729  136.7841  163.0003 C   0  0  0  0  0  0  0  0  0  0  0  0
  154.7604  136.1243  164.0221 C   0  0  0  0  0  0  0  0  0  0  0  0
  155.4286  134.8475  163.8025 C   0  0  0  0  0  0  0  0  0  0  0  0
  155.9578  134.2016  164.7079 O   0  0  0  0  0  0  0  0  0  0  0  0
  155.4097  134.3980  162.4605 N   0  0  0  0  0  0  0  0  0  0  0  0
  156.0315  133.1253  162.1583 C   0  0  0  0  0  0  0  0  0  0  0  0
  154.7769  135.0841  161.3993 C   0  0  0  0  0  0  0  0  0  0  0  0
  154.7538  134.6345  160.2507 O   0  0  0  0  0  0  0  0  0  0  0  0
  151.9932  141.3946  157.5986 N   0  0  0  0  0  0  0  0  0  0  0  0
  150.6678  141.8753  157.2122 C   0  0  0  0  0  0  0  0  0  0  0  0
  150.4760  141.8558  155.6868 C   0  0  0  0  0  0  0  0  0  0  0  0
  150.6954  140.5362  155.1999 O   0  0  0  0  0  0  0  0  0  0  0  0
  151.9954  140.0468  155.5116 C   0  0  0  0  0  0  0  0  0  0  0  0
  152.2116  140.0637  157.0353 C   0  0  0  0  0  0  0  0  0  0  0  0
  153.9145  143.9227  158.7569 H   0  0  0  0  0  0  0  0  0  0  0  0
  152.5839  145.0353  159.0451 H   0  0  0  0  0  0  0  0  0  0  0  0
  152.5165  143.9254  157.6829 H   0  0  0  0  0  0  0  0  0  0  0  0
  151.0738  143.2191  159.5572 H   0  0  0  0  0  0  0  0  0  0  0  0
  153.5690  143.0681  161.2907 H   0  0  0  0  0  0  0  0  0  0  0  0
  151.9729  142.4846  161.7515 H   0  0  0  0  0  0  0  0  0  0  0  0
  152.2319  144.1801  161.4215 H   0  0  0  0  0  0  0  0  0  0  0  0
  151.4282  141.0106  159.5274 H   0  0  0  0  0  0  0  0  0  0  0  0
  154.3297  140.8426  158.8227 H   0  0  0  0  0  0  0  0  0  0  0  0
  153.8894  141.1972  160.4764 H   0  0  0  0  0  0  0  0  0  0  0  0
  152.4587  138.9538  159.2654 H   0  0  0  0  0  0  0  0  0  0  0  0
  152.3962  137.0775  160.8189 H   0  0  0  0  0  0  0  0  0  0  0  0
  153.6340  136.6286  159.6841 H   0  0  0  0  0  0  0  0  0  0  0  0
  153.6874  137.7250  163.2154 H   0  0  0  0  0  0  0  0  0  0  0  0
  154.7327  136.5452  165.0163 H   0  0  0  0  0  0  0  0  0  0  0  0
  156.4754  133.1708  161.1627 H   0  0  0  0  0  0  0  0  0  0  0  0
  155.2467  132.3694  162.2123 H   0  0  0  0  0  0  0  0  0  0  0  0
  156.8300  132.9212  162.8726 H   0  0  0  0  0  0  0  0  0  0  0  0
  149.8925  141.2575  157.6648 H   0  0  0  0  0  0  0  0  0  0  0  0
  150.5165  142.8907  157.5797 H   0  0  0  0  0  0  0  0  0  0  0  0
  149.4643  142.1681  155.4276 H   0  0  0  0  0  0  0  0  0  0  0  0
  151.1617  142.5518  155.2008 H   0  0  0  0  0  0  0  0  0  0  0  0
  152.0966  139.0325  155.1261 H   0  0  0  0  0  0  0  0  0  0  0  0
  152.7486  140.6561  155.0101 H   0  0  0  0  0  0  0  0  0  0  0  0
  153.2243  139.7266  157.2313 H   0  0  0  0  0  0  0  0  0  0  0  0
  151.5376  139.3430  157.4991 H   0  0  0  0  0  0  0  0  0  0  0  0
  1  2  1  0  0  0  0
  1 25  1  0  0  0  0
  1 26  1  0  0  0  0
  1 27  1  0  0  0  0
  2  3  1  0  0  0  0
  2  4  1  0  0  0  0
  2 28  1  0  0  0  0
  3 29  1  0  0  0  0
  3 30  1  0  0  0  0
  3 31  1  0  0  0  0
  4  5  1  0  0  0  0
  4 19  1  0  0  0  0
  4 32  1  0  0  0  0
  5  6  1  0  0  0  0
  5 33  1  0  0  0  0
  5 34  1  0  0  0  0
  6  7  1  0  0  0  0
  6 35  1  0  0  0  0
  7  8  2  0  0  0  0
  7  9  1  0  0  0  0
  9 10  1  0  0  0  0
  9 36  1  0  0  0  0
  9 37  1  0  0  0  0
 10 17  1  0  0  0  0
 10 11  1  0  0  0  0
 11 12  2  0  0  0  0
 11 38  1  0  0  0  0
 12 13  1  0  0  0  0
 12 39  1  0  0  0  0
 13 14  2  0  0  0  0
 13 15  1  0  0  0  0
 15 16  1  0  0  0  0
 15 17  1  0  0  0  0
 16 40  1  0  0  0  0
 16 41  1  0  0  0  0
 16 42  1  0  0  0  0
 17 18  2  0  0  0  0
 19 24  1  0  0  0  0
 19 20  1  0  0  0  0
 20 21  1  0  0  0  0
 20 43  1  0  0  0  0
 20 44  1  0  0  0  0
 21 22  1  0  0  0  0
 21 45  1  0  0  0  0
 21 46  1  0  0  0  0
 22 23  1  0  0  0  0
 23 24  1  0  0  0  0
 23 47  1  0  0  0  0
 23 48  1  0  0  0  0
 24 49  1  0  0  0  0
 24 50  1  0  0  0  0
M  END
> <s_m_source_file>
AV-unprocessed.smi

> <i_m_source_file_index>
2013

> <i_lp_mmshare_version>
43012

> <i_f3d_flags>
0

> <s_epik_input>
W0NIMl0xW0NIMl1PW0NIMl1bQ0gyXU4xW0NASF0oW0NIXShbQ0gzXSlbQ0gzXSlbQ0gyXVtOSF1DKD1PKVtDSDJdbjJbY0hdW2NIXWMoPU8pbihbQ0gzXSljMj1P

> <s_epik_cmdline>
J2VwaWtfcHl0aG9uJywgJy1waCcsICc3LjAnLCAnLXRuJywgJzgnLCAnLW1hJywgJzIwMCcsICctbWV0YWxfYmluZGluZycsICctaW1hZScsICc8aW5maWxlLm1hZT4nLCAnLW9tYWUnLCAnPG91dGZpbGUubWFlPic=

> <r_lp_tautomer_probability>
1

> <r_epik_Ionization_Penalty>
0.45351

> <r_epik_Ionization_Penalty_Charging>
1.24653e-08

> <r_epik_Ionization_Penalty_Neutral>
0.45351

> <r_epik_State_Penalty>
0.456487

> <r_epik_Charging_Adjusted_Penalty>
0.456487

> <i_epik_Tot_Q>
0

> <i_epik_Tot_abs_Q>
0

> <r_epik_Metal_State_Penalty>
0.456449

> <b_epik_Metal_Only>
0

> <s_lp_Force_Field>
OPLS_2005

> <r_lp_Energy>
47.2128

> <b_lp_Chiralities_Consistent>
1

> <s_lp_Variant>
AV-unprocessed.smi:2013-3

> <Gold.Version>
5.8.1

> <Gold.Id.Protein>
6NUR|6NUR_protein|mol2

> <Gold.PLP.Fitness>
46.3066

> <Gold.PLP.PLP>
-45.4783

> <Gold.PLP.part.hbond>
-1.8597

> <Gold.PLP.part.metal>
0.0000

> <Gold.PLP.part.buried>
-3.4030

> <Gold.PLP.part.nonpolar>
-39.8672

> <Gold.PLP.part.repulsive>
0.2350

> <Gold.PLP.ligand.clash>
0.0000

> <Gold.PLP.ligand.torsion>
1.0982

> <Gold.PLP.Chemscore.Hbond>
0.8288

> <Gold.PLP.Chemscore.CHOScore>
0.0000

> <Gold.PLP.Chemscore.Metal>
0.0000

> <Gold.Chemscore.Hbonds>
donor molecule, donor type, donor heavy atom, donor atom, acceptor molecule, acceptor atom, score
      P1  H  6896  6909       L1    18  0.48

> <Gold.PLP.Chemscore.Internal.Correction>
0.5384

> <Gold.Rescore>
     Score         DG    S(hbond)    S(metal)    S(lipo)     H(rot)  DE(clash)    DE(int)     intcor
     12.57     -15.79       0.96        0.00     109.01       2.20       0.12       3.10       ----

> <Gold.Chemscore.Fitness>
12.5724

> <Gold.Chemscore.DG>
-15.7937

> <Gold.Chemscore.ZeroCoef>
-5.4800

> <Gold.Chemscore.Hbond>
0.9586

> <Gold.Chemscore.Metal>
0.0000

> <Gold.Chemscore.Lipo>
109.0094

> <Gold.Chemscore.Internal_Hbond>
0.0000

> <Gold.Chemscore.DEClash>
0.1248

> <Gold.Chemscore.DEInternal>
3.0964

> <Gold.Chemscore.Rot>
2.2039

> <Gold.Chemscore.Internal.Correction>
   9.000000E+99

> <Gold.Chemscore.Hbonds>
donor molecule, donor type, donor heavy atom, donor atom, acceptor molecule, acceptor atom, score
      P1  H  6896  6909       L1    18  0.11

> <Gold.Chemscore.Hbond.Weighted>
-3.2016

> <Gold.Chemscore.Metal.Weighted>
-0.0000

> <Gold.Chemscore.Lipo.Weighted>
-12.7541

> <Gold.Chemscore.Internal_Hbond.Weighted>
0.0000

> <Gold.Chemscore.DEClash.Weighted>
0.1248

> <Gold.Chemscore.DEInternal.Weighted>
3.0964

> <Gold.Chemscore.Rot.Weighted>
5.6420

> <Gold.Chemscore.Internal.Correction.Weighted>
   9.000000E+99

> <Gold.Protein.RotatedTorsions>
[ 6907 6896 6895 6894 ] final -169.59 input  -60.11 | X-H torsion
[ 7974 7965 7964 7962 ] final  100.09 input  175.53 | X-H torsion
[ 8008 7997 7996 7995 ] final  102.94 input   59.86 | X-H torsion
[ 10167 10162 10161 10158 ] final  115.89 input  -65.29 | X-H torsion
[ 10718 10713 10712 10709 ] final -128.93 input   66.30 | X-H torsion
[ 10763 10752 10751 10750 ] final  -17.06 input  -60.55 | X-H torsion
[ 11005 11000 10999 10996 ] final  171.50 input  -57.11 | X-H torsion

> <Gold.Protein.ActiveResidues>
 VAL166  LYS551  ARG553  GLY616  TRP617  ASP618  TYR619  PRO620  LYS621  CYS622 
 ASP623  PHE694  ASN695  SER759  ASP760  ASP761  ALA762  ILE779  LEU786  VAL792 
 PHE793  MET794  SER795  GLU796  ALA797  LYS798  CYS799  TRP800  GLU811  SER814 

> <Gold.Protein.RotatedAtoms>
  151.4941  133.3518  159.2857 H   0  0  0  0  0  0  0  0  0  0  0  0  # atno 6907 bound_to 6896
  150.8816  134.8209  159.7240 H   0  0  0  0  0  0  0  0  0  0  0  0  # atno 6908 bound_to 6896
  152.4766  134.4839  159.9726 H   0  0  0  0  0  0  0  0  0  0  0  0  # atno 6909 bound_to 6896
  145.3902  139.2364  143.3356 H   0  0  0  0  0  0  0  0  0  0  0  0  # atno 7974 bound_to 7965
  156.1438  140.3173  155.8538 H   0  0  0  0  0  0  0  0  0  0  0  0  # atno 8008 bound_to 7997
  155.4103  140.0505  157.3049 H   0  0  0  0  0  0  0  0  0  0  0  0  # atno 8009 bound_to 7997
  154.4999  140.2125  155.9381 H   0  0  0  0  0  0  0  0  0  0  0  0  # atno 8010 bound_to 7997
  139.6285  144.7112  151.2481 H   0  0  0  0  0  0  0  0  0  0  0  0  # atno 10167 bound_to 10162
  156.1998  130.6850  151.0526 H   0  0  0  0  0  0  0  0  0  0  0  0  # atno 10718 bound_to 10713
  153.5680  135.7008  153.5517 H   0  0  0  0  0  0  0  0  0  0  0  0  # atno 10763 bound_to 10752
  153.3370  135.4031  155.1541 H   0  0  0  0  0  0  0  0  0  0  0  0  # atno 10764 bound_to 10752
  154.8637  135.3733  154.5201 H   0  0  0  0  0  0  0  0  0  0  0  0  # atno 10765 bound_to 10752
  140.3196  134.7448  157.4054 H   0  0  0  0  0  0  0  0  0  0  0  0  # atno 11005 bound_to 11000
  146.2801  140.4584  142.8780 LP  0  0  0  0  0  0  0  0  0  0  0  0  # atno 17320 bound_to 7965
  144.8445  140.6908  143.6208 LP  0  0  0  0  0  0  0  0  0  0  0  0  # atno 17321 bound_to 7965
  140.7425  143.6523  150.8238 LP  0  0  0  0  0  0  0  0  0  0  0  0  # atno 17342 bound_to 10162
  140.0144  143.5608  152.2826 LP  0  0  0  0  0  0  0  0  0  0  0  0  # atno 17343 bound_to 10162
  157.6979  131.0787  150.6912 LP  0  0  0  0  0  0  0  0  0  0  0  0  # atno 17370 bound_to 10713
  156.6969  130.4612  149.5584 LP  0  0  0  0  0  0  0  0  0  0  0  0  # atno 17371 bound_to 10713
  140.0953  134.5546  155.8404 LP  0  0  0  0  0  0  0  0  0  0  0  0  # atno 17394 bound_to 11000
  141.2089  133.6679  156.6406 LP  0  0  0  0  0  0  0  0  0  0  0  0  # atno 17395 bound_to 11000

$$$$
