AV-unprocessed.smi:1244|AV-procd|sdf|5221|dock1
  -GOLD-   22720 4313D 1   1.00000     0.00000
 Structure written by MMmdl.
 54 56  0  0  0  0  0  0  0  0  1 V2000
  151.0020  141.9758  157.3948 C   0  0  0  0  0  0  0  0  0  0  0  0
  150.7937  141.6797  155.8996 C   0  0  2  0  0  0  0  0  0  0  0  0
  149.3131  141.4879  155.5145 C   0  0  0  0  0  0  0  0  0  0  0  0
  148.7696  140.2132  155.9718 N   0  0  0  0  0  0  0  0  0  0  0  0
  147.3666  140.0744  155.5844 C   0  0  0  0  0  0  0  0  0  0  0  0
  147.1004  140.1759  154.0701 C   0  0  0  0  0  0  0  0  0  0  0  0
  146.0009  139.3114  153.6576 N   0  0  0  0  0  0  0  0  0  0  0  0
  146.0149  137.9721  153.7096 C   0  0  0  0  0  0  0  0  0  0  0  0
  146.9657  137.3174  154.1373 O   0  0  0  0  0  0  0  0  0  0  0  0
  144.8769  137.4534  153.2182 N   0  0  0  0  0  0  0  0  0  0  0  0
  144.5241  136.0802  153.0883 C   0  0  0  0  0  0  0  0  0  0  0  0
  145.4844  135.1023  152.7307 C   0  0  0  0  0  0  0  0  0  0  0  0
  145.0880  133.7608  152.5975 C   0  0  0  0  0  0  0  0  0  0  0  0
  143.7404  133.4409  152.8303 C   0  0  0  0  0  0  0  0  0  0  0  0
  142.8184  134.3557  153.1901 N   0  0  0  0  0  0  0  0  0  0  0  0
  143.1880  135.6521  153.3381 C   0  0  0  0  0  0  0  0  0  0  0  0
  142.1782  136.5598  153.7333 N   0  0  0  0  0  0  0  0  0  0  0  0
  141.9018  137.7507  152.9364 C   0  0  0  0  0  0  0  0  0  0  0  0
  140.5486  138.2528  153.4315 C   0  0  0  0  0  0  0  0  0  0  0  0
  139.8134  136.9519  153.7383 C   0  0  0  0  0  0  0  0  0  0  0  0
  140.9208  136.0207  154.2430 C   0  0  0  0  0  0  0  0  0  0  0  0
  149.6048  139.1312  155.4595 C   0  0  0  0  0  0  0  0  0  0  0  0
  151.0750  139.2857  155.8897 C   0  0  1  0  0  0  0  0  0  0  0  0
  151.9705  138.2040  155.2765 C   0  0  0  0  0  0  0  0  0  0  0  0
  151.5646  140.5573  155.4680 O   0  0  0  0  0  0  0  0  0  0  0  0
  150.5027  142.9022  157.6794 H   0  0  0  0  0  0  0  0  0  0  0  0
  152.0618  142.0881  157.6249 H   0  0  0  0  0  0  0  0  0  0  0  0
  150.6041  141.1842  158.0295 H   0  0  0  0  0  0  0  0  0  0  0  0
  151.1736  142.5411  155.3494 H   0  0  0  0  0  0  0  0  0  0  0  0
  148.7233  142.3122  155.9173 H   0  0  0  0  0  0  0  0  0  0  0  0
  149.2231  141.5493  154.4288 H   0  0  0  0  0  0  0  0  0  0  0  0
  147.0096  139.1006  155.9227 H   0  0  0  0  0  0  0  0  0  0  0  0
  146.7628  140.8135  156.1131 H   0  0  0  0  0  0  0  0  0  0  0  0
  146.8299  141.1935  153.7917 H   0  0  0  0  0  0  0  0  0  0  0  0
  148.0009  139.9261  153.5066 H   0  0  0  0  0  0  0  0  0  0  0  0
  145.1778  139.7657  153.2903 H   0  0  0  0  0  0  0  0  0  0  0  0
  144.2324  138.1077  152.7996 H   0  0  0  0  0  0  0  0  0  0  0  0
  146.5194  135.3595  152.5637 H   0  0  0  0  0  0  0  0  0  0  0  0
  145.7996  132.9968  152.3216 H   0  0  0  0  0  0  0  0  0  0  0  0
  143.3944  132.4226  152.7333 H   0  0  0  0  0  0  0  0  0  0  0  0
  142.6834  138.5013  153.0579 H   0  0  0  0  0  0  0  0  0  0  0  0
  141.8279  137.4997  151.8775 H   0  0  0  0  0  0  0  0  0  0  0  0
  140.6763  138.8342  154.3458 H   0  0  0  0  0  0  0  0  0  0  0  0
  140.0326  138.8754  152.7001 H   0  0  0  0  0  0  0  0  0  0  0  0
  139.0043  137.0783  154.4583 H   0  0  0  0  0  0  0  0  0  0  0  0
  139.3858  136.5490  152.8192 H   0  0  0  0  0  0  0  0  0  0  0  0
  140.7535  134.9914  153.9226 H   0  0  0  0  0  0  0  0  0  0  0  0
  140.9493  136.0372  155.3327 H   0  0  0  0  0  0  0  0  0  0  0  0
  149.2407  138.1698  155.8194 H   0  0  0  0  0  0  0  0  0  0  0  0
  149.5430  139.1018  154.3707 H   0  0  0  0  0  0  0  0  0  0  0  0
  151.1455  139.2136  156.9754 H   0  0  0  0  0  0  0  0  0  0  0  0
  151.6454  137.2079  155.5780 H   0  0  0  0  0  0  0  0  0  0  0  0
  153.0049  138.3271  155.5978 H   0  0  0  0  0  0  0  0  0  0  0  0
  151.9525  138.2473  154.1872 H   0  0  0  0  0  0  0  0  0  0  0  0
  1  2  1  0  0  0  0
  1 26  1  0  0  0  0
  1 27  1  0  0  0  0
  1 28  1  0  0  0  0
  2 25  1  0  0  0  0
  2  3  1  0  0  0  0
  2 29  1  0  0  0  0
  3  4  1  0  0  0  0
  3 30  1  0  0  0  0
  3 31  1  0  0  0  0
  4  5  1  0  0  0  0
  4 22  1  0  0  0  0
  5  6  1  0  0  0  0
  5 32  1  0  0  0  0
  5 33  1  0  0  0  0
  6  7  1  0  0  0  0
  6 34  1  0  0  0  0
  6 35  1  0  0  0  0
  7  8  1  0  0  0  0
  7 36  1  0  0  0  0
  8  9  2  0  0  0  0
  8 10  1  0  0  0  0
 10 11  1  0  0  0  0
 10 37  1  0  0  0  0
 11 16  1  0  0  0  0
 11 12  2  0  0  0  0
 12 13  1  0  0  0  0
 12 38  1  0  0  0  0
 13 14  2  0  0  0  0
 13 39  1  0  0  0  0
 14 15  1  0  0  0  0
 14 40  1  0  0  0  0
 15 16  2  0  0  0  0
 16 17  1  0  0  0  0
 17 21  1  0  0  0  0
 17 18  1  0  0  0  0
 18 19  1  0  0  0  0
 18 41  1  0  0  0  0
 18 42  1  0  0  0  0
 19 20  1  0  0  0  0
 19 43  1  0  0  0  0
 19 44  1  0  0  0  0
 20 21  1  0  0  0  0
 20 45  1  0  0  0  0
 20 46  1  0  0  0  0
 21 47  1  0  0  0  0
 21 48  1  0  0  0  0
 22 23  1  0  0  0  0
 22 49  1  0  0  0  0
 22 50  1  0  0  0  0
 23 24  1  0  0  0  0
 23 25  1  0  0  0  0
 23 51  1  0  0  0  0
 24 52  1  0  0  0  0
 24 53  1  0  0  0  0
 24 54  1  0  0  0  0
M  END
> <s_m_source_file>
AV-unprocessed.smi

> <i_m_source_file_index>
1244

> <i_lp_mmshare_version>
43012

> <i_f3d_flags>
0

> <s_epik_input>
W0NIM11bQ0BASF0xW0NIMl1OKFtDSDJdW0NASF0oTzEpW0NIM10pW0NIMl1bQ0gyXVtOSF1DKD1PKVtOSF1jMltjSF1bY0hdW2NIXW5jMk4zW0NIMl1bQ0gyXVtDSDJdW0NIMl0z

> <s_epik_cmdline>
J2VwaWtfcHl0aG9uJywgJy1waCcsICc3LjAnLCAnLXRuJywgJzgnLCAnLW1hJywgJzIwMCcsICctbWV0YWxfYmluZGluZycsICctaW1hZScsICc8aW5maWxlLm1hZT4nLCAnLW9tYWUnLCAnPG91dGZpbGUubWFlPic=

> <r_lp_tautomer_probability>
1

> <r_epik_Ionization_Penalty>
0.363951

> <r_epik_Ionization_Penalty_Charging>
0

> <r_epik_Ionization_Penalty_Neutral>
0.363951

> <r_epik_State_Penalty>
0.349372

> <r_epik_Charging_Adjusted_Penalty>
0.349372

> <i_epik_Tot_Q>
0

> <i_epik_Tot_abs_Q>
0

> <r_epik_Metal_State_Penalty>
0.333054

> <b_epik_Metal_Only>
0

> <s_lp_Force_Field>
OPLS_2005

> <r_lp_Energy>
51.1959

> <b_lp_Chiralities_Consistent>
1

> <s_lp_Variant>
AV-unprocessed.smi:1244-1

> <Gold.Version>
5.8.1

> <Gold.Id.Protein>
6NUR|6NUR_protein|mol2

> <Gold.PLP.Fitness>
46.0766

> <Gold.PLP.PLP>
-38.5858

> <Gold.PLP.part.hbond>
-3.2815

> <Gold.PLP.part.metal>
0.0000

> <Gold.PLP.part.buried>
-6.3010

> <Gold.PLP.part.nonpolar>
-30.9552

> <Gold.PLP.part.repulsive>
2.2098

> <Gold.PLP.ligand.clash>
0.0000

> <Gold.PLP.ligand.torsion>
0.7096

> <Gold.PLP.Chemscore.Hbond>
2.8400

> <Gold.PLP.Chemscore.CHOScore>
0.0000

> <Gold.PLP.Chemscore.Metal>
0.0000

> <Gold.Chemscore.Hbonds>
donor molecule, donor type, donor heavy atom, donor atom, acceptor molecule, acceptor atom, score
      L1  H     7    36       P1 10175  1.00
      L1  H    10    37       P1 10175  0.02
      P1  H  7989  7998       L1    25  0.78
      L1  C    14    40       P1 10957  0.28

> <Gold.PLP.Chemscore.Internal.Correction>
0.3900

> <Gold.Rescore>
     Score         DG    S(hbond)    S(metal)    S(lipo)     H(rot)  DE(clash)    DE(int)     intcor
     17.42     -19.54       2.29        0.00      88.75       1.55       0.25       1.88       ----

> <Gold.Chemscore.Fitness>
17.4166

> <Gold.Chemscore.DG>
-19.5450

> <Gold.Chemscore.ZeroCoef>
-5.4800

> <Gold.Chemscore.Hbond>
2.2886

> <Gold.Chemscore.Metal>
0.0000

> <Gold.Chemscore.Lipo>
88.7505

> <Gold.Chemscore.Internal_Hbond>
0.0000

> <Gold.Chemscore.DEClash>
0.2512

> <Gold.Chemscore.DEInternal>
1.8771

> <Gold.Chemscore.Rot>
1.5479

> <Gold.Chemscore.Internal.Correction>
   9.000000E+99

> <Gold.Chemscore.Hbonds>
donor molecule, donor type, donor heavy atom, donor atom, acceptor molecule, acceptor atom, score
      L1  H     7    36       P1 10175  1.00
      L1  H    10    37       P1 10175  0.07
      P1  H  7989  7998       L1    25  0.21

> <Gold.Chemscore.Hbond.Weighted>
-7.6439

> <Gold.Chemscore.Metal.Weighted>
-0.0000

> <Gold.Chemscore.Lipo.Weighted>
-10.3838

> <Gold.Chemscore.Internal_Hbond.Weighted>
0.0000

> <Gold.Chemscore.DEClash.Weighted>
0.2512

> <Gold.Chemscore.DEInternal.Weighted>
1.8771

> <Gold.Chemscore.Rot.Weighted>
3.9627

> <Gold.Chemscore.Internal.Correction.Weighted>
   9.000000E+99

> <Gold.Protein.RotatedTorsions>
[ 6907 6896 6895 6894 ] final   71.48 input  -60.11 | X-H torsion
[ 7974 7965 7964 7962 ] final   21.65 input  175.53 | X-H torsion
[ 8008 7997 7996 7995 ] final -176.45 input   59.86 | X-H torsion
[ 10167 10162 10161 10158 ] final  121.44 input  -65.29 | X-H torsion
[ 10718 10713 10712 10709 ] final  -25.28 input   66.30 | X-H torsion
[ 10763 10752 10751 10750 ] final   19.09 input  -60.55 | X-H torsion
[ 11005 11000 10999 10996 ] final   38.10 input  -57.11 | X-H torsion

> <Gold.Protein.ActiveResidues>
 VAL166  LYS551  ARG553  GLY616  TRP617  ASP618  TYR619  PRO620  LYS621  CYS622 
 ASP623  PHE694  ASN695  SER759  ASP760  ASP761  ALA762  ILE779  LEU786  VAL792 
 PHE793  MET794  SER795  GLU796  ALA797  LYS798  CYS799  TRP800  GLU811  SER814 

> <Gold.Protein.RotatedAtoms>
  152.4812  134.4714  159.9636 H   0  0  0  0  0  0  0  0  0  0  0  0  # atno 6907 bound_to 6896
  151.4720  133.3561  159.2833 H   0  0  0  0  0  0  0  0  0  0  0  0  # atno 6908 bound_to 6896
  150.8886  134.8313  159.7338 H   0  0  0  0  0  0  0  0  0  0  0  0  # atno 6909 bound_to 6896
  146.2062  139.7997  142.8724 H   0  0  0  0  0  0  0  0  0  0  0  0  # atno 7974 bound_to 7965
  155.9950  140.1209  157.0602 H   0  0  0  0  0  0  0  0  0  0  0  0  # atno 8008 bound_to 7997
  154.4224  140.1118  156.5687 H   0  0  0  0  0  0  0  0  0  0  0  0  # atno 8009 bound_to 7997
  155.6290  140.3473  155.4679 H   0  0  0  0  0  0  0  0  0  0  0  0  # atno 8010 bound_to 7997
  139.5920  144.7028  151.3268 H   0  0  0  0  0  0  0  0  0  0  0  0  # atno 10167 bound_to 10162
  156.4664  130.4515  149.6896 H   0  0  0  0  0  0  0  0  0  0  0  0  # atno 10718 bound_to 10713
  153.1192  135.6715  153.9364 H   0  0  0  0  0  0  0  0  0  0  0  0  # atno 10763 bound_to 10752
  153.8885  135.3050  155.3448 H   0  0  0  0  0  0  0  0  0  0  0  0  # atno 10764 bound_to 10752
  154.7606  135.4990  153.9535 H   0  0  0  0  0  0  0  0  0  0  0  0  # atno 10765 bound_to 10752
  140.2160  134.3698  155.8027 H   0  0  0  0  0  0  0  0  0  0  0  0  # atno 11005 bound_to 11000
  145.3309  141.0266  143.3447 LP  0  0  0  0  0  0  0  0  0  0  0  0  # atno 17320 bound_to 7965
  144.8799  139.4918  143.6728 LP  0  0  0  0  0  0  0  0  0  0  0  0  # atno 17321 bound_to 7965
  140.7180  143.7212  150.7694 LP  0  0  0  0  0  0  0  0  0  0  0  0  # atno 17342 bound_to 10162
  140.0770  143.5005  152.2550 LP  0  0  0  0  0  0  0  0  0  0  0  0  # atno 17343 bound_to 10162
  156.3663  130.7507  151.2486 LP  0  0  0  0  0  0  0  0  0  0  0  0  # atno 17370 bound_to 10713
  157.7494  131.0336  150.4278 LP  0  0  0  0  0  0  0  0  0  0  0  0  # atno 17371 bound_to 10713
  141.2225  133.7168  156.8496 LP  0  0  0  0  0  0  0  0  0  0  0  0  # atno 17394 bound_to 11000
  140.1900  134.8972  157.3049 LP  0  0  0  0  0  0  0  0  0  0  0  0  # atno 17395 bound_to 11000

$$$$
