AV-unprocessed.smi:1843|AV-procd|sdf|7504|dock6
  -GOLD-   22720 9203D 1   1.00000     0.00000
 Structure written by MMmdl.
 36 38  0  0  0  0  0  0  0  0  2 V2000
  147.1041  132.3005  153.3302 O   0  0  0  0  0  0  0  0  0  0  0  0
  147.5917  133.4185  153.1477 C   0  0  0  0  0  0  0  0  0  0  0  0
  148.6460  133.9496  153.8076 N   0  5  0  0  0  0  0  0  0  0  0  0
  149.4966  133.1487  154.4706 C   0  0  0  0  0  0  0  0  0  0  0  0
  150.3127  133.6058  155.4308 N   0  0  0  0  0  0  0  0  0  0  0  0
  151.1058  132.6139  155.9888 N   0  0  0  0  0  0  0  0  0  0  0  0
  150.8713  131.4166  155.4466 C   0  0  0  0  0  0  0  0  0  0  0  0
  151.6008  130.1883  155.8774 C   0  0  0  0  0  0  0  0  0  0  0  0
  153.1112  130.1649  155.9248 C   0  0  0  0  0  0  0  0  0  0  0  0
  152.3807  129.3427  154.8942 C   0  0  0  0  0  0  0  0  0  0  0  0
  149.6376  131.4125  154.1962 S   0  0  0  0  0  0  0  0  0  0  0  0
  147.0705  134.2334  152.2194 N   0  0  0  0  0  0  0  0  0  0  0  0
  145.9240  133.9403  151.3610 C   0  0  2  0  0  0  0  0  0  0  0  0
  144.6462  133.8834  152.2281 C   0  0  0  0  0  0  0  0  0  0  0  0
  143.4184  133.4279  151.4265 C   0  0  0  0  0  0  0  0  0  0  0  0
  143.6728  132.0700  150.7594 C   0  0  0  0  0  0  0  0  0  0  0  0
  144.9106  132.1358  149.8551 C   0  0  0  0  0  0  0  0  0  0  0  0
  146.1600  132.5979  150.6294 C   0  0  1  0  0  0  0  0  0  0  0  0
  147.2084  132.7437  149.6920 O   0  0  0  0  0  0  0  0  0  0  0  0
  151.0574  129.6768  156.6694 H   0  0  0  0  0  0  0  0  0  0  0  0
  153.6417  131.0489  155.5763 H   0  0  0  0  0  0  0  0  0  0  0  0
  153.5782  129.6366  156.7534 H   0  0  0  0  0  0  0  0  0  0  0  0
  152.3607  128.2640  155.0345 H   0  0  0  0  0  0  0  0  0  0  0  0
  152.4383  129.6763  153.8601 H   0  0  0  0  0  0  0  0  0  0  0  0
  147.4995  135.1403  152.1085 H   0  0  0  0  0  0  0  0  0  0  0  0
  145.8065  134.7289  150.6149 H   0  0  0  0  0  0  0  0  0  0  0  0
  144.7995  133.1966  153.0620 H   0  0  0  0  0  0  0  0  0  0  0  0
  144.4490  134.8608  152.6700 H   0  0  0  0  0  0  0  0  0  0  0  0
  142.5497  133.3640  152.0820 H   0  0  0  0  0  0  0  0  0  0  0  0
  143.1796  134.1729  150.6664 H   0  0  0  0  0  0  0  0  0  0  0  0
  143.8131  131.3034  151.5228 H   0  0  0  0  0  0  0  0  0  0  0  0
  142.8010  131.7723  150.1760 H   0  0  0  0  0  0  0  0  0  0  0  0
  145.0900  131.1582  149.4058 H   0  0  0  0  0  0  0  0  0  0  0  0
  144.7119  132.8223  149.0305 H   0  0  0  0  0  0  0  0  0  0  0  0
  146.4402  131.8265  151.3485 H   0  0  0  0  0  0  0  0  0  0  0  0
  147.7605  131.9784  149.7395 H   0  0  0  0  0  0  0  0  0  0  0  0
  1  2  2  0  0  0  0
  2  3  1  0  0  0  0
  2 12  1  0  0  0  0
  3  4  1  0  0  0  0
  4 11  1  0  0  0  0
  4  5  2  0  0  0  0
  5  6  1  0  0  0  0
  6  7  2  0  0  0  0
  7  8  1  0  0  0  0
  7 11  1  0  0  0  0
  8 10  1  0  0  0  0
  8  9  1  0  0  0  0
  8 20  1  0  0  0  0
  9 10  1  0  0  0  0
  9 21  1  0  0  0  0
  9 22  1  0  0  0  0
 10 23  1  0  0  0  0
 10 24  1  0  0  0  0
 12 13  1  0  0  0  0
 12 25  1  0  0  0  0
 13 18  1  0  0  0  0
 13 14  1  0  0  0  0
 13 26  1  0  0  0  0
 14 15  1  0  0  0  0
 14 27  1  0  0  0  0
 14 28  1  0  0  0  0
 15 16  1  0  0  0  0
 15 29  1  0  0  0  0
 15 30  1  0  0  0  0
 16 17  1  0  0  0  0
 16 31  1  0  0  0  0
 16 32  1  0  0  0  0
 17 18  1  0  0  0  0
 17 33  1  0  0  0  0
 17 34  1  0  0  0  0
 18 19  1  0  0  0  0
 18 35  1  0  0  0  0
 19 36  1  0  0  0  0
M  CHG  1   3  -1
M  END
> <s_m_source_file>
AV-unprocessed.smi

> <i_m_source_file_index>
1843

> <i_lp_mmshare_version>
43012

> <i_f3d_flags>
0

> <s_epik_input>
W09IXVtDQEBIXTFbQ0gyXVtDSDJdW0NIMl1bQ0gyXVtDQEhdMVtOSF1DKD1PKVtOSF1jMm5uYyhzMilbQ0hdM1tDSDJdW0NIMl0z

> <s_epik_cmdline>
J2VwaWtfcHl0aG9uJywgJy1waCcsICc3LjAnLCAnLXRuJywgJzgnLCAnLW1hJywgJzIwMCcsICctbWV0YWxfYmluZGluZycsICctaW1hZScsICc8aW5maWxlLm1hZT4nLCAnLW9tYWUnLCAnPG91dGZpbGUubWFlPic=

> <r_lp_tautomer_probability>
1

> <r_epik_Ionization_Penalty>
4.7996

> <r_epik_Ionization_Penalty_Charging>
4.64516

> <r_epik_Ionization_Penalty_Neutral>
0.154442

> <r_epik_State_Penalty>
4.64493

> <r_epik_Charging_Adjusted_Penalty>
9.29009

> <i_epik_Tot_Q>
-1

> <i_epik_Tot_abs_Q>
1

> <r_epik_Metal_State_Penalty>
0.896144

> <b_epik_Metal_Only>
1

> <s_lp_Force_Field>
OPLS_2005

> <r_lp_Energy>
6.98885

> <b_lp_Chiralities_Consistent>
1

> <s_lp_Variant>
AV-unprocessed.smi:1843-5

> <Gold.Version>
5.8.1

> <Gold.Id.Protein>
6NUR|6NUR_protein|mol2

> <Gold.PLP.Fitness>
39.5804

> <Gold.PLP.PLP>
-34.0149

> <Gold.PLP.part.hbond>
-3.9311

> <Gold.PLP.part.metal>
0.0000

> <Gold.PLP.part.buried>
-2.0174

> <Gold.PLP.part.nonpolar>
-27.5539

> <Gold.PLP.part.repulsive>
1.0001

> <Gold.PLP.ligand.clash>
0.0000

> <Gold.PLP.ligand.torsion>
0.2852

> <Gold.PLP.Chemscore.Hbond>
2.0000

> <Gold.PLP.Chemscore.CHOScore>
0.0000

> <Gold.PLP.Chemscore.Metal>
0.0000

> <Gold.Chemscore.Hbonds>
donor molecule, donor type, donor heavy atom, donor atom, acceptor molecule, acceptor atom, score
      L1  H    12    25       P1  7948  1.00
      L1  H    19    36       P1 10747  1.00

> <Gold.PLP.Chemscore.Internal.Correction>
0.1358

> <Gold.Rescore>
     Score         DG    S(hbond)    S(metal)    S(lipo)     H(rot)  DE(clash)    DE(int)     intcor
     13.00     -15.91       1.88        0.00      72.94       1.72       0.13       2.78       ----

> <Gold.Chemscore.Fitness>
13.0031

> <Gold.Chemscore.DG>
-15.9101

> <Gold.Chemscore.ZeroCoef>
-5.4800

> <Gold.Chemscore.Hbond>
1.8831

> <Gold.Chemscore.Metal>
0.0000

> <Gold.Chemscore.Lipo>
72.9358

> <Gold.Chemscore.Internal_Hbond>
0.0000

> <Gold.Chemscore.DEClash>
0.1311

> <Gold.Chemscore.DEInternal>
2.7759

> <Gold.Chemscore.Rot>
1.7160

> <Gold.Chemscore.Internal.Correction>
   9.000000E+99

> <Gold.Chemscore.Hbonds>
donor molecule, donor type, donor heavy atom, donor atom, acceptor molecule, acceptor atom, score
      L1  H    12    25       P1  7948  0.93
      L1  H    19    36       P1 10747  1.00

> <Gold.Chemscore.Hbond.Weighted>
-6.2896

> <Gold.Chemscore.Metal.Weighted>
-0.0000

> <Gold.Chemscore.Lipo.Weighted>
-8.5335

> <Gold.Chemscore.Internal_Hbond.Weighted>
0.0000

> <Gold.Chemscore.DEClash.Weighted>
0.1311

> <Gold.Chemscore.DEInternal.Weighted>
2.7759

> <Gold.Chemscore.Rot.Weighted>
4.3930

> <Gold.Chemscore.Internal.Correction.Weighted>
   9.000000E+99

> <Gold.Protein.RotatedTorsions>
[ 6907 6896 6895 6894 ] final  -34.24 input  -60.11 | X-H torsion
[ 7974 7965 7964 7962 ] final -140.41 input  175.53 | X-H torsion
[ 8008 7997 7996 7995 ] final  -94.77 input   59.86 | X-H torsion
[ 10167 10162 10161 10158 ] final  -86.39 input  -65.29 | X-H torsion
[ 10718 10713 10712 10709 ] final  -52.00 input   66.30 | X-H torsion
[ 10763 10752 10751 10750 ] final  -12.93 input  -60.55 | X-H torsion
[ 11005 11000 10999 10996 ] final -104.94 input  -57.11 | X-H torsion

> <Gold.Protein.ActiveResidues>
 VAL166  LYS551  ARG553  GLY616  TRP617  ASP618  TYR619  PRO620  LYS621  CYS622 
 ASP623  PHE694  ASN695  SER759  ASP760  ASP761  ALA762  ILE779  LEU786  VAL792 
 PHE793  MET794  SER795  GLU796  ALA797  LYS798  CYS799  TRP800  GLU811  SER814 

> <Gold.Protein.RotatedAtoms>
  151.0552  134.9699  159.8231 H   0  0  0  0  0  0  0  0  0  0  0  0  # atno 6907 bound_to 6896
  152.5387  134.2487  159.8900 H   0  0  0  0  0  0  0  0  0  0  0  0  # atno 6908 bound_to 6896
  151.2505  133.4310  159.2645 H   0  0  0  0  0  0  0  0  0  0  0  0  # atno 6909 bound_to 6896
  144.8600  140.6203  143.5335 H   0  0  0  0  0  0  0  0  0  0  0  0  # atno 7974 bound_to 7965
  154.7527  140.0486  157.0907 H   0  0  0  0  0  0  0  0  0  0  0  0  # atno 8008 bound_to 7997
  155.0037  140.3127  155.4837 H   0  0  0  0  0  0  0  0  0  0  0  0  # atno 8009 bound_to 7997
  156.2888  140.2197  156.5148 H   0  0  0  0  0  0  0  0  0  0  0  0  # atno 8010 bound_to 7997
  140.3946  143.2689  151.9220 H   0  0  0  0  0  0  0  0  0  0  0  0  # atno 10167 bound_to 10162
  156.1660  130.4149  149.9720 H   0  0  0  0  0  0  0  0  0  0  0  0  # atno 10718 bound_to 10713
  153.5058  135.7017  153.5807 H   0  0  0  0  0  0  0  0  0  0  0  0  # atno 10763 bound_to 10752
  153.3919  135.3893  155.1929 H   0  0  0  0  0  0  0  0  0  0  0  0  # atno 10764 bound_to 10752
  154.8707  135.3860  154.4533 H   0  0  0  0  0  0  0  0  0  0  0  0  # atno 10765 bound_to 10752
  141.1077  133.8766  157.1674 H   0  0  0  0  0  0  0  0  0  0  0  0  # atno 11005 bound_to 11000
  145.4332  139.1546  143.4011 LP  0  0  0  0  0  0  0  0  0  0  0  0  # atno 17320 bound_to 7965
  146.2853  140.4449  142.8760 LP  0  0  0  0  0  0  0  0  0  0  0  0  # atno 17321 bound_to 7965
  139.4787  144.5693  151.8113 LP  0  0  0  0  0  0  0  0  0  0  0  0  # atno 17342 bound_to 10162
  140.4803  144.1458  150.5931 LP  0  0  0  0  0  0  0  0  0  0  0  0  # atno 17343 bound_to 10162
  156.7535  130.9124  151.3638 LP  0  0  0  0  0  0  0  0  0  0  0  0  # atno 17370 bound_to 10713
  157.6768  130.9102  150.0169 LP  0  0  0  0  0  0  0  0  0  0  0  0  # atno 17371 bound_to 10713
  139.9954  135.0048  157.0071 LP  0  0  0  0  0  0  0  0  0  0  0  0  # atno 17394 bound_to 11000
  140.4859  134.1242  155.7224 LP  0  0  0  0  0  0  0  0  0  0  0  0  # atno 17395 bound_to 11000

$$$$
