#       Name:                AV-unprocessed.smi:2251
#       Creating user name   scv26
#       Creation time:       Fri Mar 27 12:30:07 2020


#       File generated by GOLD software.
#

@<TRIPOS>MOLECULE
AV-unprocessed.smi:2251
    49    50     1
SMALL
NO_CHARGES


@<TRIPOS>ATOM
      1 ****        -3.6316   4.7978  -2.3935 C.3            1 S1                 0.0000
      2 ****        -3.0917   3.4256  -2.0057 C.2            1 S1                 0.0000
      3 ****        -2.6512   2.6678  -2.8696 O.2            1 S1                 0.0000
      4 ****        -3.1299   3.1197  -0.6996 N.am           1 S1                 0.0000
      5 ****        -2.6495   1.8705  -0.1135 C.3            1 S1                 0.0000
      6 ****        -1.1311   1.8540   0.1016 C.2            1 S1                 0.0000
      7 ****        -0.4972   2.9038   0.2188 O.2            1 S1                 0.0000
      8 ****        -0.5614   0.6435   0.1726 N.am           1 S1                 0.0000
      9 ****         0.8649   0.4115   0.3783 C.3            1 S1                 0.0000
     10 ****         1.2154  -1.1025   0.4498 C.3            1 S1                 0.0000
     11 ****         0.3814  -1.7463   1.5804 C.ar           1 S1                 0.0000
     12 ****         0.5829  -1.3481   2.9241 C.ar           1 S1                 0.0000
     13 ****        -0.1940  -1.9332   3.9429 C.ar           1 S1                 0.0000
     14 ****        -1.1398  -2.8654   3.7110 N.ar           1 S1                 0.0000
     15 ****        -1.3424  -3.2448   2.4330 C.ar           1 S1                 0.0000
     16 ****        -0.6201  -2.7213   1.3423 C.ar           1 S1                 0.0000
     17 ****         0.9457  -1.7857  -0.9280 C.3            1 S1                 0.0000
     18 ****         1.8854  -1.3285  -2.0585 C.3            1 S1                 0.0000
     19 ****         3.3548  -1.5333  -1.6737 C.3            1 S1                 0.0000
     20 ****         3.6761  -0.8314  -0.3495 C.3            1 S1                 0.0000
     21 ****         2.7267  -1.2843   0.7756 C.3            1 S1                 0.0000
     22 ****        -4.6429   4.9348  -2.0096 H              1 S1                 0.0000
     23 ****        -3.6605   4.9112  -3.4777 H              1 S1                 0.0000
     24 ****        -2.9964   5.5843  -1.9849 H              1 S1                 0.0000
     25 ****        -3.5025   3.8076  -0.0613 H              1 S1                 0.0000
     26 ****        -3.1361   1.7357   0.8525 H              1 S1                 0.0000
     27 ****        -2.9493   1.0252  -0.7357 H              1 S1                 0.0000
     28 ****        -1.1506  -0.1709   0.0756 H              1 S1                 0.0000
     29 ****         1.4154   0.9135  -0.4164 H              1 S1                 0.0000
     30 ****         1.1625   0.9075   1.3033 H              1 S1                 0.0000
     31 ****         1.3161  -0.5993   3.1831 H              1 S1                 0.0000
     32 ****        -0.0530  -1.6403   4.9728 H              1 S1                 0.0000
     33 ****        -2.1087  -3.9884   2.2716 H              1 S1                 0.0000
     34 ****        -0.8572  -3.0796   0.3530 H              1 S1                 0.0000
     35 ****         1.0755  -2.8641  -0.8258 H              1 S1                 0.0000
     36 ****        -0.0865  -1.6312  -1.2440 H              1 S1                 0.0000
     37 ****         1.6654  -1.8919  -2.9657 H              1 S1                 0.0000
     38 ****         1.7057  -0.2824  -2.3059 H              1 S1                 0.0000
     39 ****         3.5631  -2.6001  -1.5814 H              1 S1                 0.0000
     40 ****         4.0049  -1.1573  -2.4641 H              1 S1                 0.0000
     41 ****         4.7072  -1.0437  -0.0653 H              1 S1                 0.0000
     42 ****         3.6178   0.2490  -0.4801 H              1 S1                 0.0000
     43 ****         2.9949  -0.7502   1.6869 H              1 S1                 0.0000
     44 ****         2.9209  -2.3384   0.9803 H              1 S1                 0.0000
     45 ****        -2.6468   2.9515  -3.8285 LP             1 S1                 0.0000
     46 ****        -2.2977   1.7683  -2.6127 LP             1 S1                 0.0000
     47 ****        -0.9724   3.7825   0.1741 LP             1 S1                 0.0000
     48 ****         0.4926   2.8772   0.3586 LP             1 S1                 0.0000
     49 ****        -1.6718  -3.2612   4.4596 LP             1 S1                 0.0000
@<TRIPOS>BOND
    1    1    2 1     
    2    1   22 1     
    3    1   23 1     
    4    1   24 1     
    5    2    3 2     
    6    2    4 am    
    7    4    5 1     
    8    4   25 1     
    9    5    6 1     
   10    5   26 1     
   11    5   27 1     
   12    6    7 2     
   13    6    8 am    
   14    8    9 1     
   15    8   28 1     
   16    9   10 1     
   17    9   29 1     
   18    9   30 1     
   19   10   21 1     
   20   10   11 1     
   21   10   17 1     
   22   11   16 ar    
   23   11   12 ar    
   24   12   13 ar    
   25   12   31 1     
   26   13   14 ar    
   27   13   32 1     
   28   14   15 ar    
   29   15   16 ar    
   30   15   33 1     
   31   16   34 1     
   32   17   18 1     
   33   17   35 1     
   34   17   36 1     
   35   18   19 1     
   36   18   37 1     
   37   18   38 1     
   38   19   20 1     
   39   19   39 1     
   40   19   40 1     
   41   20   21 1     
   42   20   41 1     
   43   20   42 1     
   44   21   43 1     
   45   21   44 1     
   46    3   45 1     
   47    3   46 1     
   48    7   47 1     
   49    7   48 1     
   50   14   49 1     
@<TRIPOS>SUBSTRUCTURE
      1 S1             1
@<TRIPOS>SET
LONE_PAIRS      STATIC     ATOMS    <user>   **** ""
5 45 46 47 48 49
DONOR_HYDROGENS      STATIC     ATOMS    <user>   **** ""
2 25 28
ATOM$BLUE        STATIC     ATOMS    COLORGROUP SYSTEM
5 45 46 47 48 49
ATOM$RED        STATIC     ATOMS    COLORGROUP SYSTEM
2 25 28
