AV-unprocessed.smi:1056|AV-procd|sdf|4643|dock4
  -GOLD-   22720 3143D 1   1.00000     0.00000
 Structure written by MMmdl.
 44 46  0  0  0  0  0  0  0  0  3 V2000
  151.9136  143.9435  158.7163 C   0  0  0  0  0  0  0  0  0  0  0  0
  151.6657  142.6044  158.0443 C   0  0  0  0  0  0  0  0  0  0  0  0
  150.9846  142.5727  156.8065 C   0  0  0  0  0  0  0  0  0  0  0  0
  150.7342  141.3488  156.1488 C   0  0  0  0  0  0  0  0  0  0  0  0
  150.0940  141.0861  154.9499 N   0  0  0  0  0  0  0  0  0  0  0  0
  150.1812  139.7609  154.8830 C   0  0  0  0  0  0  0  0  0  0  0  0
  150.7973  139.1322  155.9025 N   0  0  0  0  0  0  0  0  0  0  0  0
  151.0091  137.7040  156.0548 C   0  0  0  0  0  0  0  0  0  0  0  0
  150.6972  136.9253  154.7632 C   0  0  1  0  0  0  0  0  0  0  0  0
  151.7034  137.1893  153.8045 O   0  0  0  0  0  0  0  0  0  0  0  0
  150.6365  135.4057  155.0108 C   0  0  0  0  0  0  0  0  0  0  0  0
  149.3851  134.8010  154.4904 N   0  3  2  0  0  0  0  0  0  0  0  0
  148.1794  135.1472  155.2879 C   0  0  0  0  0  0  0  0  0  0  0  0
  146.9035  134.7558  154.5190 C   0  0  0  0  0  0  0  0  0  0  0  0
  147.0207  133.3861  154.0042 N   0  5  0  0  0  0  0  0  0  0  0  0
  148.1843  132.7043  153.7636 C   0  0  0  0  0  0  0  0  0  0  0  0
  148.2682  131.6124  153.2062 O   0  0  0  0  0  0  0  0  0  0  0  0
  149.5069  133.3316  154.2822 C   0  0  0  0  0  0  0  0  0  0  0  0
  151.1872  140.1477  156.7686 C   0  0  0  0  0  0  0  0  0  0  0  0
  151.8665  140.1658  157.9994 C   0  0  0  0  0  0  0  0  0  0  0  0
  152.1079  141.3975  158.6432 C   0  0  0  0  0  0  0  0  0  0  0  0
  152.8407  141.4075  159.9731 C   0  0  0  0  0  0  0  0  0  0  0  0
  151.5192  144.7673  158.1207 H   0  0  0  0  0  0  0  0  0  0  0  0
  152.9822  144.1113  158.8521 H   0  0  0  0  0  0  0  0  0  0  0  0
  151.4303  143.9759  159.6930 H   0  0  0  0  0  0  0  0  0  0  0  0
  150.6479  143.4920  156.3501 H   0  0  0  0  0  0  0  0  0  0  0  0
  149.7682  139.2150  154.0471 H   0  0  0  0  0  0  0  0  0  0  0  0
  152.0405  137.5323  156.3668 H   0  0  0  0  0  0  0  0  0  0  0  0
  150.3735  137.3537  156.8689 H   0  0  0  0  0  0  0  0  0  0  0  0
  149.7490  137.2824  154.3627 H   0  0  0  0  0  0  0  0  0  0  0  0
  151.3446  137.0386  152.9429 H   0  0  0  0  0  0  0  0  0  0  0  0
  151.5007  134.9404  154.5336 H   0  0  0  0  0  0  0  0  0  0  0  0
  150.7221  135.1838  156.0757 H   0  0  0  0  0  0  0  0  0  0  0  0
  148.2190  134.6303  156.2482 H   0  0  0  0  0  0  0  0  0  0  0  0
  148.1458  136.2131  155.5097 H   0  0  0  0  0  0  0  0  0  0  0  0
  146.0390  134.8740  155.1716 H   0  0  0  0  0  0  0  0  0  0  0  0
  146.7590  135.4639  153.7026 H   0  0  0  0  0  0  0  0  0  0  0  0
  150.3022  133.1298  153.5634 H   0  0  0  0  0  0  0  0  0  0  0  0
  149.7820  132.8446  155.2190 H   0  0  0  0  0  0  0  0  0  0  0  0
  152.1982  139.2394  158.4444 H   0  0  0  0  0  0  0  0  0  0  0  0
  153.1031  140.3981  160.2907 H   0  0  0  0  0  0  0  0  0  0  0  0
  152.2169  141.8511  160.7494 H   0  0  0  0  0  0  0  0  0  0  0  0
  153.7623  141.9849  159.8970 H   0  0  0  0  0  0  0  0  0  0  0  0
  149.2380  135.1935  153.5713 H   0  0  0  0  0  0  0  0  0  0  0  0
  1  2  1  0  0  0  0
  1 23  1  0  0  0  0
  1 24  1  0  0  0  0
  1 25  1  0  0  0  0
  2 21  1  0  0  0  0
  2  3  2  0  0  0  0
  3  4  1  0  0  0  0
  3 26  1  0  0  0  0
  4 19  2  0  0  0  0
  4  5  1  0  0  0  0
  5  6  2  0  0  0  0
  6  7  1  0  0  0  0
  6 27  1  0  0  0  0
  7  8  1  0  0  0  0
  7 19  1  0  0  0  0
  8  9  1  0  0  0  0
  8 28  1  0  0  0  0
  8 29  1  0  0  0  0
  9 10  1  0  0  0  0
  9 11  1  0  0  0  0
  9 30  1  0  0  0  0
 10 31  1  0  0  0  0
 11 12  1  0  0  0  0
 11 32  1  0  0  0  0
 11 33  1  0  0  0  0
 12 18  1  0  0  0  0
 12 13  1  0  0  0  0
 12 44  1  0  0  0  0
 13 14  1  0  0  0  0
 13 34  1  0  0  0  0
 13 35  1  0  0  0  0
 14 15  1  0  0  0  0
 14 36  1  0  0  0  0
 14 37  1  0  0  0  0
 15 16  1  0  0  0  0
 16 17  2  0  0  0  0
 16 18  1  0  0  0  0
 18 38  1  0  0  0  0
 18 39  1  0  0  0  0
 19 20  1  0  0  0  0
 20 21  2  0  0  0  0
 20 40  1  0  0  0  0
 21 22  1  0  0  0  0
 22 41  1  0  0  0  0
 22 42  1  0  0  0  0
 22 43  1  0  0  0  0
M  CHG  1  12   1
M  CHG  1  15  -1
M  END
> <s_m_source_file>
AV-unprocessed.smi

> <i_m_source_file_index>
1056

> <i_lp_mmshare_version>
43012

> <i_f3d_flags>
0

> <s_epik_input>
W0NIM11jKFtjSF0xKWMoW0NIM10pW2NIXWMoYzEyKW4oW2NIXW4yKVtDSDJdW0NASF0oW09IXSlbQ0gyXU4zW0NIMl1bQ0gyXVtOSF1DKD1PKVtDSDJdMw==

> <s_epik_cmdline>
J2VwaWtfcHl0aG9uJywgJy1waCcsICc3LjAnLCAnLXRuJywgJzgnLCAnLW1hJywgJzIwMCcsICctbWV0YWxfYmluZGluZycsICctaW1hZScsICc8aW5maWxlLm1hZT4nLCAnLW9tYWUnLCAnPG91dGZpbGUubWFlPic=

> <r_epik_Ionization_Penalty>
5.13411

> <r_epik_Ionization_Penalty_Charging>
5.04792

> <r_epik_Ionization_Penalty_Neutral>
0.0861879

> <r_epik_State_Penalty>
5.18224

> <r_epik_Charging_Adjusted_Penalty>
10.2302

> <i_epik_Tot_Q>
0

> <i_epik_Tot_abs_Q>
2

> <r_epik_Metal_State_Penalty>
1.33873

> <b_epik_Metal_Only>
1

> <s_lp_Force_Field>
OPLS_2005

> <r_lp_Energy>
15.7703

> <b_lp_Chiralities_Consistent>
1

> <s_lp_Variant>
AV-unprocessed.smi:1056-14

> <Gold.Version>
5.8.1

> <Gold.Id.Protein>
6NUR|6NUR_protein|mol2

> <Gold.PLP.Fitness>
49.8843

> <Gold.PLP.PLP>
-39.8138

> <Gold.PLP.part.hbond>
-4.0000

> <Gold.PLP.part.metal>
0.0000

> <Gold.PLP.part.buried>
-5.1172

> <Gold.PLP.part.nonpolar>
-31.9079

> <Gold.PLP.part.repulsive>
0.6219

> <Gold.PLP.ligand.clash>
0.0000

> <Gold.PLP.ligand.torsion>
1.0399

> <Gold.PLP.Chemscore.Hbond>
4.0277

> <Gold.PLP.Chemscore.CHOScore>
0.0000

> <Gold.PLP.Chemscore.Metal>
0.0000

> <Gold.Chemscore.Hbonds>
donor molecule, donor type, donor heavy atom, donor atom, acceptor molecule, acceptor atom, score
      L1  H    10    31       P1  7949  0.99
      L1  H    12    44       P1  7948  2.00
      P1  H 10752 10763       L1    10  1.00

> <Gold.PLP.Chemscore.Internal.Correction>
0.0672

> <Gold.Rescore>
     Score         DG    S(hbond)    S(metal)    S(lipo)     H(rot)  DE(clash)    DE(int)     intcor
     15.77     -16.89       2.00        0.00      91.05       2.31       0.02       1.11       ----

> <Gold.Chemscore.Fitness>
15.7657

> <Gold.Chemscore.DG>
-16.8908

> <Gold.Chemscore.ZeroCoef>
-5.4800

> <Gold.Chemscore.Hbond>
2.0010

> <Gold.Chemscore.Metal>
0.0000

> <Gold.Chemscore.Lipo>
91.0507

> <Gold.Chemscore.Internal_Hbond>
0.0000

> <Gold.Chemscore.DEClash>
0.0168

> <Gold.Chemscore.DEInternal>
1.1083

> <Gold.Chemscore.Rot>
2.3147

> <Gold.Chemscore.Internal.Correction>
   9.000000E+99

> <Gold.Chemscore.Hbonds>
donor molecule, donor type, donor heavy atom, donor atom, acceptor molecule, acceptor atom, score
      L1  H    10    31       P1  7949  0.74
      L1  H    12    44       P1  7948  0.25
      P1  H 10752 10763       L1    10  0.19

> <Gold.Chemscore.Hbond.Weighted>
-6.6835

> <Gold.Chemscore.Metal.Weighted>
-0.0000

> <Gold.Chemscore.Lipo.Weighted>
-10.6529

> <Gold.Chemscore.Internal_Hbond.Weighted>
0.0000

> <Gold.Chemscore.DEClash.Weighted>
0.0168

> <Gold.Chemscore.DEInternal.Weighted>
1.1083

> <Gold.Chemscore.Rot.Weighted>
5.9256

> <Gold.Chemscore.Internal.Correction.Weighted>
   9.000000E+99

> <Gold.Protein.RotatedTorsions>
[ 6907 6896 6895 6894 ] final  -38.98 input  -60.11 | X-H torsion
[ 7974 7965 7964 7962 ] final -111.06 input  175.53 | X-H torsion
[ 8008 7997 7996 7995 ] final  -37.21 input   59.86 | X-H torsion
[ 10167 10162 10161 10158 ] final   73.07 input  -65.29 | X-H torsion
[ 10718 10713 10712 10709 ] final  -39.09 input   66.30 | X-H torsion
[ 10763 10752 10751 10750 ] final   15.42 input  -60.55 | X-H torsion
[ 11005 11000 10999 10996 ] final  129.50 input  -57.11 | X-H torsion

> <Gold.Protein.ActiveResidues>
 VAL166  LYS551  ARG553  GLY616  TRP617  ASP618  TYR619  PRO620  LYS621  CYS622 
 ASP623  PHE694  ASN695  SER759  ASP760  ASP761  ALA762  ILE779  LEU786  VAL792 
 PHE793  MET794  SER795  GLU796  ALA797  LYS798  CYS799  TRP800  GLU811  SER814 

> <Gold.Protein.RotatedAtoms>
  150.9958  134.9282  159.7925 H   0  0  0  0  0  0  0  0  0  0  0  0  # atno 6907 bound_to 6896
  152.5264  134.3220  159.9162 H   0  0  0  0  0  0  0  0  0  0  0  0  # atno 6908 bound_to 6896
  151.3226  133.3992  159.2690 H   0  0  0  0  0  0  0  0  0  0  0  0  # atno 6909 bound_to 6896
  145.1606  140.8876  143.3593 H   0  0  0  0  0  0  0  0  0  0  0  0  # atno 7974 bound_to 7965
  154.4058  140.1610  156.2500 H   0  0  0  0  0  0  0  0  0  0  0  0  # atno 8008 bound_to 7997
  155.9127  140.3426  155.6089 H   0  0  0  0  0  0  0  0  0  0  0  0  # atno 8009 bound_to 7997
  155.7316  140.0781  157.2277 H   0  0  0  0  0  0  0  0  0  0  0  0  # atno 8010 bound_to 7997
  140.0284  144.5485  150.7526 H   0  0  0  0  0  0  0  0  0  0  0  0  # atno 10167 bound_to 10162
  156.2963  130.4234  149.8187 H   0  0  0  0  0  0  0  0  0  0  0  0  # atno 10718 bound_to 10713
  153.1527  135.6781  153.8859 H   0  0  0  0  0  0  0  0  0  0  0  0  # atno 10763 bound_to 10752
  153.8280  135.3121  155.3417 H   0  0  0  0  0  0  0  0  0  0  0  0  # atno 10764 bound_to 10752
  154.7874  135.4854  154.0063 H   0  0  0  0  0  0  0  0  0  0  0  0  # atno 10765 bound_to 10752
  139.9619  134.9600  156.9156 H   0  0  0  0  0  0  0  0  0  0  0  0  # atno 11005 bound_to 11000
  145.0335  139.3321  143.6013 LP  0  0  0  0  0  0  0  0  0  0  0  0  # atno 17320 bound_to 7965
  146.3483  139.9681  142.8709 LP  0  0  0  0  0  0  0  0  0  0  0  0  # atno 17321 bound_to 7965
  140.7312  143.2692  151.3943 LP  0  0  0  0  0  0  0  0  0  0  0  0  # atno 17342 bound_to 10162
  139.6092  144.1133  152.2281 LP  0  0  0  0  0  0  0  0  0  0  0  0  # atno 17343 bound_to 10162
  156.5582  130.8372  151.3320 LP  0  0  0  0  0  0  0  0  0  0  0  0  # atno 17370 bound_to 10713
  157.7356  130.9765  150.2091 LP  0  0  0  0  0  0  0  0  0  0  0  0  # atno 17371 bound_to 10713
  140.5482  134.0653  155.7361 LP  0  0  0  0  0  0  0  0  0  0  0  0  # atno 17394 bound_to 11000
  141.1296  133.9324  157.2563 LP  0  0  0  0  0  0  0  0  0  0  0  0  # atno 17395 bound_to 11000

$$$$
