AV-unprocessed.smi:1381|AV-procd|sdf|5611|dock1
  -GOLD-   22720 5223D 1   1.00000     0.00000
 Structure written by MMmdl.
 41 42  0  0  0  0  0  0  0  0  2 V2000
  152.3515  143.8799  161.3382 C   0  0  0  0  0  0  0  0  0  0  0  0
  152.9568  142.6228  160.8152 C   0  0  0  0  0  0  0  0  0  0  0  0
  152.9342  142.0186  159.5903 C   0  0  0  0  0  0  0  0  0  0  0  0
  153.7260  140.8545  159.7876 C   0  0  0  0  0  0  0  0  0  0  0  0
  153.9973  139.9207  158.8626 N   0  5  0  0  0  0  0  0  0  0  0  0
  154.4372  138.6977  159.2398 C   0  0  0  0  0  0  0  0  0  0  0  0
  155.4099  138.0964  158.7777 O   0  0  0  0  0  0  0  0  0  0  0  0
  153.7021  138.1345  160.2097 N   0  0  0  0  0  0  0  0  0  0  0  0
  153.9367  136.8250  160.8080 C   0  0  0  0  0  0  0  0  0  0  0  0
  154.3140  136.9467  162.2966 C   0  0  0  0  0  0  0  0  0  0  0  0
  154.7489  135.7015  162.9277 N   0  0  0  0  0  0  0  0  0  0  0  0
  155.1969  135.9412  164.2954 C   0  0  0  0  0  0  0  0  0  0  0  0
  155.6682  134.6563  165.0048 C   0  0  1  0  0  0  0  0  0  0  0  0
  154.5137  133.7223  165.4060 C   0  0  0  0  0  0  0  0  0  0  0  0
  156.6440  133.9827  164.2080 O   0  0  0  0  0  0  0  0  0  0  0  0
  156.2546  133.7253  162.8598 C   0  0  2  0  0  0  0  0  0  0  0  0
  157.4396  133.0754  162.1381 C   0  0  0  0  0  0  0  0  0  0  0  0
  155.8188  135.0402  162.1877 C   0  0  0  0  0  0  0  0  0  0  0  0
  154.1723  140.7510  161.0284 N   0  0  0  0  0  0  0  0  0  0  0  0
  153.6892  141.8852  161.6921 O   0  0  0  0  0  0  0  0  0  0  0  0
  151.5499  143.6584  162.0425 H   0  0  0  0  0  0  0  0  0  0  0  0
  151.9351  144.4777  160.5273 H   0  0  0  0  0  0  0  0  0  0  0  0
  153.0989  144.4839  161.8529 H   0  0  0  0  0  0  0  0  0  0  0  0
  152.4360  142.3562  158.6938 H   0  0  0  0  0  0  0  0  0  0  0  0
  152.9165  138.6624  160.5604 H   0  0  0  0  0  0  0  0  0  0  0  0
  153.0542  136.1946  160.6860 H   0  0  0  0  0  0  0  0  0  0  0  0
  154.7385  136.3531  160.2418 H   0  0  0  0  0  0  0  0  0  0  0  0
  155.0840  137.7102  162.4170 H   0  0  0  0  0  0  0  0  0  0  0  0
  153.4400  137.3187  162.8329 H   0  0  0  0  0  0  0  0  0  0  0  0
  156.0200  136.6574  164.2844 H   0  0  0  0  0  0  0  0  0  0  0  0
  154.3971  136.4040  164.8751 H   0  0  0  0  0  0  0  0  0  0  0  0
  156.1739  134.9489  165.9255 H   0  0  0  0  0  0  0  0  0  0  0  0
  153.8377  134.2194  166.1020 H   0  0  0  0  0  0  0  0  0  0  0  0
  154.8915  132.8253  165.8966 H   0  0  0  0  0  0  0  0  0  0  0  0
  153.9217  133.4096  164.5462 H   0  0  0  0  0  0  0  0  0  0  0  0
  155.4221  133.0212  162.8527 H   0  0  0  0  0  0  0  0  0  0  0  0
  157.1899  132.8454  161.1020 H   0  0  0  0  0  0  0  0  0  0  0  0
  157.7279  132.1434  162.6250 H   0  0  0  0  0  0  0  0  0  0  0  0
  158.3095  133.7330  162.1356 H   0  0  0  0  0  0  0  0  0  0  0  0
  155.4932  134.8171  161.1724 H   0  0  0  0  0  0  0  0  0  0  0  0
  156.6761  135.7098  162.1014 H   0  0  0  0  0  0  0  0  0  0  0  0
  1  2  1  0  0  0  0
  1 21  1  0  0  0  0
  1 22  1  0  0  0  0
  1 23  1  0  0  0  0
  2 20  1  0  0  0  0
  2  3  2  0  0  0  0
  3  4  1  0  0  0  0
  3 24  1  0  0  0  0
  4  5  1  0  0  0  0
  4 19  2  0  0  0  0
  5  6  1  0  0  0  0
  6  7  2  0  0  0  0
  6  8  1  0  0  0  0
  8  9  1  0  0  0  0
  8 25  1  0  0  0  0
  9 10  1  0  0  0  0
  9 26  1  0  0  0  0
  9 27  1  0  0  0  0
 10 11  1  0  0  0  0
 10 28  1  0  0  0  0
 10 29  1  0  0  0  0
 11 18  1  0  0  0  0
 11 12  1  0  0  0  0
 12 13  1  0  0  0  0
 12 30  1  0  0  0  0
 12 31  1  0  0  0  0
 13 14  1  0  0  0  0
 13 15  1  0  0  0  0
 13 32  1  0  0  0  0
 14 33  1  0  0  0  0
 14 34  1  0  0  0  0
 14 35  1  0  0  0  0
 15 16  1  0  0  0  0
 16 17  1  0  0  0  0
 16 18  1  0  0  0  0
 16 36  1  0  0  0  0
 17 37  1  0  0  0  0
 17 38  1  0  0  0  0
 17 39  1  0  0  0  0
 18 40  1  0  0  0  0
 18 41  1  0  0  0  0
 19 20  1  0  0  0  0
M  CHG  1   5  -1
M  END
> <s_m_source_file>
AV-unprocessed.smi

> <i_m_source_file_index>
1381

> <i_lp_mmshare_version>
43012

> <i_f3d_flags>
0

> <s_epik_input>
W0NIM11jMVtjSF1jKG5vMSlbTkhdQyg9TylbTkhdW0NIMl1bQ0gyXU4yW0NIMl1bQ0BASF0oW0NIM10pT1tDQEBIXShbQ0gzXSlbQ0gyXTI=

> <s_epik_cmdline>
J2VwaWtfcHl0aG9uJywgJy1waCcsICc3LjAnLCAnLXRuJywgJzgnLCAnLW1hJywgJzIwMCcsICctbWV0YWxfYmluZGluZycsICctaW1hZScsICc8aW5maWxlLm1hZT4nLCAnLW9tYWUnLCAnPG91dGZpbGUubWFlPic=

> <r_epik_Ionization_Penalty>
6.88366

> <r_epik_Ionization_Penalty_Charging>
6.57198

> <r_epik_Ionization_Penalty_Neutral>
0.311678

> <r_epik_State_Penalty>
6.77619

> <r_epik_Charging_Adjusted_Penalty>
13.3482

> <i_epik_Tot_Q>
-1

> <i_epik_Tot_abs_Q>
1

> <r_epik_Metal_State_Penalty>
2.70524

> <b_epik_Metal_Only>
1

> <s_lp_Force_Field>
OPLS_2005

> <r_lp_Energy>
15.952

> <b_lp_Chiralities_Consistent>
1

> <s_lp_Variant>
AV-unprocessed.smi:1381-10

> <Gold.Version>
5.8.1

> <Gold.Id.Protein>
6NUR|6NUR_protein|mol2

> <Gold.PLP.Fitness>
36.5507

> <Gold.PLP.PLP>
-31.6133

> <Gold.PLP.part.hbond>
-1.0000

> <Gold.PLP.part.metal>
0.0000

> <Gold.PLP.part.buried>
-2.0977

> <Gold.PLP.part.nonpolar>
-28.1068

> <Gold.PLP.part.repulsive>
0.1240

> <Gold.PLP.ligand.clash>
0.0000

> <Gold.PLP.ligand.torsion>
0.5456

> <Gold.PLP.Chemscore.Hbond>
2.0000

> <Gold.PLP.Chemscore.CHOScore>
0.0000

> <Gold.PLP.Chemscore.Metal>
0.0000

> <Gold.Chemscore.Hbonds>
donor molecule, donor type, donor heavy atom, donor atom, acceptor molecule, acceptor atom, score
      P1  H  7997  8008       L1     5  1.60

> <Gold.PLP.Chemscore.Internal.Correction>
0.0286

> <Gold.Rescore>
     Score         DG    S(hbond)    S(metal)    S(lipo)     H(rot)  DE(clash)    DE(int)     intcor
     11.99     -14.13       0.94        0.00      80.96       1.54       0.11       2.03       ----

> <Gold.Chemscore.Fitness>
11.9950

> <Gold.Chemscore.DG>
-14.1329

> <Gold.Chemscore.ZeroCoef>
-5.4800

> <Gold.Chemscore.Hbond>
0.9357

> <Gold.Chemscore.Metal>
0.0000

> <Gold.Chemscore.Lipo>
80.9604

> <Gold.Chemscore.Internal_Hbond>
0.0000

> <Gold.Chemscore.DEClash>
0.1103

> <Gold.Chemscore.DEInternal>
2.0276

> <Gold.Chemscore.Rot>
1.5409

> <Gold.Chemscore.Internal.Correction>
   9.000000E+99

> <Gold.Chemscore.Hbonds>
donor molecule, donor type, donor heavy atom, donor atom, acceptor molecule, acceptor atom, score
      P1  H  7997  8008       L1     5  0.11

> <Gold.Chemscore.Hbond.Weighted>
-3.1251

> <Gold.Chemscore.Metal.Weighted>
-0.0000

> <Gold.Chemscore.Lipo.Weighted>
-9.4724

> <Gold.Chemscore.Internal_Hbond.Weighted>
0.0000

> <Gold.Chemscore.DEClash.Weighted>
0.1103

> <Gold.Chemscore.DEInternal.Weighted>
2.0276

> <Gold.Chemscore.Rot.Weighted>
3.9446

> <Gold.Chemscore.Internal.Correction.Weighted>
   9.000000E+99

> <Gold.Protein.RotatedTorsions>
[ 6907 6896 6895 6894 ] final  -37.54 input  -60.11 | X-H torsion
[ 7974 7965 7964 7962 ] final   83.51 input  175.53 | X-H torsion
[ 8008 7997 7996 7995 ] final -116.65 input   59.86 | X-H torsion
[ 10167 10162 10161 10158 ] final -171.70 input  -65.29 | X-H torsion
[ 10718 10713 10712 10709 ] final   75.99 input   66.30 | X-H torsion
[ 10763 10752 10751 10750 ] final  -31.73 input  -60.55 | X-H torsion
[ 11005 11000 10999 10996 ] final -159.98 input  -57.11 | X-H torsion

> <Gold.Protein.ActiveResidues>
 VAL166  LYS551  ARG553  GLY616  TRP617  ASP618  TYR619  PRO620  LYS621  CYS622 
 ASP623  PHE694  ASN695  SER759  ASP760  ASP761  ALA762  ILE779  LEU786  VAL792 
 PHE793  MET794  SER795  GLU796  ALA797  LYS798  CYS799  TRP800  GLU811  SER814 

> <Gold.Protein.RotatedAtoms>
  151.0135  134.9415  159.8019 H   0  0  0  0  0  0  0  0  0  0  0  0  # atno 6907 bound_to 6896
  152.5308  134.2997  159.9084 H   0  0  0  0  0  0  0  0  0  0  0  0  # atno 6908 bound_to 6896
  151.3003  133.4083  159.2673 H   0  0  0  0  0  0  0  0  0  0  0  0  # atno 6909 bound_to 6896
  145.6109  139.2368  143.2192 H   0  0  0  0  0  0  0  0  0  0  0  0  # atno 7974 bound_to 7965
  155.0713  140.0393  157.2609 H   0  0  0  0  0  0  0  0  0  0  0  0  # atno 8008 bound_to 7997
  154.6980  140.2667  155.6722 H   0  0  0  0  0  0  0  0  0  0  0  0  # atno 8009 bound_to 7997
  156.2751  140.2746  156.1582 H   0  0  0  0  0  0  0  0  0  0  0  0  # atno 8010 bound_to 7997
  139.5787  144.1472  152.1486 H   0  0  0  0  0  0  0  0  0  0  0  0  # atno 10167 bound_to 10162
  157.6656  130.9753  150.1433 H   0  0  0  0  0  0  0  0  0  0  0  0  # atno 10718 bound_to 10713
  153.8021  135.6889  153.4854 H   0  0  0  0  0  0  0  0  0  0  0  0  # atno 10763 bound_to 10752
  153.1682  135.4553  154.9864 H   0  0  0  0  0  0  0  0  0  0  0  0  # atno 10764 bound_to 10752
  154.8002  135.3335  154.7509 H   0  0  0  0  0  0  0  0  0  0  0  0  # atno 10765 bound_to 10752
  140.6365  134.4596  157.5232 H   0  0  0  0  0  0  0  0  0  0  0  0  # atno 11005 bound_to 11000
  146.1505  140.6932  142.9324 LP  0  0  0  0  0  0  0  0  0  0  0  0  # atno 17320 bound_to 7965
  144.7270  140.4555  143.6966 LP  0  0  0  0  0  0  0  0  0  0  0  0  # atno 17321 bound_to 7965
  140.1021  144.5530  150.6982 LP  0  0  0  0  0  0  0  0  0  0  0  0  # atno 17342 bound_to 10162
  140.7068  143.2474  151.4703 LP  0  0  0  0  0  0  0  0  0  0  0  0  # atno 17343 bound_to 10162
  156.2250  130.3677  149.8511 LP  0  0  0  0  0  0  0  0  0  0  0  0  # atno 17370 bound_to 10713
  156.6354  130.8683  151.3503 LP  0  0  0  0  0  0  0  0  0  0  0  0  # atno 17371 bound_to 10713
  139.9096  134.8374  156.1577 LP  0  0  0  0  0  0  0  0  0  0  0  0  # atno 17394 bound_to 11000
  141.0637  133.6829  156.2003 LP  0  0  0  0  0  0  0  0  0  0  0  0  # atno 17395 bound_to 11000

$$$$
