AV-unprocessed.smi:2665|AV-procd|sdf|10330|dock8
  -GOLD-   2272014353D 1   1.00000     0.00000
 Structure written by MMmdl.
 29 30  0  0  0  0  0  0  0  0  2 V2000
  153.4103  141.8302  161.1372 C   0  0  0  0  0  0  0  0  0  0  0  0
  152.3796  142.3903  160.1513 C   0  0  2  0  0  0  0  0  0  0  0  0
  152.1426  141.4421  158.9598 C   0  0  0  0  0  0  0  0  0  0  0  0
  151.2254  142.0551  158.0073 N   0  0  0  0  0  0  0  0  0  0  0  0
  150.8625  141.2052  156.9529 C   0  0  0  0  0  0  0  0  0  0  0  0
  151.8050  140.2727  156.4724 C   0  0  0  0  0  0  0  0  0  0  0  0
  151.4437  139.4145  155.4087 C   0  0  0  0  0  0  0  0  0  0  0  0
  152.4151  138.4043  154.8630 C   0  0  0  0  0  0  0  0  0  0  0  0
  151.9692  137.3456  154.3665 O   0  0  0  0  0  0  0  0  0  0  0  0
  153.6403  138.6520  154.9211 O   0  5  0  0  0  0  0  0  0  0  0  0
  150.1413  139.5353  154.8739 C   0  0  0  0  0  0  0  0  0  0  0  0
  149.2716  140.4971  155.4219 C   0  0  0  0  0  0  0  0  0  0  0  0
  149.6153  141.3166  156.4372 N   0  0  0  0  0  0  0  0  0  0  0  0
  151.6752  143.3690  157.5665 C   0  0  0  0  0  0  0  0  0  0  0  0
  151.9291  144.2723  158.7850 C   0  0  0  0  0  0  0  0  0  0  0  0
  152.8584  143.6419  159.6627 O   0  0  0  0  0  0  0  0  0  0  0  0
  153.0815  140.8750  161.5474 H   0  0  0  0  0  0  0  0  0  0  0  0
  153.5640  142.5152  161.9713 H   0  0  0  0  0  0  0  0  0  0  0  0
  154.3744  141.6725  160.6528 H   0  0  0  0  0  0  0  0  0  0  0  0
  151.4407  142.5512  160.6843 H   0  0  0  0  0  0  0  0  0  0  0  0
  153.0900  141.2183  158.4668 H   0  0  0  0  0  0  0  0  0  0  0  0
  151.7283  140.4955  159.3088 H   0  0  0  0  0  0  0  0  0  0  0  0
  152.7887  140.2218  156.9167 H   0  0  0  0  0  0  0  0  0  0  0  0
  149.8069  138.9073  154.0609 H   0  0  0  0  0  0  0  0  0  0  0  0
  148.2703  140.6112  155.0342 H   0  0  0  0  0  0  0  0  0  0  0  0
  152.5911  143.2698  156.9821 H   0  0  0  0  0  0  0  0  0  0  0  0
  150.9232  143.8182  156.9165 H   0  0  0  0  0  0  0  0  0  0  0  0
  152.3369  145.2309  158.4643 H   0  0  0  0  0  0  0  0  0  0  0  0
  150.9984  144.4826  159.3145 H   0  0  0  0  0  0  0  0  0  0  0  0
  1  2  1  0  0  0  0
  1 17  1  0  0  0  0
  1 18  1  0  0  0  0
  1 19  1  0  0  0  0
  2 16  1  0  0  0  0
  2  3  1  0  0  0  0
  2 20  1  0  0  0  0
  3  4  1  0  0  0  0
  3 21  1  0  0  0  0
  3 22  1  0  0  0  0
  4  5  1  0  0  0  0
  4 14  1  0  0  0  0
  5 13  1  0  0  0  0
  5  6  2  0  0  0  0
  6  7  1  0  0  0  0
  6 23  1  0  0  0  0
  7  8  1  0  0  0  0
  7 11  2  0  0  0  0
  8  9  2  0  0  0  0
  8 10  1  0  0  0  0
 11 12  1  0  0  0  0
 11 24  1  0  0  0  0
 12 13  2  0  0  0  0
 12 25  1  0  0  0  0
 14 15  1  0  0  0  0
 14 26  1  0  0  0  0
 14 27  1  0  0  0  0
 15 16  1  0  0  0  0
 15 28  1  0  0  0  0
 15 29  1  0  0  0  0
M  CHG  1  10  -1
M  END
> <s_m_source_file>
AV-unprocessed.smi

> <i_m_source_file_index>
2665

> <i_lp_mmshare_version>
43012

> <i_f3d_flags>
0

> <s_epik_input>
W0NIM11bQ0BASF0xW0NIMl1OKFtDSDJdW0NIMl1PMSljMltjSF1jKEMoPU8pW09IXSlbY0hdW2NIXW4y

> <s_epik_cmdline>
J2VwaWtfcHl0aG9uJywgJy1waCcsICc3LjAnLCAnLXRuJywgJzgnLCAnLW1hJywgJzIwMCcsICctbWV0YWxfYmluZGluZycsICctaW1hZScsICc8aW5maWxlLm1hZT4nLCAnLW9tYWUnLCAnPG91dGZpbGUubWFlPic=

> <r_epik_Ionization_Penalty>
0.00511367

> <r_epik_Ionization_Penalty_Charging>
0.00135522

> <r_epik_Ionization_Penalty_Neutral>
0.00375844

> <r_epik_State_Penalty>
0.00357724

> <r_epik_Charging_Adjusted_Penalty>
0.00493246

> <i_epik_Tot_Q>
-1

> <i_epik_Tot_abs_Q>
1

> <r_epik_Metal_State_Penalty>
-0

> <b_epik_Metal_Only>
0

> <s_lp_Force_Field>
OPLS_2005

> <r_lp_Energy>
17.7567

> <b_lp_Chiralities_Consistent>
1

> <s_lp_Variant>
AV-unprocessed.smi:2665-1

> <Gold.Version>
5.8.1

> <Gold.Id.Protein>
6NUR|6NUR_protein|mol2

> <Gold.PLP.Fitness>
45.5885

> <Gold.PLP.PLP>
-36.1688

> <Gold.PLP.part.hbond>
-2.0000

> <Gold.PLP.part.metal>
0.0000

> <Gold.PLP.part.buried>
-6.5263

> <Gold.PLP.part.nonpolar>
-29.2274

> <Gold.PLP.part.repulsive>
0.2808

> <Gold.PLP.ligand.clash>
0.0000

> <Gold.PLP.ligand.torsion>
1.0540

> <Gold.PLP.Chemscore.Hbond>
3.8080

> <Gold.PLP.Chemscore.CHOScore>
0.0000

> <Gold.PLP.Chemscore.Metal>
0.0000

> <Gold.Chemscore.Hbonds>
donor molecule, donor type, donor heavy atom, donor atom, acceptor molecule, acceptor atom, score
      P1  H  7997  8010       L1    10  1.82
      P1  H 10752 10765       L1     9  1.82

> <Gold.PLP.Chemscore.Internal.Correction>
0.1037

> <Gold.Rescore>
     Score         DG    S(hbond)    S(metal)    S(lipo)     H(rot)  DE(clash)    DE(int)     intcor
     17.22     -18.23       1.78        0.00      80.04       1.00       0.00       1.01       ----

> <Gold.Chemscore.Fitness>
17.2153

> <Gold.Chemscore.DG>
-18.2253

> <Gold.Chemscore.ZeroCoef>
-5.4800

> <Gold.Chemscore.Hbond>
1.7788

> <Gold.Chemscore.Metal>
0.0000

> <Gold.Chemscore.Lipo>
80.0355

> <Gold.Chemscore.Internal_Hbond>
0.0000

> <Gold.Chemscore.DEClash>
0.0038

> <Gold.Chemscore.DEInternal>
1.0062

> <Gold.Chemscore.Rot>
1.0000

> <Gold.Chemscore.Internal.Correction>
   9.000000E+99

> <Gold.Chemscore.Hbonds>
donor molecule, donor type, donor heavy atom, donor atom, acceptor molecule, acceptor atom, score
      P1  H  7997  8010       L1    10  0.88
      P1  H 10752 10765       L1     9  0.87

> <Gold.Chemscore.Hbond.Weighted>
-5.9411

> <Gold.Chemscore.Metal.Weighted>
-0.0000

> <Gold.Chemscore.Lipo.Weighted>
-9.3642

> <Gold.Chemscore.Internal_Hbond.Weighted>
0.0000

> <Gold.Chemscore.DEClash.Weighted>
0.0038

> <Gold.Chemscore.DEInternal.Weighted>
1.0062

> <Gold.Chemscore.Rot.Weighted>
2.5600

> <Gold.Chemscore.Internal.Correction.Weighted>
   9.000000E+99

> <Gold.Protein.RotatedTorsions>
[ 6907 6896 6895 6894 ] final  158.10 input  -60.11 | X-H torsion
[ 7974 7965 7964 7962 ] final   26.66 input  175.53 | X-H torsion
[ 8008 7997 7996 7995 ] final  108.02 input   59.86 | X-H torsion
[ 10167 10162 10161 10158 ] final  -19.54 input  -65.29 | X-H torsion
[ 10718 10713 10712 10709 ] final    8.33 input   66.30 | X-H torsion
[ 10763 10752 10751 10750 ] final  150.66 input  -60.55 | X-H torsion
[ 11005 11000 10999 10996 ] final  150.15 input  -57.11 | X-H torsion

> <Gold.Protein.ActiveResidues>
 VAL166  LYS551  ARG553  GLY616  TRP617  ASP618  TYR619  PRO620  LYS621  CYS622 
 ASP623  PHE694  ASN695  SER759  ASP760  ASP761  ALA762  ILE779  LEU786  VAL792 
 PHE793  MET794  SER795  GLU796  ALA797  LYS798  CYS799  TRP800  GLU811  SER814 

> <Gold.Protein.RotatedAtoms>
  152.0054  133.3841  159.4198 H   0  0  0  0  0  0  0  0  0  0  0  0  # atno 6907 bound_to 6896
  150.6905  134.3788  159.5034 H   0  0  0  0  0  0  0  0  0  0  0  0  # atno 6908 bound_to 6896
  152.1541  134.8964  160.0597 H   0  0  0  0  0  0  0  0  0  0  0  0  # atno 6909 bound_to 6896
  146.1825  139.7297  142.8890 H   0  0  0  0  0  0  0  0  0  0  0  0  # atno 7974 bound_to 7965
  156.1870  140.3084  155.9258 H   0  0  0  0  0  0  0  0  0  0  0  0  # atno 8008 bound_to 7997
  155.3259  140.0458  157.3058 H   0  0  0  0  0  0  0  0  0  0  0  0  # atno 8009 bound_to 7997
  154.5407  140.2260  155.8655 H   0  0  0  0  0  0  0  0  0  0  0  0  # atno 8010 bound_to 7997
  140.7269  143.4809  151.0119 H   0  0  0  0  0  0  0  0  0  0  0  0  # atno 10167 bound_to 10162
  156.9500  130.5893  149.5656 H   0  0  0  0  0  0  0  0  0  0  0  0  # atno 10718 bound_to 10713
  154.0911  135.2852  155.3271 H   0  0  0  0  0  0  0  0  0  0  0  0  # atno 10763 bound_to 10752
  154.6619  135.5331  153.8032 H   0  0  0  0  0  0  0  0  0  0  0  0  # atno 10764 bound_to 10752
  153.0413  135.6536  154.1080 H   0  0  0  0  0  0  0  0  0  0  0  0  # atno 10765 bound_to 10752
  140.1106  134.8926  157.1931 H   0  0  0  0  0  0  0  0  0  0  0  0  # atno 11005 bound_to 11000
  145.4033  141.0388  143.3058 LP  0  0  0  0  0  0  0  0  0  0  0  0  # atno 17320 bound_to 7965
  144.8340  139.5580  143.6930 LP  0  0  0  0  0  0  0  0  0  0  0  0  # atno 17321 bound_to 7965
  139.8507  143.7442  152.3178 LP  0  0  0  0  0  0  0  0  0  0  0  0  # atno 17342 bound_to 10162
  139.7623  144.7503  151.0346 LP  0  0  0  0  0  0  0  0  0  0  0  0  # atno 17343 bound_to 10162
  156.0367  130.5453  150.8670 LP  0  0  0  0  0  0  0  0  0  0  0  0  # atno 17370 bound_to 10713
  157.5728  131.0946  150.9392 LP  0  0  0  0  0  0  0  0  0  0  0  0  # atno 17371 bound_to 10713
  140.3096  134.3039  155.7270 LP  0  0  0  0  0  0  0  0  0  0  0  0  # atno 17394 bound_to 11000
  141.2129  133.7642  156.9757 LP  0  0  0  0  0  0  0  0  0  0  0  0  # atno 17395 bound_to 11000

$$$$
