AV-unprocessed.smi:249|AV-procd|sdf|1926|dock9
  -GOLD-   2262021 43D 1   1.00000     0.00000
 Structure written by MMmdl.
 64 67  0  0  0  0  0  0  0  0  2 V2000
  143.9977  132.4582  149.9924 C   0  0  0  0  0  0  0  0  0  0  0  0
  145.4434  132.1718  149.5629 C   0  0  0  0  0  0  0  0  0  0  0  0
  146.3085  131.8029  150.7129 N   0  3  2  0  0  0  0  0  0  0  0  0
  145.7368  130.7286  151.5690 C   0  0  0  0  0  0  0  0  0  0  0  0
  146.7650  130.2449  152.6032 C   0  0  0  0  0  0  0  0  0  0  0  0
  147.2794  131.4123  153.4711 C   0  0  1  0  0  0  0  0  0  0  0  0
  148.2255  131.0012  154.5168 N   0  0  0  0  0  0  0  0  0  0  0  0
  147.8320  129.9071  155.3963 C   0  0  0  0  0  0  0  0  0  0  0  0
  148.9501  131.9671  155.1288 C   0  0  0  0  0  0  0  0  0  0  0  0
  150.1971  131.6379  155.5490 N   0  0  0  0  0  0  0  0  0  0  0  0
  150.9620  132.5497  156.1562 C   0  0  0  0  0  0  0  0  0  0  0  0
  150.6776  133.8225  156.4387 N   0  0  0  0  0  0  0  0  0  0  0  0
  149.4199  134.1538  156.0282 C   0  0  0  0  0  0  0  0  0  0  0  0
  148.4956  133.2950  155.3695 C   0  0  0  0  0  0  0  0  0  0  0  0
  147.3224  133.9868  155.0921 N   0  0  0  0  0  0  0  0  0  0  0  0
  147.5417  135.1862  155.5570 C   0  0  0  0  0  0  0  0  0  0  0  0
  148.7689  135.3686  156.1541 N   0  0  0  0  0  0  0  0  0  0  0  0
  149.2733  136.5983  156.7407 C   0  0  0  0  0  0  0  0  0  0  0  0
  150.6334  137.0802  156.1707 C   0  0  1  0  0  0  0  0  0  0  0  0
  150.4557  137.4624  154.6830 C   0  0  0  0  0  0  0  0  0  0  0  0
  151.6844  137.4250  153.9856 O   0  0  0  0  0  0  0  0  0  0  0  0
  151.3161  138.2107  156.9950 C   0  0  1  0  0  0  0  0  0  0  0  0
  151.4467  137.9593  158.4902 C   0  0  0  0  0  0  0  0  0  0  0  0
  152.5693  138.9044  158.9124 C   0  0  0  0  0  0  0  0  0  0  0  0
  153.3456  139.1477  157.7461 O   0  0  0  0  0  0  0  0  0  0  0  0
  152.7904  138.4407  156.6459 C   0  0  0  0  0  0  0  0  0  0  0  0
  147.8327  132.5198  152.5480 C   0  0  0  0  0  0  0  0  0  0  0  0
  146.7977  132.9741  151.4989 C   0  0  2  0  0  0  0  0  0  0  0  0
  145.6616  133.8172  152.1175 C   0  0  0  0  0  0  0  0  0  0  0  0
  143.3725  132.6579  149.1219 H   0  0  0  0  0  0  0  0  0  0  0  0
  143.9279  133.3265  150.6468 H   0  0  0  0  0  0  0  0  0  0  0  0
  143.5672  131.6052  150.5178 H   0  0  0  0  0  0  0  0  0  0  0  0
  145.4185  131.3476  148.8488 H   0  0  0  0  0  0  0  0  0  0  0  0
  145.8640  133.0285  149.0344 H   0  0  0  0  0  0  0  0  0  0  0  0
  144.8320  131.0803  152.0654 H   0  0  0  0  0  0  0  0  0  0  0  0
  145.4384  129.8803  150.9542 H   0  0  0  0  0  0  0  0  0  0  0  0
  146.3166  129.4777  153.2352 H   0  0  0  0  0  0  0  0  0  0  0  0
  147.5907  129.7696  152.0722 H   0  0  0  0  0  0  0  0  0  0  0  0
  146.4194  131.8185  154.0045 H   0  0  0  0  0  0  0  0  0  0  0  0
  148.6563  129.6157  156.0486 H   0  0  0  0  0  0  0  0  0  0  0  0
  147.5505  129.0344  154.8068 H   0  0  0  0  0  0  0  0  0  0  0  0
  146.9824  130.1807  156.0215 H   0  0  0  0  0  0  0  0  0  0  0  0
  151.9417  132.2111  156.4597 H   0  0  0  0  0  0  0  0  0  0  0  0
  146.8040  135.9725  155.4882 H   0  0  0  0  0  0  0  0  0  0  0  0
  148.5115  137.3620  156.5797 H   0  0  0  0  0  0  0  0  0  0  0  0
  149.3457  136.4639  157.8207 H   0  0  0  0  0  0  0  0  0  0  0  0
  151.3123  136.2273  156.1721 H   0  0  0  0  0  0  0  0  0  0  0  0
  149.7473  136.7994  154.1868 H   0  0  0  0  0  0  0  0  0  0  0  0
  150.0388  138.4663  154.5966 H   0  0  0  0  0  0  0  0  0  0  0  0
  151.5033  137.3489  153.0611 H   0  0  0  0  0  0  0  0  0  0  0  0
  150.7768  139.1475  156.8454 H   0  0  0  0  0  0  0  0  0  0  0  0
  150.5331  138.1595  159.0471 H   0  0  0  0  0  0  0  0  0  0  0  0
  151.7411  136.9256  158.6780 H   0  0  0  0  0  0  0  0  0  0  0  0
  152.1638  139.8543  159.2617 H   0  0  0  0  0  0  0  0  0  0  0  0
  153.1786  138.4822  159.7118 H   0  0  0  0  0  0  0  0  0  0  0  0
  153.3162  137.4900  156.5457 H   0  0  0  0  0  0  0  0  0  0  0  0
  152.9231  139.0011  155.7204 H   0  0  0  0  0  0  0  0  0  0  0  0
  148.1629  133.3800  153.1308 H   0  0  0  0  0  0  0  0  0  0  0  0
  148.7142  132.1510  152.0232 H   0  0  0  0  0  0  0  0  0  0  0  0
  147.3294  133.6239  150.8020 H   0  0  0  0  0  0  0  0  0  0  0  0
  146.0689  134.6663  152.6667 H   0  0  0  0  0  0  0  0  0  0  0  0
  145.0501  133.2459  152.8151 H   0  0  0  0  0  0  0  0  0  0  0  0
  144.9988  134.2230  151.3535 H   0  0  0  0  0  0  0  0  0  0  0  0
  147.1408  131.4069  150.2995 H   0  0  0  0  0  0  0  0  0  0  0  0
  1  2  1  0  0  0  0
  1 30  1  0  0  0  0
  1 31  1  0  0  0  0
  1 32  1  0  0  0  0
  2  3  1  0  0  0  0
  2 33  1  0  0  0  0
  2 34  1  0  0  0  0
  3 28  1  0  0  0  0
  3  4  1  0  0  0  0
  3 64  1  0  0  0  0
  4  5  1  0  0  0  0
  4 35  1  0  0  0  0
  4 36  1  0  0  0  0
  5  6  1  0  0  0  0
  5 37  1  0  0  0  0
  5 38  1  0  0  0  0
  6  7  1  0  0  0  0
  6 27  1  0  0  0  0
  6 39  1  0  0  0  0
  7  8  1  0  0  0  0
  7  9  1  0  0  0  0
  8 40  1  0  0  0  0
  8 41  1  0  0  0  0
  8 42  1  0  0  0  0
  9 14  1  0  0  0  0
  9 10  2  0  0  0  0
 10 11  1  0  0  0  0
 11 12  2  0  0  0  0
 11 43  1  0  0  0  0
 12 13  1  0  0  0  0
 13 17  1  0  0  0  0
 13 14  2  0  0  0  0
 14 15  1  0  0  0  0
 15 16  2  0  0  0  0
 16 17  1  0  0  0  0
 16 44  1  0  0  0  0
 17 18  1  0  0  0  0
 18 19  1  0  0  0  0
 18 45  1  0  0  0  0
 18 46  1  0  0  0  0
 19 20  1  0  0  0  0
 19 22  1  0  0  0  0
 19 47  1  0  0  0  0
 20 21  1  0  0  0  0
 20 48  1  0  0  0  0
 20 49  1  0  0  0  0
 21 50  1  0  0  0  0
 22 26  1  0  0  0  0
 22 23  1  0  0  0  0
 22 51  1  0  0  0  0
 23 24  1  0  0  0  0
 23 52  1  0  0  0  0
 23 53  1  0  0  0  0
 24 25  1  0  0  0  0
 24 54  1  0  0  0  0
 24 55  1  0  0  0  0
 25 26  1  0  0  0  0
 26 56  1  0  0  0  0
 26 57  1  0  0  0  0
 27 28  1  0  0  0  0
 27 58  1  0  0  0  0
 27 59  1  0  0  0  0
 28 29  1  0  0  0  0
 28 60  1  0  0  0  0
 29 61  1  0  0  0  0
 29 62  1  0  0  0  0
 29 63  1  0  0  0  0
M  CHG  1   3   1
M  END
> <s_m_source_file>
AV-unprocessed.smi

> <i_m_source_file_index>
249

> <i_lp_mmshare_version>
43012

> <i_f3d_flags>
0

> <s_epik_input>
W0NIM11bQ0gyXU4xW0NIMl1bQ0gyXVtDQEhdKFtDSDJdW0NASF0xW0NIM10pTihbQ0gzXSljKG5bY0hdbjIpYyhjMjMpbltjSF1uM1tDSDJdW0NASF0oW0NIMl1bT0hdKVtDQEBIXTRbQ0gyXVtDSDJdT1tDSDJdNA==

> <s_epik_cmdline>
J2VwaWtfcHl0aG9uJywgJy1waCcsICc3LjAnLCAnLXRuJywgJzgnLCAnLW1hJywgJzIwMCcsICctbWV0YWxfYmluZGluZycsICctaW1hZScsICc8aW5maWxlLm1hZT4nLCAnLW9tYWUnLCAnPG91dGZpbGUubWFlPic=

> <r_lp_tautomer_probability>
1

> <r_epik_Ionization_Penalty>
0.00294688

> <r_epik_Ionization_Penalty_Charging>
0.00169971

> <r_epik_Ionization_Penalty_Neutral>
0.00124717

> <r_epik_State_Penalty>
-0

> <r_epik_Charging_Adjusted_Penalty>
0.00169971

> <i_epik_Tot_Q>
1

> <i_epik_Tot_abs_Q>
1

> <r_epik_Metal_State_Penalty>
-0

> <b_epik_Metal_Only>
0

> <s_lp_Force_Field>
OPLS_2005

> <r_lp_Energy>
54.3628

> <b_lp_Chiralities_Consistent>
1

> <s_lp_Variant>
AV-unprocessed.smi:249-29

> <Gold.Version>
5.8.1

> <Gold.Id.Protein>
6NUR|6NUR_protein|mol2

> <Gold.PLP.Fitness>
48.0195

> <Gold.PLP.PLP>
-37.1875

> <Gold.PLP.part.hbond>
-4.0000

> <Gold.PLP.part.metal>
0.0000

> <Gold.PLP.part.buried>
-5.4372

> <Gold.PLP.part.nonpolar>
-28.8797

> <Gold.PLP.part.repulsive>
0.1305

> <Gold.PLP.ligand.clash>
0.0000

> <Gold.PLP.ligand.torsion>
1.0516

> <Gold.PLP.Chemscore.Hbond>
3.9920

> <Gold.PLP.Chemscore.CHOScore>
0.0000

> <Gold.PLP.Chemscore.Metal>
0.0000

> <Gold.Chemscore.Hbonds>
donor molecule, donor type, donor heavy atom, donor atom, acceptor molecule, acceptor atom, score
      L1  H     3    64       P1 10747  1.00
      L1  H    21    50       P1  7949  0.74
      P1  H  7997  8009       L1    25  0.98
      P1  H 10752 10765       L1    21  0.62

> <Gold.PLP.Chemscore.Internal.Correction>
0.9593

> <Gold.Rescore>
     Score         DG    S(hbond)    S(metal)    S(lipo)     H(rot)  DE(clash)    DE(int)     intcor
     17.02     -21.71       3.65        0.00      97.85       2.90       0.41       4.28       ----

> <Gold.Chemscore.Fitness>
17.0224

> <Gold.Chemscore.DG>
-21.7103

> <Gold.Chemscore.ZeroCoef>
-5.4800

> <Gold.Chemscore.Hbond>
3.6548

> <Gold.Chemscore.Metal>
0.0000

> <Gold.Chemscore.Lipo>
97.8544

> <Gold.Chemscore.Internal_Hbond>
0.0000

> <Gold.Chemscore.DEClash>
0.4087

> <Gold.Chemscore.DEInternal>
4.2792

> <Gold.Chemscore.Rot>
2.9006

> <Gold.Chemscore.Internal.Correction>
   9.000000E+99

> <Gold.Chemscore.Hbonds>
donor molecule, donor type, donor heavy atom, donor atom, acceptor molecule, acceptor atom, score
      L1  H     3    64       P1 10747  0.98
      L1  H    21    50       P1  7949  0.62
      P1  H  7997  8009       L1    25  0.61
      P1  H 10752 10765       L1    21  0.13

> <Gold.Chemscore.Hbond.Weighted>
-12.2069

> <Gold.Chemscore.Metal.Weighted>
-0.0000

> <Gold.Chemscore.Lipo.Weighted>
-11.4490

> <Gold.Chemscore.Internal_Hbond.Weighted>
0.0000

> <Gold.Chemscore.DEClash.Weighted>
0.4087

> <Gold.Chemscore.DEInternal.Weighted>
4.2792

> <Gold.Chemscore.Rot.Weighted>
7.4256

> <Gold.Chemscore.Internal.Correction.Weighted>
   9.000000E+99

> <Gold.Protein.RotatedTorsions>
[ 6907 6896 6895 6894 ] final  -54.27 input  -60.11 | X-H torsion
[ 7974 7965 7964 7962 ] final  -71.89 input  175.53 | X-H torsion
[ 8008 7997 7996 7995 ] final  138.14 input   59.86 | X-H torsion
[ 10167 10162 10161 10158 ] final  149.66 input  -65.29 | X-H torsion
[ 10718 10713 10712 10709 ] final  178.55 input   66.30 | X-H torsion
[ 10763 10752 10751 10750 ] final  158.48 input  -60.55 | X-H torsion
[ 11005 11000 10999 10996 ] final -155.15 input  -57.11 | X-H torsion

> <Gold.Protein.ActiveResidues>
 VAL166  LYS551  ARG553  GLY616  TRP617  ASP618  TYR619  PRO620  LYS621  CYS622 
 ASP623  PHE694  ASN695  SER759  ASP760  ASP761  ALA762  ILE779  LEU786  VAL792 
 PHE793  MET794  SER795  GLU796  ALA797  LYS798  CYS799  TRP800  GLU811  SER814 

> <Gold.Protein.RotatedAtoms>
  150.8353  134.7623  159.6887 H   0  0  0  0  0  0  0  0  0  0  0  0  # atno 6907 bound_to 6896
  152.4451  134.5508  159.9876 H   0  0  0  0  0  0  0  0  0  0  0  0  # atno 6908 bound_to 6896
  151.5660  133.3359  159.3016 H   0  0  0  0  0  0  0  0  0  0  0  0  # atno 6909 bound_to 6896
  145.6723  140.9217  143.0876 H   0  0  0  0  0  0  0  0  0  0  0  0  # atno 7974 bound_to 7965
  156.2999  140.2401  156.4024 H   0  0  0  0  0  0  0  0  0  0  0  0  # atno 8008 bound_to 7997
  154.8515  140.0424  157.1627 H   0  0  0  0  0  0  0  0  0  0  0  0  # atno 8009 bound_to 7997
  154.8994  140.2974  155.5330 H   0  0  0  0  0  0  0  0  0  0  0  0  # atno 8010 bound_to 7997
  139.4859  144.5584  151.7276 H   0  0  0  0  0  0  0  0  0  0  0  0  # atno 10167 bound_to 10162
  156.8890  130.9841  151.3052 H   0  0  0  0  0  0  0  0  0  0  0  0  # atno 10718 bound_to 10713
  154.2167  135.2784  155.2939 H   0  0  0  0  0  0  0  0  0  0  0  0  # atno 10763 bound_to 10752
  154.5735  135.5611  153.7121 H   0  0  0  0  0  0  0  0  0  0  0  0  # atno 10764 bound_to 10752
  153.0051  135.6327  154.2306 H   0  0  0  0  0  0  0  0  0  0  0  0  # atno 10765 bound_to 10752
  140.6896  134.4056  157.5220 H   0  0  0  0  0  0  0  0  0  0  0  0  # atno 11005 bound_to 11000
  144.7053  139.8588  143.7432 LP  0  0  0  0  0  0  0  0  0  0  0  0  # atno 17320 bound_to 7965
  146.1035  139.4033  143.0332 LP  0  0  0  0  0  0  0  0  0  0  0  0  # atno 17321 bound_to 7965
  140.5149  144.0968  150.6005 LP  0  0  0  0  0  0  0  0  0  0  0  0  # atno 17342 bound_to 10162
  140.3906  143.2754  152.0064 LP  0  0  0  0  0  0  0  0  0  0  0  0  # atno 17343 bound_to 10162
  157.6095  130.8572  149.8929 LP  0  0  0  0  0  0  0  0  0  0  0  0  # atno 17370 bound_to 10713
  156.0639  130.3695  150.0922 LP  0  0  0  0  0  0  0  0  0  0  0  0  # atno 17371 bound_to 10713
  139.8927  134.8747  156.2256 LP  0  0  0  0  0  0  0  0  0  0  0  0  # atno 17394 bound_to 11000
  141.0252  133.7019  156.1336 LP  0  0  0  0  0  0  0  0  0  0  0  0  # atno 17395 bound_to 11000

$$$$
