AV-unprocessed.smi:2428|AV-procd|sdf|9581|dock2
  -GOLD-   2272013213D 1   1.00000     0.00000
 Structure written by MMmdl.
 30 31  0  0  0  0  0  0  0  0  1 V2000
  152.2450  144.8019  158.4585 F   0  0  0  0  0  0  0  0  0  0  0  0
  151.6513  144.1080  159.4286 C   0  0  0  0  0  0  0  0  0  0  0  0
  151.7124  144.8133  160.5585 F   0  0  0  0  0  0  0  0  0  0  0  0
  150.3685  143.9346  159.1101 F   0  0  0  0  0  0  0  0  0  0  0  0
  152.3369  142.7590  159.5728 C   0  0  0  0  0  0  0  0  0  0  0  0
  152.9321  142.3860  160.7954 C   0  0  0  0  0  0  0  0  0  0  0  0
  153.5544  141.1268  160.8978 C   0  0  0  0  0  0  0  0  0  0  0  0
  153.5610  140.2781  159.7717 C   0  0  0  0  0  0  0  0  0  0  0  0
  154.1806  139.0256  159.8781 N   0  0  0  0  0  0  0  0  0  0  0  0
  155.0231  138.7111  161.0227 C   0  0  0  0  0  0  0  0  0  0  0  0
  154.2015  138.1284  162.1795 C   0  0  1  0  0  0  0  0  0  0  0  0
  153.4850  136.8263  161.8278 C   0  0  0  0  0  0  0  0  0  0  0  0
  153.3183  136.1355  163.1728 C   0  0  0  0  0  0  0  0  0  0  0  0
  154.2800  136.8854  164.0994 C   0  0  0  0  0  0  0  0  0  0  0  0
  155.0470  137.7201  163.2429 O   0  0  0  0  0  0  0  0  0  0  0  0
  152.9862  140.6279  158.5965 N   0  0  0  0  0  0  0  0  0  0  0  0
  152.3909  141.8367  158.5052 C   0  0  0  0  0  0  0  0  0  0  0  0
  152.9123  143.0541  161.6439 H   0  0  0  0  0  0  0  0  0  0  0  0
  154.0174  140.8225  161.8254 H   0  0  0  0  0  0  0  0  0  0  0  0
  153.8923  138.2730  159.2698 H   0  0  0  0  0  0  0  0  0  0  0  0
  155.7749  137.9848  160.7111 H   0  0  0  0  0  0  0  0  0  0  0  0
  155.5536  139.6070  161.3486 H   0  0  0  0  0  0  0  0  0  0  0  0
  153.4787  138.8590  162.5486 H   0  0  0  0  0  0  0  0  0  0  0  0
  152.5375  136.9933  161.3148 H   0  0  0  0  0  0  0  0  0  0  0  0
  154.1144  136.2141  161.1802 H   0  0  0  0  0  0  0  0  0  0  0  0
  152.2938  136.2134  163.5387 H   0  0  0  0  0  0  0  0  0  0  0  0
  153.5699  135.0766  163.1006 H   0  0  0  0  0  0  0  0  0  0  0  0
  153.7260  137.5073  164.8041 H   0  0  0  0  0  0  0  0  0  0  0  0
  154.9217  136.2139  164.6699 H   0  0  0  0  0  0  0  0  0  0  0  0
  151.9449  142.0662  157.5490 H   0  0  0  0  0  0  0  0  0  0  0  0
  1  2  1  0  0  0  0
  2  3  1  0  0  0  0
  2  4  1  0  0  0  0
  2  5  1  0  0  0  0
  5 17  1  0  0  0  0
  5  6  2  0  0  0  0
  6  7  1  0  0  0  0
  6 18  1  0  0  0  0
  7  8  2  0  0  0  0
  7 19  1  0  0  0  0
  8  9  1  0  0  0  0
  8 16  1  0  0  0  0
  9 10  1  0  0  0  0
  9 20  1  0  0  0  0
 10 11  1  0  0  0  0
 10 21  1  0  0  0  0
 10 22  1  0  0  0  0
 11 15  1  0  0  0  0
 11 12  1  0  0  0  0
 11 23  1  0  0  0  0
 12 13  1  0  0  0  0
 12 24  1  0  0  0  0
 12 25  1  0  0  0  0
 13 14  1  0  0  0  0
 13 26  1  0  0  0  0
 13 27  1  0  0  0  0
 14 15  1  0  0  0  0
 14 28  1  0  0  0  0
 14 29  1  0  0  0  0
 16 17  2  0  0  0  0
 17 30  1  0  0  0  0
M  END
> <s_m_source_file>
AV-unprocessed.smi

> <i_m_source_file_index>
2428

> <i_lp_mmshare_version>
43012

> <i_f3d_flags>
0

> <s_epik_input>
RkMoRikoRiljMVtjSF1bY0hdYyhuW2NIXTEpW05IXVtDSDJdW0NAQEhdMltDSDJdW0NIMl1bQ0gyXU8y

> <s_epik_cmdline>
J2VwaWtfcHl0aG9uJywgJy1waCcsICc3LjAnLCAnLXRuJywgJzgnLCAnLW1hJywgJzIwMCcsICctbWV0YWxfYmluZGluZycsICctaW1hZScsICc8aW5maWxlLm1hZT4nLCAnLW9tYWUnLCAnPG91dGZpbGUubWFlPic=

> <r_lp_tautomer_probability>
1

> <r_epik_Ionization_Penalty>
0.000819842

> <r_epik_Ionization_Penalty_Charging>
0

> <r_epik_Ionization_Penalty_Neutral>
0.000819842

> <r_epik_State_Penalty>
0.000527207

> <r_epik_Charging_Adjusted_Penalty>
0.000527207

> <i_epik_Tot_Q>
0

> <i_epik_Tot_abs_Q>
0

> <r_epik_Metal_State_Penalty>
-0

> <b_epik_Metal_Only>
0

> <s_lp_Force_Field>
OPLS_2005

> <r_lp_Energy>
19.0115

> <b_lp_Chiralities_Consistent>
1

> <s_lp_Variant>
AV-unprocessed.smi:2428-2

> <Gold.Version>
5.8.1

> <Gold.Id.Protein>
6NUR|6NUR_protein|mol2

> <Gold.PLP.Fitness>
44.3479

> <Gold.PLP.PLP>
-44.6519

> <Gold.PLP.part.hbond>
-0.7592

> <Gold.PLP.part.metal>
0.0000

> <Gold.PLP.part.buried>
-4.4791

> <Gold.PLP.part.nonpolar>
-38.9519

> <Gold.PLP.part.repulsive>
0.0515

> <Gold.PLP.ligand.clash>
0.8382

> <Gold.PLP.ligand.torsion>
0.2246

> <Gold.PLP.Chemscore.Hbond>
0.3185

> <Gold.PLP.Chemscore.CHOScore>
0.0000

> <Gold.PLP.Chemscore.Metal>
0.0000

> <Gold.Chemscore.Hbonds>
donor molecule, donor type, donor heavy atom, donor atom, acceptor molecule, acceptor atom, score
      P1  H  7997  8009       L1    16  0.21

> <Gold.PLP.Chemscore.Internal.Correction>
0.0280

> <Gold.Rescore>
     Score         DG    S(hbond)    S(metal)    S(lipo)     H(rot)  DE(clash)    DE(int)     intcor
     12.82     -13.08       0.08        0.00      90.11       1.25       0.00       0.26       ----

> <Gold.Chemscore.Fitness>
12.8177

> <Gold.Chemscore.DG>
-13.0848

> <Gold.Chemscore.ZeroCoef>
-5.4800

> <Gold.Chemscore.Hbond>
0.0794

> <Gold.Chemscore.Metal>
0.0000

> <Gold.Chemscore.Lipo>
90.1129

> <Gold.Chemscore.Internal_Hbond>
0.0000

> <Gold.Chemscore.DEClash>
0.0022

> <Gold.Chemscore.DEInternal>
0.2649

> <Gold.Chemscore.Rot>
1.2514

> <Gold.Chemscore.Internal.Correction>
   9.000000E+99

> <Gold.Chemscore.Hbonds>
donor molecule, donor type, donor heavy atom, donor atom, acceptor molecule, acceptor atom, score
      P1  H  7997  8009       L1    16  0.05

> <Gold.Chemscore.Hbond.Weighted>
-0.2651

> <Gold.Chemscore.Metal.Weighted>
-0.0000

> <Gold.Chemscore.Lipo.Weighted>
-10.5432

> <Gold.Chemscore.Internal_Hbond.Weighted>
0.0000

> <Gold.Chemscore.DEClash.Weighted>
0.0022

> <Gold.Chemscore.DEInternal.Weighted>
0.2649

> <Gold.Chemscore.Rot.Weighted>
3.2036

> <Gold.Chemscore.Internal.Correction.Weighted>
   9.000000E+99

> <Gold.Protein.RotatedTorsions>
[ 6907 6896 6895 6894 ] final -115.29 input  -60.11 | X-H torsion
[ 7974 7965 7964 7962 ] final   76.62 input  175.53 | X-H torsion
[ 8008 7997 7996 7995 ] final  146.67 input   59.86 | X-H torsion
[ 10167 10162 10161 10158 ] final    6.60 input  -65.29 | X-H torsion
[ 10718 10713 10712 10709 ] final   -4.70 input   66.30 | X-H torsion
[ 10763 10752 10751 10750 ] final -143.94 input  -60.55 | X-H torsion
[ 11005 11000 10999 10996 ] final   -3.97 input  -57.11 | X-H torsion

> <Gold.Protein.ActiveResidues>
 VAL166  LYS551  ARG553  GLY616  TRP617  ASP618  TYR619  PRO620  LYS621  CYS622 
 ASP623  PHE694  ASN695  SER759  ASP760  ASP761  ALA762  ILE779  LEU786  VAL792 
 PHE793  MET794  SER795  GLU796  ALA797  LYS798  CYS799  TRP800  GLU811  SER814 

> <Gold.Protein.RotatedAtoms>
  150.7967  133.8679  159.3250 H   0  0  0  0  0  0  0  0  0  0  0  0  # atno 6907 bound_to 6896
  151.6503  135.1000  160.0168 H   0  0  0  0  0  0  0  0  0  0  0  0  # atno 6908 bound_to 6896
  152.4049  133.6834  159.6383 H   0  0  0  0  0  0  0  0  0  0  0  0  # atno 6909 bound_to 6896
  145.7005  139.2581  143.1708 H   0  0  0  0  0  0  0  0  0  0  0  0  # atno 7974 bound_to 7965
  156.2848  140.2176  156.5415 H   0  0  0  0  0  0  0  0  0  0  0  0  # atno 8008 bound_to 7997
  154.7366  140.0491  157.0796 H   0  0  0  0  0  0  0  0  0  0  0  0  # atno 8009 bound_to 7997
  155.0284  140.3132  155.4770 H   0  0  0  0  0  0  0  0  0  0  0  0  # atno 8010 bound_to 7997
  140.6419  143.7755  150.7440 H   0  0  0  0  0  0  0  0  0  0  0  0  # atno 10167 bound_to 10162
  156.7575  130.5259  149.5791 H   0  0  0  0  0  0  0  0  0  0  0  0  # atno 10718 bound_to 10713
  154.8449  135.3454  154.6268 H   0  0  0  0  0  0  0  0  0  0  0  0  # atno 10763 bound_to 10752
  153.6877  135.6976  153.5104 H   0  0  0  0  0  0  0  0  0  0  0  0  # atno 10764 bound_to 10752
  153.2619  135.4320  155.0858 H   0  0  0  0  0  0  0  0  0  0  0  0  # atno 10765 bound_to 10752
  140.6751  133.9202  155.8519 H   0  0  0  0  0  0  0  0  0  0  0  0  # atno 11005 bound_to 11000
  146.0802  140.7773  142.9645 LP  0  0  0  0  0  0  0  0  0  0  0  0  # atno 17320 bound_to 7965
  144.6970  140.3477  143.7187 LP  0  0  0  0  0  0  0  0  0  0  0  0  # atno 17321 bound_to 7965
  140.1388  143.4460  152.2207 LP  0  0  0  0  0  0  0  0  0  0  0  0  # atno 17342 bound_to 10162
  139.5628  144.7416  151.4107 LP  0  0  0  0  0  0  0  0  0  0  0  0  # atno 17343 bound_to 10162
  156.1361  130.6212  151.0402 LP  0  0  0  0  0  0  0  0  0  0  0  0  # atno 17370 bound_to 10713
  157.6749  131.0852  150.7518 LP  0  0  0  0  0  0  0  0  0  0  0  0  # atno 17371 bound_to 10713
  141.0362  134.0687  157.3957 LP  0  0  0  0  0  0  0  0  0  0  0  0  # atno 17394 bound_to 11000
  139.8969  135.0148  156.7075 LP  0  0  0  0  0  0  0  0  0  0  0  0  # atno 17395 bound_to 11000

$$$$
