AV-unprocessed.smi:2033|AV-procd|sdf|8261|dock10
  -GOLD-   2272010533D 1   1.00000     0.00000
 Structure written by MMmdl.
 32 33  0  0  0  0  0  0  0  0  2 V2000
  150.2815  134.0072  155.1985 C   0  0  0  0  0  0  0  0  0  0  0  0
  150.3935  135.4919  155.2603 C   0  0  0  0  0  0  0  0  0  0  0  0
  151.5580  136.1342  155.1402 N   0  0  0  0  0  0  0  0  0  0  0  0
  151.4071  137.5106  155.2290 N   0  0  0  0  0  0  0  0  0  0  0  0
  150.1331  137.8898  155.4035 C   0  0  0  0  0  0  0  0  0  0  0  0
  149.7729  139.1790  155.5155 N   0  5  0  0  0  0  0  0  0  0  0  0
  150.6204  140.0700  156.0789 C   0  0  0  0  0  0  0  0  0  0  0  0
  151.6752  140.4836  155.5914 O   0  0  0  0  0  0  0  0  0  0  0  0
  150.2204  140.5107  157.2817 N   0  0  0  0  0  0  0  0  0  0  0  0
  150.9178  141.4852  158.1239 C   0  0  2  0  0  0  0  0  0  0  0  0
  151.0365  142.8100  157.3294 C   0  0  0  0  0  0  0  0  0  0  0  0
  152.0586  143.8402  157.8611 C   0  0  0  0  0  0  0  0  0  0  0  0
  152.0483  144.0455  159.3899 C   0  0  0  0  0  0  0  0  0  0  0  0
  152.3793  142.8064  160.2621 C   0  0  0  0  0  0  0  0  0  0  0  0
  152.9398  141.6698  159.5308 N   0  0  0  0  0  0  0  0  0  0  0  0
  152.3225  140.9970  158.5446 C   0  0  0  0  0  0  0  0  0  0  0  0
  152.8668  140.0499  157.9781 O   0  0  0  0  0  0  0  0  0  0  0  0
  149.0038  136.5384  155.4941 S   0  0  0  0  0  0  0  0  0  0  0  0
  150.3301  133.6732  154.1622 H   0  0  0  0  0  0  0  0  0  0  0  0
  149.3341  133.6810  155.6280 H   0  0  0  0  0  0  0  0  0  0  0  0
  151.0947  133.5429  155.7570 H   0  0  0  0  0  0  0  0  0  0  0  0
  149.3479  140.1484  157.6366 H   0  0  0  0  0  0  0  0  0  0  0  0
  150.3115  141.6542  159.0148 H   0  0  0  0  0  0  0  0  0  0  0  0
  151.2879  142.5973  156.2889 H   0  0  0  0  0  0  0  0  0  0  0  0
  150.0511  143.2768  157.3025 H   0  0  0  0  0  0  0  0  0  0  0  0
  153.0631  143.5556  157.5447 H   0  0  0  0  0  0  0  0  0  0  0  0
  151.8717  144.7973  157.3734 H   0  0  0  0  0  0  0  0  0  0  0  0
  152.7716  144.8277  159.6228 H   0  0  0  0  0  0  0  0  0  0  0  0
  151.0813  144.4471  159.6946 H   0  0  0  0  0  0  0  0  0  0  0  0
  153.0877  143.0895  161.0410 H   0  0  0  0  0  0  0  0  0  0  0  0
  151.4860  142.4738  160.7923 H   0  0  0  0  0  0  0  0  0  0  0  0
  153.8625  141.3621  159.8016 H   0  0  0  0  0  0  0  0  0  0  0  0
  1  2  1  0  0  0  0
  1 19  1  0  0  0  0
  1 20  1  0  0  0  0
  1 21  1  0  0  0  0
  2 18  1  0  0  0  0
  2  3  2  0  0  0  0
  3  4  1  0  0  0  0
  4  5  2  0  0  0  0
  5  6  1  0  0  0  0
  5 18  1  0  0  0  0
  6  7  1  0  0  0  0
  7  8  2  0  0  0  0
  7  9  1  0  0  0  0
  9 10  1  0  0  0  0
  9 22  1  0  0  0  0
 10 16  1  0  0  0  0
 10 11  1  0  0  0  0
 10 23  1  0  0  0  0
 11 12  1  0  0  0  0
 11 24  1  0  0  0  0
 11 25  1  0  0  0  0
 12 13  1  0  0  0  0
 12 26  1  0  0  0  0
 12 27  1  0  0  0  0
 13 14  1  0  0  0  0
 13 28  1  0  0  0  0
 13 29  1  0  0  0  0
 14 15  1  0  0  0  0
 14 30  1  0  0  0  0
 14 31  1  0  0  0  0
 15 16  1  0  0  0  0
 15 32  1  0  0  0  0
 16 17  2  0  0  0  0
M  CHG  1   6  -1
M  END
> <s_m_source_file>
AV-unprocessed.smi

> <i_m_source_file_index>
2033

> <i_lp_mmshare_version>
43012

> <i_f3d_flags>
0

> <s_epik_input>
W0NIM11jMW5uYyhzMSlbTkhdQyg9TylbTkhdW0NAQEhdMltDSDJdW0NIMl1bQ0gyXVtDSDJdW05IXUMyPU8=

> <s_epik_cmdline>
J2VwaWtfcHl0aG9uJywgJy1waCcsICc3LjAnLCAnLXRuJywgJzgnLCAnLW1hJywgJzIwMCcsICctbWV0YWxfYmluZGluZycsICctaW1hZScsICc8aW5maWxlLm1hZT4nLCAnLW9tYWUnLCAnPG91dGZpbGUubWFlPic=

> <r_lp_tautomer_probability>
1

> <r_epik_Ionization_Penalty>
4.07233

> <r_epik_Ionization_Penalty_Charging>
3.9374

> <r_epik_Ionization_Penalty_Neutral>
0.134927

> <r_epik_State_Penalty>
3.93663

> <r_epik_Charging_Adjusted_Penalty>
7.87404

> <i_epik_Tot_Q>
-1

> <i_epik_Tot_abs_Q>
1

> <r_epik_Metal_State_Penalty>
0.602812

> <b_epik_Metal_Only>
1

> <s_lp_Force_Field>
OPLS_2005

> <r_lp_Energy>
13.5644

> <b_lp_Chiralities_Consistent>
1

> <s_lp_Variant>
AV-unprocessed.smi:2033-3

> <Gold.Version>
5.8.1

> <Gold.Id.Protein>
6NUR|6NUR_protein|mol2

> <Gold.PLP.Fitness>
36.5121

> <Gold.PLP.PLP>
-30.0088

> <Gold.PLP.part.hbond>
-3.0000

> <Gold.PLP.part.metal>
0.0000

> <Gold.PLP.part.buried>
-3.9380

> <Gold.PLP.part.nonpolar>
-23.3303

> <Gold.PLP.part.repulsive>
0.4252

> <Gold.PLP.ligand.clash>
0.0000

> <Gold.PLP.ligand.torsion>
0.8769

> <Gold.PLP.Chemscore.Hbond>
2.7520

> <Gold.PLP.Chemscore.CHOScore>
0.0000

> <Gold.PLP.Chemscore.Metal>
0.0000

> <Gold.Chemscore.Hbonds>
donor molecule, donor type, donor heavy atom, donor atom, acceptor molecule, acceptor atom, score
      P1  H  7989  7998       L1     8  0.60
      P1  H  7997  8010       L1    17  1.00
      P1  H 10752 10763       L1     3  1.00

> <Gold.PLP.Chemscore.Internal.Correction>
0.0011

> <Gold.Rescore>
     Score         DG    S(hbond)    S(metal)    S(lipo)     H(rot)  DE(clash)    DE(int)     intcor
     13.56     -19.90       2.79        0.00      65.66       1.00       0.06       6.28       ----

> <Gold.Chemscore.Fitness>
13.5629

> <Gold.Chemscore.DG>
-19.9045

> <Gold.Chemscore.ZeroCoef>
-5.4800

> <Gold.Chemscore.Hbond>
2.7853

> <Gold.Chemscore.Metal>
0.0000

> <Gold.Chemscore.Lipo>
65.6555

> <Gold.Chemscore.Internal_Hbond>
0.0000

> <Gold.Chemscore.DEClash>
0.0639

> <Gold.Chemscore.DEInternal>
6.2777

> <Gold.Chemscore.Rot>
1.0000

> <Gold.Chemscore.Internal.Correction>
   9.000000E+99

> <Gold.Chemscore.Hbonds>
donor molecule, donor type, donor heavy atom, donor atom, acceptor molecule, acceptor atom, score
      P1  H  7989  7998       L1     8  0.56
      P1  H  7997  8010       L1    17  0.93
      P1  H 10752 10763       L1     3  0.94

> <Gold.Chemscore.Hbond.Weighted>
-9.3028

> <Gold.Chemscore.Metal.Weighted>
-0.0000

> <Gold.Chemscore.Lipo.Weighted>
-7.6817

> <Gold.Chemscore.Internal_Hbond.Weighted>
0.0000

> <Gold.Chemscore.DEClash.Weighted>
0.0639

> <Gold.Chemscore.DEInternal.Weighted>
6.2777

> <Gold.Chemscore.Rot.Weighted>
2.5600

> <Gold.Chemscore.Internal.Correction.Weighted>
   9.000000E+99

> <Gold.Protein.RotatedTorsions>
[ 6907 6896 6895 6894 ] final  131.85 input  -60.11 | X-H torsion
[ 7974 7965 7964 7962 ] final    3.84 input  175.53 | X-H torsion
[ 8008 7997 7996 7995 ] final   52.44 input   59.86 | X-H torsion
[ 10167 10162 10161 10158 ] final -173.92 input  -65.29 | X-H torsion
[ 10718 10713 10712 10709 ] final -108.83 input   66.30 | X-H torsion
[ 10763 10752 10751 10750 ] final   68.98 input  -60.55 | X-H torsion
[ 11005 11000 10999 10996 ] final -160.21 input  -57.11 | X-H torsion

> <Gold.Protein.ActiveResidues>
 VAL166  LYS551  ARG553  GLY616  TRP617  ASP618  TYR619  PRO620  LYS621  CYS622 
 ASP623  PHE694  ASN695  SER759  ASP760  ASP761  ALA762  ILE779  LEU786  VAL792 
 PHE793  MET794  SER795  GLU796  ALA797  LYS798  CYS799  TRP800  GLU811  SER814 

> <Gold.Protein.RotatedAtoms>
  152.3384  133.6038  159.5858 H   0  0  0  0  0  0  0  0  0  0  0  0  # atno 6907 bound_to 6896
  150.7464  133.9760  159.3570 H   0  0  0  0  0  0  0  0  0  0  0  0  # atno 6908 bound_to 6896
  151.7627  135.0807  160.0399 H   0  0  0  0  0  0  0  0  0  0  0  0  # atno 6909 bound_to 6896
  146.2445  140.0625  142.8367 H   0  0  0  0  0  0  0  0  0  0  0  0  # atno 7974 bound_to 7965
  155.4519  140.3458  155.4302 H   0  0  0  0  0  0  0  0  0  0  0  0  # atno 8008 bound_to 7997
  156.1215  140.1488  156.9228 H   0  0  0  0  0  0  0  0  0  0  0  0  # atno 8009 bound_to 7997
  154.4827  140.0865  156.7393 H   0  0  0  0  0  0  0  0  0  0  0  0  # atno 8010 bound_to 7997
  139.5662  144.1750  152.1316 H   0  0  0  0  0  0  0  0  0  0  0  0  # atno 10167 bound_to 10162
  156.0505  130.5733  150.8016 H   0  0  0  0  0  0  0  0  0  0  0  0  # atno 10718 bound_to 10713
  153.0263  135.5227  154.7218 H   0  0  0  0  0  0  0  0  0  0  0  0  # atno 10763 bound_to 10752
  154.6271  135.2896  155.0261 H   0  0  0  0  0  0  0  0  0  0  0  0  # atno 10764 bound_to 10752
  154.1226  135.6605  153.4958 H   0  0  0  0  0  0  0  0  0  0  0  0  # atno 10765 bound_to 10752
  140.6340  134.4621  157.5231 H   0  0  0  0  0  0  0  0  0  0  0  0  # atno 11005 bound_to 11000
  145.0888  140.9270  143.4781 LP  0  0  0  0  0  0  0  0  0  0  0  0  # atno 17320 bound_to 7965
  145.0793  139.2972  143.5792 LP  0  0  0  0  0  0  0  0  0  0  0  0  # atno 17321 bound_to 7965
  140.1273  144.5320  150.6824 LP  0  0  0  0  0  0  0  0  0  0  0  0  # atno 17342 bound_to 10162
  140.6945  143.2396  151.5038 LP  0  0  0  0  0  0  0  0  0  0  0  0  # atno 17343 bound_to 10162
  157.5427  131.0941  150.9805 LP  0  0  0  0  0  0  0  0  0  0  0  0  # atno 17370 bound_to 10713
  157.0084  130.5627  149.5318 LP  0  0  0  0  0  0  0  0  0  0  0  0  # atno 17371 bound_to 10713
  139.9105  134.8355  156.1546 LP  0  0  0  0  0  0  0  0  0  0  0  0  # atno 17394 bound_to 11000
  141.0655  133.6821  156.2036 LP  0  0  0  0  0  0  0  0  0  0  0  0  # atno 17395 bound_to 11000

$$$$
