AV-unprocessed.smi:2138|AV-procd|sdf|8710|dock7
  -GOLD-   2272011473D 1   1.00000     0.00000
 Structure written by MMmdl.
 46 47  0  0  0  0  0  0  0  0  1 V2000
  138.1721  144.1268  154.6045 C   0  0  0  0  0  0  0  0  0  0  0  0
  139.5765  144.3031  154.5440 O   0  0  0  0  0  0  0  0  0  0  0  0
  140.2494  143.6846  155.6279 C   0  0  0  0  0  0  0  0  0  0  0  0
  141.7212  144.1078  155.6099 C   0  0  0  0  0  0  0  0  0  0  0  0
  142.4691  143.1857  156.3904 O   0  0  0  0  0  0  0  0  0  0  0  0
  143.8354  143.1495  156.2197 C   0  0  0  0  0  0  0  0  0  0  0  0
  144.5374  143.8378  155.1991 C   0  0  0  0  0  0  0  0  0  0  0  0
  145.9383  143.7112  155.1401 C   0  0  0  0  0  0  0  0  0  0  0  0
  146.5984  142.8998  156.0838 C   0  0  0  0  0  0  0  0  0  0  0  0
  148.0140  142.8035  156.0118 N   0  0  0  0  0  0  0  0  0  0  0  0
  148.8181  141.8866  156.5809 C   0  0  0  0  0  0  0  0  0  0  0  0
  148.4233  140.9368  157.2576 O   0  0  0  0  0  0  0  0  0  0  0  0
  150.3234  142.0619  156.3228 C   0  0  2  0  0  0  0  0  0  0  0  0
  151.0968  140.7549  156.5790 C   0  0  0  0  0  0  0  0  0  0  0  0
  151.9819  141.0742  157.7710 C   0  0  0  0  0  0  0  0  0  0  0  0
  152.7058  140.2313  158.2994 O   0  0  0  0  0  0  0  0  0  0  0  0
  151.8651  142.3569  158.1394 N   0  0  0  0  0  0  0  0  0  0  0  0
  152.6198  142.9963  159.2272 C   0  0  0  0  0  0  0  0  0  0  0  0
  152.4374  142.2868  160.5805 C   0  0  0  0  0  0  0  0  0  0  0  0
  152.2733  144.4912  159.3129 C   0  0  0  0  0  0  0  0  0  0  0  0
  150.9644  143.1023  157.2672 C   0  0  0  0  0  0  0  0  0  0  0  0
  145.8082  142.2652  157.0719 C   0  0  0  0  0  0  0  0  0  0  0  0
  144.4654  142.3836  157.1361 N   0  0  0  0  0  0  0  0  0  0  0  0
  137.7043  144.6186  153.7517 H   0  0  0  0  0  0  0  0  0  0  0  0
  137.7591  144.5652  155.5138 H   0  0  0  0  0  0  0  0  0  0  0  0
  137.9048  143.0698  154.5721 H   0  0  0  0  0  0  0  0  0  0  0  0
  139.7871  143.9502  156.5799 H   0  0  0  0  0  0  0  0  0  0  0  0
  140.1805  142.6012  155.5205 H   0  0  0  0  0  0  0  0  0  0  0  0
  142.0871  144.0905  154.5822 H   0  0  0  0  0  0  0  0  0  0  0  0
  141.8235  145.1256  155.9898 H   0  0  0  0  0  0  0  0  0  0  0  0
  144.0357  144.4541  154.4688 H   0  0  0  0  0  0  0  0  0  0  0  0
  146.4960  144.2285  154.3729 H   0  0  0  0  0  0  0  0  0  0  0  0
  148.4650  143.4747  155.4072 H   0  0  0  0  0  0  0  0  0  0  0  0
  150.4740  142.3761  155.2883 H   0  0  0  0  0  0  0  0  0  0  0  0
  150.4559  139.9002  156.8023 H   0  0  0  0  0  0  0  0  0  0  0  0
  151.7194  140.4925  155.7232 H   0  0  0  0  0  0  0  0  0  0  0  0
  153.6809  142.9199  158.9830 H   0  0  0  0  0  0  0  0  0  0  0  0
  153.0883  142.7249  161.3376 H   0  0  0  0  0  0  0  0  0  0  0  0
  152.6891  141.2283  160.5079 H   0  0  0  0  0  0  0  0  0  0  0  0
  151.4134  142.3683  160.9465 H   0  0  0  0  0  0  0  0  0  0  0  0
  152.8681  144.9874  160.0801 H   0  0  0  0  0  0  0  0  0  0  0  0
  151.2216  144.6401  159.5594 H   0  0  0  0  0  0  0  0  0  0  0  0
  152.4689  144.9989  158.3679 H   0  0  0  0  0  0  0  0  0  0  0  0
  151.5379  143.8360  156.6995 H   0  0  0  0  0  0  0  0  0  0  0  0
  150.2165  143.6484  157.8438 H   0  0  0  0  0  0  0  0  0  0  0  0
  146.2455  141.6610  157.8515 H   0  0  0  0  0  0  0  0  0  0  0  0
  1  2  1  0  0  0  0
  1 24  1  0  0  0  0
  1 25  1  0  0  0  0
  1 26  1  0  0  0  0
  2  3  1  0  0  0  0
  3  4  1  0  0  0  0
  3 27  1  0  0  0  0
  3 28  1  0  0  0  0
  4  5  1  0  0  0  0
  4 29  1  0  0  0  0
  4 30  1  0  0  0  0
  5  6  1  0  0  0  0
  6 23  1  0  0  0  0
  6  7  2  0  0  0  0
  7  8  1  0  0  0  0
  7 31  1  0  0  0  0
  8  9  2  0  0  0  0
  8 32  1  0  0  0  0
  9 10  1  0  0  0  0
  9 22  1  0  0  0  0
 10 11  1  0  0  0  0
 10 33  1  0  0  0  0
 11 12  2  0  0  0  0
 11 13  1  0  0  0  0
 13 21  1  0  0  0  0
 13 14  1  0  0  0  0
 13 34  1  0  0  0  0
 14 15  1  0  0  0  0
 14 35  1  0  0  0  0
 14 36  1  0  0  0  0
 15 16  2  0  0  0  0
 15 17  1  0  0  0  0
 17 18  1  0  0  0  0
 17 21  1  0  0  0  0
 18 19  1  0  0  0  0
 18 20  1  0  0  0  0
 18 37  1  0  0  0  0
 19 38  1  0  0  0  0
 19 39  1  0  0  0  0
 19 40  1  0  0  0  0
 20 41  1  0  0  0  0
 20 42  1  0  0  0  0
 20 43  1  0  0  0  0
 21 44  1  0  0  0  0
 21 45  1  0  0  0  0
 22 23  2  0  0  0  0
 22 46  1  0  0  0  0
M  END
> <s_m_source_file>
AV-unprocessed.smi

> <i_m_source_file_index>
2138

> <i_lp_mmshare_version>
43012

> <i_f3d_flags>
0

> <s_epik_input>
W0NIM11PW0NIMl1bQ0gyXU9jMVtjSF1bY0hdYyhbY0hdbjEpW05IXUMoPU8pW0NAQEhdMltDSDJdQyg9TylOKFtDSDJdMilbQ0hdKFtDSDNdKVtDSDNd

> <s_epik_cmdline>
J2VwaWtfcHl0aG9uJywgJy1waCcsICc3LjAnLCAnLXRuJywgJzgnLCAnLW1hJywgJzIwMCcsICctbWV0YWxfYmluZGluZycsICctaW1hZScsICc8aW5maWxlLm1hZT4nLCAnLW9tYWUnLCAnPG91dGZpbGUubWFlPic=

> <r_lp_tautomer_probability>
1

> <r_epik_Ionization_Penalty>
1.72652e-05

> <r_epik_Ionization_Penalty_Charging>
0

> <r_epik_Ionization_Penalty_Neutral>
1.72652e-05

> <r_epik_State_Penalty>
-0

> <r_epik_Charging_Adjusted_Penalty>
0

> <i_epik_Tot_Q>
0

> <i_epik_Tot_abs_Q>
0

> <r_epik_Metal_State_Penalty>
-0

> <b_epik_Metal_Only>
0

> <s_lp_Force_Field>
OPLS_2005

> <r_lp_Energy>
27.6576

> <b_lp_Chiralities_Consistent>
1

> <s_lp_Variant>
AV-unprocessed.smi:2138-1

> <Gold.Version>
5.8.1

> <Gold.Id.Protein>
6NUR|6NUR_protein|mol2

> <Gold.PLP.Fitness>
41.6701

> <Gold.PLP.PLP>
-35.6540

> <Gold.PLP.part.hbond>
-3.0000

> <Gold.PLP.part.metal>
0.0000

> <Gold.PLP.part.buried>
-3.6385

> <Gold.PLP.part.nonpolar>
-27.5822

> <Gold.PLP.part.repulsive>
0.3581

> <Gold.PLP.ligand.clash>
0.0000

> <Gold.PLP.ligand.torsion>
0.9276

> <Gold.PLP.Chemscore.Hbond>
2.5760

> <Gold.PLP.Chemscore.CHOScore>
0.0000

> <Gold.PLP.Chemscore.Metal>
0.0000

> <Gold.Chemscore.Hbonds>
donor molecule, donor type, donor heavy atom, donor atom, acceptor molecule, acceptor atom, score
      L1  H    10    33       P1  8028  0.29
      P1  H  7997  8009       L1    16  0.33

> <Gold.PLP.Chemscore.Internal.Correction>
0.1432

> <Gold.Rescore>
     Score         DG    S(hbond)    S(metal)    S(lipo)     H(rot)  DE(clash)    DE(int)     intcor
     14.70     -16.53       2.10        0.00      78.41       2.00       0.02       1.81       ----

> <Gold.Chemscore.Fitness>
14.6997

> <Gold.Chemscore.DG>
-16.5350

> <Gold.Chemscore.ZeroCoef>
-5.4800

> <Gold.Chemscore.Hbond>
2.0988

> <Gold.Chemscore.Metal>
0.0000

> <Gold.Chemscore.Lipo>
78.4103

> <Gold.Chemscore.Internal_Hbond>
0.0000

> <Gold.Chemscore.DEClash>
0.0239

> <Gold.Chemscore.DEInternal>
1.8114

> <Gold.Chemscore.Rot>
2.0035

> <Gold.Chemscore.Internal.Correction>
   9.000000E+99

> <Gold.Chemscore.Hbonds>
donor molecule, donor type, donor heavy atom, donor atom, acceptor molecule, acceptor atom, score
      L1  H    10    33       P1  8028  0.29
      P1  H  7997  8009       L1    16  0.21
      P1  H 10162 10167       L1     2  0.01

> <Gold.Chemscore.Hbond.Weighted>
-7.0100

> <Gold.Chemscore.Metal.Weighted>
-0.0000

> <Gold.Chemscore.Lipo.Weighted>
-9.1740

> <Gold.Chemscore.Internal_Hbond.Weighted>
0.0000

> <Gold.Chemscore.DEClash.Weighted>
0.0239

> <Gold.Chemscore.DEInternal.Weighted>
1.8114

> <Gold.Chemscore.Rot.Weighted>
5.1290

> <Gold.Chemscore.Internal.Correction.Weighted>
   9.000000E+99

> <Gold.Protein.RotatedTorsions>
[ 6907 6896 6895 6894 ] final   57.50 input  -60.11 | X-H torsion
[ 7974 7965 7964 7962 ] final  157.03 input  175.53 | X-H torsion
[ 8008 7997 7996 7995 ] final  150.58 input   59.86 | X-H torsion
[ 10167 10162 10161 10158 ] final -119.02 input  -65.29 | X-H torsion
[ 10718 10713 10712 10709 ] final  141.33 input   66.30 | X-H torsion
[ 10763 10752 10751 10750 ] final   51.67 input  -60.55 | X-H torsion
[ 11005 11000 10999 10996 ] final  -54.77 input  -57.11 | X-H torsion

> <Gold.Protein.ActiveResidues>
 VAL166  LYS551  ARG553  GLY616  TRP617  ASP618  TYR619  PRO620  LYS621  CYS622 
 ASP623  PHE694  ASN695  SER759  ASP760  ASP761  ALA762  ILE779  LEU786  VAL792 
 PHE793  MET794  SER795  GLU796  ALA797  LYS798  CYS799  TRP800  GLU811  SER814 

> <Gold.Protein.RotatedAtoms>
  152.3737  134.6696  160.0167 H   0  0  0  0  0  0  0  0  0  0  0  0  # atno 6907 bound_to 6896
  151.6981  133.3305  159.3267 H   0  0  0  0  0  0  0  0  0  0  0  0  # atno 6908 bound_to 6896
  150.7693  134.6575  159.6366 H   0  0  0  0  0  0  0  0  0  0  0  0  # atno 6909 bound_to 6896
  144.7927  139.7285  143.6214 H   0  0  0  0  0  0  0  0  0  0  0  0  # atno 7974 bound_to 7965
  156.2710  140.2071  156.6039 H   0  0  0  0  0  0  0  0  0  0  0  0  # atno 8008 bound_to 7997
  154.6885  140.0532  157.0362 H   0  0  0  0  0  0  0  0  0  0  0  0  # atno 8009 bound_to 7997
  155.0900  140.3195  155.4579 H   0  0  0  0  0  0  0  0  0  0  0  0  # atno 8010 bound_to 7997
  140.0512  143.5058  152.2081 H   0  0  0  0  0  0  0  0  0  0  0  0  # atno 10167 bound_to 10162
  157.3932  131.1007  151.0626 H   0  0  0  0  0  0  0  0  0  0  0  0  # atno 10718 bound_to 10713
  152.9786  135.5838  154.4454 H   0  0  0  0  0  0  0  0  0  0  0  0  # atno 10763 bound_to 10752
  154.4050  135.2769  155.2075 H   0  0  0  0  0  0  0  0  0  0  0  0  # atno 10764 bound_to 10752
  154.3890  135.6129  153.5886 H   0  0  0  0  0  0  0  0  0  0  0  0  # atno 10765 bound_to 10752
  141.1042  133.6615  156.4369 H   0  0  0  0  0  0  0  0  0  0  0  0  # atno 11005 bound_to 11000
  146.2185  139.5592  142.9634 LP  0  0  0  0  0  0  0  0  0  0  0  0  # atno 17320 bound_to 7965
  145.5752  141.0389  143.2152 LP  0  0  0  0  0  0  0  0  0  0  0  0  # atno 17321 bound_to 7965
  139.5952  144.7564  151.3304 LP  0  0  0  0  0  0  0  0  0  0  0  0  # atno 17342 bound_to 10162
  140.7216  143.7121  150.7761 LP  0  0  0  0  0  0  0  0  0  0  0  0  # atno 17343 bound_to 10162
  157.1652  130.6243  149.5623 LP  0  0  0  0  0  0  0  0  0  0  0  0  # atno 17370 bound_to 10713
  155.9803  130.4803  150.6768 LP  0  0  0  0  0  0  0  0  0  0  0  0  # atno 17371 bound_to 10713
  140.4946  134.6543  157.5224 LP  0  0  0  0  0  0  0  0  0  0  0  0  # atno 17394 bound_to 11000
  139.9905  134.6993  155.9699 LP  0  0  0  0  0  0  0  0  0  0  0  0  # atno 17395 bound_to 11000

$$$$
