AV-unprocessed.smi:1047|AV-procd|sdf|4571|dock2
  -GOLD-   22720 3 23D 1   1.00000     0.00000
 Structure written by MMmdl.
 56 58  0  0  0  0  0  0  0  0  2 V2000
  151.8367  144.5670  159.6380 C   0  0  0  0  0  0  0  0  0  0  0  0
  152.5087  143.1915  159.5178 C   0  0  0  0  0  0  0  0  0  0  0  0
  151.6308  142.1137  159.0645 N   0  0  0  0  0  0  0  0  0  0  0  0
  152.3131  140.8257  159.1212 C   0  0  0  0  0  0  0  0  0  0  0  0
  151.4091  139.6760  158.6459 C   0  0  0  0  0  0  0  0  0  0  0  0
  150.9443  139.9522  157.3286 O   0  0  0  0  0  0  0  0  0  0  0  0
  150.2198  141.1769  157.2394 C   0  0  2  0  0  0  0  0  0  0  0  0
  149.7633  141.3608  155.7859 C   0  0  0  0  0  0  0  0  0  0  0  0
  148.2995  141.5323  155.7075 N   0  3  0  0  0  0  0  0  0  0  0  0
  147.6992  141.0160  154.4620 C   0  0  0  0  0  0  0  0  0  0  0  0
  146.7807  139.8117  154.7405 C   0  0  1  0  0  0  0  0  0  0  0  0
  145.5209  140.2915  155.1699 O   0  0  0  0  0  0  0  0  0  0  0  0
  146.5823  138.8886  153.5182 C   0  0  0  0  0  0  0  0  0  0  0  0
  146.2218  137.5248  153.8719 N   0  0  0  0  0  0  0  0  0  0  0  0
  146.4513  136.9046  155.0458 C   0  0  0  0  0  0  0  0  0  0  0  0
  146.0262  135.6508  155.1660 N   0  0  0  0  0  0  0  0  0  0  0  0
  145.4672  135.4248  153.9201 C   0  0  0  0  0  0  0  0  0  0  0  0
  144.8341  134.2775  153.3943 C   0  0  0  0  0  0  0  0  0  0  0  0
  144.3285  134.2693  152.0749 C   0  0  0  0  0  0  0  0  0  0  0  0
  143.6536  133.0138  151.5510 C   0  0  0  0  0  0  0  0  0  0  0  0
  144.4546  135.4218  151.2585 C   0  0  0  0  0  0  0  0  0  0  0  0
  143.9235  135.4334  149.8358 C   0  0  0  0  0  0  0  0  0  0  0  0
  145.0833  136.5770  151.7683 C   0  0  0  0  0  0  0  0  0  0  0  0
  145.5789  136.5745  153.0845 C   0  0  0  0  0  0  0  0  0  0  0  0
  151.1336  142.3275  157.7076 C   0  0  0  0  0  0  0  0  0  0  0  0
  152.5204  145.2890  160.0847 H   0  0  0  0  0  0  0  0  0  0  0  0
  150.9499  144.5175  160.2703 H   0  0  0  0  0  0  0  0  0  0  0  0
  151.5396  144.9630  158.6673 H   0  0  0  0  0  0  0  0  0  0  0  0
  153.3764  143.2661  158.8605 H   0  0  0  0  0  0  0  0  0  0  0  0
  152.9009  142.9336  160.5025 H   0  0  0  0  0  0  0  0  0  0  0  0
  153.2120  140.8554  158.5030 H   0  0  0  0  0  0  0  0  0  0  0  0
  152.6432  140.6252  160.1412 H   0  0  0  0  0  0  0  0  0  0  0  0
  151.9615  138.7363  158.6399 H   0  0  0  0  0  0  0  0  0  0  0  0
  150.5610  139.5459  159.3202 H   0  0  0  0  0  0  0  0  0  0  0  0
  149.3433  141.1267  157.8885 H   0  0  0  0  0  0  0  0  0  0  0  0
  150.2408  142.2439  155.3589 H   0  0  0  0  0  0  0  0  0  0  0  0
  150.0681  140.5053  155.1812 H   0  0  0  0  0  0  0  0  0  0  0  0
  147.8790  141.0533  156.4912 H   0  0  0  0  0  0  0  0  0  0  0  0
  147.1517  141.8166  153.9620 H   0  0  0  0  0  0  0  0  0  0  0  0
  148.5069  140.7136  153.7941 H   0  0  0  0  0  0  0  0  0  0  0  0
  147.2050  139.2168  155.5505 H   0  0  0  0  0  0  0  0  0  0  0  0
  144.9112  140.2260  154.4503 H   0  0  0  0  0  0  0  0  0  0  0  0
  145.8024  139.2921  152.8714 H   0  0  0  0  0  0  0  0  0  0  0  0
  147.4914  138.8598  152.9159 H   0  0  0  0  0  0  0  0  0  0  0  0
  146.9512  137.4059  155.8619 H   0  0  0  0  0  0  0  0  0  0  0  0
  144.7402  133.3989  154.0157 H   0  0  0  0  0  0  0  0  0  0  0  0
  144.1661  132.6457  150.6620 H   0  0  0  0  0  0  0  0  0  0  0  0
  142.6145  133.2193  151.2922 H   0  0  0  0  0  0  0  0  0  0  0  0
  143.6612  132.2169  152.2952 H   0  0  0  0  0  0  0  0  0  0  0  0
  144.0620  136.4079  149.3665 H   0  0  0  0  0  0  0  0  0  0  0  0
  142.8576  135.2048  149.8220 H   0  0  0  0  0  0  0  0  0  0  0  0
  144.4446  134.6924  149.2295 H   0  0  0  0  0  0  0  0  0  0  0  0
  145.1863  137.4595  151.1545 H   0  0  0  0  0  0  0  0  0  0  0  0
  150.5733  143.2606  157.6558 H   0  0  0  0  0  0  0  0  0  0  0  0
  151.9741  142.4294  157.0192 H   0  0  0  0  0  0  0  0  0  0  0  0
  148.0839  142.5166  155.7797 H   0  0  0  0  0  0  0  0  0  0  0  0
  1  2  1  0  0  0  0
  1 26  1  0  0  0  0
  1 27  1  0  0  0  0
  1 28  1  0  0  0  0
  2  3  1  0  0  0  0
  2 29  1  0  0  0  0
  2 30  1  0  0  0  0
  3 25  1  0  0  0  0
  3  4  1  0  0  0  0
  4  5  1  0  0  0  0
  4 31  1  0  0  0  0
  4 32  1  0  0  0  0
  5  6  1  0  0  0  0
  5 33  1  0  0  0  0
  5 34  1  0  0  0  0
  6  7  1  0  0  0  0
  7  8  1  0  0  0  0
  7 25  1  0  0  0  0
  7 35  1  0  0  0  0
  8  9  1  0  0  0  0
  8 36  1  0  0  0  0
  8 37  1  0  0  0  0
  9 10  1  0  0  0  0
  9 38  1  0  0  0  0
  9 56  1  0  0  0  0
 10 11  1  0  0  0  0
 10 39  1  0  0  0  0
 10 40  1  0  0  0  0
 11 12  1  0  0  0  0
 11 13  1  0  0  0  0
 11 41  1  0  0  0  0
 12 42  1  0  0  0  0
 13 14  1  0  0  0  0
 13 43  1  0  0  0  0
 13 44  1  0  0  0  0
 14 24  1  0  0  0  0
 14 15  1  0  0  0  0
 15 16  2  0  0  0  0
 15 45  1  0  0  0  0
 16 17  1  0  0  0  0
 17 24  2  0  0  0  0
 17 18  1  0  0  0  0
 18 19  2  0  0  0  0
 18 46  1  0  0  0  0
 19 20  1  0  0  0  0
 19 21  1  0  0  0  0
 20 47  1  0  0  0  0
 20 48  1  0  0  0  0
 20 49  1  0  0  0  0
 21 22  1  0  0  0  0
 21 23  2  0  0  0  0
 22 50  1  0  0  0  0
 22 51  1  0  0  0  0
 22 52  1  0  0  0  0
 23 24  1  0  0  0  0
 23 53  1  0  0  0  0
 25 54  1  0  0  0  0
 25 55  1  0  0  0  0
M  CHG  1   9   1
M  END
> <s_m_source_file>
AV-unprocessed.smi

> <i_m_source_file_index>
1047

> <i_lp_mmshare_version>
43012

> <i_f3d_flags>
0

> <s_epik_input>
W0NIM11bQ0gyXU4xW0NIMl1bQ0gyXU9bQ0BIXShbQ0gyXTEpW0NIMl1bTkhdW0NIMl1bQ0BIXShbT0hdKVtDSDJdbihbY0hdbjIpYyhjMjMpW2NIXWMoW0NIM10pYyhbY0hdMylbQ0gzXQ==

> <s_epik_cmdline>
J2VwaWtfcHl0aG9uJywgJy1waCcsICc3LjAnLCAnLXRuJywgJzgnLCAnLW1hJywgJzIwMCcsICctbWV0YWxfYmluZGluZycsICctaW1hZScsICc8aW5maWxlLm1hZT4nLCAnLW9tYWUnLCAnPG91dGZpbGUubWFlPic=

> <r_epik_Ionization_Penalty>
0.692425

> <r_epik_Ionization_Penalty_Charging>
0.0243549

> <r_epik_Ionization_Penalty_Neutral>
0.66807

> <r_epik_State_Penalty>
0.592789

> <r_epik_Charging_Adjusted_Penalty>
0.617144

> <i_epik_Tot_Q>
1

> <i_epik_Tot_abs_Q>
1

> <r_epik_Metal_State_Penalty>
0.508021

> <b_epik_Metal_Only>
0

> <s_lp_Force_Field>
OPLS_2005

> <r_lp_Energy>
28.1656

> <b_lp_Chiralities_Consistent>
1

> <s_lp_Variant>
AV-unprocessed.smi:1047-12

> <Gold.Version>
5.8.1

> <Gold.Id.Protein>
6NUR|6NUR_protein|mol2

> <Gold.PLP.Fitness>
46.0327

> <Gold.PLP.PLP>
-40.9407

> <Gold.PLP.part.hbond>
-2.0000

> <Gold.PLP.part.metal>
0.0000

> <Gold.PLP.part.buried>
-2.6776

> <Gold.PLP.part.nonpolar>
-36.4424

> <Gold.PLP.part.repulsive>
0.2098

> <Gold.PLP.ligand.clash>
0.0000

> <Gold.PLP.ligand.torsion>
2.1167

> <Gold.PLP.Chemscore.Hbond>
2.9840

> <Gold.PLP.Chemscore.CHOScore>
0.0000

> <Gold.PLP.Chemscore.Metal>
0.0000

> <Gold.Chemscore.Hbonds>
donor molecule, donor type, donor heavy atom, donor atom, acceptor molecule, acceptor atom, score
      L1  H     9    56       P1  8028  0.47
      L1  H    12    42       P1 10175  0.24

> <Gold.PLP.Chemscore.Internal.Correction>
0.3734

> <Gold.Rescore>
     Score         DG    S(hbond)    S(metal)    S(lipo)     H(rot)  DE(clash)    DE(int)     intcor
     16.30     -18.76       1.86        0.00     117.43       2.60       0.24       2.22       ----

> <Gold.Chemscore.Fitness>
16.2957

> <Gold.Chemscore.DG>
-18.7606

> <Gold.Chemscore.ZeroCoef>
-5.4800

> <Gold.Chemscore.Hbond>
1.8591

> <Gold.Chemscore.Metal>
0.0000

> <Gold.Chemscore.Lipo>
117.4334

> <Gold.Chemscore.Internal_Hbond>
0.0000

> <Gold.Chemscore.DEClash>
0.2446

> <Gold.Chemscore.DEInternal>
2.2203

> <Gold.Chemscore.Rot>
2.6049

> <Gold.Chemscore.Internal.Correction>
   9.000000E+99

> <Gold.Chemscore.Hbonds>
donor molecule, donor type, donor heavy atom, donor atom, acceptor molecule, acceptor atom, score
      L1  H     9    56       P1  8028  0.21
      L1  H    12    42       P1 10175  0.25

> <Gold.Chemscore.Hbond.Weighted>
-6.2094

> <Gold.Chemscore.Metal.Weighted>
-0.0000

> <Gold.Chemscore.Lipo.Weighted>
-13.7397

> <Gold.Chemscore.Internal_Hbond.Weighted>
0.0000

> <Gold.Chemscore.DEClash.Weighted>
0.2446

> <Gold.Chemscore.DEInternal.Weighted>
2.2203

> <Gold.Chemscore.Rot.Weighted>
6.6685

> <Gold.Chemscore.Internal.Correction.Weighted>
   9.000000E+99

> <Gold.Protein.RotatedTorsions>
[ 6907 6896 6895 6894 ] final  -57.39 input  -60.11 | X-H torsion
[ 7974 7965 7964 7962 ] final  -88.94 input  175.53 | X-H torsion
[ 8008 7997 7996 7995 ] final  127.38 input   59.86 | X-H torsion
[ 10167 10162 10161 10158 ] final -171.83 input  -65.29 | X-H torsion
[ 10718 10713 10712 10709 ] final   33.99 input   66.30 | X-H torsion
[ 10763 10752 10751 10750 ] final -176.90 input  -60.55 | X-H torsion
[ 11005 11000 10999 10996 ] final  -37.73 input  -57.11 | X-H torsion

> <Gold.Protein.ActiveResidues>
 VAL166  LYS551  ARG553  GLY616  TRP617  ASP618  TYR619  PRO620  LYS621  CYS622 
 ASP623  PHE694  ASN695  SER759  ASP760  ASP761  ALA762  ILE779  LEU786  VAL792 
 PHE793  MET794  SER795  GLU796  ALA797  LYS798  CYS799  TRP800  GLU811  SER814 

> <Gold.Protein.RotatedAtoms>
  150.8089  134.7232  159.6669 H   0  0  0  0  0  0  0  0  0  0  0  0  # atno 6907 bound_to 6896
  152.4209  134.5953  159.9995 H   0  0  0  0  0  0  0  0  0  0  0  0  # atno 6908 bound_to 6896
  151.6168  133.3305  159.3115 H   0  0  0  0  0  0  0  0  0  0  0  0  # atno 6909 bound_to 6896
  145.4465  140.9560  143.2046 H   0  0  0  0  0  0  0  0  0  0  0  0  # atno 7974 bound_to 7965
  156.2889  140.2670  156.2263 H   0  0  0  0  0  0  0  0  0  0  0  0  # atno 8008 bound_to 7997
  155.0117  140.0387  157.2420 H   0  0  0  0  0  0  0  0  0  0  0  0  # atno 8009 bound_to 7997
  154.7512  140.2743  155.6296 H   0  0  0  0  0  0  0  0  0  0  0  0  # atno 8010 bound_to 7997
  139.5780  144.1489  152.1476 H   0  0  0  0  0  0  0  0  0  0  0  0  # atno 10167 bound_to 10162
  157.3048  130.7369  149.6689 H   0  0  0  0  0  0  0  0  0  0  0  0  # atno 10718 bound_to 10713
  154.5667  135.2824  155.0867 H   0  0  0  0  0  0  0  0  0  0  0  0  # atno 10763 bound_to 10752
  154.2255  135.6383  153.5162 H   0  0  0  0  0  0  0  0  0  0  0  0  # atno 10764 bound_to 10752
  153.0045  135.5524  154.6278 H   0  0  0  0  0  0  0  0  0  0  0  0  # atno 10765 bound_to 10752
  140.9974  133.6973  156.1959 H   0  0  0  0  0  0  0  0  0  0  0  0  # atno 11005 bound_to 11000
  144.8088  139.6000  143.7038 LP  0  0  0  0  0  0  0  0  0  0  0  0  # atno 17320 bound_to 7965
  146.2528  139.6236  142.9415 LP  0  0  0  0  0  0  0  0  0  0  0  0  # atno 17321 bound_to 7965
  140.1036  144.5518  150.6972 LP  0  0  0  0  0  0  0  0  0  0  0  0  # atno 17342 bound_to 10162
  140.7061  143.2469  151.4723 LP  0  0  0  0  0  0  0  0  0  0  0  0  # atno 17343 bound_to 10162
  155.9674  130.4269  150.4719 LP  0  0  0  0  0  0  0  0  0  0  0  0  # atno 17370 bound_to 10713
  157.2707  131.0586  151.2261 LP  0  0  0  0  0  0  0  0  0  0  0  0  # atno 17371 bound_to 10713
  140.6944  134.4631  157.5588 LP  0  0  0  0  0  0  0  0  0  0  0  0  # atno 17394 bound_to 11000
  139.9021  134.8531  156.1852 LP  0  0  0  0  0  0  0  0  0  0  0  0  # atno 17395 bound_to 11000

$$$$
