AV-unprocessed.smi:3237|AV-procd|sdf|12374|dock7
  -GOLD-   2272018233D 1   1.00000     0.00000
 Structure written by MMmdl.
 36 38  0  0  0  0  0  0  0  0  3 V2000
  149.4111  133.7631  154.7852 C   0  0  0  0  0  0  0  0  0  0  0  0
  149.7192  135.1589  155.2061 C   0  0  0  0  0  0  0  0  0  0  0  0
  150.7929  135.7257  155.8328 C   0  0  0  0  0  0  0  0  0  0  0  0
  150.4257  137.0947  155.9248 C   0  0  0  0  0  0  0  0  0  0  0  0
  151.2979  138.0388  156.5289 N   0  0  0  0  0  0  0  0  0  0  0  0
  151.7503  139.2058  156.0347 C   0  0  0  0  0  0  0  0  0  0  0  0
  151.4004  139.5853  154.9112 O   0  0  0  0  0  0  0  0  0  0  0  0
  152.5851  139.8427  156.9019 N   0  5  0  0  0  0  0  0  0  0  0  0
  152.2915  140.1030  158.3124 C   0  0  1  0  0  0  0  0  0  0  0  0
  153.4197  139.6182  159.2240 C   0  0  0  0  0  0  0  0  0  0  0  0
  153.3308  140.5302  160.4561 C   0  0  0  0  0  0  0  0  0  0  0  0
  152.4939  141.6902  160.0681 N   0  3  1  0  0  0  0  0  0  0  0  0
  153.0174  142.9978  160.5185 C   0  0  0  0  0  0  0  0  0  0  0  0
  152.1077  143.7061  161.4935 C   0  0  0  0  0  0  0  0  0  0  0  0
  152.1899  144.1731  160.0563 C   0  0  0  0  0  0  0  0  0  0  0  0
  152.2564  141.6000  158.6139 C   0  0  0  0  0  0  0  0  0  0  0  0
  149.2342  137.3402  155.4002 N   0  0  0  0  0  0  0  0  0  0  0  0
  148.7754  136.1012  154.9376 O   0  0  0  0  0  0  0  0  0  0  0  0
  150.2606  133.1046  154.9674 H   0  0  0  0  0  0  0  0  0  0  0  0
  149.1749  133.7229  153.7218 H   0  0  0  0  0  0  0  0  0  0  0  0
  148.5562  133.3730  155.3376 H   0  0  0  0  0  0  0  0  0  0  0  0
  151.6953  135.2380  156.1702 H   0  0  0  0  0  0  0  0  0  0  0  0
  151.6255  137.7990  157.4527 H   0  0  0  0  0  0  0  0  0  0  0  0
  151.3545  139.6608  158.6549 H   0  0  0  0  0  0  0  0  0  0  0  0
  153.3260  138.5618  159.4774 H   0  0  0  0  0  0  0  0  0  0  0  0
  154.3897  139.7584  158.7434 H   0  0  0  0  0  0  0  0  0  0  0  0
  152.8588  140.0211  161.2979 H   0  0  0  0  0  0  0  0  0  0  0  0
  154.3275  140.8370  160.7776 H   0  0  0  0  0  0  0  0  0  0  0  0
  154.0990  143.0827  160.6090 H   0  0  0  0  0  0  0  0  0  0  0  0
  151.1954  143.2014  161.8071 H   0  0  0  0  0  0  0  0  0  0  0  0
  152.5747  144.3342  162.2495 H   0  0  0  0  0  0  0  0  0  0  0  0
  152.7092  145.1105  159.8668 H   0  0  0  0  0  0  0  0  0  0  0  0
  151.3331  143.9780  159.4137 H   0  0  0  0  0  0  0  0  0  0  0  0
  153.0572  142.1179  158.0817 H   0  0  0  0  0  0  0  0  0  0  0  0
  151.3093  142.0620  158.3337 H   0  0  0  0  0  0  0  0  0  0  0  0
  151.5958  141.5484  160.5077 H   0  0  0  0  0  0  0  0  0  0  0  0
  1  2  1  0  0  0  0
  1 19  1  0  0  0  0
  1 20  1  0  0  0  0
  1 21  1  0  0  0  0
  2 18  1  0  0  0  0
  2  3  2  0  0  0  0
  3  4  1  0  0  0  0
  3 22  1  0  0  0  0
  4  5  1  0  0  0  0
  4 17  2  0  0  0  0
  5  6  1  0  0  0  0
  5 23  1  0  0  0  0
  6  7  2  0  0  0  0
  6  8  1  0  0  0  0
  8  9  1  0  0  0  0
  9 16  1  0  0  0  0
  9 10  1  0  0  0  0
  9 24  1  0  0  0  0
 10 11  1  0  0  0  0
 10 25  1  0  0  0  0
 10 26  1  0  0  0  0
 11 12  1  0  0  0  0
 11 27  1  0  0  0  0
 11 28  1  0  0  0  0
 12 13  1  0  0  0  0
 12 16  1  0  0  0  0
 12 36  1  0  0  0  0
 13 15  1  0  0  0  0
 13 14  1  0  0  0  0
 13 29  1  0  0  0  0
 14 15  1  0  0  0  0
 14 30  1  0  0  0  0
 14 31  1  0  0  0  0
 15 32  1  0  0  0  0
 15 33  1  0  0  0  0
 16 34  1  0  0  0  0
 16 35  1  0  0  0  0
 17 18  1  0  0  0  0
M  CHG  1   8  -1
M  CHG  1  12   1
M  END
> <s_m_source_file>
AV-unprocessed.smi

> <i_m_source_file_index>
3237

> <i_lp_mmshare_version>
43012

> <i_f3d_flags>
0

> <s_epik_input>
W0NIM11jMVtjSF1jKG5vMSlbTkhdQyg9TylbTkhdW0NAQEhdMltDSDJdW0NIMl1OKFtDSDJdMilbQ0hdM1tDSDJdW0NIMl0z

> <s_epik_cmdline>
J2VwaWtfcHl0aG9uJywgJy1waCcsICc3LjAnLCAnLXRuJywgJzgnLCAnLW1hJywgJzIwMCcsICctbWV0YWxfYmluZGluZycsICctaW1hZScsICc8aW5maWxlLm1hZT4nLCAnLW9tYWUnLCAnPG91dGZpbGUubWFlPic=

> <r_epik_Ionization_Penalty>
6.76456

> <r_epik_Ionization_Penalty_Charging>
6.76456

> <r_epik_Ionization_Penalty_Neutral>
5.76722e-06

> <r_epik_State_Penalty>
6.78919

> <r_epik_Charging_Adjusted_Penalty>
13.5538

> <i_epik_Tot_Q>
0

> <i_epik_Tot_abs_Q>
2

> <r_epik_Metal_State_Penalty>
2.728

> <b_epik_Metal_Only>
1

> <s_lp_Force_Field>
OPLS_2005

> <r_lp_Energy>
31.1689

> <b_lp_Chiralities_Consistent>
1

> <s_lp_Variant>
AV-unprocessed.smi:3237-12

> <Gold.Version>
5.8.1

> <Gold.Id.Protein>
6NUR|6NUR_protein|mol2

> <Gold.PLP.Fitness>
38.4334

> <Gold.PLP.PLP>
-31.5775

> <Gold.PLP.part.hbond>
-2.0000

> <Gold.PLP.part.metal>
0.0000

> <Gold.PLP.part.buried>
-4.1105

> <Gold.PLP.part.nonpolar>
-25.2674

> <Gold.PLP.part.repulsive>
0.4352

> <Gold.PLP.ligand.clash>
0.0000

> <Gold.PLP.ligand.torsion>
1.7151

> <Gold.PLP.Chemscore.Hbond>
3.0000

> <Gold.PLP.Chemscore.CHOScore>
0.0000

> <Gold.PLP.Chemscore.Metal>
0.0000

> <Gold.Chemscore.Hbonds>
donor molecule, donor type, donor heavy atom, donor atom, acceptor molecule, acceptor atom, score
      P1  H  7989  7998       L1     7  1.00
      P1  H  7997  8008       L1     8  2.00

> <Gold.PLP.Chemscore.Internal.Correction>
1.2861

> <Gold.Rescore>
     Score         DG    S(hbond)    S(metal)    S(lipo)     H(rot)  DE(clash)    DE(int)     intcor
     16.42     -18.14       1.85        0.00      82.73       1.25       0.04       1.68       ----

> <Gold.Chemscore.Fitness>
16.4159

> <Gold.Chemscore.DG>
-18.1433

> <Gold.Chemscore.ZeroCoef>
-5.4800

> <Gold.Chemscore.Hbond>
1.8489

> <Gold.Chemscore.Metal>
0.0000

> <Gold.Chemscore.Lipo>
82.7257

> <Gold.Chemscore.Internal_Hbond>
0.0000

> <Gold.Chemscore.DEClash>
0.0442

> <Gold.Chemscore.DEInternal>
1.6831

> <Gold.Chemscore.Rot>
1.2464

> <Gold.Chemscore.Internal.Correction>
   9.000000E+99

> <Gold.Chemscore.Hbonds>
donor molecule, donor type, donor heavy atom, donor atom, acceptor molecule, acceptor atom, score
      P1  H  7989  7998       L1     7  1.00
      P1  H  7997  8008       L1     8  0.87

> <Gold.Chemscore.Hbond.Weighted>
-6.1752

> <Gold.Chemscore.Metal.Weighted>
-0.0000

> <Gold.Chemscore.Lipo.Weighted>
-9.6789

> <Gold.Chemscore.Internal_Hbond.Weighted>
0.0000

> <Gold.Chemscore.DEClash.Weighted>
0.0442

> <Gold.Chemscore.DEInternal.Weighted>
1.6831

> <Gold.Chemscore.Rot.Weighted>
3.1909

> <Gold.Chemscore.Internal.Correction.Weighted>
   9.000000E+99

> <Gold.Protein.RotatedTorsions>
[ 6907 6896 6895 6894 ] final  -34.49 input  -60.11 | X-H torsion
[ 7974 7965 7964 7962 ] final  120.86 input  175.53 | X-H torsion
[ 8008 7997 7996 7995 ] final  -46.31 input   59.86 | X-H torsion
[ 10167 10162 10161 10158 ] final   46.02 input  -65.29 | X-H torsion
[ 10718 10713 10712 10709 ] final  -49.33 input   66.30 | X-H torsion
[ 10763 10752 10751 10750 ] final  -48.73 input  -60.55 | X-H torsion
[ 11005 11000 10999 10996 ] final  -30.51 input  -57.11 | X-H torsion

> <Gold.Protein.ActiveResidues>
 VAL166  LYS551  ARG553  GLY616  TRP617  ASP618  TYR619  PRO620  LYS621  CYS622 
 ASP623  PHE694  ASN695  SER759  ASP760  ASP761  ALA762  ILE779  LEU786  VAL792 
 PHE793  MET794  SER795  GLU796  ALA797  LYS798  CYS799  TRP800  GLU811  SER814 

> <Gold.Protein.RotatedAtoms>
  151.0519  134.9679  159.8215 H   0  0  0  0  0  0  0  0  0  0  0  0  # atno 6907 bound_to 6896
  152.5382  134.2526  159.8914 H   0  0  0  0  0  0  0  0  0  0  0  0  # atno 6908 bound_to 6896
  151.2542  133.4292  159.2646 H   0  0  0  0  0  0  0  0  0  0  0  0  # atno 6909 bound_to 6896
  145.1261  139.3357  143.4689 H   0  0  0  0  0  0  0  0  0  0  0  0  # atno 7974 bound_to 7965
  154.4006  140.1375  156.3990 H   0  0  0  0  0  0  0  0  0  0  0  0  # atno 8008 bound_to 7997
  155.7842  140.3480  155.5293 H   0  0  0  0  0  0  0  0  0  0  0  0  # atno 8009 bound_to 7997
  155.8644  140.0961  157.1583 H   0  0  0  0  0  0  0  0  0  0  0  0  # atno 8010 bound_to 7997
  140.3182  144.2738  150.6187 H   0  0  0  0  0  0  0  0  0  0  0  0  # atno 10167 bound_to 10162
  156.1903  130.4152  149.9380 H   0  0  0  0  0  0  0  0  0  0  0  0  # atno 10718 bound_to 10713
  154.0826  135.6589  153.4840 H   0  0  0  0  0  0  0  0  0  0  0  0  # atno 10763 bound_to 10752
  153.0350  135.5183  154.7459 H   0  0  0  0  0  0  0  0  0  0  0  0  # atno 10764 bound_to 10752
  154.6558  135.3008  154.9897 H   0  0  0  0  0  0  0  0  0  0  0  0  # atno 10765 bound_to 10752
  140.9389  133.7291  156.1046 H   0  0  0  0  0  0  0  0  0  0  0  0  # atno 11005 bound_to 11000
  146.3517  140.1241  142.8599 LP  0  0  0  0  0  0  0  0  0  0  0  0  # atno 17320 bound_to 7965
  145.0686  140.9139  143.4895 LP  0  0  0  0  0  0  0  0  0  0  0  0  # atno 17321 bound_to 7965
  140.5508  143.2207  151.7931 LP  0  0  0  0  0  0  0  0  0  0  0  0  # atno 17342 bound_to 10162
  139.4879  144.4479  151.9688 LP  0  0  0  0  0  0  0  0  0  0  0  0  # atno 17343 bound_to 10162
  156.7122  130.8974  151.3610 LP  0  0  0  0  0  0  0  0  0  0  0  0  # atno 17370 bound_to 10713
  157.6925  130.9248  150.0553 LP  0  0  0  0  0  0  0  0  0  0  0  0  # atno 17371 bound_to 10713
  140.7761  134.3778  157.5497 LP  0  0  0  0  0  0  0  0  0  0  0  0  # atno 17394 bound_to 11000
  139.8815  134.9053  156.2896 LP  0  0  0  0  0  0  0  0  0  0  0  0  # atno 17395 bound_to 11000

$$$$
