AV-unprocessed.smi:764|AV-procd|sdf|3642|dock9
  -GOLD-   22720 1 43D 1   1.00000     0.00000
 Structure written by MMmdl.
 37 37  0  0  0  0  0  0  0  0  2 V2000
  150.2448  137.3652  154.9243 C   0  0  0  0  0  0  0  0  0  0  0  0
  150.3328  138.7207  154.2095 C   0  0  0  0  0  0  0  0  0  0  0  0
  150.3758  139.8894  155.2031 C   0  0  0  0  0  0  0  0  0  0  0  0
  149.1871  138.8812  153.3175 N   0  0  0  0  0  0  0  0  0  0  0  0
  147.9002  138.9645  153.6904 C   0  0  0  0  0  0  0  0  0  0  0  0
  147.5257  138.9140  154.8620 O   0  0  0  0  0  0  0  0  0  0  0  0
  146.8803  139.1387  152.5614 C   0  0  0  0  0  0  0  0  0  0  0  0
  145.8866  137.9682  152.4690 C   0  0  0  0  0  0  0  0  0  0  0  0
  146.2664  137.0410  151.3853 N   0  3  0  0  0  0  0  0  0  0  0  0
  145.3477  135.8984  151.2186 C   0  0  0  0  0  0  0  0  0  0  0  0
  146.1239  134.5752  151.1644 C   0  0  0  0  0  0  0  0  0  0  0  0
  145.2581  133.4571  150.8457 N   0  0  0  0  0  0  0  0  0  0  0  0
  145.5832  132.1208  150.7429 C   0  0  0  0  0  0  0  0  0  0  0  0
  144.4392  131.4492  150.4191 C   0  0  0  0  0  0  0  0  0  0  0  0
  143.4546  132.4739  150.3450 C   0  0  0  0  0  0  0  0  0  0  0  0
  143.9480  133.6747  150.6029 N   0  0  0  0  0  0  0  0  0  0  0  0
  151.0920  137.2203  155.5951 H   0  0  0  0  0  0  0  0  0  0  0  0
  150.2477  136.5424  154.2085 H   0  0  0  0  0  0  0  0  0  0  0  0
  149.3336  137.2871  155.5186 H   0  0  0  0  0  0  0  0  0  0  0  0
  151.2627  138.7393  153.6388 H   0  0  0  0  0  0  0  0  0  0  0  0
  151.2296  139.8003  155.8753 H   0  0  0  0  0  0  0  0  0  0  0  0
  149.4738  139.9264  155.8148 H   0  0  0  0  0  0  0  0  0  0  0  0
  150.4658  140.8436  154.6830 H   0  0  0  0  0  0  0  0  0  0  0  0
  149.3948  138.9394  152.3309 H   0  0  0  0  0  0  0  0  0  0  0  0
  146.3427  140.0736  152.7241 H   0  0  0  0  0  0  0  0  0  0  0  0
  147.4113  139.2425  151.6136 H   0  0  0  0  0  0  0  0  0  0  0  0
  145.8607  137.4203  153.4124 H   0  0  0  0  0  0  0  0  0  0  0  0
  144.8776  138.3394  152.2819 H   0  0  0  0  0  0  0  0  0  0  0  0
  146.2958  137.5569  150.5173 H   0  0  0  0  0  0  0  0  0  0  0  0
  144.6392  135.8817  152.0480 H   0  0  0  0  0  0  0  0  0  0  0  0
  144.7707  136.0352  150.3030 H   0  0  0  0  0  0  0  0  0  0  0  0
  146.9154  134.6257  150.4151 H   0  0  0  0  0  0  0  0  0  0  0  0
  146.6067  134.3770  152.1223 H   0  0  0  0  0  0  0  0  0  0  0  0
  146.5891  131.7624  150.9055 H   0  0  0  0  0  0  0  0  0  0  0  0
  144.3232  130.3876  150.2579 H   0  0  0  0  0  0  0  0  0  0  0  0
  142.4038  132.3819  150.1127 H   0  0  0  0  0  0  0  0  0  0  0  0
  147.1902  136.6827  151.5809 H   0  0  0  0  0  0  0  0  0  0  0  0
  1  2  1  0  0  0  0
  1 17  1  0  0  0  0
  1 18  1  0  0  0  0
  1 19  1  0  0  0  0
  2  3  1  0  0  0  0
  2  4  1  0  0  0  0
  2 20  1  0  0  0  0
  3 21  1  0  0  0  0
  3 22  1  0  0  0  0
  3 23  1  0  0  0  0
  4  5  1  0  0  0  0
  4 24  1  0  0  0  0
  5  6  2  0  0  0  0
  5  7  1  0  0  0  0
  7  8  1  0  0  0  0
  7 25  1  0  0  0  0
  7 26  1  0  0  0  0
  8  9  1  0  0  0  0
  8 27  1  0  0  0  0
  8 28  1  0  0  0  0
  9 10  1  0  0  0  0
  9 29  1  0  0  0  0
  9 37  1  0  0  0  0
 10 11  1  0  0  0  0
 10 30  1  0  0  0  0
 10 31  1  0  0  0  0
 11 12  1  0  0  0  0
 11 32  1  0  0  0  0
 11 33  1  0  0  0  0
 12 16  1  0  0  0  0
 12 13  1  0  0  0  0
 13 14  2  0  0  0  0
 13 34  1  0  0  0  0
 14 15  1  0  0  0  0
 14 35  1  0  0  0  0
 15 16  2  0  0  0  0
 15 36  1  0  0  0  0
M  CHG  1   9   1
M  END
> <s_m_source_file>
AV-unprocessed.smi

> <i_m_source_file_index>
764

> <i_lp_mmshare_version>
43012

> <i_f3d_flags>
0

> <s_epik_input>
W0NIM11bQ0hdKFtDSDNdKVtOSF1DKD1PKVtDSDJdW0NIMl1bTkhdW0NIMl1bQ0gyXW4xW2NIXVtjSF1bY0hdbjE=

> <s_epik_cmdline>
J2VwaWtfcHl0aG9uJywgJy1waCcsICc3LjAnLCAnLXRuJywgJzgnLCAnLW1hJywgJzIwMCcsICctbWV0YWxfYmluZGluZycsICctaW1hZScsICc8aW5maWxlLm1hZT4nLCAnLW9tYWUnLCAnPG91dGZpbGUubWFlPic=

> <r_lp_tautomer_probability>
1

> <r_epik_Ionization_Penalty>
0.00578048

> <r_epik_Ionization_Penalty_Charging>
0.00577767

> <r_epik_Ionization_Penalty_Neutral>
2.80872e-06

> <r_epik_State_Penalty>
-0

> <r_epik_Charging_Adjusted_Penalty>
0.00577767

> <i_epik_Tot_Q>
1

> <i_epik_Tot_abs_Q>
1

> <r_epik_Metal_State_Penalty>
-0

> <b_epik_Metal_Only>
0

> <s_lp_Force_Field>
OPLS_2005

> <r_lp_Energy>
3.7627

> <b_lp_Chiralities_Consistent>
1

> <s_lp_Variant>
AV-unprocessed.smi:764-1

> <Gold.Version>
5.8.1

> <Gold.Id.Protein>
6NUR|6NUR_protein|mol2

> <Gold.PLP.Fitness>
47.1385

> <Gold.PLP.PLP>
-32.8033

> <Gold.PLP.part.hbond>
-2.8265

> <Gold.PLP.part.metal>
0.0000

> <Gold.PLP.part.buried>
-3.2838

> <Gold.PLP.part.nonpolar>
-27.4492

> <Gold.PLP.part.repulsive>
0.4521

> <Gold.PLP.ligand.clash>
0.0000

> <Gold.PLP.ligand.torsion>
0.6673

> <Gold.PLP.Chemscore.Hbond>
2.8564

> <Gold.PLP.Chemscore.CHOScore>
2.3092

> <Gold.PLP.Chemscore.Metal>
0.0000

> <Gold.Chemscore.Hbonds>
donor molecule, donor type, donor heavy atom, donor atom, acceptor molecule, acceptor atom, score
      L1  H     4    24       P1  7957  0.85
      L1  H     9    37       P1  7948  2.00
      L1  C    13    34       P1 10747  0.76
      L1  C    15    36       P1 10186  0.83
      L1  C    15    36       P1 10952  0.77

> <Gold.PLP.Chemscore.Internal.Correction>
0.1729

> <Gold.Rescore>
     Score         DG    S(hbond)    S(metal)    S(lipo)     H(rot)  DE(clash)    DE(int)     intcor
     13.15     -14.74       1.99        0.00      74.31       2.37       0.07       1.53       ----

> <Gold.Chemscore.Fitness>
13.1469

> <Gold.Chemscore.DG>
-14.7416

> <Gold.Chemscore.ZeroCoef>
-5.4800

> <Gold.Chemscore.Hbond>
1.9893

> <Gold.Chemscore.Metal>
0.0000

> <Gold.Chemscore.Lipo>
74.3111

> <Gold.Chemscore.Internal_Hbond>
0.0000

> <Gold.Chemscore.DEClash>
0.0677

> <Gold.Chemscore.DEInternal>
1.5270

> <Gold.Chemscore.Rot>
2.3738

> <Gold.Chemscore.Internal.Correction>
   9.000000E+99

> <Gold.Chemscore.Hbonds>
donor molecule, donor type, donor heavy atom, donor atom, acceptor molecule, acceptor atom, score
      L1  H     4    24       P1  7957  0.70
      L1  H     9    37       P1  7948  1.00

> <Gold.Chemscore.Hbond.Weighted>
-6.6441

> <Gold.Chemscore.Metal.Weighted>
-0.0000

> <Gold.Chemscore.Lipo.Weighted>
-8.6944

> <Gold.Chemscore.Internal_Hbond.Weighted>
0.0000

> <Gold.Chemscore.DEClash.Weighted>
0.0677

> <Gold.Chemscore.DEInternal.Weighted>
1.5270

> <Gold.Chemscore.Rot.Weighted>
6.0769

> <Gold.Chemscore.Internal.Correction.Weighted>
   9.000000E+99

> <Gold.Protein.RotatedTorsions>
[ 6907 6896 6895 6894 ] final  -85.42 input  -60.11 | X-H torsion
[ 7974 7965 7964 7962 ] final  -25.03 input  175.53 | X-H torsion
[ 8008 7997 7996 7995 ] final -160.25 input   59.86 | X-H torsion
[ 10167 10162 10161 10158 ] final   -9.01 input  -65.29 | X-H torsion
[ 10718 10713 10712 10709 ] final  166.61 input   66.30 | X-H torsion
[ 10763 10752 10751 10750 ] final   67.80 input  -60.55 | X-H torsion
[ 11005 11000 10999 10996 ] final   27.80 input  -57.11 | X-H torsion

> <Gold.Protein.ActiveResidues>
 VAL166  LYS551  ARG553  GLY616  TRP617  ASP618  TYR619  PRO620  LYS621  CYS622 
 ASP623  PHE694  ASN695  SER759  ASP760  ASP761  ALA762  ILE779  LEU786  VAL792 
 PHE793  MET794  SER795  GLU796  ALA797  LYS798  CYS799  TRP800  GLU811  SER814 

> <Gold.Protein.RotatedAtoms>
  150.6870  134.3207  159.4784 H   0  0  0  0  0  0  0  0  0  0  0  0  # atno 6907 bound_to 6896
  152.1082  134.9290  160.0576 H   0  0  0  0  0  0  0  0  0  0  0  0  # atno 6908 bound_to 6896
  152.0543  133.3998  159.4427 H   0  0  0  0  0  0  0  0  0  0  0  0  # atno 6909 bound_to 6896
  146.1517  140.4831  142.8608 H   0  0  0  0  0  0  0  0  0  0  0  0  # atno 7974 bound_to 7965
  155.7747  140.0857  157.2090 H   0  0  0  0  0  0  0  0  0  0  0  0  # atno 8008 bound_to 7997
  154.3994  140.1519  156.3039 H   0  0  0  0  0  0  0  0  0  0  0  0  # atno 8009 bound_to 7997
  155.8713  140.3425  155.5826 H   0  0  0  0  0  0  0  0  0  0  0  0  # atno 8010 bound_to 7997
  140.7075  143.5905  150.8898 H   0  0  0  0  0  0  0  0  0  0  0  0  # atno 10167 bound_to 10162
  157.0633  131.0346  151.2639 H   0  0  0  0  0  0  0  0  0  0  0  0  # atno 10718 bound_to 10713
  153.0204  135.5270  154.7036 H   0  0  0  0  0  0  0  0  0  0  0  0  # atno 10763 bound_to 10752
  154.6138  135.2881  155.0405 H   0  0  0  0  0  0  0  0  0  0  0  0  # atno 10764 bound_to 10752
  154.1417  135.6577  153.4996 H   0  0  0  0  0  0  0  0  0  0  0  0  # atno 10765 bound_to 10752
  140.3224  134.2529  155.7715 H   0  0  0  0  0  0  0  0  0  0  0  0  # atno 11005 bound_to 11000
  144.7912  140.6036  143.6540 LP  0  0  0  0  0  0  0  0  0  0  0  0  # atno 17320 bound_to 7965
  145.4807  139.1495  143.3764 LP  0  0  0  0  0  0  0  0  0  0  0  0  # atno 17321 bound_to 7965
  139.9631  143.6141  152.2996 LP  0  0  0  0  0  0  0  0  0  0  0  0  # atno 17342 bound_to 10162
  139.6701  144.7661  151.1799 LP  0  0  0  0  0  0  0  0  0  0  0  0  # atno 17343 bound_to 10162
  157.4937  130.7837  149.7533 LP  0  0  0  0  0  0  0  0  0  0  0  0  # atno 17370 bound_to 10713
  155.9972  130.3901  150.2750 LP  0  0  0  0  0  0  0  0  0  0  0  0  # atno 17371 bound_to 10713
  141.2083  133.7780  157.0065 LP  0  0  0  0  0  0  0  0  0  0  0  0  # atno 17394 bound_to 11000
  140.0930  134.9581  157.1806 LP  0  0  0  0  0  0  0  0  0  0  0  0  # atno 17395 bound_to 11000

$$$$
