AV-unprocessed.smi:763|AV-procd|sdf|3640|dock6
  -GOLD-   22720 1 43D 1   1.00000     0.00000
 Structure written by MMmdl.
 43 44  0  0  0  0  0  0  0  0  2 V2000
  152.8982  139.9343  159.4430 C   0  0  0  0  0  0  0  0  0  0  0  0
  153.5268  138.9348  158.6560 O   0  0  0  0  0  0  0  0  0  0  0  0
  153.8802  137.7651  159.3818 C   0  0  0  0  0  0  0  0  0  0  0  0
  153.5274  136.4821  158.6153 C   0  0  0  0  0  0  0  0  0  0  0  0
  152.1191  136.2872  158.6929 O   0  0  0  0  0  0  0  0  0  0  0  0
  151.4438  135.8254  157.5775 C   0  0  0  0  0  0  0  0  0  0  0  0
  152.1432  135.6900  156.4219 N   0  0  0  0  0  0  0  0  0  0  0  0
  151.4989  135.2391  155.3286 C   0  0  0  0  0  0  0  0  0  0  0  0
  150.1360  134.9003  155.3294 C   0  0  0  0  0  0  0  0  0  0  0  0
  149.4159  135.0415  156.5292 C   0  0  0  0  0  0  0  0  0  0  0  0
  150.0649  135.5156  157.6962 C   0  0  0  0  0  0  0  0  0  0  0  0
  149.4349  135.6729  158.8731 N   0  5  0  0  0  0  0  0  0  0  0  0
  147.8372  135.7911  159.1017 S   0  0  0  0  0  0  0  0  0  0  0  0
  147.4006  137.1956  159.1251 O   0  0  0  0  0  0  0  0  0  0  0  0
  147.0988  134.8921  158.2025 O   0  0  0  0  0  0  0  0  0  0  0  0
  147.6845  135.1277  160.8466 C   0  0  2  0  0  0  0  0  0  0  0  0
  147.0709  133.7060  160.8798 C   0  0  0  0  0  0  0  0  0  0  0  0
  145.5428  133.6669  160.6613 C   0  0  0  0  0  0  0  0  0  0  0  0
  144.7972  134.6648  161.5634 C   0  0  0  0  0  0  0  0  0  0  0  0
  145.3915  136.0803  161.4724 C   0  0  0  0  0  0  0  0  0  0  0  0
  146.8909  136.0466  161.8093 C   0  0  2  0  0  0  0  0  0  0  0  0
  147.4189  137.3546  161.8789 O   0  0  0  0  0  0  0  0  0  0  0  0
  152.6097  140.7695  158.8050 H   0  0  0  0  0  0  0  0  0  0  0  0
  153.5646  140.3226  160.2130 H   0  0  0  0  0  0  0  0  0  0  0  0
  151.9949  139.5520  159.9204 H   0  0  0  0  0  0  0  0  0  0  0  0
  154.9346  137.7799  159.6621 H   0  0  0  0  0  0  0  0  0  0  0  0
  153.3134  137.7836  160.3129 H   0  0  0  0  0  0  0  0  0  0  0  0
  153.8351  136.5835  157.5735 H   0  0  0  0  0  0  0  0  0  0  0  0
  154.0487  135.6253  159.0438 H   0  0  0  0  0  0  0  0  0  0  0  0
  152.0868  135.1455  154.4276 H   0  0  0  0  0  0  0  0  0  0  0  0
  149.6531  134.5411  154.4330 H   0  0  0  0  0  0  0  0  0  0  0  0
  148.3676  134.7831  156.5362 H   0  0  0  0  0  0  0  0  0  0  0  0
  148.7074  135.0669  161.2202 H   0  0  0  0  0  0  0  0  0  0  0  0
  147.5654  133.0633  160.1512 H   0  0  0  0  0  0  0  0  0  0  0  0
  147.2858  133.2658  161.8541 H   0  0  0  0  0  0  0  0  0  0  0  0
  145.2955  133.8611  159.6199 H   0  0  0  0  0  0  0  0  0  0  0  0
  145.1769  132.6587  160.8572 H   0  0  0  0  0  0  0  0  0  0  0  0
  143.7396  134.6863  161.2988 H   0  0  0  0  0  0  0  0  0  0  0  0
  144.8480  134.3209  162.5971 H   0  0  0  0  0  0  0  0  0  0  0  0
  145.2296  136.4952  160.4772 H   0  0  0  0  0  0  0  0  0  0  0  0
  144.8671  136.7363  162.1682 H   0  0  0  0  0  0  0  0  0  0  0  0
  146.9938  135.6417  162.8170 H   0  0  0  0  0  0  0  0  0  0  0  0
  146.8735  137.8656  162.4594 H   0  0  0  0  0  0  0  0  0  0  0  0
  1  2  1  0  0  0  0
  1 23  1  0  0  0  0
  1 24  1  0  0  0  0
  1 25  1  0  0  0  0
  2  3  1  0  0  0  0
  3  4  1  0  0  0  0
  3 26  1  0  0  0  0
  3 27  1  0  0  0  0
  4  5  1  0  0  0  0
  4 28  1  0  0  0  0
  4 29  1  0  0  0  0
  5  6  1  0  0  0  0
  6 11  1  0  0  0  0
  6  7  2  0  0  0  0
  7  8  1  0  0  0  0
  8  9  2  0  0  0  0
  8 30  1  0  0  0  0
  9 10  1  0  0  0  0
  9 31  1  0  0  0  0
 10 11  2  0  0  0  0
 10 32  1  0  0  0  0
 11 12  1  0  0  0  0
 12 13  1  0  0  0  0
 13 14  2  0  0  0  0
 13 15  2  0  0  0  0
 13 16  1  0  0  0  0
 16 21  1  0  0  0  0
 16 17  1  0  0  0  0
 16 33  1  0  0  0  0
 17 18  1  0  0  0  0
 17 34  1  0  0  0  0
 17 35  1  0  0  0  0
 18 19  1  0  0  0  0
 18 36  1  0  0  0  0
 18 37  1  0  0  0  0
 19 20  1  0  0  0  0
 19 38  1  0  0  0  0
 19 39  1  0  0  0  0
 20 21  1  0  0  0  0
 20 40  1  0  0  0  0
 20 41  1  0  0  0  0
 21 22  1  0  0  0  0
 21 42  1  0  0  0  0
 22 43  1  0  0  0  0
M  CHG  1  12  -1
M  END
> <s_m_source_file>
AV-unprocessed.smi

> <i_m_source_file_index>
763

> <i_lp_mmshare_version>
43012

> <i_f3d_flags>
0

> <s_epik_input>
W0NIM11PW0NIMl1bQ0gyXU9jMW5bY0hdW2NIXVtjSF1jMVtOSF1TKD1PKSg9TylbQ0BASF0yW0NIMl1bQ0gyXVtDSDJdW0NIMl1bQ0BIXTJbT0hd

> <s_epik_cmdline>
J2VwaWtfcHl0aG9uJywgJy1waCcsICc3LjAnLCAnLXRuJywgJzgnLCAnLW1hJywgJzIwMCcsICctbWV0YWxfYmluZGluZycsICctaW1hZScsICc8aW5maWxlLm1hZT4nLCAnLW9tYWUnLCAnPG91dGZpbGUubWFlPic=

> <r_epik_Ionization_Penalty>
0.985866

> <r_epik_Ionization_Penalty_Charging>
0.984689

> <r_epik_Ionization_Penalty_Neutral>
0.00117669

> <r_epik_State_Penalty>
1.03185

> <r_epik_Charging_Adjusted_Penalty>
2.01654

> <i_epik_Tot_Q>
-1

> <i_epik_Tot_abs_Q>
1

> <r_epik_Metal_State_Penalty>
0.379327

> <b_epik_Metal_Only>
0

> <s_lp_Force_Field>
OPLS_2005

> <r_lp_Energy>
11.7701

> <b_lp_Chiralities_Consistent>
1

> <s_lp_Variant>
AV-unprocessed.smi:763-7

> <Gold.Version>
5.8.1

> <Gold.Id.Protein>
6NUR|6NUR_protein|mol2

> <Gold.PLP.Fitness>
46.0755

> <Gold.PLP.PLP>
-27.7955

> <Gold.PLP.part.hbond>
-5.8064

> <Gold.PLP.part.metal>
0.0000

> <Gold.PLP.part.buried>
-5.3670

> <Gold.PLP.part.nonpolar>
-16.9565

> <Gold.PLP.part.repulsive>
0.0314

> <Gold.PLP.ligand.clash>
0.0000

> <Gold.PLP.ligand.torsion>
1.7138

> <Gold.PLP.Chemscore.Hbond>
5.8266

> <Gold.PLP.Chemscore.CHOScore>
0.9936

> <Gold.PLP.Chemscore.Metal>
0.0000

> <Gold.Chemscore.Hbonds>
donor molecule, donor type, donor heavy atom, donor atom, acceptor molecule, acceptor atom, score
      P1  H  6896  6908       L1    12  0.60
      P1  H  6896  6909       L1     5  0.17
      P1  H  6931  6943       L1    22  0.83
      P1  H  7997  8010       L1     2  0.55

> <Gold.PLP.Chemscore.Internal.Correction>
1.2470

> <Gold.Rescore>
     Score         DG    S(hbond)    S(metal)    S(lipo)     H(rot)  DE(clash)    DE(int)     intcor
     13.71     -17.34       2.99        0.00      67.32       2.35       0.04       3.59       ----

> <Gold.Chemscore.Fitness>
13.7061

> <Gold.Chemscore.DG>
-17.3359

> <Gold.Chemscore.ZeroCoef>
-5.4800

> <Gold.Chemscore.Hbond>
2.9934

> <Gold.Chemscore.Metal>
0.0000

> <Gold.Chemscore.Lipo>
67.3180

> <Gold.Chemscore.Internal_Hbond>
0.0000

> <Gold.Chemscore.DEClash>
0.0402

> <Gold.Chemscore.DEInternal>
3.5896

> <Gold.Chemscore.Rot>
2.3509

> <Gold.Chemscore.Internal.Correction>
   9.000000E+99

> <Gold.Chemscore.Hbonds>
donor molecule, donor type, donor heavy atom, donor atom, acceptor molecule, acceptor atom, score
      P1  H  6896  6909       L1     5  0.01
      P1  H  6931  6943       L1    22  0.33
      P1  H  7997  8010       L1     2  0.31

> <Gold.Chemscore.Hbond.Weighted>
-9.9980

> <Gold.Chemscore.Metal.Weighted>
-0.0000

> <Gold.Chemscore.Lipo.Weighted>
-7.8762

> <Gold.Chemscore.Internal_Hbond.Weighted>
0.0000

> <Gold.Chemscore.DEClash.Weighted>
0.0402

> <Gold.Chemscore.DEInternal.Weighted>
3.5896

> <Gold.Chemscore.Rot.Weighted>
6.0182

> <Gold.Chemscore.Internal.Correction.Weighted>
   9.000000E+99

> <Gold.Protein.RotatedTorsions>
[ 6907 6896 6895 6894 ] final  168.29 input  -60.11 | X-H torsion
[ 7974 7965 7964 7962 ] final  175.39 input  175.53 | X-H torsion
[ 8008 7997 7996 7995 ] final   23.96 input   59.86 | X-H torsion
[ 10167 10162 10161 10158 ] final   76.11 input  -65.29 | X-H torsion
[ 10718 10713 10712 10709 ] final   55.93 input   66.30 | X-H torsion
[ 10763 10752 10751 10750 ] final  -22.19 input  -60.55 | X-H torsion
[ 11005 11000 10999 10996 ] final   10.11 input  -57.11 | X-H torsion

> <Gold.Protein.ActiveResidues>
 VAL166  LYS551  ARG553  GLY616  TRP617  ASP618  TYR619  PRO620  LYS621  CYS622 
 ASP623  PHE694  ASN695  SER759  ASP760  ASP761  ALA762  ILE779  LEU786  VAL792 
 PHE793  MET794  SER795  GLU796  ALA797  LYS798  CYS799  TRP800  GLU811  SER814 

> <Gold.Protein.RotatedAtoms>
  151.8499  133.3438  159.3669 H   0  0  0  0  0  0  0  0  0  0  0  0  # atno 6907 bound_to 6896
  150.7209  134.5309  159.5709 H   0  0  0  0  0  0  0  0  0  0  0  0  # atno 6908 bound_to 6896
  152.2800  134.7839  160.0449 H   0  0  0  0  0  0  0  0  0  0  0  0  # atno 6909 bound_to 6896
  144.7203  139.9939  143.6440 H   0  0  0  0  0  0  0  0  0  0  0  0  # atno 7974 bound_to 7965
  154.9890  140.3111  155.4914 H   0  0  0  0  0  0  0  0  0  0  0  0  # atno 8008 bound_to 7997
  156.2942  140.2252  156.4934 H   0  0  0  0  0  0  0  0  0  0  0  0  # atno 8009 bound_to 7997
  154.7720  140.0451  157.1047 H   0  0  0  0  0  0  0  0  0  0  0  0  # atno 8010 bound_to 7997
  139.9958  144.5723  150.7779 H   0  0  0  0  0  0  0  0  0  0  0  0  # atno 10167 bound_to 10162
  157.5387  130.8682  149.8791 H   0  0  0  0  0  0  0  0  0  0  0  0  # atno 10718 bound_to 10713
  153.6480  135.6982  153.5218 H   0  0  0  0  0  0  0  0  0  0  0  0  # atno 10763 bound_to 10752
  153.2729  135.4209  155.1004 H   0  0  0  0  0  0  0  0  0  0  0  0  # atno 10764 bound_to 10752
  154.8483  135.3583  154.6025 H   0  0  0  0  0  0  0  0  0  0  0  0  # atno 10765 bound_to 10752
  140.5182  134.0585  155.7837 H   0  0  0  0  0  0  0  0  0  0  0  0  # atno 11005 bound_to 11000
  146.0390  139.3404  143.0709 LP  0  0  0  0  0  0  0  0  0  0  0  0  # atno 17320 bound_to 7965
  145.8359  140.9606  143.0824 LP  0  0  0  0  0  0  0  0  0  0  0  0  # atno 17321 bound_to 7965
  140.7438  143.2851  151.3487 LP  0  0  0  0  0  0  0  0  0  0  0  0  # atno 17342 bound_to 10162
  139.6307  144.0726  152.2474 LP  0  0  0  0  0  0  0  0  0  0  0  0  # atno 17343 bound_to 10162
  156.0479  130.3724  150.1271 LP  0  0  0  0  0  0  0  0  0  0  0  0  # atno 17370 bound_to 10713
  156.9452  130.9757  151.3509 LP  0  0  0  0  0  0  0  0  0  0  0  0  # atno 17371 bound_to 10713
  141.1349  133.9239  157.2456 LP  0  0  0  0  0  0  0  0  0  0  0  0  # atno 17394 bound_to 11000
  139.9620  135.0151  156.9287 LP  0  0  0  0  0  0  0  0  0  0  0  0  # atno 17395 bound_to 11000

$$$$
