#       Name:                AV-unprocessed.smi:109
#       Creating user name   scv26
#       Creation time:       Thu Mar 26 18:03:57 2020


#       File generated by GOLD software.
#

@<TRIPOS>MOLECULE
AV-unprocessed.smi:109
    71    74     1
SMALL
NO_CHARGES


@<TRIPOS>ATOM
      1 ****        -3.3337   2.3298   4.2250 O.3            1 S1                 0.0000
      2 ****        -2.5287   2.1021   3.0887 C.3            1 S1                 0.0000
      3 ****        -3.4176   1.8692   1.8568 C.3            1 S1                 0.0000
      4 ****        -2.6062   1.6500   0.5643 C.3            1 S1                 0.0000
      5 ****        -1.8858   0.3764   0.6257 N.pl3          1 S1                 0.0000
      6 ****        -0.5397   0.2968   0.5266 C.ar           1 S1                 0.0000
      7 ****         0.2301   1.4031   0.3581 N.ar           1 S1                 0.0000
      8 ****         1.5584   1.2884   0.2710 C.ar           1 S1                 0.0000
      9 ****         2.3051   0.1840   0.3272 N.ar           1 S1                 0.0000
     10 ****         1.5382  -0.9324   0.4923 C.ar           1 S1                 0.0000
     11 ****         0.1194  -0.9577   0.5993 C.ar           1 S1                 0.0000
     12 ****        -0.3167  -2.2660   0.7605 N.2            1 S1                 0.0000
     13 ****         0.7837  -2.9692   0.7519 C.2            1 S1                 0.0000
     14 ****         1.9460  -2.2473   0.5930 N.pl3          1 S1                 0.0000
     15 ****         3.3445  -2.7725   0.5490 C.3            1 S1                 0.0000
     16 ****         4.1298  -1.9864   1.3920 O.3            1 S1                 0.0000
     17 ****         5.3837  -1.7239   0.7726 C.3            1 S1                 0.0000
     18 ****         5.9916  -0.4404   1.3576 C.3            1 S1                 0.0000
     19 ****         6.6347  -0.7253   2.5812 O.3            1 S1                 0.0000
     20 ****         5.0018  -1.6019  -0.7037 C.3            1 S1                 0.0000
     21 ****         6.1026  -1.7630  -1.5795 O.3            1 S1                 0.0000
     22 ****         3.9292  -2.6763  -0.8703 C.3            1 S1                 0.0000
     23 ****         4.4754  -3.9207  -1.2712 O.3            1 S1                 0.0000
     24 ****        -3.4752   1.7427  -0.7152 C.3            1 S1                 0.0000
     25 ****        -4.5376   0.6246  -0.8369 C.3            1 S1                 0.0000
     26 ****        -5.3937   0.7932  -2.1030 C.3            1 S1                 0.0000
     27 ****        -4.5202   0.8559  -3.3650 C.3            1 S1                 0.0000
     28 ****        -3.4717   1.9729  -3.2551 C.3            1 S1                 0.0000
     29 ****        -2.6101   1.8045  -1.9935 C.3            1 S1                 0.0000
     30 ****         3.2706  -3.7936   0.9266 H              1 S1                 0.0000
     31 ****         6.0454  -2.5811   0.9143 H              1 S1                 0.0000
     32 ****         4.5613  -0.6218  -0.8869 H              1 S1                 0.0000
     33 ****         3.1683  -2.3778  -1.5932 H              1 S1                 0.0000
     34 ****        -2.7685   2.4614   4.9709 H              1 S1                 0.0000
     35 ****        -1.8767   2.9627   2.9365 H              1 S1                 0.0000
     36 ****        -1.8904   1.2386   3.2781 H              1 S1                 0.0000
     37 ****        -4.0757   1.0186   2.0388 H              1 S1                 0.0000
     38 ****        -4.0661   2.7371   1.7297 H              1 S1                 0.0000
     39 ****        -1.9104   2.4864   0.5117 H              1 S1                 0.0000
     40 ****        -2.4668  -0.4411   0.7454 H              1 S1                 0.0000
     41 ****         2.1002   2.2133   0.1393 H              1 S1                 0.0000
     42 ****         0.7768  -4.0441   0.8609 H              1 S1                 0.0000
     43 ****         6.7443  -0.0386   0.6786 H              1 S1                 0.0000
     44 ****         5.2342   0.3321   1.4956 H              1 S1                 0.0000
     45 ****         5.9864  -1.0390   3.1932 H              1 S1                 0.0000
     46 ****         6.4471  -2.6364  -1.4724 H              1 S1                 0.0000
     47 ****         5.1207  -4.1848  -0.6335 H              1 S1                 0.0000
     48 ****        -4.0131   2.6906  -0.6609 H              1 S1                 0.0000
     49 ****        -4.0547  -0.3528  -0.8602 H              1 S1                 0.0000
     50 ****        -5.1928   0.6248   0.0339 H              1 S1                 0.0000
     51 ****        -6.1035  -0.0306  -2.1837 H              1 S1                 0.0000
     52 ****        -5.9870   1.7050  -2.0241 H              1 S1                 0.0000
     53 ****        -4.0204  -0.1024  -3.5126 H              1 S1                 0.0000
     54 ****        -5.1464   1.0178  -4.2429 H              1 S1                 0.0000
     55 ****        -2.8365   1.9749  -4.1413 H              1 S1                 0.0000
     56 ****        -3.9710   2.9423  -3.2305 H              1 S1                 0.0000
     57 ****        -1.9015   2.6306  -1.9246 H              1 S1                 0.0000
     58 ****        -2.0138   0.8961  -2.0875 H              1 S1                 0.0000
     59 ****        -3.9240   1.5385   4.3844 LP             1 S1                 0.0000
     60 ****        -3.8977   3.1430   4.0815 LP             1 S1                 0.0000
     61 ****        -0.1980   2.3049   0.2992 LP             1 S1                 0.0000
     62 ****         3.3026   0.1756   0.2571 LP             1 S1                 0.0000
     63 ****        -1.2561  -2.5939   0.8602 LP             1 S1                 0.0000
     64 ****         4.2798  -2.4707   2.2540 LP             1 S1                 0.0000
     65 ****         3.6609  -1.1218   1.5727 LP             1 S1                 0.0000
     66 ****         7.0631   0.1046   2.9388 LP             1 S1                 0.0000
     67 ****         7.3334  -1.4268   2.4402 LP             1 S1                 0.0000
     68 ****         6.8104  -1.0920  -1.3582 LP             1 S1                 0.0000
     69 ****         5.8033  -1.6323  -2.5246 LP             1 S1                 0.0000
     70 ****         4.9069  -3.8262  -2.1683 LP             1 S1                 0.0000
     71 ****         3.7499  -4.6071  -1.3209 LP             1 S1                 0.0000
@<TRIPOS>BOND
    1    1    2 1     
    2    1   34 1     
    3    2    3 1     
    4    2   35 1     
    5    2   36 1     
    6    3    4 1     
    7    3   37 1     
    8    3   38 1     
    9    4    5 1     
   10    4   24 1     
   11    4   39 1     
   12    5    6 1     
   13    5   40 1     
   14    6   11 ar    
   15    6    7 ar    
   16    7    8 ar    
   17    8    9 ar    
   18    8   41 1     
   19    9   10 ar    
   20   10   14 1     
   21   10   11 ar    
   22   11   12 1     
   23   12   13 2     
   24   13   14 1     
   25   13   42 1     
   26   14   15 1     
   27   15   30 1     
   28   15   22 1     
   29   15   16 1     
   30   16   17 1     
   31   17   31 1     
   32   17   18 1     
   33   17   20 1     
   34   18   19 1     
   35   18   43 1     
   36   18   44 1     
   37   19   45 1     
   38   20   32 1     
   39   20   21 1     
   40   20   22 1     
   41   21   46 1     
   42   22   33 1     
   43   22   23 1     
   44   23   47 1     
   45   24   29 1     
   46   24   25 1     
   47   24   48 1     
   48   25   26 1     
   49   25   49 1     
   50   25   50 1     
   51   26   27 1     
   52   26   51 1     
   53   26   52 1     
   54   27   28 1     
   55   27   53 1     
   56   27   54 1     
   57   28   29 1     
   58   28   55 1     
   59   28   56 1     
   60   29   57 1     
   61   29   58 1     
   62    1   59 1     
   63    1   60 1     
   64    7   61 1     
   65    9   62 1     
   66   12   63 1     
   67   16   64 1     
   68   16   65 1     
   69   19   66 1     
   70   19   67 1     
   71   21   68 1     
   72   21   69 1     
   73   23   70 1     
   74   23   71 1     
@<TRIPOS>SUBSTRUCTURE
      1 S1             1
@<TRIPOS>SET
LONE_PAIRS      STATIC     ATOMS    <user>   **** ""
13 59 60 61 62 63 64 65 66 67 68 69 70 71
DONOR_HYDROGENS      STATIC     ATOMS    <user>   **** ""
5 34 40 45 46 47
ATOM$BLUE        STATIC     ATOMS    COLORGROUP SYSTEM
13 59 60 61 62 63 64 65 66 67 68 69 70 71
ATOM$RED        STATIC     ATOMS    COLORGROUP SYSTEM
5 34 40 45 46 47
