AV-unprocessed.smi:1995|AV-procd|sdf|8079|dock4
  -GOLD-   2272010293D 1   1.00000     0.00000
 Structure written by MMmdl.
 43 44  0  0  0  0  0  0  0  0  2 V2000
  148.4706  140.6457  155.8684 C   0  0  0  0  0  0  0  0  0  0  0  0
  147.5515  139.4219  155.7030 C   0  0  0  0  0  0  0  0  0  0  0  0
  147.6932  138.6469  154.3569 C   0  0  2  0  0  0  0  0  0  0  0  0
  147.6455  139.6958  153.2147 C   0  0  0  0  0  0  0  0  0  0  0  0
  146.4974  137.6591  154.1822 C   0  0  0  0  0  0  0  0  0  0  0  0
  146.7041  136.6595  153.1342 N   0  0  0  0  0  0  0  0  0  0  0  0
  145.7526  135.8728  152.6099 C   0  0  0  0  0  0  0  0  0  0  0  0
  144.5680  135.9286  152.9408 O   0  0  0  0  0  0  0  0  0  0  0  0
  146.2645  135.0378  151.6891 N   0  0  0  0  0  0  0  0  0  0  0  0
  145.5847  134.0573  150.9199 C   0  0  0  0  0  0  0  0  0  0  0  0
  144.2614  134.0371  150.7225 N   0  0  0  0  0  0  0  0  0  0  0  0
  143.8664  132.9593  149.9258 C   0  0  0  0  0  0  0  0  0  0  0  0
  144.9097  132.1634  149.5223 C   0  0  0  0  0  0  0  0  0  0  0  0
  146.4389  132.7396  150.1303 S   0  0  0  0  0  0  0  0  0  0  0  0
  149.0047  137.9012  154.3308 N   0  3  0  0  0  0  0  0  0  0  0  0
  150.2335  138.7453  154.3445 C   0  0  0  0  0  0  0  0  0  0  0  0
  151.4809  137.8827  154.0955 C   0  0  0  0  0  0  0  0  0  0  0  0
  151.5638  136.8726  155.0911 O   0  0  0  0  0  0  0  0  0  0  0  0
  150.4427  136.0014  155.0504 C   0  0  0  0  0  0  0  0  0  0  0  0
  149.1523  136.7947  155.3187 C   0  0  0  0  0  0  0  0  0  0  0  0
  148.2971  141.1208  156.8342 H   0  0  0  0  0  0  0  0  0  0  0  0
  148.2867  141.3982  155.1019 H   0  0  0  0  0  0  0  0  0  0  0  0
  149.5251  140.3733  155.8280 H   0  0  0  0  0  0  0  0  0  0  0  0
  147.7031  138.7500  156.5474 H   0  0  0  0  0  0  0  0  0  0  0  0
  146.5252  139.7719  155.8174 H   0  0  0  0  0  0  0  0  0  0  0  0
  146.8198  140.3964  153.3444 H   0  0  0  0  0  0  0  0  0  0  0  0
  147.5007  139.2324  152.2386 H   0  0  0  0  0  0  0  0  0  0  0  0
  148.5612  140.2856  153.1667 H   0  0  0  0  0  0  0  0  0  0  0  0
  146.3268  137.1037  155.1038 H   0  0  0  0  0  0  0  0  0  0  0  0
  145.5696  138.1967  153.9869 H   0  0  0  0  0  0  0  0  0  0  0  0
  147.6489  136.5458  152.7968 H   0  0  0  0  0  0  0  0  0  0  0  0
  147.2574  135.1059  151.5216 H   0  0  0  0  0  0  0  0  0  0  0  0
  142.8190  132.8345  149.6943 H   0  0  0  0  0  0  0  0  0  0  0  0
  144.8710  131.2771  148.9063 H   0  0  0  0  0  0  0  0  0  0  0  0
  150.1987  139.5188  153.5799 H   0  0  0  0  0  0  0  0  0  0  0  0
  150.3394  139.2480  155.3057 H   0  0  0  0  0  0  0  0  0  0  0  0
  151.4553  137.4351  153.1005 H   0  0  0  0  0  0  0  0  0  0  0  0
  152.3787  138.4993  154.1450 H   0  0  0  0  0  0  0  0  0  0  0  0
  150.3945  135.4961  154.0844 H   0  0  0  0  0  0  0  0  0  0  0  0
  150.5709  135.2272  155.8073 H   0  0  0  0  0  0  0  0  0  0  0  0
  149.1746  137.1938  156.3330 H   0  0  0  0  0  0  0  0  0  0  0  0
  148.3214  136.0939  155.2661 H   0  0  0  0  0  0  0  0  0  0  0  0
  149.0106  137.4446  153.4300 H   0  0  0  0  0  0  0  0  0  0  0  0
  1  2  1  0  0  0  0
  1 21  1  0  0  0  0
  1 22  1  0  0  0  0
  1 23  1  0  0  0  0
  2  3  1  0  0  0  0
  2 24  1  0  0  0  0
  2 25  1  0  0  0  0
  3  4  1  0  0  0  0
  3  5  1  0  0  0  0
  3 15  1  0  0  0  0
  4 26  1  0  0  0  0
  4 27  1  0  0  0  0
  4 28  1  0  0  0  0
  5  6  1  0  0  0  0
  5 29  1  0  0  0  0
  5 30  1  0  0  0  0
  6  7  1  0  0  0  0
  6 31  1  0  0  0  0
  7  8  2  0  0  0  0
  7  9  1  0  0  0  0
  9 10  1  0  0  0  0
  9 32  1  0  0  0  0
 10 14  1  0  0  0  0
 10 11  2  0  0  0  0
 11 12  1  0  0  0  0
 12 13  2  0  0  0  0
 12 33  1  0  0  0  0
 13 14  1  0  0  0  0
 13 34  1  0  0  0  0
 15 20  1  0  0  0  0
 15 16  1  0  0  0  0
 15 43  1  0  0  0  0
 16 17  1  0  0  0  0
 16 35  1  0  0  0  0
 16 36  1  0  0  0  0
 17 18  1  0  0  0  0
 17 37  1  0  0  0  0
 17 38  1  0  0  0  0
 18 19  1  0  0  0  0
 19 20  1  0  0  0  0
 19 39  1  0  0  0  0
 19 40  1  0  0  0  0
 20 41  1  0  0  0  0
 20 42  1  0  0  0  0
M  CHG  1  15   1
M  END
> <s_m_source_file>
AV-unprocessed.smi

> <i_m_source_file_index>
1995

> <i_lp_mmshare_version>
43012

> <i_f3d_flags>
0

> <s_epik_input>
W0NIMl0xW0NIMl1PW0NIMl1bQ0gyXU4xW0NAQF0oW0NIM10pKFtDSDJdW0NIM10pW0NIMl1bTkhdQyg9TylbTkhdYzJuW2NIXVtjSF1zMg==

> <s_epik_cmdline>
J2VwaWtfcHl0aG9uJywgJy1waCcsICc3LjAnLCAnLXRuJywgJzgnLCAnLW1hJywgJzIwMCcsICctbWV0YWxfYmluZGluZycsICctaW1hZScsICc8aW5maWxlLm1hZT4nLCAnLW9tYWUnLCAnPG91dGZpbGUubWFlPic=

> <r_lp_tautomer_probability>
0.999

> <r_epik_Ionization_Penalty>
0.55406

> <r_epik_Ionization_Penalty_Charging>
0.553838

> <r_epik_Ionization_Penalty_Neutral>
0.000222147

> <r_epik_State_Penalty>
0.564424

> <r_epik_Charging_Adjusted_Penalty>
1.11826

> <i_epik_Tot_Q>
1

> <i_epik_Tot_abs_Q>
1

> <r_epik_Metal_State_Penalty>
0.573776

> <b_epik_Metal_Only>
0

> <s_lp_Force_Field>
OPLS_2005

> <r_lp_Energy>
26.593

> <b_lp_Chiralities_Consistent>
1

> <s_lp_Variant>
AV-unprocessed.smi:1995-4

> <Gold.Version>
5.8.1

> <Gold.Id.Protein>
6NUR|6NUR_protein|mol2

> <Gold.PLP.Fitness>
44.3844

> <Gold.PLP.PLP>
-27.4165

> <Gold.PLP.part.hbond>
-4.0000

> <Gold.PLP.part.metal>
0.0000

> <Gold.PLP.part.buried>
-2.1378

> <Gold.PLP.part.nonpolar>
-22.4172

> <Gold.PLP.part.repulsive>
0.4063

> <Gold.PLP.ligand.clash>
0.0000

> <Gold.PLP.ligand.torsion>
0.4931

> <Gold.PLP.Chemscore.Hbond>
4.9280

> <Gold.PLP.Chemscore.CHOScore>
1.0000

> <Gold.PLP.Chemscore.Metal>
0.0000

> <Gold.Chemscore.Hbonds>
donor molecule, donor type, donor heavy atom, donor atom, acceptor molecule, acceptor atom, score
      L1  H     6    31       P1  7948  1.00
      L1  H     9    32       P1  7948  0.93
      L1  H    15    43       P1  7948  2.00
      P1  H 10752 10763       L1    18  0.95
      L1  C    12    33       P1 10186  1.00

> <Gold.PLP.Chemscore.Internal.Correction>
0.1701

> <Gold.Rescore>
     Score         DG    S(hbond)    S(metal)    S(lipo)     H(rot)  DE(clash)    DE(int)     intcor
     15.71     -18.90       2.86        0.00      72.38       1.79       0.54       2.65       ----

> <Gold.Chemscore.Fitness>
15.7083

> <Gold.Chemscore.DG>
-18.9021

> <Gold.Chemscore.ZeroCoef>
-5.4800

> <Gold.Chemscore.Hbond>
2.8583

> <Gold.Chemscore.Metal>
0.0000

> <Gold.Chemscore.Lipo>
72.3789

> <Gold.Chemscore.Internal_Hbond>
0.0000

> <Gold.Chemscore.DEClash>
0.5417

> <Gold.Chemscore.DEInternal>
2.6521

> <Gold.Chemscore.Rot>
1.7942

> <Gold.Chemscore.Internal.Correction>
   9.000000E+99

> <Gold.Chemscore.Hbonds>
donor molecule, donor type, donor heavy atom, donor atom, acceptor molecule, acceptor atom, score
      L1  H     6    31       P1  7948  0.99
      L1  H     9    32       P1  7948  0.71
      L1  H    15    43       P1  7948  0.98
      P1  H 10752 10763       L1    18  0.13

> <Gold.Chemscore.Hbond.Weighted>
-9.5468

> <Gold.Chemscore.Metal.Weighted>
-0.0000

> <Gold.Chemscore.Lipo.Weighted>
-8.4683

> <Gold.Chemscore.Internal_Hbond.Weighted>
0.0000

> <Gold.Chemscore.DEClash.Weighted>
0.5417

> <Gold.Chemscore.DEInternal.Weighted>
2.6521

> <Gold.Chemscore.Rot.Weighted>
4.5931

> <Gold.Chemscore.Internal.Correction.Weighted>
   9.000000E+99

> <Gold.Protein.RotatedTorsions>
[ 6907 6896 6895 6894 ] final -172.04 input  -60.11 | X-H torsion
[ 7974 7965 7964 7962 ] final   -7.32 input  175.53 | X-H torsion
[ 8008 7997 7996 7995 ] final  159.96 input   59.86 | X-H torsion
[ 10167 10162 10161 10158 ] final   93.48 input  -65.29 | X-H torsion
[ 10718 10713 10712 10709 ] final -162.11 input   66.30 | X-H torsion
[ 10763 10752 10751 10750 ] final   53.92 input  -60.55 | X-H torsion
[ 11005 11000 10999 10996 ] final   68.97 input  -57.11 | X-H torsion

> <Gold.Protein.ActiveResidues>
 VAL166  LYS551  ARG553  GLY616  TRP617  ASP618  TYR619  PRO620  LYS621  CYS622 
 ASP623  PHE694  ASN695  SER759  ASP760  ASP761  ALA762  ILE779  LEU786  VAL792 
 PHE793  MET794  SER795  GLU796  ALA797  LYS798  CYS799  TRP800  GLU811  SER814 

> <Gold.Protein.RotatedAtoms>
  151.5336  133.3445  159.2922 H   0  0  0  0  0  0  0  0  0  0  0  0  # atno 6907 bound_to 6896
  150.8578  134.7925  159.7070 H   0  0  0  0  0  0  0  0  0  0  0  0  # atno 6908 bound_to 6896
  152.4607  134.5200  159.9831 H   0  0  0  0  0  0  0  0  0  0  0  0  # atno 6909 bound_to 6896
  146.2310  140.2302  142.8340 H   0  0  0  0  0  0  0  0  0  0  0  0  # atno 7974 bound_to 7965
  156.2204  140.1817  156.7489 H   0  0  0  0  0  0  0  0  0  0  0  0  # atno 8008 bound_to 7997
  154.5857  140.0659  156.9196 H   0  0  0  0  0  0  0  0  0  0  0  0  # atno 8009 bound_to 7997
  155.2424  140.3323  155.4293 H   0  0  0  0  0  0  0  0  0  0  0  0  # atno 8010 bound_to 7997
  139.8176  144.6746  150.9560 H   0  0  0  0  0  0  0  0  0  0  0  0  # atno 10167 bound_to 10162
  156.6058  130.8830  151.2925 H   0  0  0  0  0  0  0  0  0  0  0  0  # atno 10718 bound_to 10713
  152.9799  135.5762  154.4820 H   0  0  0  0  0  0  0  0  0  0  0  0  # atno 10763 bound_to 10752
  154.4368  135.2775  155.1877 H   0  0  0  0  0  0  0  0  0  0  0  0  # atno 10764 bound_to 10752
  154.3562  135.6198  153.5721 H   0  0  0  0  0  0  0  0  0  0  0  0  # atno 10765 bound_to 10752
  139.9681  134.6947  156.0504 H   0  0  0  0  0  0  0  0  0  0  0  0  # atno 11005 bound_to 11000
  144.9564  140.8231  143.5540 LP  0  0  0  0  0  0  0  0  0  0  0  0  # atno 17320 bound_to 7965
  145.2268  139.2133  143.5064 LP  0  0  0  0  0  0  0  0  0  0  0  0  # atno 17321 bound_to 7965
  140.7815  143.4123  151.0972 LP  0  0  0  0  0  0  0  0  0  0  0  0  # atno 17342 bound_to 10162
  139.7786  143.8389  152.3133 LP  0  0  0  0  0  0  0  0  0  0  0  0  # atno 17343 bound_to 10162
  157.7267  130.9633  150.1669 LP  0  0  0  0  0  0  0  0  0  0  0  0  # atno 17370 bound_to 10713
  156.2431  130.3693  149.8315 LP  0  0  0  0  0  0  0  0  0  0  0  0  # atno 17371 bound_to 10713
  141.1361  133.6575  156.3596 LP  0  0  0  0  0  0  0  0  0  0  0  0  # atno 17394 bound_to 11000
  140.5353  134.6173  157.5363 LP  0  0  0  0  0  0  0  0  0  0  0  0  # atno 17395 bound_to 11000

$$$$
