AV-unprocessed.smi:1486|AV-procd|sdf|6005|dock10
  -GOLD-   22720 6103D 1   1.00000     0.00000
 Structure written by MMmdl.
 39 40  0  0  0  0  0  0  0  0  1 V2000
  150.3517  131.9372  156.6907 C   0  0  0  0  0  0  0  0  0  0  0  0
  150.6027  133.2392  157.1878 O   0  0  0  0  0  0  0  0  0  0  0  0
  151.0139  134.1420  156.1733 C   0  0  0  0  0  0  0  0  0  0  0  0
  149.7854  134.6313  155.3868 C   0  0  2  0  0  0  0  0  0  0  0  0
  149.3053  133.5792  154.3782 C   0  0  0  0  0  0  0  0  0  0  0  0
  150.1160  135.8615  154.6734 N   0  0  0  0  0  0  0  0  0  0  0  0
  150.9069  136.8459  155.1303 C   0  0  0  0  0  0  0  0  0  0  0  0
  151.3820  136.8696  156.2656 O   0  0  0  0  0  0  0  0  0  0  0  0
  151.2301  137.9680  154.1431 C   0  0  0  0  0  0  0  0  0  0  0  0
  150.8439  139.2924  154.7363 C   0  0  0  0  0  0  0  0  0  0  0  0
  149.8568  140.1378  154.2914 C   0  0  0  0  0  0  0  0  0  0  0  0
  149.7140  141.5581  155.2899 S   0  0  0  0  0  0  0  0  0  0  0  0
  151.0319  140.9446  156.2931 C   0  0  0  0  0  0  0  0  0  0  0  0
  151.5851  141.5781  157.4459 N   0  0  0  0  0  0  0  0  0  0  0  0
  151.2462  142.9524  157.8037 C   0  0  0  0  0  0  0  0  0  0  0  0
  151.8558  143.1902  159.1895 C   0  0  0  0  0  0  0  0  0  0  0  0
  152.8394  142.0412  159.4013 C   0  0  0  0  0  0  0  0  0  0  0  0
  152.4754  141.0525  158.3059 C   0  0  0  0  0  0  0  0  0  0  0  0
  152.9732  139.9283  158.2646 O   0  0  0  0  0  0  0  0  0  0  0  0
  151.5092  139.7687  155.8713 N   0  0  0  0  0  0  0  0  0  0  0  0
  150.0301  131.2898  157.5065 H   0  0  0  0  0  0  0  0  0  0  0  0
  151.2515  131.5034  156.2528 H   0  0  0  0  0  0  0  0  0  0  0  0
  149.5636  131.9474  155.9369 H   0  0  0  0  0  0  0  0  0  0  0  0
  151.5437  134.9902  156.6110 H   0  0  0  0  0  0  0  0  0  0  0  0
  151.7093  133.6346  155.5028 H   0  0  0  0  0  0  0  0  0  0  0  0
  148.9689  134.8109  156.0884 H   0  0  0  0  0  0  0  0  0  0  0  0
  149.0318  132.6511  154.8807 H   0  0  0  0  0  0  0  0  0  0  0  0
  150.0801  133.3457  153.6472 H   0  0  0  0  0  0  0  0  0  0  0  0
  148.4273  133.9285  153.8338 H   0  0  0  0  0  0  0  0  0  0  0  0
  149.7747  135.9391  153.7262 H   0  0  0  0  0  0  0  0  0  0  0  0
  152.2933  137.9398  153.9006 H   0  0  0  0  0  0  0  0  0  0  0  0
  150.6945  137.7957  153.2086 H   0  0  0  0  0  0  0  0  0  0  0  0
  149.1995  140.0045  153.4449 H   0  0  0  0  0  0  0  0  0  0  0  0
  151.6804  143.6315  157.0684 H   0  0  0  0  0  0  0  0  0  0  0  0
  150.1668  143.1096  157.8157 H   0  0  0  0  0  0  0  0  0  0  0  0
  152.3416  144.1643  159.2566 H   0  0  0  0  0  0  0  0  0  0  0  0
  151.0771  143.1574  159.9529 H   0  0  0  0  0  0  0  0  0  0  0  0
  153.8700  142.3698  159.2640 H   0  0  0  0  0  0  0  0  0  0  0  0
  152.7429  141.5936  160.3911 H   0  0  0  0  0  0  0  0  0  0  0  0
  1  2  1  0  0  0  0
  1 21  1  0  0  0  0
  1 22  1  0  0  0  0
  1 23  1  0  0  0  0
  2  3  1  0  0  0  0
  3  4  1  0  0  0  0
  3 24  1  0  0  0  0
  3 25  1  0  0  0  0
  4  5  1  0  0  0  0
  4  6  1  0  0  0  0
  4 26  1  0  0  0  0
  5 27  1  0  0  0  0
  5 28  1  0  0  0  0
  5 29  1  0  0  0  0
  6  7  1  0  0  0  0
  6 30  1  0  0  0  0
  7  8  2  0  0  0  0
  7  9  1  0  0  0  0
  9 10  1  0  0  0  0
  9 31  1  0  0  0  0
  9 32  1  0  0  0  0
 10 20  1  0  0  0  0
 10 11  2  0  0  0  0
 11 12  1  0  0  0  0
 11 33  1  0  0  0  0
 12 13  1  0  0  0  0
 13 14  1  0  0  0  0
 13 20  2  0  0  0  0
 14 18  1  0  0  0  0
 14 15  1  0  0  0  0
 15 16  1  0  0  0  0
 15 34  1  0  0  0  0
 15 35  1  0  0  0  0
 16 17  1  0  0  0  0
 16 36  1  0  0  0  0
 16 37  1  0  0  0  0
 17 18  1  0  0  0  0
 17 38  1  0  0  0  0
 17 39  1  0  0  0  0
 18 19  2  0  0  0  0
M  END
> <s_m_source_file>
AV-unprocessed.smi

> <i_m_source_file_index>
1486

> <i_lp_mmshare_version>
43012

> <i_f3d_flags>
0

> <s_epik_input>
W0NIM11PW0NIMl1bQ0BIXShbQ0gzXSlbTkhdQyg9TylbQ0gyXWMxW2NIXXNjKG4xKU4yW0NIMl1bQ0gyXVtDSDJdQzI9Tw==

> <s_epik_cmdline>
J2VwaWtfcHl0aG9uJywgJy1waCcsICc3LjAnLCAnLXRuJywgJzgnLCAnLW1hJywgJzIwMCcsICctbWV0YWxfYmluZGluZycsICctaW1hZScsICc8aW5maWxlLm1hZT4nLCAnLW9tYWUnLCAnPG91dGZpbGUubWFlPic=

> <r_lp_tautomer_probability>
1

> <r_epik_Ionization_Penalty>
3.00988e-05

> <r_epik_Ionization_Penalty_Charging>
0

> <r_epik_Ionization_Penalty_Neutral>
3.00988e-05

> <r_epik_State_Penalty>
-0

> <r_epik_Charging_Adjusted_Penalty>
0

> <i_epik_Tot_Q>
0

> <i_epik_Tot_abs_Q>
0

> <r_epik_Metal_State_Penalty>
-0

> <b_epik_Metal_Only>
0

> <s_lp_Force_Field>
OPLS_2005

> <r_lp_Energy>
17.4933

> <b_lp_Chiralities_Consistent>
1

> <s_lp_Variant>
AV-unprocessed.smi:1486-1

> <Gold.Version>
5.8.1

> <Gold.Id.Protein>
6NUR|6NUR_protein|mol2

> <Gold.PLP.Fitness>
48.5043

> <Gold.PLP.PLP>
-38.1581

> <Gold.PLP.part.hbond>
-2.8847

> <Gold.PLP.part.metal>
0.0000

> <Gold.PLP.part.buried>
-2.5472

> <Gold.PLP.part.nonpolar>
-32.1983

> <Gold.PLP.part.repulsive>
0.0649

> <Gold.PLP.ligand.clash>
0.0000

> <Gold.PLP.ligand.torsion>
0.6491

> <Gold.PLP.Chemscore.Hbond>
2.8941

> <Gold.PLP.Chemscore.CHOScore>
0.9781

> <Gold.PLP.Chemscore.Metal>
0.0000

> <Gold.Chemscore.Hbonds>
donor molecule, donor type, donor heavy atom, donor atom, acceptor molecule, acceptor atom, score
      L1  H     6    30       P1  7948  0.90
      P1  H  6896  6908       L1     2  0.84
      P1  H  7997  8008       L1    19  0.98
      L1  C    11    33       P1  7957  1.00

> <Gold.PLP.Chemscore.Internal.Correction>
0.0278

> <Gold.Rescore>
     Score         DG    S(hbond)    S(metal)    S(lipo)     H(rot)  DE(clash)    DE(int)     intcor
     12.88     -17.51       2.31        0.00      79.16       1.94       0.02       4.61       ----

> <Gold.Chemscore.Fitness>
12.8790

> <Gold.Chemscore.DG>
-17.5052

> <Gold.Chemscore.ZeroCoef>
-5.4800

> <Gold.Chemscore.Hbond>
2.3123

> <Gold.Chemscore.Metal>
0.0000

> <Gold.Chemscore.Lipo>
79.1593

> <Gold.Chemscore.Internal_Hbond>
0.0000

> <Gold.Chemscore.DEClash>
0.0211

> <Gold.Chemscore.DEInternal>
4.6050

> <Gold.Chemscore.Rot>
1.9373

> <Gold.Chemscore.Internal.Correction>
   9.000000E+99

> <Gold.Chemscore.Hbonds>
donor molecule, donor type, donor heavy atom, donor atom, acceptor molecule, acceptor atom, score
      L1  H     6    30       P1  7948  0.17
      P1  H  6896  6908       L1     2  0.76
      P1  H  7997  8008       L1    19  0.55

> <Gold.Chemscore.Hbond.Weighted>
-7.7230

> <Gold.Chemscore.Metal.Weighted>
-0.0000

> <Gold.Chemscore.Lipo.Weighted>
-9.2616

> <Gold.Chemscore.Internal_Hbond.Weighted>
0.0000

> <Gold.Chemscore.DEClash.Weighted>
0.0211

> <Gold.Chemscore.DEInternal.Weighted>
4.6050

> <Gold.Chemscore.Rot.Weighted>
4.9594

> <Gold.Chemscore.Internal.Correction.Weighted>
   9.000000E+99

> <Gold.Protein.RotatedTorsions>
[ 6907 6896 6895 6894 ] final   97.39 input  -60.11 | X-H torsion
[ 7974 7965 7964 7962 ] final   46.18 input  175.53 | X-H torsion
[ 8008 7997 7996 7995 ] final  -85.91 input   59.86 | X-H torsion
[ 10167 10162 10161 10158 ] final  153.66 input  -65.29 | X-H torsion
[ 10718 10713 10712 10709 ] final   31.25 input   66.30 | X-H torsion
[ 10763 10752 10751 10750 ] final  -43.30 input  -60.55 | X-H torsion
[ 11005 11000 10999 10996 ] final  -59.06 input  -57.11 | X-H torsion

> <Gold.Protein.ActiveResidues>
 VAL166  LYS551  ARG553  GLY616  TRP617  ASP618  TYR619  PRO620  LYS621  CYS622 
 ASP623  PHE694  ASN695  SER759  ASP760  ASP761  ALA762  ILE779  LEU786  VAL792 
 PHE793  MET794  SER795  GLU796  ALA797  LYS798  CYS799  TRP800  GLU811  SER814 

> <Gold.Protein.RotatedAtoms>
  152.5424  134.0741  159.8206 H   0  0  0  0  0  0  0  0  0  0  0  0  # atno 6907 bound_to 6896
  151.0851  133.5352  159.2625 H   0  0  0  0  0  0  0  0  0  0  0  0  # atno 6908 bound_to 6896
  151.2164  135.0510  159.8986 H   0  0  0  0  0  0  0  0  0  0  0  0  # atno 6909 bound_to 6896
  146.0413  139.4883  142.9776 H   0  0  0  0  0  0  0  0  0  0  0  0  # atno 7974 bound_to 7965
  154.6460  140.0585  156.9900 H   0  0  0  0  0  0  0  0  0  0  0  0  # atno 8008 bound_to 7997
  155.1444  140.3268  155.4426 H   0  0  0  0  0  0  0  0  0  0  0  0  # atno 8009 bound_to 7997
  156.2553  140.1958  156.6559 H   0  0  0  0  0  0  0  0  0  0  0  0  # atno 8010 bound_to 7997
  139.4826  144.5254  151.7810 H   0  0  0  0  0  0  0  0  0  0  0  0  # atno 10167 bound_to 10162
  157.2701  130.7203  149.6499 H   0  0  0  0  0  0  0  0  0  0  0  0  # atno 10718 bound_to 10713
  153.9933  135.6702  153.4755 H   0  0  0  0  0  0  0  0  0  0  0  0  # atno 10763 bound_to 10752
  153.0695  135.4982  154.8270 H   0  0  0  0  0  0  0  0  0  0  0  0  # atno 10764 bound_to 10752
  154.7096  135.3095  154.9179 H   0  0  0  0  0  0  0  0  0  0  0  0  # atno 10765 bound_to 10752
  141.1233  133.6614  156.5014 H   0  0  0  0  0  0  0  0  0  0  0  0  # atno 11005 bound_to 11000
  145.6880  141.0172  143.1571 LP  0  0  0  0  0  0  0  0  0  0  0  0  # atno 17320 bound_to 7965
  144.7076  139.8499  143.7425 LP  0  0  0  0  0  0  0  0  0  0  0  0  # atno 17321 bound_to 7965
  140.4773  144.1501  150.5927 LP  0  0  0  0  0  0  0  0  0  0  0  0  # atno 17342 bound_to 10162
  140.4317  143.2565  151.9587 LP  0  0  0  0  0  0  0  0  0  0  0  0  # atno 17343 bound_to 10162
  155.9663  130.4370  150.5159 LP  0  0  0  0  0  0  0  0  0  0  0  0  # atno 17370 bound_to 10713
  157.3081  131.0658  151.2020 LP  0  0  0  0  0  0  0  0  0  0  0  0  # atno 17371 bound_to 10713
  140.4443  134.6987  157.5007 LP  0  0  0  0  0  0  0  0  0  0  0  0  # atno 17394 bound_to 11000
  140.0208  134.6550  155.9242 LP  0  0  0  0  0  0  0  0  0  0  0  0  # atno 17395 bound_to 11000

$$$$
