AV-unprocessed.smi:831|AV-procd|sdf|3875|dock7
  -GOLD-   22720 1333D 1   1.00000     0.00000
 Structure written by MMmdl.
 50 51  0  0  0  0  0  0  0  0  1 V2000
  149.8216  142.0612  157.3020 C   0  0  0  0  0  0  0  0  0  0  0  0
  150.3560  141.6801  155.9123 C   0  0  0  0  0  0  0  0  0  0  0  0
  149.2323  141.7150  154.8662 C   0  0  0  0  0  0  0  0  0  0  0  0
  151.0481  140.3079  155.9343 C   0  0  0  0  0  0  0  0  0  0  0  0
  151.2933  139.8878  154.5969 O   0  0  0  0  0  0  0  0  0  0  0  0
  150.9473  138.5362  154.3111 C   0  0  1  0  0  0  0  0  0  0  0  0
  151.6967  137.6535  155.3202 C   0  0  0  0  0  0  0  0  0  0  0  0
  149.4203  138.3472  154.4397 C   0  0  0  0  0  0  0  0  0  0  0  0
  148.9699  137.7315  155.4041 O   0  0  0  0  0  0  0  0  0  0  0  0
  148.5943  138.8650  153.5150 N   0  0  0  0  0  0  0  0  0  0  0  0
  147.1382  138.7809  153.4836 C   0  0  0  0  0  0  0  0  0  0  0  0
  146.6062  137.4099  153.0936 C   0  0  0  0  0  0  0  0  0  0  0  0
  146.7658  136.2714  153.9126 C   0  0  0  0  0  0  0  0  0  0  0  0
  146.2413  135.0386  153.4797 C   0  0  0  0  0  0  0  0  0  0  0  0
  145.5647  134.9718  152.2386 C   0  0  0  0  0  0  0  0  0  0  0  0
  145.0361  133.7444  151.7835 N   0  0  0  0  0  0  0  0  0  0  0  0
  145.9591  132.6122  151.8113 C   0  0  0  0  0  0  0  0  0  0  0  0
  145.1983  131.2938  151.5878 C   0  0  0  0  0  0  0  0  0  0  0  0
  144.4498  131.3675  150.3790 O   0  0  0  0  0  0  0  0  0  0  0  0
  143.4781  132.4070  150.4215 C   0  0  0  0  0  0  0  0  0  0  0  0
  144.1788  133.7644  150.5994 C   0  0  0  0  0  0  0  0  0  0  0  0
  145.3996  136.0713  151.4622 N   0  0  0  0  0  0  0  0  0  0  0  0
  145.9062  137.2499  151.8808 C   0  0  0  0  0  0  0  0  0  0  0  0
  149.0767  141.3451  157.6505 H   0  0  0  0  0  0  0  0  0  0  0  0
  149.3551  143.0465  157.2876 H   0  0  0  0  0  0  0  0  0  0  0  0
  150.6236  142.0905  158.0402 H   0  0  0  0  0  0  0  0  0  0  0  0
  151.0971  142.4252  155.6205 H   0  0  0  0  0  0  0  0  0  0  0  0
  148.4526  140.9884  155.0970 H   0  0  0  0  0  0  0  0  0  0  0  0
  149.6142  141.4886  153.8703 H   0  0  0  0  0  0  0  0  0  0  0  0
  148.7673  142.7003  154.8222 H   0  0  0  0  0  0  0  0  0  0  0  0
  151.9719  140.3682  156.5109 H   0  0  0  0  0  0  0  0  0  0  0  0
  150.4069  139.5747  156.4258 H   0  0  0  0  0  0  0  0  0  0  0  0
  151.3138  138.2798  153.3179 H   0  0  0  0  0  0  0  0  0  0  0  0
  151.4733  136.5976  155.1638 H   0  0  0  0  0  0  0  0  0  0  0  0
  151.4349  137.9040  156.3490 H   0  0  0  0  0  0  0  0  0  0  0  0
  152.7747  137.7797  155.2166 H   0  0  0  0  0  0  0  0  0  0  0  0
  149.0245  139.3746  152.7569 H   0  0  0  0  0  0  0  0  0  0  0  0
  146.7371  139.0349  154.4657 H   0  0  0  0  0  0  0  0  0  0  0  0
  146.7535  139.5138  152.7726 H   0  0  0  0  0  0  0  0  0  0  0  0
  147.2760  136.3296  154.8624 H   0  0  0  0  0  0  0  0  0  0  0  0
  146.3504  134.1673  154.1080 H   0  0  0  0  0  0  0  0  0  0  0  0
  146.7059  132.7483  151.0281 H   0  0  0  0  0  0  0  0  0  0  0  0
  146.4978  132.5539  152.7558 H   0  0  0  0  0  0  0  0  0  0  0  0
  145.9002  130.4626  151.5204 H   0  0  0  0  0  0  0  0  0  0  0  0
  144.5340  131.0814  152.4271 H   0  0  0  0  0  0  0  0  0  0  0  0
  142.9082  132.3985  149.4925 H   0  0  0  0  0  0  0  0  0  0  0  0
  142.7695  132.2249  151.2313 H   0  0  0  0  0  0  0  0  0  0  0  0
  143.4275  134.5498  150.6904 H   0  0  0  0  0  0  0  0  0  0  0  0
  144.7827  133.9900  149.7193 H   0  0  0  0  0  0  0  0  0  0  0  0
  145.7487  138.0923  151.2232 H   0  0  0  0  0  0  0  0  0  0  0  0
  1  2  1  0  0  0  0
  1 24  1  0  0  0  0
  1 25  1  0  0  0  0
  1 26  1  0  0  0  0
  2  3  1  0  0  0  0
  2  4  1  0  0  0  0
  2 27  1  0  0  0  0
  3 28  1  0  0  0  0
  3 29  1  0  0  0  0
  3 30  1  0  0  0  0
  4  5  1  0  0  0  0
  4 31  1  0  0  0  0
  4 32  1  0  0  0  0
  5  6  1  0  0  0  0
  6  7  1  0  0  0  0
  6  8  1  0  0  0  0
  6 33  1  0  0  0  0
  7 34  1  0  0  0  0
  7 35  1  0  0  0  0
  7 36  1  0  0  0  0
  8  9  2  0  0  0  0
  8 10  1  0  0  0  0
 10 11  1  0  0  0  0
 10 37  1  0  0  0  0
 11 12  1  0  0  0  0
 11 38  1  0  0  0  0
 11 39  1  0  0  0  0
 12 23  1  0  0  0  0
 12 13  2  0  0  0  0
 13 14  1  0  0  0  0
 13 40  1  0  0  0  0
 14 15  2  0  0  0  0
 14 41  1  0  0  0  0
 15 16  1  0  0  0  0
 15 22  1  0  0  0  0
 16 21  1  0  0  0  0
 16 17  1  0  0  0  0
 17 18  1  0  0  0  0
 17 42  1  0  0  0  0
 17 43  1  0  0  0  0
 18 19  1  0  0  0  0
 18 44  1  0  0  0  0
 18 45  1  0  0  0  0
 19 20  1  0  0  0  0
 20 21  1  0  0  0  0
 20 46  1  0  0  0  0
 20 47  1  0  0  0  0
 21 48  1  0  0  0  0
 21 49  1  0  0  0  0
 22 23  2  0  0  0  0
 23 50  1  0  0  0  0
M  END
> <s_m_source_file>
AV-unprocessed.smi

> <i_m_source_file_index>
831

> <i_lp_mmshare_version>
43012

> <i_f3d_flags>
0

> <s_epik_input>
W0NIM11bQ0hdKFtDSDNdKVtDSDJdT1tDQEhdKFtDSDNdKUMoPU8pW05IXVtDSDJdYzFbY0hdW2NIXWMobltjSF0xKU4yW0NIMl1bQ0gyXU9bQ0gyXVtDSDJdMg==

> <s_epik_cmdline>
J2VwaWtfcHl0aG9uJywgJy1waCcsICc3LjAnLCAnLXRuJywgJzgnLCAnLW1hJywgJzIwMCcsICctbWV0YWxfYmluZGluZycsICctaW1hZScsICc8aW5maWxlLm1hZT4nLCAnLW9tYWUnLCAnPG91dGZpbGUubWFlPic=

> <r_lp_tautomer_probability>
1

> <r_epik_Ionization_Penalty>
0.00456501

> <r_epik_Ionization_Penalty_Charging>
0

> <r_epik_Ionization_Penalty_Neutral>
0.00456501

> <r_epik_State_Penalty>
0.00329791

> <r_epik_Charging_Adjusted_Penalty>
0.00329791

> <i_epik_Tot_Q>
0

> <i_epik_Tot_abs_Q>
0

> <r_epik_Metal_State_Penalty>
-0

> <b_epik_Metal_Only>
0

> <s_lp_Force_Field>
OPLS_2005

> <r_lp_Energy>
24.1479

> <b_lp_Chiralities_Consistent>
1

> <s_lp_Variant>
AV-unprocessed.smi:831-2

> <Gold.Version>
5.8.1

> <Gold.Id.Protein>
6NUR|6NUR_protein|mol2

> <Gold.PLP.Fitness>
42.3076

> <Gold.PLP.PLP>
-34.7513

> <Gold.PLP.part.hbond>
-3.6575

> <Gold.PLP.part.metal>
0.0000

> <Gold.PLP.part.buried>
-0.6166

> <Gold.PLP.part.nonpolar>
-32.1117

> <Gold.PLP.part.repulsive>
0.6430

> <Gold.PLP.ligand.clash>
0.0000

> <Gold.PLP.ligand.torsion>
0.9658

> <Gold.PLP.Chemscore.Hbond>
2.0369

> <Gold.PLP.Chemscore.CHOScore>
1.0000

> <Gold.PLP.Chemscore.Metal>
0.0000

> <Gold.Chemscore.Hbonds>
donor molecule, donor type, donor heavy atom, donor atom, acceptor molecule, acceptor atom, score
      L1  H    10    37       P1  7957  1.00
      P1  H  7989  7998       L1     5  0.94
      P1  H 10785 10796       L1    19  0.04
      L1  C    23    50       P1 10171  1.00

> <Gold.PLP.Chemscore.Internal.Correction>
0.3773

> <Gold.Rescore>
     Score         DG    S(hbond)    S(metal)    S(lipo)     H(rot)  DE(clash)    DE(int)     intcor
     16.35     -17.93       1.96        0.00      92.41       1.92       0.65       0.93       ----

> <Gold.Chemscore.Fitness>
16.3512

> <Gold.Chemscore.DG>
-17.9333

> <Gold.Chemscore.ZeroCoef>
-5.4800

> <Gold.Chemscore.Hbond>
1.9599

> <Gold.Chemscore.Metal>
0.0000

> <Gold.Chemscore.Lipo>
92.4104

> <Gold.Chemscore.Internal_Hbond>
0.0000

> <Gold.Chemscore.DEClash>
0.6498

> <Gold.Chemscore.DEInternal>
0.9323

> <Gold.Chemscore.Rot>
1.9159

> <Gold.Chemscore.Internal.Correction>
   9.000000E+99

> <Gold.Chemscore.Hbonds>
donor molecule, donor type, donor heavy atom, donor atom, acceptor molecule, acceptor atom, score
      L1  H    10    37       P1  7957  1.00
      P1  H  7989  7998       L1     5  0.88

> <Gold.Chemscore.Hbond.Weighted>
-6.5461

> <Gold.Chemscore.Metal.Weighted>
-0.0000

> <Gold.Chemscore.Lipo.Weighted>
-10.8120

> <Gold.Chemscore.Internal_Hbond.Weighted>
0.0000

> <Gold.Chemscore.DEClash.Weighted>
0.6498

> <Gold.Chemscore.DEInternal.Weighted>
0.9323

> <Gold.Chemscore.Rot.Weighted>
4.9047

> <Gold.Chemscore.Internal.Correction.Weighted>
   9.000000E+99

> <Gold.Protein.RotatedTorsions>
[ 6907 6896 6895 6894 ] final  120.30 input  -60.11 | X-H torsion
[ 7974 7965 7964 7962 ] final  120.01 input  175.53 | X-H torsion
[ 8008 7997 7996 7995 ] final  -74.56 input   59.86 | X-H torsion
[ 10167 10162 10161 10158 ] final  -95.75 input  -65.29 | X-H torsion
[ 10718 10713 10712 10709 ] final -133.44 input   66.30 | X-H torsion
[ 10763 10752 10751 10750 ] final   -1.55 input  -60.55 | X-H torsion
[ 11005 11000 10999 10996 ] final -140.89 input  -57.11 | X-H torsion

> <Gold.Protein.ActiveResidues>
 VAL166  LYS551  ARG553  GLY616  TRP617  ASP618  TYR619  PRO620  LYS621  CYS622 
 ASP623  PHE694  ASN695  SER759  ASP760  ASP761  ALA762  ILE779  LEU786  VAL792 
 PHE793  MET794  SER795  GLU796  ALA797  LYS798  CYS799  TRP800  GLU811  SER814 

> <Gold.Protein.RotatedAtoms>
  152.4409  133.7445  159.6659 H   0  0  0  0  0  0  0  0  0  0  0  0  # atno 6907 bound_to 6896
  150.8299  133.8098  159.3109 H   0  0  0  0  0  0  0  0  0  0  0  0  # atno 6908 bound_to 6896
  151.5755  135.1063  160.0057 H   0  0  0  0  0  0  0  0  0  0  0  0  # atno 6909 bound_to 6896
  145.1363  139.3295  143.4639 H   0  0  0  0  0  0  0  0  0  0  0  0  # atno 7974 bound_to 7965
  154.5342  140.0759  156.8397 H   0  0  0  0  0  0  0  0  0  0  0  0  # atno 8008 bound_to 7997
  155.3313  140.3402  155.4221 H   0  0  0  0  0  0  0  0  0  0  0  0  # atno 8009 bound_to 7997
  156.1811  140.1652  156.8259 H   0  0  0  0  0  0  0  0  0  0  0  0  # atno 8010 bound_to 7997
  140.3009  143.3163  152.0249 H   0  0  0  0  0  0  0  0  0  0  0  0  # atno 10167 bound_to 10162
  156.2449  130.7118  151.0994 H   0  0  0  0  0  0  0  0  0  0  0  0  # atno 10718 bound_to 10713
  153.3463  135.6983  153.6825 H   0  0  0  0  0  0  0  0  0  0  0  0  # atno 10763 bound_to 10752
  153.5570  135.3542  155.2784 H   0  0  0  0  0  0  0  0  0  0  0  0  # atno 10764 bound_to 10752
  154.8645  135.4240  154.2687 H   0  0  0  0  0  0  0  0  0  0  0  0  # atno 10765 bound_to 10752
  140.8378  134.2439  157.4825 H   0  0  0  0  0  0  0  0  0  0  0  0  # atno 11005 bound_to 11000
  146.3509  140.1382  142.8595 LP  0  0  0  0  0  0  0  0  0  0  0  0  # atno 17320 bound_to 7965
  145.0580  140.9067  143.4955 LP  0  0  0  0  0  0  0  0  0  0  0  0  # atno 17321 bound_to 7965
  139.4915  144.6456  151.6784 LP  0  0  0  0  0  0  0  0  0  0  0  0  # atno 17342 bound_to 10162
  140.5652  144.0202  150.6189 LP  0  0  0  0  0  0  0  0  0  0  0  0  # atno 17343 bound_to 10162
  157.7191  131.0692  150.6210 LP  0  0  0  0  0  0  0  0  0  0  0  0  # atno 17370 bound_to 10713
  156.6285  130.4425  149.5795 LP  0  0  0  0  0  0  0  0  0  0  0  0  # atno 17371 bound_to 10713
  139.8704  134.9619  156.4413 LP  0  0  0  0  0  0  0  0  0  0  0  0  # atno 17394 bound_to 11000
  140.8929  133.7835  155.9592 LP  0  0  0  0  0  0  0  0  0  0  0  0  # atno 17395 bound_to 11000

$$$$
