AV-unprocessed.smi:2237|AV-procd|sdf|9047|dock5
  -GOLD-   2272012253D 1   1.00000     0.00000
 Structure written by MMmdl.
 55 57  0  0  0  0  0  0  0  0  3 V2000
  153.5868  142.2504  160.9469 C   0  0  0  0  0  0  0  0  0  0  0  0
  152.5253  143.1584  160.3626 C   0  0  0  0  0  0  0  0  0  0  0  0
  152.1984  144.3825  160.9785 C   0  0  0  0  0  0  0  0  0  0  0  0
  151.2024  145.1780  160.3848 C   0  0  0  0  0  0  0  0  0  0  0  0
  150.5791  144.7210  159.2076 C   0  0  0  0  0  0  0  0  0  0  0  0
  150.9663  143.4803  158.6527 C   0  0  0  0  0  0  0  0  0  0  0  0
  150.2820  143.1115  157.4638 N   0  0  0  0  0  0  0  0  0  0  0  0
  150.4415  141.9986  156.7256 C   0  0  0  0  0  0  0  0  0  0  0  0
  151.2186  141.0782  156.9812 O   0  0  0  0  0  0  0  0  0  0  0  0
  149.6366  142.0052  155.6524 N   0  0  0  0  0  0  0  0  0  0  0  0
  149.5869  140.9556  154.6383 C   0  0  2  0  0  0  0  0  0  0  0  0
  148.3109  141.1020  153.7921 C   0  0  0  0  0  0  0  0  0  0  0  0
  148.1978  139.9493  152.7773 C   0  0  0  0  0  0  0  0  0  0  0  0
  148.1836  138.6187  153.4510 N   0  3  2  0  0  0  0  0  0  0  0  0
  146.9289  138.2650  154.1996 C   0  0  2  0  0  0  0  0  0  0  0  0
  145.7568  137.9818  153.2271 C   0  0  0  0  0  0  0  0  0  0  0  0
  144.4453  137.6631  153.9652 C   0  0  0  0  0  0  0  0  0  0  0  0
  144.0709  138.7606  154.8866 N   0  3  1  0  0  0  0  0  0  0  0  0
  142.7542  138.5398  155.5230 C   0  0  0  0  0  0  0  0  0  0  0  0
  145.1403  139.0241  155.8767 C   0  0  0  0  0  0  0  0  0  0  0  0
  146.4682  139.3719  155.1822 C   0  0  0  0  0  0  0  0  0  0  0  0
  149.4434  138.4451  154.2318 C   0  0  0  0  0  0  0  0  0  0  0  0
  149.6380  139.5564  155.2835 C   0  0  0  0  0  0  0  0  0  0  0  0
  151.9274  142.7196  159.2340 N   0  0  0  0  0  0  0  0  0  0  0  0
  154.0784  142.7153  161.8019 H   0  0  0  0  0  0  0  0  0  0  0  0
  154.3480  142.0249  160.1994 H   0  0  0  0  0  0  0  0  0  0  0  0
  153.1413  141.3119  161.2783 H   0  0  0  0  0  0  0  0  0  0  0  0
  152.6957  144.7055  161.8813 H   0  0  0  0  0  0  0  0  0  0  0  0
  150.9209  146.1238  160.8237 H   0  0  0  0  0  0  0  0  0  0  0  0
  149.8128  145.3210  158.7387 H   0  0  0  0  0  0  0  0  0  0  0  0
  149.6009  143.7783  157.1326 H   0  0  0  0  0  0  0  0  0  0  0  0
  149.0310  142.8017  155.5182 H   0  0  0  0  0  0  0  0  0  0  0  0
  150.4454  141.0669  153.9727 H   0  0  0  0  0  0  0  0  0  0  0  0
  147.4296  141.1234  154.4345 H   0  0  0  0  0  0  0  0  0  0  0  0
  148.3274  142.0551  153.2619 H   0  0  0  0  0  0  0  0  0  0  0  0
  147.3453  140.0859  152.1145 H   0  0  0  0  0  0  0  0  0  0  0  0
  149.0635  139.9808  152.1139 H   0  0  0  0  0  0  0  0  0  0  0  0
  147.1146  137.3668  154.7888 H   0  0  0  0  0  0  0  0  0  0  0  0
  145.6044  138.8425  152.5739 H   0  0  0  0  0  0  0  0  0  0  0  0
  145.9755  137.1375  152.5760 H   0  0  0  0  0  0  0  0  0  0  0  0
  143.6467  137.5109  153.2376 H   0  0  0  0  0  0  0  0  0  0  0  0
  144.5455  136.7317  154.5251 H   0  0  0  0  0  0  0  0  0  0  0  0
  142.7666  137.6490  156.1524 H   0  0  0  0  0  0  0  0  0  0  0  0
  141.9775  138.4145  154.7678 H   0  0  0  0  0  0  0  0  0  0  0  0
  142.4783  139.3934  156.1433 H   0  0  0  0  0  0  0  0  0  0  0  0
  144.8423  139.8503  156.5235 H   0  0  0  0  0  0  0  0  0  0  0  0
  145.2695  138.1503  156.5178 H   0  0  0  0  0  0  0  0  0  0  0  0
  147.2072  139.5263  155.9678 H   0  0  0  0  0  0  0  0  0  0  0  0
  146.3648  140.3205  154.6533 H   0  0  0  0  0  0  0  0  0  0  0  0
  149.5030  137.4658  154.7013 H   0  0  0  0  0  0  0  0  0  0  0  0
  150.2797  138.4730  153.5321 H   0  0  0  0  0  0  0  0  0  0  0  0
  150.5965  139.4132  155.7843 H   0  0  0  0  0  0  0  0  0  0  0  0
  148.8796  139.4741  156.0622 H   0  0  0  0  0  0  0  0  0  0  0  0
  148.2324  137.9461  152.6987 H   0  0  0  0  0  0  0  0  0  0  0  0
  143.9787  139.5957  154.3254 H   0  0  0  0  0  0  0  0  0  0  0  0
  1  2  1  0  0  0  0
  1 25  1  0  0  0  0
  1 26  1  0  0  0  0
  1 27  1  0  0  0  0
  2 24  1  0  0  0  0
  2  3  2  0  0  0  0
  3  4  1  0  0  0  0
  3 28  1  0  0  0  0
  4  5  2  0  0  0  0
  4 29  1  0  0  0  0
  5  6  1  0  0  0  0
  5 30  1  0  0  0  0
  6  7  1  0  0  0  0
  6 24  2  0  0  0  0
  7  8  1  0  0  0  0
  7 31  1  0  0  0  0
  8  9  2  0  0  0  0
  8 10  1  0  0  0  0
 10 11  1  0  0  0  0
 10 32  1  0  0  0  0
 11 23  1  0  0  0  0
 11 12  1  0  0  0  0
 11 33  1  0  0  0  0
 12 13  1  0  0  0  0
 12 34  1  0  0  0  0
 12 35  1  0  0  0  0
 13 14  1  0  0  0  0
 13 36  1  0  0  0  0
 13 37  1  0  0  0  0
 14 15  1  0  0  0  0
 14 22  1  0  0  0  0
 14 54  1  0  0  0  0
 15 21  1  0  0  0  0
 15 16  1  0  0  0  0
 15 38  1  0  0  0  0
 16 17  1  0  0  0  0
 16 39  1  0  0  0  0
 16 40  1  0  0  0  0
 17 18  1  0  0  0  0
 17 41  1  0  0  0  0
 17 42  1  0  0  0  0
 18 19  1  0  0  0  0
 18 20  1  0  0  0  0
 18 55  1  0  0  0  0
 19 43  1  0  0  0  0
 19 44  1  0  0  0  0
 19 45  1  0  0  0  0
 20 21  1  0  0  0  0
 20 46  1  0  0  0  0
 20 47  1  0  0  0  0
 21 48  1  0  0  0  0
 21 49  1  0  0  0  0
 22 23  1  0  0  0  0
 22 50  1  0  0  0  0
 22 51  1  0  0  0  0
 23 52  1  0  0  0  0
 23 53  1  0  0  0  0
M  CHG  1  14   1
M  CHG  1  18   1
M  END
> <s_m_source_file>
AV-unprocessed.smi

> <i_m_source_file_index>
2237

> <i_lp_mmshare_version>
43012

> <i_f3d_flags>
0

> <s_epik_input>
W0NIM11jMVtjSF1bY0hdW2NIXWMobjEpW05IXUMoPU8pW05IXVtDSF0yW0NIMl1bQ0gyXU4oW0NIMl1bQ0gyXTIpW0NIXTNbQ0gyXVtDSDJdTihbQ0gzXSlbQ0gyXVtDSDJdMw==

> <s_epik_cmdline>
J2VwaWtfcHl0aG9uJywgJy1waCcsICc3LjAnLCAnLXRuJywgJzgnLCAnLW1hJywgJzIwMCcsICctbWV0YWxfYmluZGluZycsICctaW1hZScsICc8aW5maWxlLm1hZT4nLCAnLW9tYWUnLCAnPG91dGZpbGUubWFlPic=

> <r_epik_Ionization_Penalty>
0.180851

> <r_epik_Ionization_Penalty_Charging>
0.180787

> <r_epik_Ionization_Penalty_Neutral>
6.38624e-05

> <r_epik_State_Penalty>
0.153592

> <r_epik_Charging_Adjusted_Penalty>
0.334379

> <i_epik_Tot_Q>
2

> <i_epik_Tot_abs_Q>
2

> <r_epik_Metal_State_Penalty>
0.153595

> <b_epik_Metal_Only>
0

> <s_lp_Force_Field>
OPLS_2005

> <r_lp_Energy>
43.8269

> <b_lp_Chiralities_Consistent>
1

> <s_lp_Variant>
AV-unprocessed.smi:2237-2

> <Gold.Version>
5.8.1

> <Gold.Id.Protein>
6NUR|6NUR_protein|mol2

> <Gold.PLP.Fitness>
49.5800

> <Gold.PLP.PLP>
-36.5349

> <Gold.PLP.part.hbond>
-4.9785

> <Gold.PLP.part.metal>
0.0000

> <Gold.PLP.part.buried>
2.4174

> <Gold.PLP.part.nonpolar>
-34.7393

> <Gold.PLP.part.repulsive>
0.2167

> <Gold.PLP.ligand.clash>
3.7702

> <Gold.PLP.ligand.torsion>
0.4486

> <Gold.PLP.Chemscore.Hbond>
5.8880

> <Gold.PLP.Chemscore.CHOScore>
0.0000

> <Gold.PLP.Chemscore.Metal>
0.0000

> <Gold.Chemscore.Hbonds>
donor molecule, donor type, donor heavy atom, donor atom, acceptor molecule, acceptor atom, score
      L1  H     7    31       P1  8028  0.96
      L1  H    10    32       P1  8028  0.91
      L1  H    14    54       P1  7948  2.00
      L1  H    18    55       P1 10175  1.90

> <Gold.PLP.Chemscore.Internal.Correction>
0.0486

> <Gold.Rescore>
     Score         DG    S(hbond)    S(metal)    S(lipo)     H(rot)  DE(clash)    DE(int)     intcor
     19.44     -26.39       3.60        0.00     102.97       1.23       2.41       4.54       ----

> <Gold.Chemscore.Fitness>
19.4438

> <Gold.Chemscore.DG>
-26.3926

> <Gold.Chemscore.ZeroCoef>
-5.4800

> <Gold.Chemscore.Hbond>
3.5967

> <Gold.Chemscore.Metal>
0.0000

> <Gold.Chemscore.Lipo>
102.9659

> <Gold.Chemscore.Internal_Hbond>
0.0000

> <Gold.Chemscore.DEClash>
2.4126

> <Gold.Chemscore.DEInternal>
4.5362

> <Gold.Chemscore.Rot>
1.2295

> <Gold.Chemscore.Internal.Correction>
   9.000000E+99

> <Gold.Chemscore.Hbonds>
donor molecule, donor type, donor heavy atom, donor atom, acceptor molecule, acceptor atom, score
      L1  H     7    31       P1  8028  0.76
      L1  H    10    32       P1  8028  0.89
      L1  H    14    54       P1  7948  0.91
      L1  H    18    55       P1 10175  0.85

> <Gold.Chemscore.Hbond.Weighted>
-12.0130

> <Gold.Chemscore.Metal.Weighted>
-0.0000

> <Gold.Chemscore.Lipo.Weighted>
-12.0470

> <Gold.Chemscore.Internal_Hbond.Weighted>
0.0000

> <Gold.Chemscore.DEClash.Weighted>
2.4126

> <Gold.Chemscore.DEInternal.Weighted>
4.5362

> <Gold.Chemscore.Rot.Weighted>
3.1474

> <Gold.Chemscore.Internal.Correction.Weighted>
   9.000000E+99

> <Gold.Protein.RotatedTorsions>
[ 6907 6896 6895 6894 ] final  -99.18 input  -60.11 | X-H torsion
[ 7974 7965 7964 7962 ] final  176.29 input  175.53 | X-H torsion
[ 8008 7997 7996 7995 ] final  -30.78 input   59.86 | X-H torsion
[ 10167 10162 10161 10158 ] final -166.57 input  -65.29 | X-H torsion
[ 10718 10713 10712 10709 ] final   41.00 input   66.30 | X-H torsion
[ 10763 10752 10751 10750 ] final -165.28 input  -60.55 | X-H torsion
[ 11005 11000 10999 10996 ] final -108.30 input  -57.11 | X-H torsion

> <Gold.Protein.ActiveResidues>
 VAL166  LYS551  ARG553  GLY616  TRP617  ASP618  TYR619  PRO620  LYS621  CYS622 
 ASP623  PHE694  ASN695  SER759  ASP760  ASP761  ALA762  ILE779  LEU786  VAL792 
 PHE793  MET794  SER795  GLU796  ALA797  LYS798  CYS799  TRP800  GLU811  SER814 

> <Gold.Protein.RotatedAtoms>
  150.7071  134.1081  159.3989 H   0  0  0  0  0  0  0  0  0  0  0  0  # atno 6907 bound_to 6896
  151.9067  135.0353  160.0520 H   0  0  0  0  0  0  0  0  0  0  0  0  # atno 6908 bound_to 6896
  152.2369  133.5068  159.5284 H   0  0  0  0  0  0  0  0  0  0  0  0  # atno 6909 bound_to 6896
  144.7187  140.0075  143.6440 H   0  0  0  0  0  0  0  0  0  0  0  0  # atno 7974 bound_to 7965
  154.4237  140.1782  156.1462 H   0  0  0  0  0  0  0  0  0  0  0  0  # atno 8008 bound_to 7997
  155.9952  140.3365  155.6767 H   0  0  0  0  0  0  0  0  0  0  0  0  # atno 8009 bound_to 7997
  155.6318  140.0670  157.2637 H   0  0  0  0  0  0  0  0  0  0  0  0  # atno 8010 bound_to 7997
  139.6106  144.0823  152.1838 H   0  0  0  0  0  0  0  0  0  0  0  0  # atno 10167 bound_to 10162
  157.3886  130.7794  149.7251 H   0  0  0  0  0  0  0  0  0  0  0  0  # atno 10718 bound_to 10713
  154.6947  135.2977  154.9428 H   0  0  0  0  0  0  0  0  0  0  0  0  # atno 10763 bound_to 10752
  154.0380  135.6661  153.4791 H   0  0  0  0  0  0  0  0  0  0  0  0  # atno 10764 bound_to 10752
  153.0637  135.5100  154.8059 H   0  0  0  0  0  0  0  0  0  0  0  0  # atno 10765 bound_to 10752
  141.0909  133.9057  157.2078 H   0  0  0  0  0  0  0  0  0  0  0  0  # atno 11005 bound_to 11000
  146.0286  139.3314  143.0769 LP  0  0  0  0  0  0  0  0  0  0  0  0  # atno 17320 bound_to 7965
  145.8481  140.9544  143.0764 LP  0  0  0  0  0  0  0  0  0  0  0  0  # atno 17321 bound_to 7965
  140.0441  144.5984  150.7388 LP  0  0  0  0  0  0  0  0  0  0  0  0  # atno 17342 bound_to 10162
  140.7316  143.2696  151.3931 LP  0  0  0  0  0  0  0  0  0  0  0  0  # atno 17343 bound_to 10162
  155.9793  130.4042  150.3597 LP  0  0  0  0  0  0  0  0  0  0  0  0  # atno 17370 bound_to 10713
  157.1710  131.0369  151.2795 LP  0  0  0  0  0  0  0  0  0  0  0  0  # atno 17371 bound_to 10713
  139.9735  135.0121  156.9571 LP  0  0  0  0  0  0  0  0  0  0  0  0  # atno 17394 bound_to 11000
  140.5255  134.0865  155.7302 LP  0  0  0  0  0  0  0  0  0  0  0  0  # atno 17395 bound_to 11000

$$$$
