AV-unprocessed.smi:1240|AV-procd|sdf|5203|dock7
  -GOLD-   22720 4293D 1   1.00000     0.00000
 Structure written by MMmdl.
 48 50  0  0  0  0  0  0  0  0  2 V2000
  144.6077  135.9137  154.8062 O   0  0  0  0  0  0  0  0  0  0  0  0
  144.0895  134.7993  154.8707 C   0  0  0  0  0  0  0  0  0  0  0  0
  143.6896  134.2363  156.0202 N   0  0  0  0  0  0  0  0  0  0  0  0
  143.8159  134.8426  157.3421 C   0  0  0  0  0  0  0  0  0  0  0  0
  144.6078  133.9816  158.3855 C   0  0  2  0  0  0  0  0  0  0  0  0
  143.6105  133.0161  159.1272 C   0  0  2  0  0  0  0  0  0  0  0  0
  142.8350  132.0093  158.2909 C   0  0  0  0  0  0  0  0  0  0  0  0
  141.7676  131.5242  159.2605 C   0  0  0  0  0  0  0  0  0  0  0  0
  141.4093  132.6791  160.0022 O   0  0  0  0  0  0  0  0  0  0  0  0
  142.4291  133.6647  159.8715 C   0  0  0  0  0  0  0  0  0  0  0  0
  145.4006  134.7915  159.3573 N   0  0  0  0  0  0  0  0  0  0  0  0
  144.6328  135.7256  160.1908 C   0  0  0  0  0  0  0  0  0  0  0  0
  145.5168  136.4987  161.1862 C   0  0  0  0  0  0  0  0  0  0  0  0
  146.5315  137.2045  160.4854 O   0  0  0  0  0  0  0  0  0  0  0  0
  147.3381  136.3409  159.6963 C   0  0  0  0  0  0  0  0  0  0  0  0
  146.4492  135.5823  158.6969 C   0  0  0  0  0  0  0  0  0  0  0  0
  143.8713  133.9801  153.8273 N   0  0  0  0  0  0  0  0  0  0  0  0
  144.1727  134.1895  152.4536 C   0  0  0  0  0  0  0  0  0  0  0  0
  144.7462  135.4298  152.0948 C   0  0  0  0  0  0  0  0  0  0  0  0
  145.0763  135.6809  150.7474 C   0  0  0  0  0  0  0  0  0  0  0  0
  144.8512  134.7335  149.8123 N   0  3  0  0  0  0  0  0  0  0  0  0
  144.3181  133.5285  150.1079 C   0  0  0  0  0  0  0  0  0  0  0  0
  143.9680  133.2200  151.4384 C   0  0  0  0  0  0  0  0  0  0  0  0
  143.2774  133.3154  155.9832 H   0  0  0  0  0  0  0  0  0  0  0  0
  144.2940  135.8036  157.1548 H   0  0  0  0  0  0  0  0  0  0  0  0
  142.8169  135.0657  157.7182 H   0  0  0  0  0  0  0  0  0  0  0  0
  145.3090  133.3721  157.8137 H   0  0  0  0  0  0  0  0  0  0  0  0
  144.1867  132.4446  159.8571 H   0  0  0  0  0  0  0  0  0  0  0  0
  142.3513  132.5014  157.4459 H   0  0  0  0  0  0  0  0  0  0  0  0
  143.4488  131.1860  157.9242 H   0  0  0  0  0  0  0  0  0  0  0  0
  140.9064  131.0864  158.7554 H   0  0  0  0  0  0  0  0  0  0  0  0
  142.1805  130.7796  159.9425 H   0  0  0  0  0  0  0  0  0  0  0  0
  142.7075  134.0302  160.8597 H   0  0  0  0  0  0  0  0  0  0  0  0
  142.0187  134.4976  159.2991 H   0  0  0  0  0  0  0  0  0  0  0  0
  144.0925  136.4331  159.5599 H   0  0  0  0  0  0  0  0  0  0  0  0
  143.8948  135.1859  160.7835 H   0  0  0  0  0  0  0  0  0  0  0  0
  144.9162  137.2103  161.7528 H   0  0  0  0  0  0  0  0  0  0  0  0
  145.9709  135.8177  161.9078 H   0  0  0  0  0  0  0  0  0  0  0  0
  148.0808  136.9370  159.1662 H   0  0  0  0  0  0  0  0  0  0  0  0
  147.8822  135.6452  160.3371 H   0  0  0  0  0  0  0  0  0  0  0  0
  147.0977  134.9725  158.0806 H   0  0  0  0  0  0  0  0  0  0  0  0
  145.9879  136.3014  158.0181 H   0  0  0  0  0  0  0  0  0  0  0  0
  143.5024  133.0681  154.0540 H   0  0  0  0  0  0  0  0  0  0  0  0
  144.9289  136.1877  152.8430 H   0  0  0  0  0  0  0  0  0  0  0  0
  145.5122  136.6036  150.3930 H   0  0  0  0  0  0  0  0  0  0  0  0
  144.1941  132.8485  149.2776 H   0  0  0  0  0  0  0  0  0  0  0  0
  143.5619  132.2435  151.6523 H   0  0  0  0  0  0  0  0  0  0  0  0
  145.0983  134.9341  148.8427 H   0  0  0  0  0  0  0  0  0  0  0  0
  1  2  2  0  0  0  0
  2  3  1  0  0  0  0
  2 17  1  0  0  0  0
  3  4  1  0  0  0  0
  3 24  1  0  0  0  0
  4  5  1  0  0  0  0
  4 25  1  0  0  0  0
  4 26  1  0  0  0  0
  5  6  1  0  0  0  0
  5 11  1  0  0  0  0
  5 27  1  0  0  0  0
  6 10  1  0  0  0  0
  6  7  1  0  0  0  0
  6 28  1  0  0  0  0
  7  8  1  0  0  0  0
  7 29  1  0  0  0  0
  7 30  1  0  0  0  0
  8  9  1  0  0  0  0
  8 31  1  0  0  0  0
  8 32  1  0  0  0  0
  9 10  1  0  0  0  0
 10 33  1  0  0  0  0
 10 34  1  0  0  0  0
 11 16  1  0  0  0  0
 11 12  1  0  0  0  0
 12 13  1  0  0  0  0
 12 35  1  0  0  0  0
 12 36  1  0  0  0  0
 13 14  1  0  0  0  0
 13 37  1  0  0  0  0
 13 38  1  0  0  0  0
 14 15  1  0  0  0  0
 15 16  1  0  0  0  0
 15 39  1  0  0  0  0
 15 40  1  0  0  0  0
 16 41  1  0  0  0  0
 16 42  1  0  0  0  0
 17 18  1  0  0  0  0
 17 43  1  0  0  0  0
 18 23  1  0  0  0  0
 18 19  2  0  0  0  0
 19 20  1  0  0  0  0
 19 44  1  0  0  0  0
 20 21  2  0  0  0  0
 20 45  1  0  0  0  0
 21 22  1  0  0  0  0
 21 48  1  0  0  0  0
 22 23  2  0  0  0  0
 22 46  1  0  0  0  0
 23 47  1  0  0  0  0
M  CHG  1  21   1
M  END
> <s_m_source_file>
AV-unprocessed.smi

> <i_m_source_file_index>
1240

> <i_lp_mmshare_version>
43012

> <i_f3d_flags>
0

> <s_epik_input>
W2NIXTFbY0hdbltjSF1bY0hdYzFbTkhdQyg9TylbTkhdW0NIMl1bQ0BIXShbQ0BASF0yW0NIMl1bQ0gyXU9bQ0gyXTIpTjNbQ0gyXVtDSDJdT1tDSDJdW0NIMl0z

> <s_epik_cmdline>
J2VwaWtfcHl0aG9uJywgJy1waCcsICc3LjAnLCAnLXRuJywgJzgnLCAnLW1hJywgJzIwMCcsICctbWV0YWxfYmluZGluZycsICctaW1hZScsICc8aW5maWxlLm1hZT4nLCAnLW9tYWUnLCAnPG91dGZpbGUubWFlPic=

> <r_epik_Ionization_Penalty>
1.15944

> <r_epik_Ionization_Penalty_Charging>
1.0344

> <r_epik_Ionization_Penalty_Neutral>
0.125034

> <r_epik_State_Penalty>
1.2199

> <r_epik_Charging_Adjusted_Penalty>
2.25431

> <i_epik_Tot_Q>
1

> <i_epik_Tot_abs_Q>
1

> <r_epik_Metal_State_Penalty>
1.3155

> <b_epik_Metal_Only>
0

> <s_lp_Force_Field>
OPLS_2005

> <r_lp_Energy>
66.7815

> <b_lp_Chiralities_Consistent>
1

> <s_lp_Variant>
AV-unprocessed.smi:1240-9

> <Gold.Version>
5.8.1

> <Gold.Id.Protein>
6NUR|6NUR_protein|mol2

> <Gold.PLP.Fitness>
36.4850

> <Gold.PLP.PLP>
-25.3637

> <Gold.PLP.part.hbond>
-3.8946

> <Gold.PLP.part.metal>
0.0000

> <Gold.PLP.part.buried>
-5.7018

> <Gold.PLP.part.nonpolar>
-16.3198

> <Gold.PLP.part.repulsive>
0.1280

> <Gold.PLP.ligand.clash>
0.0000

> <Gold.PLP.ligand.torsion>
0.4539

> <Gold.PLP.Chemscore.Hbond>
3.9760

> <Gold.PLP.Chemscore.CHOScore>
0.0000

> <Gold.PLP.Chemscore.Metal>
0.0000

> <Gold.Chemscore.Hbonds>
donor molecule, donor type, donor heavy atom, donor atom, acceptor molecule, acceptor atom, score
      L1  H     3    24       P1 10957  0.96
      L1  H    17    43       P1 10957  1.00
      L1  H    21    48       P1  7921  1.00
      P1  H  6934  6947       L1    14  1.00

> <Gold.PLP.Chemscore.Internal.Correction>
0.1010

> <Gold.Rescore>
     Score         DG    S(hbond)    S(metal)    S(lipo)     H(rot)  DE(clash)    DE(int)     intcor
     18.34     -20.30       3.78        0.00      55.92       1.69       0.00       1.96       ----

> <Gold.Chemscore.Fitness>
18.3449

> <Gold.Chemscore.DG>
-20.3019

> <Gold.Chemscore.ZeroCoef>
-5.4800

> <Gold.Chemscore.Hbond>
3.7752

> <Gold.Chemscore.Metal>
0.0000

> <Gold.Chemscore.Lipo>
55.9163

> <Gold.Chemscore.Internal_Hbond>
0.0000

> <Gold.Chemscore.DEClash>
0.0000

> <Gold.Chemscore.DEInternal>
1.9570

> <Gold.Chemscore.Rot>
1.6912

> <Gold.Chemscore.Internal.Correction>
   9.000000E+99

> <Gold.Chemscore.Hbonds>
donor molecule, donor type, donor heavy atom, donor atom, acceptor molecule, acceptor atom, score
      L1  H     3    24       P1 10957  0.86
      L1  H    17    43       P1 10957  1.00
      L1  H    21    48       P1  7921  0.93
      P1  H  6934  6947       L1    14  0.95

> <Gold.Chemscore.Hbond.Weighted>
-12.6091

> <Gold.Chemscore.Metal.Weighted>
-0.0000

> <Gold.Chemscore.Lipo.Weighted>
-6.5422

> <Gold.Chemscore.Internal_Hbond.Weighted>
0.0000

> <Gold.Chemscore.DEClash.Weighted>
0.0000

> <Gold.Chemscore.DEInternal.Weighted>
1.9570

> <Gold.Chemscore.Rot.Weighted>
4.3295

> <Gold.Chemscore.Internal.Correction.Weighted>
   9.000000E+99

> <Gold.Protein.RotatedTorsions>
[ 6907 6896 6895 6894 ] final  -43.22 input  -60.11 | X-H torsion
[ 7974 7965 7964 7962 ] final  -70.26 input  175.53 | X-H torsion
[ 8008 7997 7996 7995 ] final -115.39 input   59.86 | X-H torsion
[ 10167 10162 10161 10158 ] final  163.27 input  -65.29 | X-H torsion
[ 10718 10713 10712 10709 ] final  -30.31 input   66.30 | X-H torsion
[ 10763 10752 10751 10750 ] final    2.69 input  -60.55 | X-H torsion
[ 11005 11000 10999 10996 ] final  135.40 input  -57.11 | X-H torsion

> <Gold.Protein.ActiveResidues>
 VAL166  LYS551  ARG553  GLY616  TRP617  ASP618  TYR619  PRO620  LYS621  CYS622 
 ASP623  PHE694  ASN695  SER759  ASP760  ASP761  ALA762  ILE779  LEU786  VAL792 
 PHE793  MET794  SER795  GLU796  ALA797  LYS798  CYS799  TRP800  GLU811  SER814 

> <Gold.Protein.RotatedAtoms>
  150.9463  134.8868  159.7643 H   0  0  0  0  0  0  0  0  0  0  0  0  # atno 6907 bound_to 6896
  152.5101  134.3869  159.9380 H   0  0  0  0  0  0  0  0  0  0  0  0  # atno 6908 bound_to 6896
  151.3888  133.3756  159.2753 H   0  0  0  0  0  0  0  0  0  0  0  0  # atno 6909 bound_to 6896
  145.6933  140.9145  143.0770 H   0  0  0  0  0  0  0  0  0  0  0  0  # atno 7974 bound_to 7965
  155.0513  140.0393  157.2545 H   0  0  0  0  0  0  0  0  0  0  0  0  # atno 8008 bound_to 7997
  154.7135  140.2697  155.6583 H   0  0  0  0  0  0  0  0  0  0  0  0  # atno 8009 bound_to 7997
  156.2796  140.2717  156.1784 H   0  0  0  0  0  0  0  0  0  0  0  0  # atno 8010 bound_to 7997
  139.4871  144.4354  151.9018 H   0  0  0  0  0  0  0  0  0  0  0  0  # atno 10167 bound_to 10162
  156.4013  130.4391  149.7320 H   0  0  0  0  0  0  0  0  0  0  0  0  # atno 10718 bound_to 10713
  153.2924  135.6949  153.7280 H   0  0  0  0  0  0  0  0  0  0  0  0  # atno 10763 bound_to 10752
  153.6226  135.3424  155.3016 H   0  0  0  0  0  0  0  0  0  0  0  0  # atno 10764 bound_to 10752
  154.8528  135.4389  154.2011 H   0  0  0  0  0  0  0  0  0  0  0  0  # atno 10765 bound_to 10752
  139.9977  134.9491  157.0001 H   0  0  0  0  0  0  0  0  0  0  0  0  # atno 11005 bound_to 11000
  144.6990  139.8850  143.7449 LP  0  0  0  0  0  0  0  0  0  0  0  0  # atno 17320 bound_to 7965
  146.0863  139.3851  143.0433 LP  0  0  0  0  0  0  0  0  0  0  0  0  # atno 17321 bound_to 7965
  140.3803  144.2744  150.5909 LP  0  0  0  0  0  0  0  0  0  0  0  0  # atno 17342 bound_to 10162
  140.5239  143.2259  151.8346 LP  0  0  0  0  0  0  0  0  0  0  0  0  # atno 17343 bound_to 10162
  156.4335  130.7826  151.2847 LP  0  0  0  0  0  0  0  0  0  0  0  0  # atno 17370 bound_to 10713
  157.7504  131.0147  150.3473 LP  0  0  0  0  0  0  0  0  0  0  0  0  # atno 17371 bound_to 10713
  140.4787  134.1312  155.7213 LP  0  0  0  0  0  0  0  0  0  0  0  0  # atno 17394 bound_to 11000
  141.1617  133.8780  157.1828 LP  0  0  0  0  0  0  0  0  0  0  0  0  # atno 17395 bound_to 11000

$$$$
