AV-unprocessed.smi:731|AV-procd|sdf|3526|dock2
  -GOLD-   22720 0523D 1   1.00000     0.00000
 Structure written by MMmdl.
 34 35  0  0  0  0  0  0  0  0  1 V2000
  153.1076  141.4268  160.6256 O   0  0  0  0  0  0  0  0  0  0  0  0
  152.8702  142.1637  159.6676 C   0  0  0  0  0  0  0  0  0  0  0  0
  152.4694  141.7087  158.4695 N   0  0  0  0  0  0  0  0  0  0  0  0
  152.2850  140.3034  158.1135 C   0  0  0  0  0  0  0  0  0  0  0  0
  150.8819  140.0151  157.5445 C   0  0  0  0  0  0  0  0  0  0  0  0
  150.8511  138.9341  156.5124 C   0  0  0  0  0  0  0  0  0  0  0  0
  150.2678  137.7491  156.7079 N   0  0  0  0  0  0  0  0  0  0  0  0
  150.4225  136.8827  155.6203 C   0  0  0  0  0  0  0  0  0  0  0  0
  149.8340  135.5027  155.6775 C   0  0  0  0  0  0  0  0  0  0  0  0
  148.5107  135.5393  155.8363 F   0  0  0  0  0  0  0  0  0  0  0  0
  150.0848  134.8268  154.5565 F   0  0  0  0  0  0  0  0  0  0  0  0
  150.3409  134.8059  156.6944 F   0  0  0  0  0  0  0  0  0  0  0  0
  151.1358  137.4400  154.5867 C   0  0  0  0  0  0  0  0  0  0  0  0
  151.6406  139.0679  154.9445 S   0  0  0  0  0  0  0  0  0  0  0  0
  153.0470  143.6852  159.7954 C   0  0  0  0  0  0  0  0  0  0  0  0
  152.0384  144.2980  160.7958 C   0  0  0  0  0  0  0  0  0  0  0  0
  151.2032  145.3223  160.0180 C   0  0  0  0  0  0  0  0  0  0  0  0
  151.3513  144.9298  158.5511 C   0  0  0  0  0  0  0  0  0  0  0  0
  152.7833  144.4055  158.4586 C   0  0  0  0  0  0  0  0  0  0  0  0
  152.2975  142.3873  157.7420 H   0  0  0  0  0  0  0  0  0  0  0  0
  153.0473  139.9846  157.4004 H   0  0  0  0  0  0  0  0  0  0  0  0
  152.4428  139.7043  159.0104 H   0  0  0  0  0  0  0  0  0  0  0  0
  150.2062  139.7406  158.3553 H   0  0  0  0  0  0  0  0  0  0  0  0
  150.4730  140.9235  157.1007 H   0  0  0  0  0  0  0  0  0  0  0  0
  151.3969  136.9906  153.6401 H   0  0  0  0  0  0  0  0  0  0  0  0
  154.0671  143.8971  160.1201 H   0  0  0  0  0  0  0  0  0  0  0  0
  151.3795  143.5403  161.2237 H   0  0  0  0  0  0  0  0  0  0  0  0
  152.5499  144.7726  161.6338 H   0  0  0  0  0  0  0  0  0  0  0  0
  150.1621  145.3449  160.3409 H   0  0  0  0  0  0  0  0  0  0  0  0
  151.6172  146.3203  160.1695 H   0  0  0  0  0  0  0  0  0  0  0  0
  150.6467  144.1334  158.3073 H   0  0  0  0  0  0  0  0  0  0  0  0
  151.1637  145.7621  157.8721 H   0  0  0  0  0  0  0  0  0  0  0  0
  153.4732  145.2444  158.3575 H   0  0  0  0  0  0  0  0  0  0  0  0
  152.9260  143.7691  157.5837 H   0  0  0  0  0  0  0  0  0  0  0  0
  1  2  2  0  0  0  0
  2  3  1  0  0  0  0
  2 15  1  0  0  0  0
  3  4  1  0  0  0  0
  3 20  1  0  0  0  0
  4  5  1  0  0  0  0
  4 21  1  0  0  0  0
  4 22  1  0  0  0  0
  5  6  1  0  0  0  0
  5 23  1  0  0  0  0
  5 24  1  0  0  0  0
  6 14  1  0  0  0  0
  6  7  2  0  0  0  0
  7  8  1  0  0  0  0
  8  9  1  0  0  0  0
  8 13  2  0  0  0  0
  9 10  1  0  0  0  0
  9 11  1  0  0  0  0
  9 12  1  0  0  0  0
 13 14  1  0  0  0  0
 13 25  1  0  0  0  0
 15 19  1  0  0  0  0
 15 16  1  0  0  0  0
 15 26  1  0  0  0  0
 16 17  1  0  0  0  0
 16 27  1  0  0  0  0
 16 28  1  0  0  0  0
 17 18  1  0  0  0  0
 17 29  1  0  0  0  0
 17 30  1  0  0  0  0
 18 19  1  0  0  0  0
 18 31  1  0  0  0  0
 18 32  1  0  0  0  0
 19 33  1  0  0  0  0
 19 34  1  0  0  0  0
M  END
> <s_m_source_file>
AV-unprocessed.smi

> <i_m_source_file_index>
731

> <i_lp_mmshare_version>
43012

> <i_f3d_flags>
0

> <s_epik_input>
W0NIMl0xW0NIMl1bQ0gyXVtDSDJdW0NIXTFDKD1PKVtOSF1bQ0gyXVtDSDJdYzJuYyhDKEYpKEYpRilbY0hdczI=

> <s_epik_cmdline>
J2VwaWtfcHl0aG9uJywgJy1waCcsICc3LjAnLCAnLXRuJywgJzgnLCAnLW1hJywgJzIwMCcsICctbWV0YWxfYmluZGluZycsICctaW1hZScsICc8aW5maWxlLm1hZT4nLCAnLW9tYWUnLCAnPG91dGZpbGUubWFlPic=

> <r_lp_tautomer_probability>
1

> <r_epik_Ionization_Penalty>
2.28973e-08

> <r_epik_Ionization_Penalty_Charging>
0

> <r_epik_Ionization_Penalty_Neutral>
2.28973e-08

> <r_epik_State_Penalty>
-0

> <r_epik_Charging_Adjusted_Penalty>
0

> <i_epik_Tot_Q>
0

> <i_epik_Tot_abs_Q>
0

> <r_epik_Metal_State_Penalty>
-0

> <b_epik_Metal_Only>
0

> <s_lp_Force_Field>
OPLS_2005

> <r_lp_Energy>
15.4873

> <b_lp_Chiralities_Consistent>
1

> <s_lp_Variant>
AV-unprocessed.smi:731-1

> <Gold.Version>
5.8.1

> <Gold.Id.Protein>
6NUR|6NUR_protein|mol2

> <Gold.PLP.Fitness>
41.0751

> <Gold.PLP.PLP>
-39.8934

> <Gold.PLP.part.hbond>
0.0000

> <Gold.PLP.part.metal>
0.0000

> <Gold.PLP.part.buried>
-5.9208

> <Gold.PLP.part.nonpolar>
-34.9363

> <Gold.PLP.part.repulsive>
0.0867

> <Gold.PLP.ligand.clash>
1.2612

> <Gold.PLP.ligand.torsion>
0.3189

> <Gold.PLP.Chemscore.Hbond>
0.0000

> <Gold.PLP.Chemscore.CHOScore>
1.0000

> <Gold.PLP.Chemscore.Metal>
0.0000

> <Gold.Chemscore.Hbonds>
donor molecule, donor type, donor heavy atom, donor atom, acceptor molecule, acceptor atom, score
      L1  C    13    25       P1  7949  1.00

> <Gold.PLP.Chemscore.Internal.Correction>
0.0807

> <Gold.Rescore>
     Score         DG    S(hbond)    S(metal)    S(lipo)     H(rot)  DE(clash)    DE(int)     intcor
     12.92     -13.53       0.00        0.00     106.62       1.73       0.11       0.50       ----

> <Gold.Chemscore.Fitness>
12.9231

> <Gold.Chemscore.DG>
-13.5349

> <Gold.Chemscore.ZeroCoef>
-5.4800

> <Gold.Chemscore.Hbond>
0.0000

> <Gold.Chemscore.Metal>
0.0000

> <Gold.Chemscore.Lipo>
106.6198

> <Gold.Chemscore.Internal_Hbond>
0.0000

> <Gold.Chemscore.DEClash>
0.1104

> <Gold.Chemscore.DEInternal>
0.5014

> <Gold.Chemscore.Rot>
1.7264

> <Gold.Chemscore.Internal.Correction>
   9.000000E+99

> <Gold.Chemscore.Hbond.Weighted>
-0.0000

> <Gold.Chemscore.Metal.Weighted>
-0.0000

> <Gold.Chemscore.Lipo.Weighted>
-12.4745

> <Gold.Chemscore.Internal_Hbond.Weighted>
0.0000

> <Gold.Chemscore.DEClash.Weighted>
0.1104

> <Gold.Chemscore.DEInternal.Weighted>
0.5014

> <Gold.Chemscore.Rot.Weighted>
4.4196

> <Gold.Chemscore.Internal.Correction.Weighted>
   9.000000E+99

> <Gold.Protein.RotatedTorsions>
[ 6907 6896 6895 6894 ] final  108.05 input  -60.11 | X-H torsion
[ 7974 7965 7964 7962 ] final   87.34 input  175.53 | X-H torsion
[ 8008 7997 7996 7995 ] final  -24.79 input   59.86 | X-H torsion
[ 10167 10162 10161 10158 ] final -125.86 input  -65.29 | X-H torsion
[ 10718 10713 10712 10709 ] final  175.30 input   66.30 | X-H torsion
[ 10763 10752 10751 10750 ] final  154.12 input  -60.55 | X-H torsion
[ 11005 11000 10999 10996 ] final   48.24 input  -57.11 | X-H torsion

> <Gold.Protein.ActiveResidues>
 VAL166  LYS551  ARG553  GLY616  TRP617  ASP618  TYR619  PRO620  LYS621  CYS622 
 ASP623  PHE694  ASN695  SER759  ASP760  ASP761  ALA762  ILE779  LEU786  VAL792 
 PHE793  MET794  SER795  GLU796  ALA797  LYS798  CYS799  TRP800  GLU811  SER814 

> <Gold.Protein.RotatedAtoms>
  152.5129  133.9146  159.7504 H   0  0  0  0  0  0  0  0  0  0  0  0  # atno 6907 bound_to 6896
  150.9531  133.6518  159.2775 H   0  0  0  0  0  0  0  0  0  0  0  0  # atno 6908 bound_to 6896
  151.3790  135.0941  159.9542 H   0  0  0  0  0  0  0  0  0  0  0  0  # atno 6909 bound_to 6896
  145.5603  139.2303  143.2463 H   0  0  0  0  0  0  0  0  0  0  0  0  # atno 7974 bound_to 7965
  154.4510  140.1944  156.0519 H   0  0  0  0  0  0  0  0  0  0  0  0  # atno 8008 bound_to 7997
  156.0648  140.3292  155.7477 H   0  0  0  0  0  0  0  0  0  0  0  0  # atno 8009 bound_to 7997
  155.5356  140.0582  157.2871 H   0  0  0  0  0  0  0  0  0  0  0  0  # atno 8010 bound_to 7997
  139.9776  143.5777  152.2390 H   0  0  0  0  0  0  0  0  0  0  0  0  # atno 10167 bound_to 10162
  156.9369  130.9989  151.2976 H   0  0  0  0  0  0  0  0  0  0  0  0  # atno 10718 bound_to 10713
  154.1471  135.2817  155.3145 H   0  0  0  0  0  0  0  0  0  0  0  0  # atno 10763 bound_to 10752
  154.6244  135.5456  153.7614 H   0  0  0  0  0  0  0  0  0  0  0  0  # atno 10764 bound_to 10752
  153.0232  135.6447  154.1617 H   0  0  0  0  0  0  0  0  0  0  0  0  # atno 10765 bound_to 10752
  140.1208  134.4832  155.8599 H   0  0  0  0  0  0  0  0  0  0  0  0  # atno 11005 bound_to 11000
  146.1856  140.6428  142.9169 LP  0  0  0  0  0  0  0  0  0  0  0  0  # atno 17320 bound_to 7965
  144.7486  140.5133  143.6818 LP  0  0  0  0  0  0  0  0  0  0  0  0  # atno 17321 bound_to 7965
  139.6434  144.7656  151.2293 LP  0  0  0  0  0  0  0  0  0  0  0  0  # atno 17342 bound_to 10162
  140.7500  143.6279  150.8451 LP  0  0  0  0  0  0  0  0  0  0  0  0  # atno 17343 bound_to 10162
  157.5810  130.8376  149.8523 LP  0  0  0  0  0  0  0  0  0  0  0  0  # atno 17370 bound_to 10713
  156.0422  130.3736  150.1408 LP  0  0  0  0  0  0  0  0  0  0  0  0  # atno 17371 bound_to 10713
  141.2151  133.6760  156.6884 LP  0  0  0  0  0  0  0  0  0  0  0  0  # atno 17394 bound_to 11000
  140.2968  134.8196  157.4064 LP  0  0  0  0  0  0  0  0  0  0  0  0  # atno 17395 bound_to 11000

$$$$
