#       Name:                AV-unprocessed.smi:39
#       Creating user name   scv26
#       Creation time:       Thu Mar 26 16:19:47 2020


#       File generated by GOLD software.
#

@<TRIPOS>MOLECULE
AV-unprocessed.smi:39
    42    43     1
SMALL
NO_CHARGES


@<TRIPOS>ATOM
      1 ****        -3.3527   1.9484   0.0786 C.3            1 S1                 0.0000
      2 ****        -2.8228   0.5280  -0.0285 C.2            1 S1                 0.0000
      3 ****        -1.5020   0.2534  -0.1811 C.2            1 S1                 0.0000
      4 ****        -0.9885  -1.0331  -0.2774 N.am           1 S1                 0.0000
      5 ****         0.4957  -1.2786  -0.4280 C.3            1 S1                 0.0000
      6 ****         1.1796  -1.2879   0.9444 C.3            1 S1                 0.0000
      7 ****         1.8684   0.0676   0.9602 C.3            1 S1                 0.0000
      8 ****         3.0125   0.1553   1.8830 N.2            1 S1                 0.0000
      9 ****         3.9898  -0.5805   1.6822 N.1            1 S1                 1.0000
     10 ****         4.8202  -1.3475   1.5513 N.1            1 S1                -1.0000
     11 ****         2.2110   0.2659  -0.5233 C.3            1 S1                 0.0000
     12 ****         2.4334   1.7355  -0.9120 C.3            1 S1                 0.0000
     13 ****         3.1195   1.8108  -2.1430 O.3            1 S1                 0.0000
     14 ****         1.0521  -0.2392  -1.1794 O.3            1 S1                 0.0000
     15 ****        -1.8646  -2.1349  -0.1895 C.2            1 S1                 0.0000
     16 ****        -1.4796  -3.3027  -0.2309 O.2            1 S1                 0.0000
     17 ****        -3.2213  -1.8534  -0.0399 N.am           1 S1                 0.0000
     18 ****        -3.7828  -0.5770   0.0449 C.2            1 S1                 0.0000
     19 ****        -5.0000  -0.4564   0.1748 O.2            1 S1                 0.0000
     20 ****         0.6164  -2.2122  -0.9800 H              1 S1                 0.0000
     21 ****         1.1272   0.8154   1.2454 H              1 S1                 0.0000
     22 ****         3.0671  -0.3506  -0.8042 H              1 S1                 0.0000
     23 ****        -3.8521  -2.6395   0.0171 H              1 S1                 0.0000
     24 ****        -2.5526   2.6855   0.0054 H              1 S1                 0.0000
     25 ****        -3.8560   2.0957   1.0349 H              1 S1                 0.0000
     26 ****        -4.0676   2.1505  -0.7198 H              1 S1                 0.0000
     27 ****        -0.8167   1.0870  -0.2241 H              1 S1                 0.0000
     28 ****         0.4682  -1.4258   1.7598 H              1 S1                 0.0000
     29 ****         1.8942  -2.1117   0.9617 H              1 S1                 0.0000
     30 ****         1.4901   2.2797  -0.9666 H              1 S1                 0.0000
     31 ****         3.0518   2.2326  -0.1642 H              1 S1                 0.0000
     32 ****         3.2617   2.7212  -2.3532 H              1 S1                 0.0000
     33 ****         3.0014   0.7930   2.6532 LP             1 S1                 0.0000
     34 ****         5.5499  -2.0216   1.4363 LP             1 S1                 0.0000
     35 ****         2.5720   1.3807  -2.8608 LP             1 S1                 0.0000
     36 ****         3.9990   1.3408  -2.0679 LP             1 S1                 0.0000
     37 ****         0.3804   0.4950  -1.2782 LP             1 S1                 0.0000
     38 ****         1.3060  -0.5827  -2.0835 LP             1 S1                 0.0000
     39 ****        -0.5053  -3.5048  -0.3310 LP             1 S1                 0.0000
     40 ****        -2.1409  -4.0499  -0.1644 LP             1 S1                 0.0000
     41 ****        -5.4081   0.4542   0.2395 LP             1 S1                 0.0000
     42 ****        -5.5814  -1.2690   0.2158 LP             1 S1                 0.0000
@<TRIPOS>BOND
    1    1    2 1     
    2    1   24 1     
    3    1   25 1     
    4    1   26 1     
    5    2   18 1     
    6    2    3 2     
    7    3    4 1     
    8    3   27 1     
    9    4    5 1     
   10    4   15 1     
   11    5   20 1     
   12    5   14 1     
   13    5    6 1     
   14    6    7 1     
   15    6   28 1     
   16    6   29 1     
   17    7   21 1     
   18    7    8 1     
   19    7   11 1     
   20    8    9 2     
   21    9   10 2     
   22   11   22 1     
   23   11   12 1     
   24   11   14 1     
   25   12   13 1     
   26   12   30 1     
   27   12   31 1     
   28   13   32 1     
   29   15   16 2     
   30   15   17 1     
   31   17   23 1     
   32   17   18 1     
   33   18   19 2     
   34    8   33 1     
   35   10   34 1     
   36   13   35 1     
   37   13   36 1     
   38   14   37 1     
   39   14   38 1     
   40   16   39 1     
   41   16   40 1     
   42   19   41 1     
   43   19   42 1     
@<TRIPOS>SUBSTRUCTURE
      1 S1             1
@<TRIPOS>SET
LONE_PAIRS      STATIC     ATOMS    <user>   **** ""
10 33 34 35 36 37 38 39 40 41 42
DONOR_HYDROGENS      STATIC     ATOMS    <user>   **** ""
2 32 23
ATOM$BLUE        STATIC     ATOMS    COLORGROUP SYSTEM
10 33 34 35 36 37 38 39 40 41 42
ATOM$RED        STATIC     ATOMS    COLORGROUP SYSTEM
2 32 23
