AV-unprocessed.smi:496|AV-procd|sdf|2723|dock1
  -GOLD-   2262023173D 1   1.00000     0.00000
 Structure written by MMmdl.
 42 44  0  0  0  0  0  0  0  0  3 V2000
  147.5915  141.8491  154.2282 C   0  0  0  0  0  0  0  0  0  0  0  0
  148.2074  140.9198  155.1024 O   0  0  0  0  0  0  0  0  0  0  0  0
  149.4306  141.4036  155.6290 C   0  0  0  0  0  0  0  0  0  0  0  0
  149.3292  141.4506  157.1586 C   0  0  0  0  0  0  0  0  0  0  0  0
  150.6491  141.6561  157.7861 N   0  0  0  0  0  0  0  0  0  0  0  0
  151.7844  140.8843  157.7974 C   0  0  0  0  0  0  0  0  0  0  0  0
  152.0221  139.5545  157.1302 C   0  0  1  0  0  0  0  0  0  0  0  0
  151.9070  139.7007  155.6058 C   0  0  0  0  0  0  0  0  0  0  0  0
  153.3414  139.0182  157.4711 N   0  5  0  0  0  0  0  0  0  0  0  0
  153.7768  137.7708  157.1366 C   0  0  0  0  0  0  0  0  0  0  0  0
  153.1537  136.8243  156.6439 O   0  0  0  0  0  0  0  0  0  0  0  0
  155.2172  137.5814  157.4300 C   0  0  0  0  0  0  0  0  0  0  0  0
  156.0276  136.5006  157.2021 C   0  0  0  0  0  0  0  0  0  0  0  0
  157.3212  136.8471  157.6811 C   0  0  0  0  0  0  0  0  0  0  0  0
  157.2134  138.1181  158.1669 C   0  0  0  0  0  0  0  0  0  0  0  0
  155.9422  138.5801  158.0229 O   0  0  0  0  0  0  0  0  0  0  0  0
  152.7123  141.5582  158.5369 N   0  3  0  0  0  0  0  0  0  0  0  0
  152.1731  142.7487  159.0192 C   0  0  0  0  0  0  0  0  0  0  0  0
  152.7305  143.7427  159.8170 C   0  0  0  0  0  0  0  0  0  0  0  0
  151.8994  144.8357  160.1378 C   0  0  0  0  0  0  0  0  0  0  0  0
  150.5712  144.9092  159.6706 C   0  0  0  0  0  0  0  0  0  0  0  0
  150.0183  143.8945  158.8617 C   0  0  0  0  0  0  0  0  0  0  0  0
  150.8474  142.8175  158.5458 C   0  0  0  0  0  0  0  0  0  0  0  0
  146.6632  141.4292  153.8411 H   0  0  0  0  0  0  0  0  0  0  0  0
  148.2361  142.0807  153.3793 H   0  0  0  0  0  0  0  0  0  0  0  0
  147.3495  142.7772  154.7479 H   0  0  0  0  0  0  0  0  0  0  0  0
  150.2504  140.7518  155.3227 H   0  0  0  0  0  0  0  0  0  0  0  0
  149.6393  142.4012  155.2389 H   0  0  0  0  0  0  0  0  0  0  0  0
  148.6673  142.2591  157.4699 H   0  0  0  0  0  0  0  0  0  0  0  0
  148.8842  140.5362  157.5505 H   0  0  0  0  0  0  0  0  0  0  0  0
  151.2236  138.8886  157.4605 H   0  0  0  0  0  0  0  0  0  0  0  0
  150.9257  140.0841  155.3245 H   0  0  0  0  0  0  0  0  0  0  0  0
  152.0384  138.7403  155.1058 H   0  0  0  0  0  0  0  0  0  0  0  0
  152.6568  140.3876  155.2109 H   0  0  0  0  0  0  0  0  0  0  0  0
  155.7237  135.5701  156.7457 H   0  0  0  0  0  0  0  0  0  0  0  0
  158.2162  136.2431  157.6709 H   0  0  0  0  0  0  0  0  0  0  0  0
  157.9056  138.8078  158.6265 H   0  0  0  0  0  0  0  0  0  0  0  0
  153.7470  143.6843  160.1778 H   0  0  0  0  0  0  0  0  0  0  0  0
  152.2877  145.6318  160.7563 H   0  0  0  0  0  0  0  0  0  0  0  0
  149.9630  145.7610  159.9385 H   0  0  0  0  0  0  0  0  0  0  0  0
  148.9987  143.9605  158.5129 H   0  0  0  0  0  0  0  0  0  0  0  0
  153.6430  141.1993  158.7078 H   0  0  0  0  0  0  0  0  0  0  0  0
  1  2  1  0  0  0  0
  1 24  1  0  0  0  0
  1 25  1  0  0  0  0
  1 26  1  0  0  0  0
  2  3  1  0  0  0  0
  3  4  1  0  0  0  0
  3 27  1  0  0  0  0
  3 28  1  0  0  0  0
  4  5  1  0  0  0  0
  4 29  1  0  0  0  0
  4 30  1  0  0  0  0
  5 23  1  0  0  0  0
  5  6  1  0  0  0  0
  6  7  1  0  0  0  0
  6 17  2  0  0  0  0
  7  8  1  0  0  0  0
  7  9  1  0  0  0  0
  7 31  1  0  0  0  0
  8 32  1  0  0  0  0
  8 33  1  0  0  0  0
  8 34  1  0  0  0  0
  9 10  1  0  0  0  0
 10 11  2  0  0  0  0
 10 12  1  0  0  0  0
 12 16  1  0  0  0  0
 12 13  2  0  0  0  0
 13 14  1  0  0  0  0
 13 35  1  0  0  0  0
 14 15  2  0  0  0  0
 14 36  1  0  0  0  0
 15 16  1  0  0  0  0
 15 37  1  0  0  0  0
 17 18  1  0  0  0  0
 17 42  1  0  0  0  0
 18 23  2  0  0  0  0
 18 19  1  0  0  0  0
 19 20  2  0  0  0  0
 19 38  1  0  0  0  0
 20 21  1  0  0  0  0
 20 39  1  0  0  0  0
 21 22  2  0  0  0  0
 21 40  1  0  0  0  0
 22 23  1  0  0  0  0
 22 41  1  0  0  0  0
M  CHG  1   9  -1
M  CHG  1  17   1
M  END
> <s_m_source_file>
AV-unprocessed.smi

> <i_m_source_file_index>
496

> <i_lp_mmshare_version>
43012

> <i_f3d_flags>
0

> <s_epik_input>
W2NIXTFbY0hdW2NIXVtjSF1jKGMxMiluKFtDSDJdW0NIMl1PW0NIM10pYyhuMilbQ0BIXShbQ0gzXSlbTkhdQyg9TyljM1tjSF1bY0hdW2NIXW8z

> <s_epik_cmdline>
J2VwaWtfcHl0aG9uJywgJy1waCcsICc3LjAnLCAnLXRuJywgJzgnLCAnLW1hJywgJzIwMCcsICctbWV0YWxfYmluZGluZycsICctaW1hZScsICc8aW5maWxlLm1hZT4nLCAnLW9tYWUnLCAnPG91dGZpbGUubWFlPic=

> <r_epik_Ionization_Penalty>
6.2189

> <r_epik_Ionization_Penalty_Charging>
6.2189

> <r_epik_Ionization_Penalty_Neutral>
2.56052e-12

> <r_epik_State_Penalty>
7.14475

> <r_epik_Charging_Adjusted_Penalty>
13.3636

> <i_epik_Tot_Q>
0

> <i_epik_Tot_abs_Q>
2

> <r_epik_Metal_State_Penalty>
3.17915

> <b_epik_Metal_Only>
1

> <s_lp_Force_Field>
OPLS_2005

> <r_lp_Energy>
11.4028

> <b_lp_Chiralities_Consistent>
1

> <s_lp_Variant>
AV-unprocessed.smi:496-8

> <Gold.Version>
5.8.1

> <Gold.Id.Protein>
6NUR|6NUR_protein|mol2

> <Gold.PLP.Fitness>
49.0678

> <Gold.PLP.PLP>
-39.1342

> <Gold.PLP.part.hbond>
-3.0000

> <Gold.PLP.part.metal>
0.0000

> <Gold.PLP.part.buried>
-5.6269

> <Gold.PLP.part.nonpolar>
-32.1424

> <Gold.PLP.part.repulsive>
0.2245

> <Gold.PLP.ligand.clash>
0.0000

> <Gold.PLP.ligand.torsion>
0.5149

> <Gold.PLP.Chemscore.Hbond>
3.5680

> <Gold.PLP.Chemscore.CHOScore>
0.0000

> <Gold.PLP.Chemscore.Metal>
0.0000

> <Gold.Chemscore.Hbonds>
donor molecule, donor type, donor heavy atom, donor atom, acceptor molecule, acceptor atom, score
      P1  H  7997  8008       L1     9  2.00
      P1  H  7997  8010       L1    16  0.62
      P1  H 10752 10765       L1    11  0.90

> <Gold.PLP.Chemscore.Internal.Correction>
0.2594

> <Gold.Rescore>
     Score         DG    S(hbond)    S(metal)    S(lipo)     H(rot)  DE(clash)    DE(int)     intcor
     16.65     -17.30       1.47        0.00      99.06       1.83       0.03       0.62       ----

> <Gold.Chemscore.Fitness>
16.6469

> <Gold.Chemscore.DG>
-17.2981

> <Gold.Chemscore.ZeroCoef>
-5.4800

> <Gold.Chemscore.Hbond>
1.4743

> <Gold.Chemscore.Metal>
0.0000

> <Gold.Chemscore.Lipo>
99.0562

> <Gold.Chemscore.Internal_Hbond>
0.0000

> <Gold.Chemscore.DEClash>
0.0303

> <Gold.Chemscore.DEInternal>
0.6208

> <Gold.Chemscore.Rot>
1.8343

> <Gold.Chemscore.Internal.Correction>
   9.000000E+99

> <Gold.Chemscore.Hbonds>
donor molecule, donor type, donor heavy atom, donor atom, acceptor molecule, acceptor atom, score
      P1  H  7997  8008       L1     9  0.15
      P1  H  7997  8010       L1    16  0.36
      P1  H 10752 10765       L1    11  0.86

> <Gold.Chemscore.Hbond.Weighted>
-4.9243

> <Gold.Chemscore.Metal.Weighted>
-0.0000

> <Gold.Chemscore.Lipo.Weighted>
-11.5896

> <Gold.Chemscore.Internal_Hbond.Weighted>
0.0000

> <Gold.Chemscore.DEClash.Weighted>
0.0303

> <Gold.Chemscore.DEInternal.Weighted>
0.6208

> <Gold.Chemscore.Rot.Weighted>
4.6958

> <Gold.Chemscore.Internal.Correction.Weighted>
   9.000000E+99

> <Gold.Protein.RotatedTorsions>
[ 6907 6896 6895 6894 ] final  167.50 input  -60.11 | X-H torsion
[ 7974 7965 7964 7962 ] final  -94.23 input  175.53 | X-H torsion
[ 8008 7997 7996 7995 ] final  -56.28 input   59.86 | X-H torsion
[ 10167 10162 10161 10158 ] final   99.47 input  -65.29 | X-H torsion
[ 10718 10713 10712 10709 ] final -154.99 input   66.30 | X-H torsion
[ 10763 10752 10751 10750 ] final -132.89 input  -60.55 | X-H torsion
[ 11005 11000 10999 10996 ] final  119.81 input  -57.11 | X-H torsion

> <Gold.Protein.ActiveResidues>
 VAL166  LYS551  ARG553  GLY616  TRP617  ASP618  TYR619  PRO620  LYS621  CYS622 
 ASP623  PHE694  ASN695  SER759  ASP760  ASP761  ALA762  ILE779  LEU786  VAL792 
 PHE793  MET794  SER795  GLU796  ALA797  LYS798  CYS799  TRP800  GLU811  SER814 

> <Gold.Protein.RotatedAtoms>
  151.8624  133.3459  159.3707 H   0  0  0  0  0  0  0  0  0  0  0  0  # atno 6907 bound_to 6896
  150.7175  134.5193  159.5655 H   0  0  0  0  0  0  0  0  0  0  0  0  # atno 6908 bound_to 6896
  152.2709  134.7934  160.0465 H   0  0  0  0  0  0  0  0  0  0  0  0  # atno 6909 bound_to 6896
  145.3760  140.9511  143.2420 H   0  0  0  0  0  0  0  0  0  0  0  0  # atno 7974 bound_to 7965
  154.4224  140.1133  156.5612 H   0  0  0  0  0  0  0  0  0  0  0  0  # atno 8008 bound_to 7997
  155.6310  140.3495  155.4664 H   0  0  0  0  0  0  0  0  0  0  0  0  # atno 8009 bound_to 7997
  155.9948  140.1187  157.0593 H   0  0  0  0  0  0  0  0  0  0  0  0  # atno 8010 bound_to 7997
  139.7615  144.6953  151.0286 H   0  0  0  0  0  0  0  0  0  0  0  0  # atno 10167 bound_to 10162
  156.5068  130.8417  151.2631 H   0  0  0  0  0  0  0  0  0  0  0  0  # atno 10718 bound_to 10713
  154.8738  135.3783  154.4483 H   0  0  0  0  0  0  0  0  0  0  0  0  # atno 10763 bound_to 10752
  153.5162  135.7029  153.5760 H   0  0  0  0  0  0  0  0  0  0  0  0  # atno 10764 bound_to 10752
  153.4027  135.3944  155.1964 H   0  0  0  0  0  0  0  0  0  0  0  0  # atno 10765 bound_to 10752
  139.9161  134.9631  156.7712 H   0  0  0  0  0  0  0  0  0  0  0  0  # atno 11005 bound_to 11000
  144.8542  139.5275  143.6842 LP  0  0  0  0  0  0  0  0  0  0  0  0  # atno 17320 bound_to 7965
  146.2864  139.7016  142.9192 LP  0  0  0  0  0  0  0  0  0  0  0  0  # atno 17321 bound_to 7965
  140.7807  143.4692  151.0170 LP  0  0  0  0  0  0  0  0  0  0  0  0  # atno 17342 bound_to 10162
  139.8378  143.7604  152.3180 LP  0  0  0  0  0  0  0  0  0  0  0  0  # atno 17343 bound_to 10162
  157.7456  130.9963  150.2774 LP  0  0  0  0  0  0  0  0  0  0  0  0  # atno 17370 bound_to 10713
  156.3279  130.3796  149.7517 LP  0  0  0  0  0  0  0  0  0  0  0  0  # atno 17371 bound_to 10713
  140.6619  133.9637  155.7809 LP  0  0  0  0  0  0  0  0  0  0  0  0  # atno 17394 bound_to 11000
  141.0637  134.0308  157.3623 LP  0  0  0  0  0  0  0  0  0  0  0  0  # atno 17395 bound_to 11000

$$$$
