AV-unprocessed.smi:2098|AV-procd|sdf|8565|dock4
  -GOLD-   2272011293D 1   1.00000     0.00000
 Structure written by MMmdl.
 36 38  0  0  0  0  0  0  0  0  1 V2000
  152.8776  136.6897  159.8116 O   0  0  0  0  0  0  0  0  0  0  0  0
  153.3946  137.9072  160.3127 C   0  0  2  0  0  0  0  0  0  0  0  0
  153.3673  138.9480  159.1822 C   0  0  0  0  0  0  0  0  0  0  0  0
  152.1978  139.7453  159.3161 O   0  0  0  0  0  0  0  0  0  0  0  0
  152.3235  141.1131  159.1979 C   0  0  0  0  0  0  0  0  0  0  0  0
  151.1457  141.8431  158.9351 C   0  0  0  0  0  0  0  0  0  0  0  0
  151.1814  143.2440  158.7956 C   0  0  0  0  0  0  0  0  0  0  0  0
  152.4025  143.9319  158.9181 C   0  0  0  0  0  0  0  0  0  0  0  0
  152.4394  145.2786  158.7820 F   0  0  0  0  0  0  0  0  0  0  0  0
  153.5853  143.2171  159.1825 C   0  0  0  0  0  0  0  0  0  0  0  0
  153.5492  141.8159  159.3230 C   0  0  0  0  0  0  0  0  0  0  0  0
  154.8248  137.6689  160.8352 C   0  0  0  0  0  0  0  0  0  0  0  0
  155.3821  138.8367  161.4952 N   0  0  0  0  0  0  0  0  0  0  0  0
  155.4841  140.0807  160.9890 C   0  0  0  0  0  0  0  0  0  0  0  0
  156.0353  141.0111  161.7631 N   0  0  0  0  0  0  0  0  0  0  0  0
  156.3260  140.2863  162.9063 C   0  0  0  0  0  0  0  0  0  0  0  0
  156.9300  140.6900  164.1188 C   0  0  0  0  0  0  0  0  0  0  0  0
  157.1280  139.7617  165.1623 C   0  0  0  0  0  0  0  0  0  0  0  0
  156.7259  138.4188  165.0102 C   0  0  0  0  0  0  0  0  0  0  0  0
  156.1227  137.9930  163.8111 C   0  0  0  0  0  0  0  0  0  0  0  0
  155.9283  138.9217  162.7716 C   0  0  0  0  0  0  0  0  0  0  0  0
  153.4843  136.3489  159.1718 H   0  0  0  0  0  0  0  0  0  0  0  0
  152.7671  138.2446  161.1388 H   0  0  0  0  0  0  0  0  0  0  0  0
  154.2372  139.6014  159.2699 H   0  0  0  0  0  0  0  0  0  0  0  0
  153.4145  138.4580  158.2080 H   0  0  0  0  0  0  0  0  0  0  0  0
  150.2037  141.3231  158.8388 H   0  0  0  0  0  0  0  0  0  0  0  0
  150.2716  143.7900  158.5940 H   0  0  0  0  0  0  0  0  0  0  0  0
  154.5234  143.7438  159.2776 H   0  0  0  0  0  0  0  0  0  0  0  0
  154.4774  141.3040  159.5264 H   0  0  0  0  0  0  0  0  0  0  0  0
  154.8416  136.8304  161.5326 H   0  0  0  0  0  0  0  0  0  0  0  0
  155.4858  137.3991  160.0107 H   0  0  0  0  0  0  0  0  0  0  0  0
  155.1337  140.3161  159.9946 H   0  0  0  0  0  0  0  0  0  0  0  0
  157.2416  141.7160  164.2463 H   0  0  0  0  0  0  0  0  0  0  0  0
  157.5908  140.0817  166.0844 H   0  0  0  0  0  0  0  0  0  0  0  0
  156.8808  137.7154  165.8151 H   0  0  0  0  0  0  0  0  0  0  0  0
  155.8115  136.9659  163.6924 H   0  0  0  0  0  0  0  0  0  0  0  0
  1  2  1  0  0  0  0
  1 22  1  0  0  0  0
  2  3  1  0  0  0  0
  2 12  1  0  0  0  0
  2 23  1  0  0  0  0
  3  4  1  0  0  0  0
  3 24  1  0  0  0  0
  3 25  1  0  0  0  0
  4  5  1  0  0  0  0
  5 11  1  0  0  0  0
  5  6  2  0  0  0  0
  6  7  1  0  0  0  0
  6 26  1  0  0  0  0
  7  8  2  0  0  0  0
  7 27  1  0  0  0  0
  8  9  1  0  0  0  0
  8 10  1  0  0  0  0
 10 11  2  0  0  0  0
 10 28  1  0  0  0  0
 11 29  1  0  0  0  0
 12 13  1  0  0  0  0
 12 30  1  0  0  0  0
 12 31  1  0  0  0  0
 13 21  1  0  0  0  0
 13 14  1  0  0  0  0
 14 15  2  0  0  0  0
 14 32  1  0  0  0  0
 15 16  1  0  0  0  0
 16 21  2  0  0  0  0
 16 17  1  0  0  0  0
 17 18  2  0  0  0  0
 17 33  1  0  0  0  0
 18 19  1  0  0  0  0
 18 34  1  0  0  0  0
 19 20  2  0  0  0  0
 19 35  1  0  0  0  0
 20 21  1  0  0  0  0
 20 36  1  0  0  0  0
M  END
> <s_m_source_file>
AV-unprocessed.smi

> <i_m_source_file_index>
2098

> <i_lp_mmshare_version>
43012

> <i_f3d_flags>
0

> <s_epik_input>
W2NIXTFbY0hdW2NIXVtjSF1jKGMxMiluKFtjSF1uMilbQ0gyXVtDQEhdKFtPSF0pW0NIMl1PYzNbY0hdW2NIXWMoRilbY0hdW2NIXTM=

> <s_epik_cmdline>
J2VwaWtfcHl0aG9uJywgJy1waCcsICc3LjAnLCAnLXRuJywgJzgnLCAnLW1hJywgJzIwMCcsICctbWV0YWxfYmluZGluZycsICctaW1hZScsICc8aW5maWxlLm1hZT4nLCAnLW9tYWUnLCAnPG91dGZpbGUubWFlPic=

> <r_lp_tautomer_probability>
1

> <r_epik_Ionization_Penalty>
0.0603575

> <r_epik_Ionization_Penalty_Charging>
0

> <r_epik_Ionization_Penalty_Neutral>
0.0603575

> <r_epik_State_Penalty>
0.0523204

> <r_epik_Charging_Adjusted_Penalty>
0.0523204

> <i_epik_Tot_Q>
0

> <i_epik_Tot_abs_Q>
0

> <r_epik_Metal_State_Penalty>
5.46976e-05

> <b_epik_Metal_Only>
0

> <s_lp_Force_Field>
OPLS_2005

> <r_lp_Energy>
15.3662

> <b_lp_Chiralities_Consistent>
1

> <s_lp_Variant>
AV-unprocessed.smi:2098-1

> <Gold.Version>
5.8.1

> <Gold.Id.Protein>
6NUR|6NUR_protein|mol2

> <Gold.PLP.Fitness>
45.5276

> <Gold.PLP.PLP>
-44.7578

> <Gold.PLP.part.hbond>
-1.6700

> <Gold.PLP.part.metal>
0.0000

> <Gold.PLP.part.buried>
-5.5946

> <Gold.PLP.part.nonpolar>
-36.8326

> <Gold.PLP.part.repulsive>
0.0000

> <Gold.PLP.ligand.clash>
0.0000

> <Gold.PLP.ligand.torsion>
1.1473

> <Gold.PLP.Chemscore.Hbond>
1.0000

> <Gold.PLP.Chemscore.CHOScore>
0.0000

> <Gold.PLP.Chemscore.Metal>
0.0000

> <Gold.Chemscore.Hbonds>
donor molecule, donor type, donor heavy atom, donor atom, acceptor molecule, acceptor atom, score
      P1  H  6896  6907       L1     1  0.60

> <Gold.PLP.Chemscore.Internal.Correction>
0.0644

> <Gold.Rescore>
     Score         DG    S(hbond)    S(metal)    S(lipo)     H(rot)  DE(clash)    DE(int)     intcor
     12.31     -15.55       0.94        0.00     111.02       2.37       1.56       1.69       ----

> <Gold.Chemscore.Fitness>
12.3057

> <Gold.Chemscore.DG>
-15.5494

> <Gold.Chemscore.ZeroCoef>
-5.4800

> <Gold.Chemscore.Hbond>
0.9449

> <Gold.Chemscore.Metal>
0.0000

> <Gold.Chemscore.Lipo>
111.0216

> <Gold.Chemscore.Internal_Hbond>
0.0000

> <Gold.Chemscore.DEClash>
1.5559

> <Gold.Chemscore.DEInternal>
1.6878

> <Gold.Chemscore.Rot>
2.3735

> <Gold.Chemscore.Internal.Correction>
   9.000000E+99

> <Gold.Chemscore.Hbonds>
donor molecule, donor type, donor heavy atom, donor atom, acceptor molecule, acceptor atom, score
      P1  H  6896  6907       L1     1  0.04

> <Gold.Chemscore.Hbond.Weighted>
-3.1561

> <Gold.Chemscore.Metal.Weighted>
-0.0000

> <Gold.Chemscore.Lipo.Weighted>
-12.9895

> <Gold.Chemscore.Internal_Hbond.Weighted>
0.0000

> <Gold.Chemscore.DEClash.Weighted>
1.5559

> <Gold.Chemscore.DEInternal.Weighted>
1.6878

> <Gold.Chemscore.Rot.Weighted>
6.0762

> <Gold.Chemscore.Internal.Correction.Weighted>
   9.000000E+99

> <Gold.Protein.RotatedTorsions>
[ 6907 6896 6895 6894 ] final   32.53 input  -60.11 | X-H torsion
[ 7974 7965 7964 7962 ] final  136.15 input  175.53 | X-H torsion
[ 8008 7997 7996 7995 ] final  177.91 input   59.86 | X-H torsion
[ 10167 10162 10161 10158 ] final   67.29 input  -65.29 | X-H torsion
[ 10718 10713 10712 10709 ] final  -46.15 input   66.30 | X-H torsion
[ 10763 10752 10751 10750 ] final    7.49 input  -60.55 | X-H torsion
[ 11005 11000 10999 10996 ] final   64.85 input  -57.11 | X-H torsion

> <Gold.Protein.ActiveResidues>
 VAL166  LYS551  ARG553  GLY616  TRP617  ASP618  TYR619  PRO620  LYS621  CYS622 
 ASP623  PHE694  ASN695  SER759  ASP760  ASP761  ALA762  ILE779  LEU786  VAL792 
 PHE793  MET794  SER795  GLU796  ALA797  LYS798  CYS799  TRP800  GLU811  SER814 

> <Gold.Protein.RotatedAtoms>
  152.0757  134.9504  160.0573 H   0  0  0  0  0  0  0  0  0  0  0  0  # atno 6907 bound_to 6896
  152.0812  133.4149  159.4510 H   0  0  0  0  0  0  0  0  0  0  0  0  # atno 6908 bound_to 6896
  150.6836  134.2899  159.4706 H   0  0  0  0  0  0  0  0  0  0  0  0  # atno 6909 bound_to 6896
  144.9593  139.4728  143.5487 H   0  0  0  0  0  0  0  0  0  0  0  0  # atno 7974 bound_to 7965
  156.0604  140.1346  156.9947 H   0  0  0  0  0  0  0  0  0  0  0  0  # atno 8008 bound_to 7997
  154.4479  140.0992  156.6580 H   0  0  0  0  0  0  0  0  0  0  0  0  # atno 8009 bound_to 7997
  155.5386  140.3460  155.4444 H   0  0  0  0  0  0  0  0  0  0  0  0  # atno 8010 bound_to 7997
  140.0912  144.4986  150.7098 H   0  0  0  0  0  0  0  0  0  0  0  0  # atno 10167 bound_to 10162
  156.2212  130.4166  149.8991 H   0  0  0  0  0  0  0  0  0  0  0  0  # atno 10718 bound_to 10713
  153.2357  135.6898  153.7840 H   0  0  0  0  0  0  0  0  0  0  0  0  # atno 10763 bound_to 10752
  153.6988  135.3301  155.3220 H   0  0  0  0  0  0  0  0  0  0  0  0  # atno 10764 bound_to 10752
  154.8333  135.4563  154.1259 H   0  0  0  0  0  0  0  0  0  0  0  0  # atno 10765 bound_to 10752
  139.9932  134.6558  156.0055 H   0  0  0  0  0  0  0  0  0  0  0  0  # atno 11005 bound_to 11000
  146.3348  139.8732  142.8836 LP  0  0  0  0  0  0  0  0  0  0  0  0  # atno 17320 bound_to 7965
  145.2724  141.0113  143.3764 LP  0  0  0  0  0  0  0  0  0  0  0  0  # atno 17321 bound_to 7965
  140.7027  143.2446  151.4816 LP  0  0  0  0  0  0  0  0  0  0  0  0  # atno 17342 bound_to 10162
  139.5724  144.1898  152.1855 LP  0  0  0  0  0  0  0  0  0  0  0  0  # atno 17343 bound_to 10162
  156.6636  130.8792  151.3551 LP  0  0  0  0  0  0  0  0  0  0  0  0  # atno 17370 bound_to 10713
  157.7088  130.9416  150.1020 LP  0  0  0  0  0  0  0  0  0  0  0  0  # atno 17371 bound_to 10713
  141.1583  133.6541  156.4234 LP  0  0  0  0  0  0  0  0  0  0  0  0  # atno 17394 bound_to 11000
  140.4868  134.6613  157.5194 LP  0  0  0  0  0  0  0  0  0  0  0  0  # atno 17395 bound_to 11000

$$$$
