AV-unprocessed.smi:119|AV-procd|sdf|1134|dock1
  -GOLD-   2262018263D 1   1.00000     0.00000
 Structure written by MMmdl.
 51 54  0  0  0  0  0  0  0  0  1 V2000
  149.6230  139.0559  157.1688 C   0  0  0  0  0  0  0  0  0  0  0  0
  150.6876  139.1920  158.2650 C   0  0  1  0  0  0  0  0  0  0  0  0
  151.4919  137.8852  158.4202 C   0  0  0  0  0  0  0  0  0  0  0  0
  152.4105  137.8391  159.6556 C   0  0  0  0  0  0  0  0  0  0  0  0
  153.5555  138.7464  159.5299 N   0  0  0  0  0  0  0  0  0  0  0  0
  154.6712  138.3710  158.8545 C   0  0  0  0  0  0  0  0  0  0  0  0
  155.6142  139.1434  158.6673 O   0  0  0  0  0  0  0  0  0  0  0  0
  154.7668  136.9261  158.3129 C   0  0  0  0  0  0  0  0  0  0  0  0
  155.9728  136.6889  157.4897 N   0  0  0  0  0  0  0  0  0  0  0  0
  156.8919  135.6882  157.8914 C   0  0  0  0  0  0  0  0  0  0  0  0
  156.7124  135.0296  158.9168 O   0  0  0  0  0  0  0  0  0  0  0  0
  158.0365  135.4940  157.0082 C   0  0  0  0  0  0  0  0  0  0  0  0
  158.9569  134.5614  157.3066 F   0  0  0  0  0  0  0  0  0  0  0  0
  158.1844  136.2329  155.8893 C   0  0  0  0  0  0  0  0  0  0  0  0
  157.2801  137.2087  155.5115 N   0  0  0  0  0  0  0  0  0  0  0  0
  157.4654  138.0076  154.2400 C   0  0  2  0  0  0  0  0  0  0  0  0
  156.2305  137.8688  153.3425 C   0  0  0  0  0  0  0  0  0  0  0  0
  156.6295  136.7211  152.4406 C   0  0  0  0  0  0  0  0  0  0  0  0
  158.1269  136.9605  152.2837 C   0  0  0  0  0  0  0  0  0  0  0  0
  158.5589  137.4965  153.5323 O   0  0  0  0  0  0  0  0  0  0  0  0
  156.1387  137.4480  156.3063 C   0  0  0  0  0  0  0  0  0  0  0  0
  155.3014  138.2887  155.9696 O   0  0  0  0  0  0  0  0  0  0  0  0
  153.3985  140.0494  160.0684 C   0  0  0  0  0  0  0  0  0  0  0  0
  154.0558  140.3905  161.2711 C   0  0  0  0  0  0  0  0  0  0  0  0
  153.9104  141.6812  161.8148 C   0  0  0  0  0  0  0  0  0  0  0  0
  153.1083  142.6350  161.1600 C   0  0  0  0  0  0  0  0  0  0  0  0
  152.4473  142.2980  159.9632 C   0  0  0  0  0  0  0  0  0  0  0  0
  152.5828  141.0057  159.4184 C   0  0  0  0  0  0  0  0  0  0  0  0
  151.7471  140.6258  157.9078 S   0  0  0  0  0  0  0  0  0  0  0  0
  148.9312  138.2428  157.3898 H   0  0  0  0  0  0  0  0  0  0  0  0
  150.0779  138.8532  156.1987 H   0  0  0  0  0  0  0  0  0  0  0  0
  149.0361  139.9703  157.0771 H   0  0  0  0  0  0  0  0  0  0  0  0
  150.1715  139.4002  159.2030 H   0  0  0  0  0  0  0  0  0  0  0  0
  150.7876  137.0570  158.5052 H   0  0  0  0  0  0  0  0  0  0  0  0
  152.0665  137.6898  157.5137 H   0  0  0  0  0  0  0  0  0  0  0  0
  151.8378  138.0939  160.5487 H   0  0  0  0  0  0  0  0  0  0  0  0
  152.7539  136.8165  159.8219 H   0  0  0  0  0  0  0  0  0  0  0  0
  154.7544  136.2161  159.1413 H   0  0  0  0  0  0  0  0  0  0  0  0
  153.8551  136.7050  157.7568 H   0  0  0  0  0  0  0  0  0  0  0  0
  159.0468  136.0385  155.2695 H   0  0  0  0  0  0  0  0  0  0  0  0
  157.6753  139.0321  154.5520 H   0  0  0  0  0  0  0  0  0  0  0  0
  155.3172  137.6913  153.9121 H   0  0  0  0  0  0  0  0  0  0  0  0
  156.1147  138.7870  152.7651 H   0  0  0  0  0  0  0  0  0  0  0  0
  156.4475  135.7687  152.9398 H   0  0  0  0  0  0  0  0  0  0  0  0
  156.0956  136.7164  151.4901 H   0  0  0  0  0  0  0  0  0  0  0  0
  158.6731  136.0523  152.0279 H   0  0  0  0  0  0  0  0  0  0  0  0
  158.3132  137.7002  151.5039 H   0  0  0  0  0  0  0  0  0  0  0  0
  154.6741  139.6634  161.7773 H   0  0  0  0  0  0  0  0  0  0  0  0
  154.4154  141.9399  162.7338 H   0  0  0  0  0  0  0  0  0  0  0  0
  152.9989  143.6259  161.5756 H   0  0  0  0  0  0  0  0  0  0  0  0
  151.8337  143.0343  159.4653 H   0  0  0  0  0  0  0  0  0  0  0  0
  1  2  1  0  0  0  0
  1 30  1  0  0  0  0
  1 31  1  0  0  0  0
  1 32  1  0  0  0  0
  2 29  1  0  0  0  0
  2  3  1  0  0  0  0
  2 33  1  0  0  0  0
  3  4  1  0  0  0  0
  3 34  1  0  0  0  0
  3 35  1  0  0  0  0
  4  5  1  0  0  0  0
  4 36  1  0  0  0  0
  4 37  1  0  0  0  0
  5  6  1  0  0  0  0
  5 23  1  0  0  0  0
  6  7  2  0  0  0  0
  6  8  1  0  0  0  0
  8  9  1  0  0  0  0
  8 38  1  0  0  0  0
  8 39  1  0  0  0  0
  9 21  1  0  0  0  0
  9 10  1  0  0  0  0
 10 11  2  0  0  0  0
 10 12  1  0  0  0  0
 12 13  1  0  0  0  0
 12 14  2  0  0  0  0
 14 15  1  0  0  0  0
 14 40  1  0  0  0  0
 15 16  1  0  0  0  0
 15 21  1  0  0  0  0
 16 20  1  0  0  0  0
 16 17  1  0  0  0  0
 16 41  1  0  0  0  0
 17 18  1  0  0  0  0
 17 42  1  0  0  0  0
 17 43  1  0  0  0  0
 18 19  1  0  0  0  0
 18 44  1  0  0  0  0
 18 45  1  0  0  0  0
 19 20  1  0  0  0  0
 19 46  1  0  0  0  0
 19 47  1  0  0  0  0
 21 22  2  0  0  0  0
 23 28  2  0  0  0  0
 23 24  1  0  0  0  0
 24 25  2  0  0  0  0
 24 48  1  0  0  0  0
 25 26  1  0  0  0  0
 25 49  1  0  0  0  0
 26 27  2  0  0  0  0
 26 50  1  0  0  0  0
 27 28  1  0  0  0  0
 27 51  1  0  0  0  0
 28 29  1  0  0  0  0
M  END
> <s_m_source_file>
AV-unprocessed.smi

> <i_m_source_file_index>
119

> <i_lp_mmshare_version>
43012

> <i_f3d_flags>
0

> <s_epik_input>
W2NIXTFbY0hdW2NIXVtjSF1jKGMxMilTW0NASF0oW0NIM10pW0NIMl1bQ0gyXU4yQyg9TylbQ0gyXW4zYyg9TyljKEYpW2NIXW4oYzM9TylbQ0BASF00W0NIMl1bQ0gyXVtDSDJdTzQ=

> <s_epik_cmdline>
J2VwaWtfcHl0aG9uJywgJy1waCcsICc3LjAnLCAnLXRuJywgJzgnLCAnLW1hJywgJzIwMCcsICctbWV0YWxfYmluZGluZycsICctaW1hZScsICc8aW5maWxlLm1hZT4nLCAnLW9tYWUnLCAnPG91dGZpbGUubWFlPic=

> <r_lp_tautomer_probability>
1

> <r_epik_Ionization_Penalty>
1.68882e-06

> <r_epik_Ionization_Penalty_Charging>
3.67303e-09

> <r_epik_Ionization_Penalty_Neutral>
1.68515e-06

> <r_epik_State_Penalty>
-0

> <r_epik_Charging_Adjusted_Penalty>
3.67303e-09

> <i_epik_Tot_Q>
0

> <i_epik_Tot_abs_Q>
0

> <r_epik_Metal_State_Penalty>
-0

> <b_epik_Metal_Only>
0

> <s_epik_Chemistry_Notes>
This compound contains an acetal/aminal-like group ( X-CH(R)-Y where X, Y are N, S, or O) that may be acid/base labile, releasing an aldehyde.

> <s_lp_Force_Field>
OPLS_2005

> <r_lp_Energy>
49.252

> <b_lp_Chiralities_Consistent>
1

> <s_lp_Variant>
AV-unprocessed.smi:119-2

> <Gold.Version>
5.8.1

> <Gold.Id.Protein>
6NUR|6NUR_protein|mol2

> <Gold.PLP.Fitness>
46.7316

> <Gold.PLP.PLP>
-43.9079

> <Gold.PLP.part.hbond>
-0.6982

> <Gold.PLP.part.metal>
0.0000

> <Gold.PLP.part.buried>
-4.3468

> <Gold.PLP.part.nonpolar>
-38.7426

> <Gold.PLP.part.repulsive>
1.4983

> <Gold.PLP.ligand.clash>
0.0000

> <Gold.PLP.ligand.torsion>
0.0997

> <Gold.PLP.Chemscore.Hbond>
1.0000

> <Gold.PLP.Chemscore.CHOScore>
0.0000

> <Gold.PLP.Chemscore.Metal>
0.0000

> <Gold.Chemscore.Hbonds>
donor molecule, donor type, donor heavy atom, donor atom, acceptor molecule, acceptor atom, score
      P1  H  7997  8008       L1     7  1.00

> <Gold.PLP.Chemscore.Internal.Correction>
0.0231

> <Gold.Rescore>
     Score         DG    S(hbond)    S(metal)    S(lipo)     H(rot)  DE(clash)    DE(int)     intcor
     17.22     -18.88       0.98        0.00     119.86       1.53       0.24       1.41       ----

> <Gold.Chemscore.Fitness>
17.2247

> <Gold.Chemscore.DG>
-18.8771

> <Gold.Chemscore.ZeroCoef>
-5.4800

> <Gold.Chemscore.Hbond>
0.9824

> <Gold.Chemscore.Metal>
0.0000

> <Gold.Chemscore.Lipo>
119.8626

> <Gold.Chemscore.Internal_Hbond>
0.0000

> <Gold.Chemscore.DEClash>
0.2415

> <Gold.Chemscore.DEInternal>
1.4109

> <Gold.Chemscore.Rot>
1.5266

> <Gold.Chemscore.Internal.Correction>
   9.000000E+99

> <Gold.Chemscore.Hbonds>
donor molecule, donor type, donor heavy atom, donor atom, acceptor molecule, acceptor atom, score
      P1  H  7997  8008       L1     7  0.73

> <Gold.Chemscore.Hbond.Weighted>
-3.2813

> <Gold.Chemscore.Metal.Weighted>
-0.0000

> <Gold.Chemscore.Lipo.Weighted>
-14.0239

> <Gold.Chemscore.Internal_Hbond.Weighted>
0.0000

> <Gold.Chemscore.DEClash.Weighted>
0.2415

> <Gold.Chemscore.DEInternal.Weighted>
1.4109

> <Gold.Chemscore.Rot.Weighted>
3.9081

> <Gold.Chemscore.Internal.Correction.Weighted>
   9.000000E+99

> <Gold.Protein.RotatedTorsions>
[ 6907 6896 6895 6894 ] final  109.85 input  -60.11 | X-H torsion
[ 7974 7965 7964 7962 ] final  -56.92 input  175.53 | X-H torsion
[ 8008 7997 7996 7995 ] final -133.22 input   59.86 | X-H torsion
[ 10167 10162 10161 10158 ] final   65.28 input  -65.29 | X-H torsion
[ 10718 10713 10712 10709 ] final  143.00 input   66.30 | X-H torsion
[ 10763 10752 10751 10750 ] final   38.87 input  -60.55 | X-H torsion
[ 11005 11000 10999 10996 ] final  133.05 input  -57.11 | X-H torsion

> <Gold.Protein.ActiveResidues>
 VAL166  LYS551  ARG553  GLY616  TRP617  ASP618  TYR619  PRO620  LYS621  CYS622 
 ASP623  PHE694  ASN695  SER759  ASP760  ASP761  ALA762  ILE779  LEU786  VAL792 
 PHE793  MET794  SER795  GLU796  ALA797  LYS798  CYS799  TRP800  GLU811  SER814 

> <Gold.Protein.RotatedAtoms>
  152.5048  133.8885  159.7381 H   0  0  0  0  0  0  0  0  0  0  0  0  # atno 6907 bound_to 6896
  150.9329  133.6736  159.2813 H   0  0  0  0  0  0  0  0  0  0  0  0  # atno 6908 bound_to 6896
  151.4075  135.0985  159.9627 H   0  0  0  0  0  0  0  0  0  0  0  0  # atno 6909 bound_to 6896
  145.8571  140.8312  142.9956 H   0  0  0  0  0  0  0  0  0  0  0  0  # atno 7974 bound_to 7965
  155.3419  140.0472  157.3045 H   0  0  0  0  0  0  0  0  0  0  0  0  # atno 8008 bound_to 7997
  154.5273  140.2245  155.8832 H   0  0  0  0  0  0  0  0  0  0  0  0  # atno 8009 bound_to 7997
  156.1752  140.3086  155.9053 H   0  0  0  0  0  0  0  0  0  0  0  0  # atno 8010 bound_to 7997
  140.1130  144.4801  150.6966 H   0  0  0  0  0  0  0  0  0  0  0  0  # atno 10167 bound_to 10162
  157.3741  131.0983  151.0801 H   0  0  0  0  0  0  0  0  0  0  0  0  # atno 10718 bound_to 10713
  152.9986  135.6237  154.2373 H   0  0  0  0  0  0  0  0  0  0  0  0  # atno 10763 bound_to 10752
  154.2114  135.2799  155.2958 H   0  0  0  0  0  0  0  0  0  0  0  0  # atno 10764 bound_to 10752
  154.5603  135.5707  153.7060 H   0  0  0  0  0  0  0  0  0  0  0  0  # atno 10765 bound_to 10752
  139.9828  134.9542  156.9670 H   0  0  0  0  0  0  0  0  0  0  0  0  # atno 11005 bound_to 11000
  144.6727  140.1040  143.7459 LP  0  0  0  0  0  0  0  0  0  0  0  0  # atno 17320 bound_to 7965
  145.9291  139.2594  143.1336 LP  0  0  0  0  0  0  0  0  0  0  0  0  # atno 17321 bound_to 7965
  140.6915  143.2379  151.5118 LP  0  0  0  0  0  0  0  0  0  0  0  0  # atno 17342 bound_to 10162
  139.5609  144.2159  152.1690 LP  0  0  0  0  0  0  0  0  0  0  0  0  # atno 17343 bound_to 10162
  157.1894  130.6345  149.5699 LP  0  0  0  0  0  0  0  0  0  0  0  0  # atno 17370 bound_to 10713
  155.9761  130.4727  150.6508 LP  0  0  0  0  0  0  0  0  0  0  0  0  # atno 17371 bound_to 10713
  140.5062  134.1047  155.7260 LP  0  0  0  0  0  0  0  0  0  0  0  0  # atno 17394 bound_to 11000
  141.1497  133.8990  157.2127 LP  0  0  0  0  0  0  0  0  0  0  0  0  # atno 17395 bound_to 11000

$$$$
