#       Name:                AV-unprocessed.smi:2273
#       Creating user name   scv26
#       Creation time:       Fri Mar 27 12:38:04 2020


#       File generated by GOLD software.
#

@<TRIPOS>MOLECULE
AV-unprocessed.smi:2273
    59    60     1
SMALL
NO_CHARGES


@<TRIPOS>ATOM
      1 ****         7.4666  -2.6517   4.1921 C.3            1 S1                 0.0000
      2 ****         6.0064  -2.2741   3.8972 C.3            1 S1                 0.0000
      3 ****         5.6554  -2.1162   2.3934 C.3            1 S1                 0.0000
      4 ****         6.5214  -0.9923   1.7620 C.3            1 S1                 0.0000
      5 ****         6.3373  -0.7598   0.2576 C.3            1 S1                 0.0000
      6 ****         4.1311  -1.8703   2.1734 C.3            1 S1                 0.0000
      7 ****         3.5826  -2.5402   0.8879 C.3            1 S1                 0.0000
      8 ****         2.0804  -2.2600   0.6952 C.3            1 S1                 0.0000
      9 ****         1.8375  -0.8528   0.3600 N.am           1 S1                 0.0000
     10 ****         1.9492  -0.2429  -0.8336 C.2            1 S1                 0.0000
     11 ****         2.2863  -0.8650  -1.8398 O.2            1 S1                 0.0000
     12 ****         1.6540   1.0729  -0.8178 N.am           1 S1                 0.0000
     13 ****         1.6719   1.9514  -1.9132 C.2            1 S1                 0.0000
     14 ****         0.5796   2.7252  -2.1496 C.2            1 S1                 0.0000
     15 ****        -0.6703   2.6322  -1.2895 C.3            1 S1                 0.0000
     16 ****         0.5946   3.6429  -3.2697 C.2            1 S1                 0.0000
     17 ****         1.6844   3.7189  -4.0449 C.2            1 S1                 0.0000
     18 ****         2.8247   2.9443  -3.7897 N.am           1 S1                 0.0000
     19 ****         3.9720   3.1121  -4.6854 C.3            1 S1                 0.0000
     20 ****         2.9023   2.0871  -2.7315 C.2            1 S1                 0.0000
     21 ****         3.9513   1.4888  -2.4819 O.2            1 S1                 0.0000
     22 ****         1.3244  -2.6414   1.9761 C.3            1 S1                 0.0000
     23 ****         1.9886  -2.0305   3.2204 C.3            1 S1                 0.0000
     24 ****         3.3649  -2.3927   3.2600 O.3            1 S1                 0.0000
     25 ****         7.5927  -2.8884   5.2488 H              1 S1                 0.0000
     26 ****         8.1548  -1.8380   3.9657 H              1 S1                 0.0000
     27 ****         7.7721  -3.5274   3.6191 H              1 S1                 0.0000
     28 ****         5.3958  -3.0654   4.3326 H              1 S1                 0.0000
     29 ****         5.7509  -1.3612   4.4369 H              1 S1                 0.0000
     30 ****         5.9173  -3.0601   1.9134 H              1 S1                 0.0000
     31 ****         6.3431  -0.0542   2.2888 H              1 S1                 0.0000
     32 ****         7.5755  -1.2219   1.9098 H              1 S1                 0.0000
     33 ****         7.0756  -0.0479  -0.1121 H              1 S1                 0.0000
     34 ****         5.3553  -0.3446   0.0315 H              1 S1                 0.0000
     35 ****         6.4645  -1.6858  -0.3034 H              1 S1                 0.0000
     36 ****         3.9631  -0.7924   2.1391 H              1 S1                 0.0000
     37 ****         4.1307  -2.2315   0.0015 H              1 S1                 0.0000
     38 ****         3.7323  -3.6182   0.9616 H              1 S1                 0.0000
     39 ****         1.6972  -2.8877  -0.1110 H              1 S1                 0.0000
     40 ****         1.5950  -0.2585   1.1397 H              1 S1                 0.0000
     41 ****         1.2748   1.4481   0.0390 H              1 S1                 0.0000
     42 ****        -1.4095   3.3774  -1.5844 H              1 S1                 0.0000
     43 ****        -0.4325   2.7954  -0.2379 H              1 S1                 0.0000
     44 ****        -1.1248   1.6479  -1.3952 H              1 S1                 0.0000
     45 ****        -0.2666   4.2570  -3.4892 H              1 S1                 0.0000
     46 ****         1.7531   4.3813  -4.8954 H              1 S1                 0.0000
     47 ****         4.3029   2.1479  -5.0744 H              1 S1                 0.0000
     48 ****         4.8070   3.5690  -4.1525 H              1 S1                 0.0000
     49 ****         3.7454   3.7436  -5.5452 H              1 S1                 0.0000
     50 ****         0.2786  -2.3384   1.9126 H              1 S1                 0.0000
     51 ****         1.3231  -3.7274   2.0777 H              1 S1                 0.0000
     52 ****         1.8836  -0.9445   3.2307 H              1 S1                 0.0000
     53 ****         1.5016  -2.4021   4.1220 H              1 S1                 0.0000
     54 ****         2.4834  -1.8436  -1.7800 LP             1 S1                 0.0000
     55 ****         2.3633  -0.3922  -2.7176 LP             1 S1                 0.0000
     56 ****         4.0016   0.8752  -1.6939 LP             1 S1                 0.0000
     57 ****         4.7517   1.6172  -3.0674 LP             1 S1                 0.0000
     58 ****         3.7561  -2.0508   4.1145 LP             1 S1                 0.0000
     59 ****         3.4289  -3.3904   3.2398 LP             1 S1                 0.0000
@<TRIPOS>BOND
    1    1    2 1     
    2    1   25 1     
    3    1   26 1     
    4    1   27 1     
    5    2    3 1     
    6    2   28 1     
    7    2   29 1     
    8    3    4 1     
    9    3    6 1     
   10    3   30 1     
   11    4    5 1     
   12    4   31 1     
   13    4   32 1     
   14    5   33 1     
   15    5   34 1     
   16    5   35 1     
   17    6   24 1     
   18    6    7 1     
   19    6   36 1     
   20    7    8 1     
   21    7   37 1     
   22    7   38 1     
   23    8    9 1     
   24    8   22 1     
   25    8   39 1     
   26    9   10 am    
   27    9   40 1     
   28   10   11 2     
   29   10   12 am    
   30   12   13 1     
   31   12   41 1     
   32   13   20 1     
   33   13   14 2     
   34   14   15 1     
   35   14   16 1     
   36   15   42 1     
   37   15   43 1     
   38   15   44 1     
   39   16   17 2     
   40   16   45 1     
   41   17   18 1     
   42   17   46 1     
   43   18   19 1     
   44   18   20 am    
   45   19   47 1     
   46   19   48 1     
   47   19   49 1     
   48   20   21 2     
   49   22   23 1     
   50   22   50 1     
   51   22   51 1     
   52   23   24 1     
   53   23   52 1     
   54   23   53 1     
   55   11   54 1     
   56   11   55 1     
   57   21   56 1     
   58   21   57 1     
   59   24   58 1     
   60   24   59 1     
@<TRIPOS>SUBSTRUCTURE
      1 S1             1
@<TRIPOS>SET
LONE_PAIRS      STATIC     ATOMS    <user>   **** ""
6 54 55 56 57 58 59
DONOR_HYDROGENS      STATIC     ATOMS    <user>   **** ""
2 40 41
ATOM$BLUE        STATIC     ATOMS    COLORGROUP SYSTEM
6 54 55 56 57 58 59
ATOM$RED        STATIC     ATOMS    COLORGROUP SYSTEM
2 40 41
