AV-unprocessed.smi:3250|AV-procd|sdf|12432|dock3
  -GOLD-   2272018323D 1   1.00000     0.00000
 Structure written by MMmdl.
 40 41  0  0  0  0  0  0  0  0  3 V2000
  146.7752  138.8709  151.5588 C   0  0  0  0  0  0  0  0  0  0  0  0
  147.6053  139.6444  152.5926 C   0  0  0  0  0  0  0  0  0  0  0  0
  148.3580  138.7430  153.5053 N   0  3  2  0  0  0  0  0  0  0  0  0
  147.5461  138.1394  154.5928 C   0  0  0  0  0  0  0  0  0  0  0  0
  147.2949  139.1437  155.7336 C   0  0  0  0  0  0  0  0  0  0  0  0
  148.5358  139.6558  156.2045 O   0  0  0  0  0  0  0  0  0  0  0  0
  149.2581  140.3512  155.1933 C   0  0  1  0  0  0  0  0  0  0  0  0
  150.5323  140.9346  155.8280 C   0  0  0  0  0  0  0  0  0  0  0  0
  150.3601  142.3189  156.2492 N   0  0  0  0  0  0  0  0  0  0  0  0
  151.0127  142.8937  157.3258 C   0  0  0  0  0  0  0  0  0  0  0  0
  150.7603  144.1841  157.5894 N   0  3  0  0  0  0  0  0  0  0  0  0
  151.3824  144.7937  158.6288 C   0  0  0  0  0  0  0  0  0  0  0  0
  152.2928  144.0805  159.4296 C   0  0  0  0  0  0  0  0  0  0  0  0
  152.5117  142.7335  159.0990 C   0  0  0  0  0  0  0  0  0  0  0  0
  153.3987  141.9830  159.8429 O   0  0  0  0  0  0  0  0  0  0  0  0
  153.5929  142.3266  161.2110 C   0  0  0  0  0  0  0  0  0  0  0  0
  151.8677  142.1616  158.0546 N   0  0  0  0  0  0  0  0  0  0  0  0
  149.5893  139.3571  154.0608 C   0  0  0  0  0  0  0  0  0  0  0  0
  146.3150  139.5570  150.8475 H   0  0  0  0  0  0  0  0  0  0  0  0
  145.9705  138.3013  152.0224 H   0  0  0  0  0  0  0  0  0  0  0  0
  147.3969  138.1775  150.9919 H   0  0  0  0  0  0  0  0  0  0  0  0
  148.3137  140.2677  152.0456 H   0  0  0  0  0  0  0  0  0  0  0  0
  146.9688  140.3279  153.1546 H   0  0  0  0  0  0  0  0  0  0  0  0
  146.6044  137.7446  154.2138 H   0  0  0  0  0  0  0  0  0  0  0  0
  148.0950  137.2835  154.9881 H   0  0  0  0  0  0  0  0  0  0  0  0
  146.6478  139.9609  155.4124 H   0  0  0  0  0  0  0  0  0  0  0  0
  146.7848  138.6480  156.5597 H   0  0  0  0  0  0  0  0  0  0  0  0
  148.6447  141.1611  154.7964 H   0  0  0  0  0  0  0  0  0  0  0  0
  150.8282  140.3386  156.6916 H   0  0  0  0  0  0  0  0  0  0  0  0
  151.3612  140.8844  155.1209 H   0  0  0  0  0  0  0  0  0  0  0  0
  149.7867  142.9212  155.6763 H   0  0  0  0  0  0  0  0  0  0  0  0
  151.1323  145.8331  158.7838 H   0  0  0  0  0  0  0  0  0  0  0  0
  152.8007  144.5479  160.2605 H   0  0  0  0  0  0  0  0  0  0  0  0
  154.3120  141.6395  161.6569 H   0  0  0  0  0  0  0  0  0  0  0  0
  152.6646  142.2488  161.7792 H   0  0  0  0  0  0  0  0  0  0  0  0
  153.9923  143.3364  161.3153 H   0  0  0  0  0  0  0  0  0  0  0  0
  150.2248  138.5594  154.4485 H   0  0  0  0  0  0  0  0  0  0  0  0
  150.1609  139.8446  153.2699 H   0  0  0  0  0  0  0  0  0  0  0  0
  148.6695  137.9798  152.9209 H   0  0  0  0  0  0  0  0  0  0  0  0
  150.1042  144.7171  157.0178 H   0  0  0  0  0  0  0  0  0  0  0  0
  1  2  1  0  0  0  0
  1 19  1  0  0  0  0
  1 20  1  0  0  0  0
  1 21  1  0  0  0  0
  2  3  1  0  0  0  0
  2 22  1  0  0  0  0
  2 23  1  0  0  0  0
  3 18  1  0  0  0  0
  3  4  1  0  0  0  0
  3 39  1  0  0  0  0
  4  5  1  0  0  0  0
  4 24  1  0  0  0  0
  4 25  1  0  0  0  0
  5  6  1  0  0  0  0
  5 26  1  0  0  0  0
  5 27  1  0  0  0  0
  6  7  1  0  0  0  0
  7  8  1  0  0  0  0
  7 18  1  0  0  0  0
  7 28  1  0  0  0  0
  8  9  1  0  0  0  0
  8 29  1  0  0  0  0
  8 30  1  0  0  0  0
  9 10  1  0  0  0  0
  9 31  1  0  0  0  0
 10 17  1  0  0  0  0
 10 11  2  0  0  0  0
 11 12  1  0  0  0  0
 11 40  1  0  0  0  0
 12 13  2  0  0  0  0
 12 32  1  0  0  0  0
 13 14  1  0  0  0  0
 13 33  1  0  0  0  0
 14 15  1  0  0  0  0
 14 17  2  0  0  0  0
 15 16  1  0  0  0  0
 16 34  1  0  0  0  0
 16 35  1  0  0  0  0
 16 36  1  0  0  0  0
 18 37  1  0  0  0  0
 18 38  1  0  0  0  0
M  CHG  1   3   1
M  CHG  1  11   1
M  END
> <s_m_source_file>
AV-unprocessed.smi

> <i_m_source_file_index>
3250

> <i_lp_mmshare_version>
43012

> <i_f3d_flags>
0

> <s_epik_input>
W0NIM11bQ0gyXU4xW0NIMl1bQ0gyXU9bQ0BIXShbQ0gyXTEpW0NIMl1bTkhdYzJuW2NIXVtjSF1jKG4yKU9bQ0gzXQ==

> <s_epik_cmdline>
J2VwaWtfcHl0aG9uJywgJy1waCcsICc3LjAnLCAnLXRuJywgJzgnLCAnLW1hJywgJzIwMCcsICctbWV0YWxfYmluZGluZycsICctaW1hZScsICc8aW5maWxlLm1hZT4nLCAnLW9tYWUnLCAnPG91dGZpbGUubWFlPic=

> <r_lp_tautomer_probability>
0.999985

> <r_epik_Ionization_Penalty>
2.24691

> <r_epik_Ionization_Penalty_Charging>
2.24686

> <r_epik_Ionization_Penalty_Neutral>
4.52111e-05

> <r_epik_State_Penalty>
2.24709

> <r_epik_Charging_Adjusted_Penalty>
4.49395

> <i_epik_Tot_Q>
2

> <i_epik_Tot_abs_Q>
2

> <r_epik_Metal_State_Penalty>
2.26327

> <b_epik_Metal_Only>
0

> <s_lp_Force_Field>
OPLS_2005

> <r_lp_Energy>
19.5656

> <b_lp_Chiralities_Consistent>
1

> <s_lp_Variant>
AV-unprocessed.smi:3250-8

> <Gold.Version>
5.8.1

> <Gold.Id.Protein>
6NUR|6NUR_protein|mol2

> <Gold.PLP.Fitness>
48.7347

> <Gold.PLP.PLP>
-34.0075

> <Gold.PLP.part.hbond>
-3.9803

> <Gold.PLP.part.metal>
0.0000

> <Gold.PLP.part.buried>
2.4088

> <Gold.PLP.part.nonpolar>
-32.9346

> <Gold.PLP.part.repulsive>
0.1733

> <Gold.PLP.ligand.clash>
0.0000

> <Gold.PLP.ligand.torsion>
1.2641

> <Gold.PLP.Chemscore.Hbond>
5.7425

> <Gold.PLP.Chemscore.CHOScore>
0.0000

> <Gold.PLP.Chemscore.Metal>
0.0000

> <Gold.Chemscore.Hbonds>
donor molecule, donor type, donor heavy atom, donor atom, acceptor molecule, acceptor atom, score
      L1  H     3    39       P1  7948  1.95
      L1  H     9    31       P1  8028  1.70
      L1  H    11    40       P1  8028  1.98

> <Gold.PLP.Chemscore.Internal.Correction>
0.0278

> <Gold.Rescore>
     Score         DG    S(hbond)    S(metal)    S(lipo)     H(rot)  DE(clash)    DE(int)     intcor
     14.93     -17.43       2.23        0.00      76.96       1.75       1.34       1.17       ----

> <Gold.Chemscore.Fitness>
14.9258

> <Gold.Chemscore.DG>
-17.4308

> <Gold.Chemscore.ZeroCoef>
-5.4800

> <Gold.Chemscore.Hbond>
2.2257

> <Gold.Chemscore.Metal>
0.0000

> <Gold.Chemscore.Lipo>
76.9628

> <Gold.Chemscore.Internal_Hbond>
0.0000

> <Gold.Chemscore.DEClash>
1.3372

> <Gold.Chemscore.DEInternal>
1.1679

> <Gold.Chemscore.Rot>
1.7530

> <Gold.Chemscore.Internal.Correction>
   9.000000E+99

> <Gold.Chemscore.Hbonds>
donor molecule, donor type, donor heavy atom, donor atom, acceptor molecule, acceptor atom, score
      L1  H     3    39       P1  7948  0.91
      L1  H     9    31       P1  8028  0.81
      L1  H    11    40       P1  8028  0.37

> <Gold.Chemscore.Hbond.Weighted>
-7.4338

> <Gold.Chemscore.Metal.Weighted>
-0.0000

> <Gold.Chemscore.Lipo.Weighted>
-9.0046

> <Gold.Chemscore.Internal_Hbond.Weighted>
0.0000

> <Gold.Chemscore.DEClash.Weighted>
1.3372

> <Gold.Chemscore.DEInternal.Weighted>
1.1679

> <Gold.Chemscore.Rot.Weighted>
4.4876

> <Gold.Chemscore.Internal.Correction.Weighted>
   9.000000E+99

> <Gold.Protein.RotatedTorsions>
[ 6907 6896 6895 6894 ] final   86.81 input  -60.11 | X-H torsion
[ 7974 7965 7964 7962 ] final   -9.29 input  175.53 | X-H torsion
[ 8008 7997 7996 7995 ] final    0.30 input   59.86 | X-H torsion
[ 10167 10162 10161 10158 ] final  123.01 input  -65.29 | X-H torsion
[ 10718 10713 10712 10709 ] final -151.54 input   66.30 | X-H torsion
[ 10763 10752 10751 10750 ] final  -16.56 input  -60.55 | X-H torsion
[ 11005 11000 10999 10996 ] final   38.31 input  -57.11 | X-H torsion

> <Gold.Protein.ActiveResidues>
 VAL166  LYS551  ARG553  GLY616  TRP617  ASP618  TYR619  PRO620  LYS621  CYS622 
 ASP623  PHE694  ASN695  SER759  ASP760  ASP761  ALA762  ILE779  LEU786  VAL792 
 PHE793  MET794  SER795  GLU796  ALA797  LYS798  CYS799  TRP800  GLU811  SER814 

> <Gold.Protein.RotatedAtoms>
  152.5401  134.2374  159.8848 H   0  0  0  0  0  0  0  0  0  0  0  0  # atno 6907 bound_to 6896
  151.2343  133.4427  159.2612 H   0  0  0  0  0  0  0  0  0  0  0  0  # atno 6908 bound_to 6896
  151.0686  134.9797  159.8353 H   0  0  0  0  0  0  0  0  0  0  0  0  # atno 6909 bound_to 6896
  146.2256  140.2595  142.8351 H   0  0  0  0  0  0  0  0  0  0  0  0  # atno 7974 bound_to 7965
  154.6665  140.2602  155.7053 H   0  0  0  0  0  0  0  0  0  0  0  0  # atno 8008 bound_to 7997
  156.2641  140.2838  156.1079 H   0  0  0  0  0  0  0  0  0  0  0  0  # atno 8009 bound_to 7997
  155.1232  140.0377  157.2745 H   0  0  0  0  0  0  0  0  0  0  0  0  # atno 8010 bound_to 7997
  139.5824  144.6992  151.3494 H   0  0  0  0  0  0  0  0  0  0  0  0  # atno 10167 bound_to 10162
  156.4605  130.8211  151.2442 H   0  0  0  0  0  0  0  0  0  0  0  0  # atno 10718 bound_to 10713
  153.5605  135.7010  153.5549 H   0  0  0  0  0  0  0  0  0  0  0  0  # atno 10763 bound_to 10752
  153.3434  135.4015  155.1589 H   0  0  0  0  0  0  0  0  0  0  0  0  # atno 10764 bound_to 10752
  154.8648  135.3747  154.5122 H   0  0  0  0  0  0  0  0  0  0  0  0  # atno 10765 bound_to 10752
  140.2139  134.3722  155.8036 H   0  0  0  0  0  0  0  0  0  0  0  0  # atno 11005 bound_to 11000
  144.9351  140.8017  143.5665 LP  0  0  0  0  0  0  0  0  0  0  0  0  # atno 17320 bound_to 7965
  145.2541  139.2019  143.4926 LP  0  0  0  0  0  0  0  0  0  0  0  0  # atno 17321 bound_to 7965
  140.7101  143.7413  150.7551 LP  0  0  0  0  0  0  0  0  0  0  0  0  # atno 17342 bound_to 10162
  140.0949  143.4842  152.2458 LP  0  0  0  0  0  0  0  0  0  0  0  0  # atno 17343 bound_to 10162
  157.7498  131.0108  150.3322 LP  0  0  0  0  0  0  0  0  0  0  0  0  # atno 17370 bound_to 10713
  156.3721  130.3865  149.7167 LP  0  0  0  0  0  0  0  0  0  0  0  0  # atno 17371 bound_to 10713
  141.2225  133.7157  156.8463 LP  0  0  0  0  0  0  0  0  0  0  0  0  # atno 17394 bound_to 11000
  140.1921  134.8958  157.3073 LP  0  0  0  0  0  0  0  0  0  0  0  0  # atno 17395 bound_to 11000

$$$$
