#       Name:                AV-unprocessed.smi:37
#       Creating user name   scv26
#       Creation time:       Thu Mar 26 16:14:50 2020


#       File generated by GOLD software.
#

@<TRIPOS>MOLECULE
AV-unprocessed.smi:37
    54    55     1
SMALL
NO_CHARGES


@<TRIPOS>ATOM
      1 ****        -4.8996   3.9199   0.8152 C.3            1 S1                 0.0000
      2 ****        -3.5423   3.2340   0.6002 C.3            1 S1                 0.0000
      3 ****        -3.6499   1.8509  -0.0456 C.2            1 S1                 0.0000
      4 ****        -4.7304   1.3506  -0.3631 O.2            1 S1                 0.0000
      5 ****        -2.4477   1.2823  -0.2104 O.3            1 S1                 0.0000
      6 ****        -2.3530  -0.0127  -0.7804 C.3            1 S1                 0.0000
      7 ****        -0.8848  -0.4534  -0.7880 C.3            1 S1                 0.0000
      8 ****        -0.7801  -1.6811  -1.5151 O.3            1 S1                 0.0000
      9 ****        -0.0214  -2.6144  -0.8035 C.3            1 S1                 0.0000
     10 ****         1.4443  -2.5249  -1.2043 N.am           1 S1                 0.0000
     11 ****         1.9075  -1.5525  -2.0781 C.2            1 S1                 0.0000
     12 ****         3.2115  -1.4707  -2.4111 C.2            1 S1                 0.0000
     13 ****         3.6272  -0.5111  -3.2557 F              1 S1                 0.0000
     14 ****         4.1614  -2.4314  -1.8557 C.2            1 S1                 0.0000
     15 ****         5.3535  -2.3371  -2.1434 O.2            1 S1                 0.0000
     16 ****         3.6742  -3.4061  -1.0353 N.pl3          1 S1                -1.0000
     17 ****         2.3537  -3.4972  -0.7017 C.2            1 S1                 0.0000
     18 ****         1.9048  -4.3887   0.0191 O.2            1 S1                 0.0000
     19 ****        -0.2156  -2.2454   0.6719 C.3            1 S1                 0.0000
     20 ****        -1.9355  -3.0153   1.3175 Br             1 S1                 0.0000
     21 ****        -0.3295  -0.7323   0.6211 C.3            1 S1                 0.0000
     22 ****         0.9731  -0.1755   0.7502 O.3            1 S1                 0.0000
     23 ****         1.1450   1.0842   1.1853 C.2            1 S1                 0.0000
     24 ****         0.2509   1.8634   1.5160 O.2            1 S1                 0.0000
     25 ****         2.6143   1.5025   1.2027 C.3            1 S1                 0.0000
     26 ****         3.4922   0.5434   2.0196 C.3            1 S1                 0.0000
     27 ****        -4.7655   4.8995   1.2738 H              1 S1                 0.0000
     28 ****        -5.5423   3.3335   1.4728 H              1 S1                 0.0000
     29 ****        -5.4250   4.0680  -0.1289 H              1 S1                 0.0000
     30 ****        -2.9099   3.8607  -0.0291 H              1 S1                 0.0000
     31 ****        -3.0289   3.1290   1.5563 H              1 S1                 0.0000
     32 ****        -2.9643  -0.7215  -0.2208 H              1 S1                 0.0000
     33 ****        -2.7365   0.0171  -1.8011 H              1 S1                 0.0000
     34 ****        -0.2947   0.3099  -1.2968 H              1 S1                 0.0000
     35 ****        -0.3167  -3.6340  -1.0565 H              1 S1                 0.0000
     36 ****         1.2301  -0.8371  -2.5159 H              1 S1                 0.0000
     37 ****         0.5794  -2.6106   1.3221 H              1 S1                 0.0000
     38 ****        -0.9781  -0.3652   1.4182 H              1 S1                 0.0000
     39 ****         2.9767   1.5568   0.1759 H              1 S1                 0.0000
     40 ****         2.6857   2.5086   1.6168 H              1 S1                 0.0000
     41 ****         4.5146   0.9165   2.0798 H              1 S1                 0.0000
     42 ****         3.5325  -0.4475   1.5651 H              1 S1                 0.0000
     43 ****         3.1202   0.4331   3.0388 H              1 S1                 0.0000
     44 ****        -5.5804   1.8518  -0.2007 LP             1 S1                 0.0000
     45 ****        -4.7572   0.4435  -0.7831 LP             1 S1                 0.0000
     46 ****        -0.3409  -1.5043  -2.3959 LP             1 S1                 0.0000
     47 ****        -1.6965  -2.0511  -1.6678 LP             1 S1                 0.0000
     48 ****         5.6646  -1.6075  -2.7524 LP             1 S1                 0.0000
     49 ****         6.0115  -2.9899  -1.7682 LP             1 S1                 0.0000
     50 ****         4.3105  -4.0817  -0.6629 LP             1 S1                 0.0000
     51 ****         0.9286  -4.4135   0.2345 LP             1 S1                 0.0000
     52 ****         2.5164  -5.0879   0.3892 LP             1 S1                 0.0000
     53 ****        -0.7055   1.5745   1.4727 LP             1 S1                 0.0000
     54 ****         0.4811   2.7852   1.8280 LP             1 S1                 0.0000
@<TRIPOS>BOND
    1    1    2 1     
    2    1   27 1     
    3    1   28 1     
    4    1   29 1     
    5    2    3 1     
    6    2   30 1     
    7    2   31 1     
    8    3    4 2     
    9    3    5 1     
   10    5    6 1     
   11    6    7 1     
   12    6   32 1     
   13    6   33 1     
   14    7   21 1     
   15    7    8 1     
   16    7   34 1     
   17    8    9 1     
   18    9   10 1     
   19    9   19 1     
   20    9   35 1     
   21   10   17 am    
   22   10   11 1     
   23   11   12 2     
   24   11   36 1     
   25   12   13 1     
   26   12   14 1     
   27   14   15 2     
   28   14   16 1     
   29   16   17 1     
   30   17   18 2     
   31   19   20 1     
   32   19   21 1     
   33   19   37 1     
   34   21   22 1     
   35   21   38 1     
   36   22   23 1     
   37   23   24 2     
   38   23   25 1     
   39   25   26 1     
   40   25   39 1     
   41   25   40 1     
   42   26   41 1     
   43   26   42 1     
   44   26   43 1     
   45    4   44 1     
   46    4   45 1     
   47    8   46 1     
   48    8   47 1     
   49   15   48 1     
   50   15   49 1     
   51   16   50 1     
   52   18   51 1     
   53   18   52 1     
   54   24   53 1     
   55   24   54 1     
@<TRIPOS>SUBSTRUCTURE
      1 S1             1
@<TRIPOS>SET
LONE_PAIRS      STATIC     ATOMS    <user>   **** ""
11 44 45 46 47 48 49 50 51 52 53 54
ATOM$BLUE        STATIC     ATOMS    COLORGROUP SYSTEM
11 44 45 46 47 48 49 50 51 52 53 54
