AV-unprocessed.smi:801|AV-procd|sdf|3789|dock5
  -GOLD-   22720 1223D 1   1.00000     0.00000
 Structure written by MMmdl.
 44 45  0  0  0  0  0  0  0  0  1 V2000
  143.8320  145.1674  154.0718 C   0  0  0  0  0  0  0  0  0  0  0  0
  144.0225  143.7784  154.2921 O   0  0  0  0  0  0  0  0  0  0  0  0
  145.3854  143.3842  154.3518 C   0  0  0  0  0  0  0  0  0  0  0  0
  145.5284  141.8691  154.5850 C   0  0  0  0  0  0  0  0  0  0  0  0
  146.9142  141.4496  154.6505 N   0  0  0  0  0  0  0  0  0  0  0  0
  147.7855  141.8267  155.6764 C   0  0  0  0  0  0  0  0  0  0  0  0
  147.2957  142.6934  156.6660 N   0  0  0  0  0  0  0  0  0  0  0  0
  147.0959  142.3511  157.9509 C   0  0  0  0  0  0  0  0  0  0  0  0
  146.4528  143.4128  158.8361 C   0  0  0  0  0  0  0  0  0  0  0  0
  147.3943  141.2544  158.4231 O   0  0  0  0  0  0  0  0  0  0  0  0
  149.0925  141.4180  155.7183 C   0  0  0  0  0  0  0  0  0  0  0  0
  149.9528  141.8454  156.7315 N   0  0  0  0  0  0  0  0  0  0  0  0
  151.3560  141.5554  156.9869 C   0  0  0  0  0  0  0  0  0  0  0  0
  151.9598  142.4210  158.0782 C   0  0  0  0  0  0  0  0  0  0  0  0
  152.5440  141.8294  159.2198 C   0  0  0  0  0  0  0  0  0  0  0  0
  153.0983  142.6364  160.2322 C   0  0  0  0  0  0  0  0  0  0  0  0
  153.0679  144.0389  160.1110 C   0  0  0  0  0  0  0  0  0  0  0  0
  152.4815  144.6341  158.9774 C   0  0  0  0  0  0  0  0  0  0  0  0
  151.9274  143.8273  157.9643 C   0  0  0  0  0  0  0  0  0  0  0  0
  149.6125  140.5381  154.6562 C   0  0  0  0  0  0  0  0  0  0  0  0
  150.7493  140.0758  154.5746 O   0  0  0  0  0  0  0  0  0  0  0  0
  148.7014  140.2223  153.6510 N   0  0  0  0  0  0  0  0  0  0  0  0
  147.3811  140.6475  153.5856 C   0  0  0  0  0  0  0  0  0  0  0  0
  146.6861  140.3175  152.6242 O   0  0  0  0  0  0  0  0  0  0  0  0
  149.0331  139.6362  152.8989 H   0  0  0  0  0  0  0  0  0  0  0  0
  142.7658  145.3786  153.9938 H   0  0  0  0  0  0  0  0  0  0  0  0
  144.3039  145.4882  153.1421 H   0  0  0  0  0  0  0  0  0  0  0  0
  144.2282  145.7682  154.8902 H   0  0  0  0  0  0  0  0  0  0  0  0
  145.8426  143.6452  153.3970 H   0  0  0  0  0  0  0  0  0  0  0  0
  145.9176  143.9554  155.1144 H   0  0  0  0  0  0  0  0  0  0  0  0
  145.0662  141.5471  155.5166 H   0  0  0  0  0  0  0  0  0  0  0  0
  145.0254  141.2892  153.8093 H   0  0  0  0  0  0  0  0  0  0  0  0
  146.9375  143.5826  156.3496 H   0  0  0  0  0  0  0  0  0  0  0  0
  147.1986  144.1429  159.1508 H   0  0  0  0  0  0  0  0  0  0  0  0
  146.0179  142.9602  159.7277 H   0  0  0  0  0  0  0  0  0  0  0  0
  145.6601  143.9361  158.3003 H   0  0  0  0  0  0  0  0  0  0  0  0
  149.5266  142.4156  157.4477 H   0  0  0  0  0  0  0  0  0  0  0  0
  151.4565  140.5036  157.2578 H   0  0  0  0  0  0  0  0  0  0  0  0
  151.9307  141.7150  156.0741 H   0  0  0  0  0  0  0  0  0  0  0  0
  152.5677  140.7545  159.3241 H   0  0  0  0  0  0  0  0  0  0  0  0
  153.5453  142.1790  161.1024 H   0  0  0  0  0  0  0  0  0  0  0  0
  153.4922  144.6575  160.8881 H   0  0  0  0  0  0  0  0  0  0  0  0
  152.4562  145.7099  158.8845 H   0  0  0  0  0  0  0  0  0  0  0  0
  151.4787  144.2933  157.0991 H   0  0  0  0  0  0  0  0  0  0  0  0
  1  2  1  0  0  0  0
  1 26  1  0  0  0  0
  1 27  1  0  0  0  0
  1 28  1  0  0  0  0
  2  3  1  0  0  0  0
  3  4  1  0  0  0  0
  3 29  1  0  0  0  0
  3 30  1  0  0  0  0
  4  5  1  0  0  0  0
  4 31  1  0  0  0  0
  4 32  1  0  0  0  0
  5 23  1  0  0  0  0
  5  6  1  0  0  0  0
  6  7  1  0  0  0  0
  6 11  2  0  0  0  0
  7  8  1  0  0  0  0
  7 33  1  0  0  0  0
  8  9  1  0  0  0  0
  8 10  2  0  0  0  0
  9 34  1  0  0  0  0
  9 35  1  0  0  0  0
  9 36  1  0  0  0  0
 11 12  1  0  0  0  0
 11 20  1  0  0  0  0
 12 13  1  0  0  0  0
 12 37  1  0  0  0  0
 13 14  1  0  0  0  0
 13 38  1  0  0  0  0
 13 39  1  0  0  0  0
 14 19  1  0  0  0  0
 14 15  2  0  0  0  0
 15 16  1  0  0  0  0
 15 40  1  0  0  0  0
 16 17  2  0  0  0  0
 16 41  1  0  0  0  0
 17 18  1  0  0  0  0
 17 42  1  0  0  0  0
 18 19  2  0  0  0  0
 18 43  1  0  0  0  0
 19 44  1  0  0  0  0
 20 21  2  0  0  0  0
 20 22  1  0  0  0  0
 22 25  1  0  0  0  0
 22 23  1  0  0  0  0
 23 24  2  0  0  0  0
M  END
> <s_m_source_file>
AV-unprocessed.smi

> <i_m_source_file_index>
801

> <i_lp_mmshare_version>
43012

> <i_f3d_flags>
0

> <s_epik_input>
W0NIM11PW0NIMl1bQ0gyXW4xYyhbTkhdQyg9TylbQ0gzXSljKGMoPU8pW25IXWMxPU8pW05IXVtDSDJdYzJbY0hdW2NIXVtjSF1bY0hdW2NIXTI=

> <s_epik_cmdline>
J2VwaWtfcHl0aG9uJywgJy1waCcsICc3LjAnLCAnLXRuJywgJzgnLCAnLW1hJywgJzIwMCcsICctbWV0YWxfYmluZGluZycsICctaW1hZScsICc8aW5maWxlLm1hZT4nLCAnLW9tYWUnLCAnPG91dGZpbGUubWFlPic=

> <r_lp_tautomer_probability>
0.999901

> <r_epik_Ionization_Penalty>
0.000786563

> <r_epik_Ionization_Penalty_Charging>
0.000779429

> <r_epik_Ionization_Penalty_Neutral>
7.13436e-06

> <r_epik_State_Penalty>
0.00049961

> <r_epik_Charging_Adjusted_Penalty>
0.00127904

> <i_epik_Tot_Q>
0

> <i_epik_Tot_abs_Q>
0

> <r_epik_Metal_State_Penalty>
0.266924

> <b_epik_Metal_Only>
0

> <s_lp_Force_Field>
OPLS_2005

> <r_lp_Energy>
22.7844

> <b_lp_Chiralities_Consistent>
1

> <s_lp_Variant>
AV-unprocessed.smi:801-1

> <Gold.Version>
5.8.1

> <Gold.Id.Protein>
6NUR|6NUR_protein|mol2

> <Gold.PLP.Fitness>
48.9409

> <Gold.PLP.PLP>
-43.8274

> <Gold.PLP.part.hbond>
-4.0051

> <Gold.PLP.part.metal>
0.0000

> <Gold.PLP.part.buried>
-4.2608

> <Gold.PLP.part.nonpolar>
-37.4346

> <Gold.PLP.part.repulsive>
1.5305

> <Gold.PLP.ligand.clash>
0.0000

> <Gold.PLP.ligand.torsion>
0.7614

> <Gold.PLP.Chemscore.Hbond>
1.8187

> <Gold.PLP.Chemscore.CHOScore>
0.0000

> <Gold.PLP.Chemscore.Metal>
0.0000

> <Gold.Chemscore.Hbonds>
donor molecule, donor type, donor heavy atom, donor atom, acceptor molecule, acceptor atom, score
      L1  H    22    25       P1  7957  0.64
      P1  H  6934  6946       L1    10  0.05
      P1  H  7989  7998       L1    21  1.00

> <Gold.PLP.Chemscore.Internal.Correction>
1.1801

> <Gold.Rescore>
     Score         DG    S(hbond)    S(metal)    S(lipo)     H(rot)  DE(clash)    DE(int)     intcor
     14.01     -18.60       1.98        0.00      99.72       2.02       2.24       2.35       ----

> <Gold.Chemscore.Fitness>
14.0089

> <Gold.Chemscore.DG>
-18.5988

> <Gold.Chemscore.ZeroCoef>
-5.4800

> <Gold.Chemscore.Hbond>
1.9806

> <Gold.Chemscore.Metal>
0.0000

> <Gold.Chemscore.Lipo>
99.7202

> <Gold.Chemscore.Internal_Hbond>
0.0000

> <Gold.Chemscore.DEClash>
2.2384

> <Gold.Chemscore.DEInternal>
2.3515

> <Gold.Chemscore.Rot>
2.0170

> <Gold.Chemscore.Internal.Correction>
   9.000000E+99

> <Gold.Chemscore.Hbonds>
donor molecule, donor type, donor heavy atom, donor atom, acceptor molecule, acceptor atom, score
      L1  H    22    25       P1  7957  0.64
      P1  H  6934  6946       L1    10  0.05
      P1  H  7989  7998       L1    21  0.77

> <Gold.Chemscore.Hbond.Weighted>
-6.6151

> <Gold.Chemscore.Metal.Weighted>
-0.0000

> <Gold.Chemscore.Lipo.Weighted>
-11.6673

> <Gold.Chemscore.Internal_Hbond.Weighted>
0.0000

> <Gold.Chemscore.DEClash.Weighted>
2.2384

> <Gold.Chemscore.DEInternal.Weighted>
2.3515

> <Gold.Chemscore.Rot.Weighted>
5.1636

> <Gold.Chemscore.Internal.Correction.Weighted>
   9.000000E+99

> <Gold.Protein.RotatedTorsions>
[ 6907 6896 6895 6894 ] final   19.88 input  -60.11 | X-H torsion
[ 7974 7965 7964 7962 ] final  -39.67 input  175.53 | X-H torsion
[ 8008 7997 7996 7995 ] final  -63.74 input   59.86 | X-H torsion
[ 10167 10162 10161 10158 ] final -156.51 input  -65.29 | X-H torsion
[ 10718 10713 10712 10709 ] final   31.45 input   66.30 | X-H torsion
[ 10763 10752 10751 10750 ] final   90.92 input  -60.55 | X-H torsion
[ 11005 11000 10999 10996 ] final   94.23 input  -57.11 | X-H torsion

> <Gold.Protein.ActiveResidues>
 VAL166  LYS551  ARG553  GLY616  TRP617  ASP618  TYR619  PRO620  LYS621  CYS622 
 ASP623  PHE694  ASN695  SER759  ASP760  ASP761  ALA762  ILE779  LEU786  VAL792 
 PHE793  MET794  SER795  GLU796  ALA797  LYS798  CYS799  TRP800  GLU811  SER814 

> <Gold.Protein.RotatedAtoms>
  151.8877  135.0429  160.0494 H   0  0  0  0  0  0  0  0  0  0  0  0  # atno 6907 bound_to 6896
  152.2461  133.5171  159.5306 H   0  0  0  0  0  0  0  0  0  0  0  0  # atno 6908 bound_to 6896
  150.7069  134.0939  159.3984 H   0  0  0  0  0  0  0  0  0  0  0  0  # atno 6909 bound_to 6896
  146.0375  140.6652  142.9103 H   0  0  0  0  0  0  0  0  0  0  0  0  # atno 7974 bound_to 7965
  154.4571  140.0968  156.6789 H   0  0  0  0  0  0  0  0  0  0  0  0  # atno 8008 bound_to 7997
  155.5105  140.3476  155.4369 H   0  0  0  0  0  0  0  0  0  0  0  0  # atno 8009 bound_to 7997
  156.0799  140.1370  156.9714 H   0  0  0  0  0  0  0  0  0  0  0  0  # atno 8010 bound_to 7997
  139.6844  143.9526  152.2353 H   0  0  0  0  0  0  0  0  0  0  0  0  # atno 10167 bound_to 10162
  157.2726  130.7215  149.6513 H   0  0  0  0  0  0  0  0  0  0  0  0  # atno 10718 bound_to 10713
  153.2027  135.4416  155.0286 H   0  0  0  0  0  0  0  0  0  0  0  0  # atno 10763 bound_to 10752
  154.8156  135.3313  154.7188 H   0  0  0  0  0  0  0  0  0  0  0  0  # atno 10764 bound_to 10752
  153.7632  135.6990  153.4977 H   0  0  0  0  0  0  0  0  0  0  0  0  # atno 10765 bound_to 10752
  139.8801  134.8834  156.3834 H   0  0  0  0  0  0  0  0  0  0  0  0  # atno 11005 bound_to 11000
  144.7059  140.3848  143.7119 LP  0  0  0  0  0  0  0  0  0  0  0  0  # atno 17320 bound_to 7965
  145.6939  139.1645  143.2631 LP  0  0  0  0  0  0  0  0  0  0  0  0  # atno 17321 bound_to 7965
  139.9325  144.6732  150.8348 LP  0  0  0  0  0  0  0  0  0  0  0  0  # atno 17342 bound_to 10162
  140.7663  143.3299  151.2433 LP  0  0  0  0  0  0  0  0  0  0  0  0  # atno 17343 bound_to 10162
  155.9663  130.4363  150.5127 LP  0  0  0  0  0  0  0  0  0  0  0  0  # atno 17370 bound_to 10713
  157.3054  131.0653  151.2039 LP  0  0  0  0  0  0  0  0  0  0  0  0  # atno 17371 bound_to 10713
  140.9383  133.7532  156.0113 LP  0  0  0  0  0  0  0  0  0  0  0  0  # atno 17394 bound_to 11000
  140.8250  134.3245  157.5369 LP  0  0  0  0  0  0  0  0  0  0  0  0  # atno 17395 bound_to 11000

$$$$
