#       Name:                AV-unprocessed.smi:53
#       Creating user name   scv26
#       Creation time:       Thu Mar 26 16:40:01 2020


#       File generated by GOLD software.
#

@<TRIPOS>MOLECULE
AV-unprocessed.smi:53
    41    42     1
SMALL
NO_CHARGES


@<TRIPOS>ATOM
      1 ****        -4.6031  -1.5089   1.3813 N.pl3          1 S1                 0.0000
      2 ****        -3.3014  -1.2521   1.1900 C.2            1 S1                 0.0000
      3 ****        -2.8836  -0.0097   0.5800 C.2            1 S1                 0.0000
      4 ****        -1.5544   0.1769   0.4242 C.2            1 S1                 0.0000
      5 ****        -0.6230  -0.7655   0.8383 N.am           1 S1                 0.0000
      6 ****         0.8590  -0.5484   0.6384 C.3            1 S1                 0.0000
      7 ****         1.1200   0.8231   0.6307 O.3            1 S1                 0.0000
      8 ****         2.0715   1.1188  -0.3836 C.3            1 S1                 0.0000
      9 ****         2.0199   2.6036  -0.7849 C.3            1 S1                 0.0000
     10 ****         2.7874   3.3772   0.1127 O.3            1 S1                 0.0000
     11 ****         1.7201   0.1186  -1.4933 C.3            1 S1                 0.0000
     12 ****         0.6422   0.5871  -2.2842 O.3            1 S1                 0.0000
     13 ****         1.3087  -1.1262  -0.7166 C.3            1 S1                 0.0000
     14 ****         2.4157  -1.9919  -0.5631 O.3            1 S1                 0.0000
     15 ****        -1.0635  -1.9828   1.4096 C.2            1 S1                 0.0000
     16 ****        -0.2736  -2.8637   1.7483 O.2            1 S1                 0.0000
     17 ****        -2.4132  -2.1531   1.5629 N.2            1 S1                 0.0000
     18 ****         1.3617  -0.9872   1.5030 H              1 S1                 0.0000
     19 ****         3.0647   0.8671  -0.0057 H              1 S1                 0.0000
     20 ****         2.5664  -0.0632  -2.1574 H              1 S1                 0.0000
     21 ****         0.5024  -1.6760  -1.2054 H              1 S1                 0.0000
     22 ****        -4.8920  -2.3791   1.8042 H              1 S1                 0.0000
     23 ****        -5.2945  -0.8288   1.0995 H              1 S1                 0.0000
     24 ****        -3.5745   0.7538   0.2518 H              1 S1                 0.0000
     25 ****        -1.2279   1.0952  -0.0417 H              1 S1                 0.0000
     26 ****         2.4494   2.7390  -1.7779 H              1 S1                 0.0000
     27 ****         0.9938   2.9714  -0.8198 H              1 S1                 0.0000
     28 ****         2.7508   4.2811  -0.1607 H              1 S1                 0.0000
     29 ****         0.9237   1.3611  -2.7473 H              1 S1                 0.0000
     30 ****         2.1446  -2.7315  -0.0401 H              1 S1                 0.0000
     31 ****         1.4848   1.0980   1.5203 LP             1 S1                 0.0000
     32 ****         0.2730   1.3226   0.4490 LP             1 S1                 0.0000
     33 ****         3.7360   3.0608   0.1042 LP             1 S1                 0.0000
     34 ****         2.4151   3.2894   1.0367 LP             1 S1                 0.0000
     35 ****        -0.1354   0.8100  -1.6963 LP             1 S1                 0.0000
     36 ****         0.3731  -0.1187  -2.9394 LP             1 S1                 0.0000
     37 ****         3.1615  -1.5088  -0.1044 LP             1 S1                 0.0000
     38 ****         2.7249  -2.3075  -1.4602 LP             1 S1                 0.0000
     39 ****         0.7093  -2.7293   1.6223 LP             1 S1                 0.0000
     40 ****        -0.6146  -3.7138   2.1496 LP             1 S1                 0.0000
     41 ****        -2.7416  -3.0017   1.9777 LP             1 S1                 0.0000
@<TRIPOS>BOND
    1    1    2 1     
    2    1   22 1     
    3    1   23 1     
    4    2   17 2     
    5    2    3 1     
    6    3    4 2     
    7    3   24 1     
    8    4    5 1     
    9    4   25 1     
   10    5    6 1     
   11    5   15 am    
   12    6   18 1     
   13    6   13 1     
   14    6    7 1     
   15    7    8 1     
   16    8   19 1     
   17    8    9 1     
   18    8   11 1     
   19    9   10 1     
   20    9   26 1     
   21    9   27 1     
   22   10   28 1     
   23   11   20 1     
   24   11   12 1     
   25   11   13 1     
   26   12   29 1     
   27   13   21 1     
   28   13   14 1     
   29   14   30 1     
   30   15   16 2     
   31   15   17 1     
   32    7   31 1     
   33    7   32 1     
   34   10   33 1     
   35   10   34 1     
   36   12   35 1     
   37   12   36 1     
   38   14   37 1     
   39   14   38 1     
   40   16   39 1     
   41   16   40 1     
   42   17   41 1     
@<TRIPOS>SUBSTRUCTURE
      1 S1             1
@<TRIPOS>SET
LONE_PAIRS      STATIC     ATOMS    <user>   **** ""
11 31 32 33 34 35 36 37 38 39 40 41
DONOR_HYDROGENS      STATIC     ATOMS    <user>   **** ""
5 22 23 28 29 30
ATOM$BLUE        STATIC     ATOMS    COLORGROUP SYSTEM
11 31 32 33 34 35 36 37 38 39 40 41
ATOM$RED        STATIC     ATOMS    COLORGROUP SYSTEM
5 22 23 28 29 30
