AV-unprocessed.smi:221|AV-procd|sdf|1692|dock3
  -GOLD-   2262020133D 1   1.00000     0.00000
 Structure written by MMmdl.
 50 53  0  0  0  0  0  0  0  0  1 V2000
  141.7325  134.7283  154.1235 N   0  0  0  0  0  0  0  0  0  0  0  0
  141.9452  135.8490  153.4269 C   0  0  0  0  0  0  0  0  0  0  0  0
  141.5454  136.9417  153.8243 O   0  0  0  0  0  0  0  0  0  0  0  0
  142.7224  135.7305  152.0990 C   0  0  2  0  0  0  0  0  0  0  0  0
  143.1203  134.3043  151.6961 C   0  0  0  0  0  0  0  0  0  0  0  0
  144.1617  134.5342  150.5986 C   0  0  2  0  0  0  0  0  0  0  0  0
  145.1660  133.6639  150.7030 F   0  0  0  0  0  0  0  0  0  0  0  0
  144.6394  135.9847  150.7856 C   0  0  0  0  0  0  0  0  0  0  0  0
  143.9573  136.5160  151.9642 N   0  0  0  0  0  0  0  0  0  0  0  0
  144.7854  136.6365  153.0337 C   0  0  0  0  0  0  0  0  0  0  0  0
  144.6449  135.8327  154.1215 N   0  0  0  0  0  0  0  0  0  0  0  0
  145.4717  135.9652  155.1631 C   0  0  0  0  0  0  0  0  0  0  0  0
  146.4894  136.8156  155.3184 N   0  0  0  0  0  0  0  0  0  0  0  0
  146.6338  137.6180  154.2251 C   0  0  0  0  0  0  0  0  0  0  0  0
  145.8324  137.5941  153.0504 C   0  0  0  0  0  0  0  0  0  0  0  0
  146.2722  138.5564  152.1507 N   0  0  0  0  0  0  0  0  0  0  0  0
  147.2822  139.1174  152.7589 C   0  0  0  0  0  0  0  0  0  0  0  0
  147.5709  138.6111  154.0066 N   0  0  0  0  0  0  0  0  0  0  0  0
  148.6338  139.0420  154.8971 C   0  0  0  0  0  0  0  0  0  0  0  0
  149.5572  140.1196  154.2758 C   0  0  1  0  0  0  0  0  0  0  0  0
  149.3705  141.5145  154.9202 C   0  0  0  0  0  0  0  0  0  0  0  0
  148.2397  142.1792  154.3952 O   0  0  0  0  0  0  0  0  0  0  0  0
  151.0370  139.6599  154.2752 C   0  0  2  0  0  0  0  0  0  0  0  0
  151.2637  138.2153  153.8661 C   0  0  0  0  0  0  0  0  0  0  0  0
  152.6638  137.9459  154.4053 C   0  0  0  0  0  0  0  0  0  0  0  0
  152.7740  138.7270  155.5892 O   0  0  0  0  0  0  0  0  0  0  0  0
  151.7048  139.6658  155.6546 C   0  0  0  0  0  0  0  0  0  0  0  0
  142.0442  136.1139  151.3348 H   0  0  0  0  0  0  0  0  0  0  0  0
  143.7236  134.4026  149.6088 H   0  0  0  0  0  0  0  0  0  0  0  0
  141.2261  134.7691  154.9961 H   0  0  0  0  0  0  0  0  0  0  0  0
  142.0771  133.8454  153.7749 H   0  0  0  0  0  0  0  0  0  0  0  0
  143.5643  133.7703  152.5375 H   0  0  0  0  0  0  0  0  0  0  0  0
  142.2722  133.7168  151.3432 H   0  0  0  0  0  0  0  0  0  0  0  0
  145.7278  136.0421  150.8599 H   0  0  0  0  0  0  0  0  0  0  0  0
  144.3535  136.5893  149.9241 H   0  0  0  0  0  0  0  0  0  0  0  0
  145.2928  135.2933  155.9895 H   0  0  0  0  0  0  0  0  0  0  0  0
  147.8535  139.9164  152.3086 H   0  0  0  0  0  0  0  0  0  0  0  0
  148.1812  139.4190  155.8152 H   0  0  0  0  0  0  0  0  0  0  0  0
  149.2085  138.1592  155.1780 H   0  0  0  0  0  0  0  0  0  0  0  0
  149.2571  140.2282  153.2324 H   0  0  0  0  0  0  0  0  0  0  0  0
  149.2577  141.4318  156.0008 H   0  0  0  0  0  0  0  0  0  0  0  0
  150.2495  142.1396  154.7618 H   0  0  0  0  0  0  0  0  0  0  0  0
  148.2963  143.0942  154.6250 H   0  0  0  0  0  0  0  0  0  0  0  0
  151.6180  140.3000  153.6087 H   0  0  0  0  0  0  0  0  0  0  0  0
  150.5413  137.5607  154.3557 H   0  0  0  0  0  0  0  0  0  0  0  0
  151.1966  138.0561  152.7895 H   0  0  0  0  0  0  0  0  0  0  0  0
  152.8386  136.8887  154.6053 H   0  0  0  0  0  0  0  0  0  0  0  0
  153.4169  138.2860  153.6935 H   0  0  0  0  0  0  0  0  0  0  0  0
  152.0693  140.6537  155.9368 H   0  0  0  0  0  0  0  0  0  0  0  0
  151.0074  139.3320  156.4245 H   0  0  0  0  0  0  0  0  0  0  0  0
  1  2  1  0  0  0  0
  1 30  1  0  0  0  0
  1 31  1  0  0  0  0
  2  3  2  0  0  0  0
  2  4  1  0  0  0  0
  4 28  1  0  0  0  0
  4  9  1  0  0  0  0
  4  5  1  0  0  0  0
  5  6  1  0  0  0  0
  5 32  1  0  0  0  0
  5 33  1  0  0  0  0
  6 29  1  0  0  0  0
  6  7  1  0  0  0  0
  6  8  1  0  0  0  0
  8  9  1  0  0  0  0
  8 34  1  0  0  0  0
  8 35  1  0  0  0  0
  9 10  1  0  0  0  0
 10 15  1  0  0  0  0
 10 11  2  0  0  0  0
 11 12  1  0  0  0  0
 12 13  2  0  0  0  0
 12 36  1  0  0  0  0
 13 14  1  0  0  0  0
 14 18  1  0  0  0  0
 14 15  2  0  0  0  0
 15 16  1  0  0  0  0
 16 17  2  0  0  0  0
 17 18  1  0  0  0  0
 17 37  1  0  0  0  0
 18 19  1  0  0  0  0
 19 20  1  0  0  0  0
 19 38  1  0  0  0  0
 19 39  1  0  0  0  0
 20 21  1  0  0  0  0
 20 23  1  0  0  0  0
 20 40  1  0  0  0  0
 21 22  1  0  0  0  0
 21 41  1  0  0  0  0
 21 42  1  0  0  0  0
 22 43  1  0  0  0  0
 23 27  1  0  0  0  0
 23 24  1  0  0  0  0
 23 44  1  0  0  0  0
 24 25  1  0  0  0  0
 24 45  1  0  0  0  0
 24 46  1  0  0  0  0
 25 26  1  0  0  0  0
 25 47  1  0  0  0  0
 25 48  1  0  0  0  0
 26 27  1  0  0  0  0
 27 49  1  0  0  0  0
 27 50  1  0  0  0  0
M  END
> <s_m_source_file>
AV-unprocessed.smi

> <i_m_source_file_index>
221

> <i_lp_mmshare_version>
43012

> <i_f3d_flags>
0

> <s_epik_input>
W05IMl1DKD1PKVtDQEBIXTFbQ0gyXVtDQEBIXShGKVtDSDJdTjFjKG5bY0hdbjIpYyhjMjMpbltjSF1uM1tDSDJdW0NASF0oW0NIMl1bT0hdKVtDQEBIXTRbQ0gyXVtDSDJdT1tDSDJdNA==

> <s_epik_cmdline>
J2VwaWtfcHl0aG9uJywgJy1waCcsICc3LjAnLCAnLXRuJywgJzgnLCAnLW1hJywgJzIwMCcsICctbWV0YWxfYmluZGluZycsICctaW1hZScsICc8aW5maWxlLm1hZT4nLCAnLW9tYWUnLCAnPG91dGZpbGUubWFlPic=

> <r_lp_tautomer_probability>
1

> <r_epik_Ionization_Penalty>
0.000818822

> <r_epik_Ionization_Penalty_Charging>
0

> <r_epik_Ionization_Penalty_Neutral>
0.000818822

> <r_epik_State_Penalty>
0.000440551

> <r_epik_Charging_Adjusted_Penalty>
0.000440551

> <i_epik_Tot_Q>
0

> <i_epik_Tot_abs_Q>
0

> <r_epik_Metal_State_Penalty>
-0

> <b_epik_Metal_Only>
0

> <s_lp_Force_Field>
OPLS_2005

> <r_lp_Energy>
53.4739

> <b_lp_Chiralities_Consistent>
1

> <s_lp_Variant>
AV-unprocessed.smi:221-7

> <Gold.Version>
5.8.1

> <Gold.Id.Protein>
6NUR|6NUR_protein|mol2

> <Gold.PLP.Fitness>
50.5449

> <Gold.PLP.PLP>
-38.9148

> <Gold.PLP.part.hbond>
-4.3038

> <Gold.PLP.part.metal>
0.0000

> <Gold.PLP.part.buried>
-2.9874

> <Gold.PLP.part.nonpolar>
-32.5166

> <Gold.PLP.part.repulsive>
0.6546

> <Gold.PLP.ligand.clash>
0.0000

> <Gold.PLP.ligand.torsion>
1.3858

> <Gold.PLP.Chemscore.Hbond>
3.7440

> <Gold.PLP.Chemscore.CHOScore>
1.0000

> <Gold.PLP.Chemscore.Metal>
0.0000

> <Gold.Chemscore.Hbonds>
donor molecule, donor type, donor heavy atom, donor atom, acceptor molecule, acceptor atom, score
      L1  H     1    30       P1 11000  0.70
      L1  H     1    31       P1 10957  0.10
      L1  H    22    43       P1  8028  1.00
      P1  H  7997  8009       L1    26  0.22
      L1  C    17    37       P1  7957  1.00

> <Gold.PLP.Chemscore.Internal.Correction>
0.1696

> <Gold.Rescore>
     Score         DG    S(hbond)    S(metal)    S(lipo)     H(rot)  DE(clash)    DE(int)     intcor
      9.67     -12.38       2.67        0.00      64.26       3.72       0.04       2.67       ----

> <Gold.Chemscore.Fitness>
9.6664

> <Gold.Chemscore.DG>
-12.3771

> <Gold.Chemscore.ZeroCoef>
-5.4800

> <Gold.Chemscore.Hbond>
2.6652

> <Gold.Chemscore.Metal>
0.0000

> <Gold.Chemscore.Lipo>
64.2648

> <Gold.Chemscore.Internal_Hbond>
0.0000

> <Gold.Chemscore.DEClash>
0.0359

> <Gold.Chemscore.DEInternal>
2.6748

> <Gold.Chemscore.Rot>
3.7202

> <Gold.Chemscore.Internal.Correction>
   9.000000E+99

> <Gold.Chemscore.Hbonds>
donor molecule, donor type, donor heavy atom, donor atom, acceptor molecule, acceptor atom, score
      L1  H     1    30       P1 11000  0.07
      L1  H     1    31       P1 10957  0.12
      L1  H    22    43       P1  8028  0.96
      P1  H  7997  8009       L1    26  0.04

> <Gold.Chemscore.Hbond.Weighted>
-8.9018

> <Gold.Chemscore.Metal.Weighted>
-0.0000

> <Gold.Chemscore.Lipo.Weighted>
-7.5190

> <Gold.Chemscore.Internal_Hbond.Weighted>
0.0000

> <Gold.Chemscore.DEClash.Weighted>
0.0359

> <Gold.Chemscore.DEInternal.Weighted>
2.6748

> <Gold.Chemscore.Rot.Weighted>
9.5237

> <Gold.Chemscore.Internal.Correction.Weighted>
   9.000000E+99

> <Gold.Protein.RotatedTorsions>
[ 6907 6896 6895 6894 ] final -175.54 input  -60.11 | X-H torsion
[ 7974 7965 7964 7962 ] final  -92.79 input  175.53 | X-H torsion
[ 8008 7997 7996 7995 ] final -177.60 input   59.86 | X-H torsion
[ 10167 10162 10161 10158 ] final  -48.57 input  -65.29 | X-H torsion
[ 10718 10713 10712 10709 ] final  178.62 input   66.30 | X-H torsion
[ 10763 10752 10751 10750 ] final   74.04 input  -60.55 | X-H torsion
[ 11005 11000 10999 10996 ] final  130.30 input  -57.11 | X-H torsion

> <Gold.Protein.ActiveResidues>
 VAL166  LYS551  ARG553  GLY616  TRP617  ASP618  TYR619  PRO620  LYS621  CYS622 
 ASP623  PHE694  ASN695  SER759  ASP760  ASP761  ALA762  ILE779  LEU786  VAL792 
 PHE793  MET794  SER795  GLU796  ALA797  LYS798  CYS799  TRP800  GLU811  SER814 

> <Gold.Protein.RotatedAtoms>
  151.5902  133.3367  159.3025 H   0  0  0  0  0  0  0  0  0  0  0  0  # atno 6907 bound_to 6896
  150.8264  134.7501  159.6828 H   0  0  0  0  0  0  0  0  0  0  0  0  # atno 6908 bound_to 6896
  152.4353  134.5704  159.9971 H   0  0  0  0  0  0  0  0  0  0  0  0  # atno 6909 bound_to 6896
  145.3951  140.9532  143.2319 H   0  0  0  0  0  0  0  0  0  0  0  0  # atno 7974 bound_to 7965
  156.0089  140.1236  157.0473 H   0  0  0  0  0  0  0  0  0  0  0  0  # atno 8008 bound_to 7997
  154.4269  140.1091  156.5871 H   0  0  0  0  0  0  0  0  0  0  0  0  # atno 8009 bound_to 7997
  155.6107  140.3471  155.4624 H   0  0  0  0  0  0  0  0  0  0  0  0  # atno 8010 bound_to 7997
  140.6725  143.2734  151.4089 H   0  0  0  0  0  0  0  0  0  0  0  0  # atno 10167 bound_to 10162
  156.8879  130.9837  151.3053 H   0  0  0  0  0  0  0  0  0  0  0  0  # atno 10718 bound_to 10713
  153.0560  135.5040  154.7983 H   0  0  0  0  0  0  0  0  0  0  0  0  # atno 10763 bound_to 10752
  154.6808  135.2968  154.9618 H   0  0  0  0  0  0  0  0  0  0  0  0  # atno 10764 bound_to 10752
  154.0404  135.6717  153.4842 H   0  0  0  0  0  0  0  0  0  0  0  0  # atno 10765 bound_to 10752
  139.9664  134.9589  156.9274 H   0  0  0  0  0  0  0  0  0  0  0  0  # atno 11005 bound_to 11000
  144.8413  139.5468  143.6899 LP  0  0  0  0  0  0  0  0  0  0  0  0  # atno 17320 bound_to 7965
  146.2779  139.6800  142.9250 LP  0  0  0  0  0  0  0  0  0  0  0  0  # atno 17321 bound_to 7965
  139.6000  144.1315  152.2188 LP  0  0  0  0  0  0  0  0  0  0  0  0  # atno 17342 bound_to 10162
  140.0696  144.5790  150.7201 LP  0  0  0  0  0  0  0  0  0  0  0  0  # atno 17343 bound_to 10162
  157.6101  130.8576  149.8938 LP  0  0  0  0  0  0  0  0  0  0  0  0  # atno 17370 bound_to 10713
  156.0644  130.3694  150.0911 LP  0  0  0  0  0  0  0  0  0  0  0  0  # atno 17371 bound_to 10713
  140.5387  134.0742  155.7335 LP  0  0  0  0  0  0  0  0  0  0  0  0  # atno 17394 bound_to 11000
  141.1344  133.9247  157.2466 LP  0  0  0  0  0  0  0  0  0  0  0  0  # atno 17395 bound_to 11000

$$$$
