AV-unprocessed.smi:1633|AV-procd|sdf|6535|dock9
  -GOLD-   22720 7213D 1   1.00000     0.00000
 Structure written by MMmdl.
 52 54  0  0  0  0  0  0  0  0  3 V2000
  151.5950  140.0559  156.5236 C   0  0  0  0  0  0  0  0  0  0  0  0
  150.5105  138.9803  156.6157 C   0  0  0  0  0  0  0  0  0  0  0  0
  150.0972  138.6701  157.7327 O   0  0  0  0  0  0  0  0  0  0  0  0
  150.0437  138.4088  155.4794 N   0  0  0  0  0  0  0  0  0  0  0  0
  150.4294  138.7831  154.1152 C   0  0  0  0  0  0  0  0  0  0  0  0
  149.2149  139.4001  153.3966 C   0  0  0  0  0  0  0  0  0  0  0  0
  148.0420  138.4820  153.4222 N   0  3  0  0  0  0  0  0  0  0  0  0
  146.8396  139.0301  152.7426 C   0  0  0  0  0  0  0  0  0  0  0  0
  145.9754  137.9476  152.0565 C   0  0  1  0  0  0  0  0  0  0  0  0
  146.4547  137.7314  150.7446 O   0  0  0  0  0  0  0  0  0  0  0  0
  146.0037  136.5845  152.7776 C   0  0  0  0  0  0  0  0  0  0  0  0
  145.1839  135.5607  152.1140 N   0  0  0  0  0  0  0  0  0  0  0  0
  144.0352  135.7025  151.3978 C   0  0  0  0  0  0  0  0  0  0  0  0
  143.6578  134.4641  150.9765 N   0  3  0  0  0  0  0  0  0  0  0  0
  144.5813  133.5173  151.4242 C   0  0  0  0  0  0  0  0  0  0  0  0
  144.6270  132.1392  151.2507 C   0  0  0  0  0  0  0  0  0  0  0  0
  145.7113  131.4504  151.8394 C   0  0  0  0  0  0  0  0  0  0  0  0
  145.7903  129.9427  151.6705 C   0  0  0  0  0  0  0  0  0  0  0  0
  146.7055  132.1465  152.5742 C   0  0  0  0  0  0  0  0  0  0  0  0
  147.8660  131.3956  153.2054 C   0  0  0  0  0  0  0  0  0  0  0  0
  146.6420  133.5487  152.7379 C   0  0  0  0  0  0  0  0  0  0  0  0
  145.5662  134.2134  152.1522 C   0  0  0  0  0  0  0  0  0  0  0  0
  147.7315  137.9908  154.7915 C   0  0  0  0  0  0  0  0  0  0  0  0
  148.9780  137.4027  155.4764 C   0  0  0  0  0  0  0  0  0  0  0  0
  151.2451  140.9112  155.9449 H   0  0  0  0  0  0  0  0  0  0  0  0
  152.4971  139.6569  156.0591 H   0  0  0  0  0  0  0  0  0  0  0  0
  151.8650  140.4153  157.5172 H   0  0  0  0  0  0  0  0  0  0  0  0
  151.2695  139.4745  154.0711 H   0  0  0  0  0  0  0  0  0  0  0  0
  150.7603  137.8892  153.5844 H   0  0  0  0  0  0  0  0  0  0  0  0
  148.9465  140.3442  153.8736 H   0  0  0  0  0  0  0  0  0  0  0  0
  149.4933  139.6322  152.3696 H   0  0  0  0  0  0  0  0  0  0  0  0
  146.2183  139.5513  153.4727 H   0  0  0  0  0  0  0  0  0  0  0  0
  147.1626  139.7841  152.0239 H   0  0  0  0  0  0  0  0  0  0  0  0
  144.9376  138.2724  151.9889 H   0  0  0  0  0  0  0  0  0  0  0  0
  145.7738  137.9482  150.1265 H   0  0  0  0  0  0  0  0  0  0  0  0
  147.0253  136.2023  152.8051 H   0  0  0  0  0  0  0  0  0  0  0  0
  145.6912  136.6801  153.8175 H   0  0  0  0  0  0  0  0  0  0  0  0
  143.5178  136.6298  151.1969 H   0  0  0  0  0  0  0  0  0  0  0  0
  143.8664  131.6157  150.6899 H   0  0  0  0  0  0  0  0  0  0  0  0
  146.7307  129.6568  151.1996 H   0  0  0  0  0  0  0  0  0  0  0  0
  144.9790  129.5674  151.0462 H   0  0  0  0  0  0  0  0  0  0  0  0
  145.7227  129.4465  152.6387 H   0  0  0  0  0  0  0  0  0  0  0  0
  148.5316  132.0691  153.7459 H   0  0  0  0  0  0  0  0  0  0  0  0
  148.4554  130.8888  152.4410 H   0  0  0  0  0  0  0  0  0  0  0  0
  147.5010  130.6506  153.9127 H   0  0  0  0  0  0  0  0  0  0  0  0
  147.4017  134.0732  153.2979 H   0  0  0  0  0  0  0  0  0  0  0  0
  147.3348  138.8136  155.3888 H   0  0  0  0  0  0  0  0  0  0  0  0
  146.9520  137.2296  154.7408 H   0  0  0  0  0  0  0  0  0  0  0  0
  149.3218  136.5195  154.9360 H   0  0  0  0  0  0  0  0  0  0  0  0
  148.7176  137.0552  156.4772 H   0  0  0  0  0  0  0  0  0  0  0  0
  148.3116  137.6609  152.8993 H   0  0  0  0  0  0  0  0  0  0  0  0
  142.8333  134.2819  150.4183 H   0  0  0  0  0  0  0  0  0  0  0  0
  1  2  1  0  0  0  0
  1 25  1  0  0  0  0
  1 26  1  0  0  0  0
  1 27  1  0  0  0  0
  2  3  2  0  0  0  0
  2  4  1  0  0  0  0
  4 24  1  0  0  0  0
  4  5  1  0  0  0  0
  5  6  1  0  0  0  0
  5 28  1  0  0  0  0
  5 29  1  0  0  0  0
  6  7  1  0  0  0  0
  6 30  1  0  0  0  0
  6 31  1  0  0  0  0
  7  8  1  0  0  0  0
  7 23  1  0  0  0  0
  7 51  1  0  0  0  0
  8  9  1  0  0  0  0
  8 32  1  0  0  0  0
  8 33  1  0  0  0  0
  9 10  1  0  0  0  0
  9 11  1  0  0  0  0
  9 34  1  0  0  0  0
 10 35  1  0  0  0  0
 11 12  1  0  0  0  0
 11 36  1  0  0  0  0
 11 37  1  0  0  0  0
 12 22  1  0  0  0  0
 12 13  1  0  0  0  0
 13 14  2  0  0  0  0
 13 38  1  0  0  0  0
 14 15  1  0  0  0  0
 14 52  1  0  0  0  0
 15 22  2  0  0  0  0
 15 16  1  0  0  0  0
 16 17  2  0  0  0  0
 16 39  1  0  0  0  0
 17 18  1  0  0  0  0
 17 19  1  0  0  0  0
 18 40  1  0  0  0  0
 18 41  1  0  0  0  0
 18 42  1  0  0  0  0
 19 20  1  0  0  0  0
 19 21  2  0  0  0  0
 20 43  1  0  0  0  0
 20 44  1  0  0  0  0
 20 45  1  0  0  0  0
 21 22  1  0  0  0  0
 21 46  1  0  0  0  0
 23 24  1  0  0  0  0
 23 47  1  0  0  0  0
 23 48  1  0  0  0  0
 24 49  1  0  0  0  0
 24 50  1  0  0  0  0
M  CHG  1   7   1
M  CHG  1  14   1
M  END
> <s_m_source_file>
AV-unprocessed.smi

> <i_m_source_file_index>
1633

> <i_lp_mmshare_version>
43012

> <i_f3d_flags>
0

> <s_epik_input>
W0NIM11DKD1PKU4xW0NIMl1bQ0gyXU4oW0NIMl1bQ0gyXTEpW0NIMl1bQ0BIXShbT0hdKVtDSDJdbihbY0hdbjIpYyhjMjMpW2NIXWMoW0NIM10pYyhbY0hdMylbQ0gzXQ==

> <s_epik_cmdline>
J2VwaWtfcHl0aG9uJywgJy1waCcsICc3LjAnLCAnLXRuJywgJzgnLCAnLW1hJywgJzIwMCcsICctbWV0YWxfYmluZGluZycsICctaW1hZScsICc8aW5maWxlLm1hZT4nLCAnLW9tYWUnLCAnPG91dGZpbGUubWFlPic=

> <r_epik_Ionization_Penalty>
1.18448

> <r_epik_Ionization_Penalty_Charging>
1.18447

> <r_epik_Ionization_Penalty_Neutral>
4.53746e-06

> <r_epik_State_Penalty>
1.28566

> <r_epik_Charging_Adjusted_Penalty>
2.47013

> <i_epik_Tot_Q>
2

> <i_epik_Tot_abs_Q>
2

> <r_epik_Metal_State_Penalty>
5.30076

> <b_epik_Metal_Only>
0

> <s_lp_Force_Field>
OPLS_2005

> <r_lp_Energy>
59.1266

> <b_lp_Chiralities_Consistent>
1

> <s_lp_Variant>
AV-unprocessed.smi:1633-4

> <Gold.Version>
5.8.1

> <Gold.Id.Protein>
6NUR|6NUR_protein|mol2

> <Gold.PLP.Fitness>
55.7404

> <Gold.PLP.PLP>
-36.9191

> <Gold.PLP.part.hbond>
-5.5010

> <Gold.PLP.part.metal>
0.0000

> <Gold.PLP.part.buried>
0.5404

> <Gold.PLP.part.nonpolar>
-33.1529

> <Gold.PLP.part.repulsive>
0.0287

> <Gold.PLP.ligand.clash>
0.0000

> <Gold.PLP.ligand.torsion>
1.0519

> <Gold.PLP.Chemscore.Hbond>
5.9600

> <Gold.PLP.Chemscore.CHOScore>
1.0000

> <Gold.PLP.Chemscore.Metal>
0.0000

> <Gold.Chemscore.Hbonds>
donor molecule, donor type, donor heavy atom, donor atom, acceptor molecule, acceptor atom, score
      L1  H     7    51       P1  7948  2.00
      L1  H    10    35       P1 10171  0.99
      L1  H    14    52       P1 10186  2.00
      P1  H  7954  7966       L1    10  1.00
      L1  C    13    38       P1 10171  1.00

> <Gold.PLP.Chemscore.Internal.Correction>
0.0451

> <Gold.Rescore>
     Score         DG    S(hbond)    S(metal)    S(lipo)     H(rot)  DE(clash)    DE(int)     intcor
     19.65     -23.03       3.48        0.00      99.27       2.22       2.21       1.17       ----

> <Gold.Chemscore.Fitness>
19.6532

> <Gold.Chemscore.DG>
-23.0338

> <Gold.Chemscore.ZeroCoef>
-5.4800

> <Gold.Chemscore.Hbond>
3.4780

> <Gold.Chemscore.Metal>
0.0000

> <Gold.Chemscore.Lipo>
99.2707

> <Gold.Chemscore.Internal_Hbond>
0.0000

> <Gold.Chemscore.DEClash>
2.2060

> <Gold.Chemscore.DEInternal>
1.1746

> <Gold.Chemscore.Rot>
2.2178

> <Gold.Chemscore.Internal.Correction>
   9.000000E+99

> <Gold.Chemscore.Hbonds>
donor molecule, donor type, donor heavy atom, donor atom, acceptor molecule, acceptor atom, score
      L1  H     7    51       P1  7948  1.00
      L1  H    10    35       P1 10171  0.89
      L1  H    14    52       P1 10186  0.74
      P1  H  7954  7966       L1    10  0.68

> <Gold.Chemscore.Hbond.Weighted>
-11.6167

> <Gold.Chemscore.Metal.Weighted>
-0.0000

> <Gold.Chemscore.Lipo.Weighted>
-11.6147

> <Gold.Chemscore.Internal_Hbond.Weighted>
0.0000

> <Gold.Chemscore.DEClash.Weighted>
2.2060

> <Gold.Chemscore.DEInternal.Weighted>
1.1746

> <Gold.Chemscore.Rot.Weighted>
5.6775

> <Gold.Chemscore.Internal.Correction.Weighted>
   9.000000E+99

> <Gold.Protein.RotatedTorsions>
[ 6907 6896 6895 6894 ] final   44.89 input  -60.11 | X-H torsion
[ 7974 7965 7964 7962 ] final   -3.55 input  175.53 | X-H torsion
[ 8008 7997 7996 7995 ] final  159.27 input   59.86 | X-H torsion
[ 10167 10162 10161 10158 ] final  172.67 input  -65.29 | X-H torsion
[ 10718 10713 10712 10709 ] final  122.31 input   66.30 | X-H torsion
[ 10763 10752 10751 10750 ] final   74.79 input  -60.55 | X-H torsion
[ 11005 11000 10999 10996 ] final  -66.20 input  -57.11 | X-H torsion

> <Gold.Protein.ActiveResidues>
 VAL166  LYS551  ARG553  GLY616  TRP617  ASP618  TYR619  PRO620  LYS621  CYS622 
 ASP623  PHE694  ASN695  SER759  ASP760  ASP761  ALA762  ILE779  LEU786  VAL792 
 PHE793  MET794  SER795  GLU796  ALA797  LYS798  CYS799  TRP800  GLU811  SER814 

> <Gold.Protein.RotatedAtoms>
  152.2380  134.8257  160.0464 H   0  0  0  0  0  0  0  0  0  0  0  0  # atno 6907 bound_to 6896
  151.8981  133.3526  159.3829 H   0  0  0  0  0  0  0  0  0  0  0  0  # atno 6908 bound_to 6896
  150.7045  134.4782  159.5501 H   0  0  0  0  0  0  0  0  0  0  0  0  # atno 6909 bound_to 6896
  146.2387  140.1738  142.8332 H   0  0  0  0  0  0  0  0  0  0  0  0  # atno 7974 bound_to 7965
  156.2249  140.1835  156.7387 H   0  0  0  0  0  0  0  0  0  0  0  0  # atno 8008 bound_to 7997
  154.5925  140.0648  156.9286 H   0  0  0  0  0  0  0  0  0  0  0  0  # atno 8009 bound_to 7997
  155.2312  140.3315  155.4306 H   0  0  0  0  0  0  0  0  0  0  0  0  # atno 8010 bound_to 7997
  139.5084  144.3348  152.0076 H   0  0  0  0  0  0  0  0  0  0  0  0  # atno 10167 bound_to 10162
  157.5752  131.1080  150.8293 H   0  0  0  0  0  0  0  0  0  0  0  0  # atno 10718 bound_to 10713
  153.0611  135.5012  154.8095 H   0  0  0  0  0  0  0  0  0  0  0  0  # atno 10763 bound_to 10752
  154.6883  135.2980  154.9518 H   0  0  0  0  0  0  0  0  0  0  0  0  # atno 10764 bound_to 10752
  154.0281  135.6733  153.4831 H   0  0  0  0  0  0  0  0  0  0  0  0  # atno 10765 bound_to 10752
  141.1475  133.6695  156.6102 H   0  0  0  0  0  0  0  0  0  0  0  0  # atno 11005 bound_to 11000
  144.9990  140.8615  143.5293 LP  0  0  0  0  0  0  0  0  0  0  0  0  # atno 17320 bound_to 7965
  145.1755  139.2380  143.5320 LP  0  0  0  0  0  0  0  0  0  0  0  0  # atno 17321 bound_to 7965
  140.2787  144.3884  150.6126 LP  0  0  0  0  0  0  0  0  0  0  0  0  # atno 17342 bound_to 10162
  140.6034  143.2167  151.7027 LP  0  0  0  0  0  0  0  0  0  0  0  0  # atno 17343 bound_to 10162
  156.8754  130.5160  149.5294 LP  0  0  0  0  0  0  0  0  0  0  0  0  # atno 17370 bound_to 10713
  156.0796  130.5810  150.9539 LP  0  0  0  0  0  0  0  0  0  0  0  0  # atno 17371 bound_to 10713
  140.3620  134.7679  157.4540 LP  0  0  0  0  0  0  0  0  0  0  0  0  # atno 17394 bound_to 11000
  140.0777  134.5774  155.8573 LP  0  0  0  0  0  0  0  0  0  0  0  0  # atno 17395 bound_to 11000

$$$$
