AV-unprocessed.smi:1897|AV-procd|sdf|7697|dock5
  -GOLD-   22720 9433D 1   1.00000     0.00000
 Structure written by MMmdl.
 38 40  0  0  0  0  0  0  0  0  3 V2000
  152.3444  139.0249  154.8437 C   0  0  0  0  0  0  0  0  0  0  0  0
  151.3820  137.9120  155.0812 C   0  0  0  0  0  0  0  0  0  0  0  0
  151.7637  136.7063  155.5085 N   0  0  0  0  0  0  0  0  0  0  0  0
  150.6916  135.8373  155.6480 N   0  0  0  0  0  0  0  0  0  0  0  0
  149.5149  136.3999  155.3390 C   0  0  0  0  0  0  0  0  0  0  0  0
  148.3511  135.7274  155.4128 N   0  5  0  0  0  0  0  0  0  0  0  0
  148.1998  134.4694  154.9230 C   0  0  0  0  0  0  0  0  0  0  0  0
  147.6808  133.5527  155.5584 O   0  0  0  0  0  0  0  0  0  0  0  0
  148.6445  134.2251  153.6763 N   0  0  0  0  0  0  0  0  0  0  0  0
  148.5751  132.9469  152.9798 C   0  0  1  0  0  0  0  0  0  0  0  0
  149.1300  131.7619  153.7933 C   0  0  0  0  0  0  0  0  0  0  0  0
  148.1752  130.5871  153.5047 C   0  0  0  0  0  0  0  0  0  0  0  0
  147.2380  131.0904  152.4827 N   0  3  1  0  0  0  0  0  0  0  0  0
  145.9216  130.4234  152.3846 C   0  0  0  0  0  0  0  0  0  0  0  0
  145.1268  131.0380  151.2147 C   0  0  0  0  0  0  0  0  0  0  0  0
  145.0322  132.5738  151.3300 C   0  0  0  0  0  0  0  0  0  0  0  0
  146.4246  133.2043  151.5256 C   0  0  0  0  0  0  0  0  0  0  0  0
  147.1278  132.5370  152.7186 C   0  0  2  0  0  0  0  0  0  0  0  0
  149.6532  138.0818  154.8273 S   0  0  0  0  0  0  0  0  0  0  0  0
  152.5861  139.5158  155.7864 H   0  0  0  0  0  0  0  0  0  0  0  0
  151.9119  139.7603  154.1653 H   0  0  0  0  0  0  0  0  0  0  0  0
  153.2639  138.6416  154.4005 H   0  0  0  0  0  0  0  0  0  0  0  0
  149.0617  134.9962  153.1758 H   0  0  0  0  0  0  0  0  0  0  0  0
  149.1037  133.0104  152.0263 H   0  0  0  0  0  0  0  0  0  0  0  0
  150.1549  131.5342  153.4987 H   0  0  0  0  0  0  0  0  0  0  0  0
  149.1377  131.9799  154.8623 H   0  0  0  0  0  0  0  0  0  0  0  0
  148.7003  129.7008  153.1482 H   0  0  0  0  0  0  0  0  0  0  0  0
  147.6307  130.3178  154.4111 H   0  0  0  0  0  0  0  0  0  0  0  0
  146.0636  129.3544  152.2235 H   0  0  0  0  0  0  0  0  0  0  0  0
  145.3748  130.5403  153.3217 H   0  0  0  0  0  0  0  0  0  0  0  0
  145.6139  130.7789  150.2736 H   0  0  0  0  0  0  0  0  0  0  0  0
  144.1273  130.6041  151.1725 H   0  0  0  0  0  0  0  0  0  0  0  0
  144.5532  132.9883  150.4424 H   0  0  0  0  0  0  0  0  0  0  0  0
  144.3943  132.8348  152.1755 H   0  0  0  0  0  0  0  0  0  0  0  0
  147.0191  133.0788  150.6197 H   0  0  0  0  0  0  0  0  0  0  0  0
  146.3319  134.2778  151.6937 H   0  0  0  0  0  0  0  0  0  0  0  0
  146.5387  132.6974  153.6252 H   0  0  0  0  0  0  0  0  0  0  0  0
  147.7002  130.9821  151.5912 H   0  0  0  0  0  0  0  0  0  0  0  0
  1  2  1  0  0  0  0
  1 20  1  0  0  0  0
  1 21  1  0  0  0  0
  1 22  1  0  0  0  0
  2 19  1  0  0  0  0
  2  3  2  0  0  0  0
  3  4  1  0  0  0  0
  4  5  2  0  0  0  0
  5  6  1  0  0  0  0
  5 19  1  0  0  0  0
  6  7  1  0  0  0  0
  7  8  2  0  0  0  0
  7  9  1  0  0  0  0
  9 10  1  0  0  0  0
  9 23  1  0  0  0  0
 10 18  1  0  0  0  0
 10 11  1  0  0  0  0
 10 24  1  0  0  0  0
 11 12  1  0  0  0  0
 11 25  1  0  0  0  0
 11 26  1  0  0  0  0
 12 13  1  0  0  0  0
 12 27  1  0  0  0  0
 12 28  1  0  0  0  0
 13 18  1  0  0  0  0
 13 14  1  0  0  0  0
 13 38  1  0  0  0  0
 14 15  1  0  0  0  0
 14 29  1  0  0  0  0
 14 30  1  0  0  0  0
 15 16  1  0  0  0  0
 15 31  1  0  0  0  0
 15 32  1  0  0  0  0
 16 17  1  0  0  0  0
 16 33  1  0  0  0  0
 16 34  1  0  0  0  0
 17 18  1  0  0  0  0
 17 35  1  0  0  0  0
 17 36  1  0  0  0  0
 18 37  1  0  0  0  0
M  CHG  1   6  -1
M  CHG  1  13   1
M  END
> <s_m_source_file>
AV-unprocessed.smi

> <i_m_source_file_index>
1897

> <i_lp_mmshare_version>
43012

> <i_f3d_flags>
0

> <s_epik_input>
W0NIM11jMW5uYyhzMSlbTkhdQyg9TylbTkhdW0NASF0oW0NIMl1bQ0gyXTIpW0NAQEhdKE4yMylbQ0gyXVtDSDJdW0NIMl1bQ0gyXTM=

> <s_epik_cmdline>
J2VwaWtfcHl0aG9uJywgJy1waCcsICc3LjAnLCAnLXRuJywgJzgnLCAnLW1hJywgJzIwMCcsICctbWV0YWxfYmluZGluZycsICctaW1hZScsICc8aW5maWxlLm1hZT4nLCAnLW9tYWUnLCAnPG91dGZpbGUubWFlPic=

> <r_lp_tautomer_probability>
1

> <r_epik_Ionization_Penalty>
3.77712

> <r_epik_Ionization_Penalty_Charging>
3.67739

> <r_epik_Ionization_Penalty_Neutral>
0.0997294

> <r_epik_State_Penalty>
3.67514

> <r_epik_Charging_Adjusted_Penalty>
7.35254

> <i_epik_Tot_Q>
0

> <i_epik_Tot_abs_Q>
2

> <r_epik_Metal_State_Penalty>
0.540795

> <b_epik_Metal_Only>
1

> <s_lp_Force_Field>
OPLS_2005

> <r_lp_Energy>
28.3621

> <b_lp_Chiralities_Consistent>
1

> <s_lp_Variant>
AV-unprocessed.smi:1897-14

> <Gold.Version>
5.8.1

> <Gold.Id.Protein>
6NUR|6NUR_protein|mol2

> <Gold.PLP.Fitness>
38.6004

> <Gold.PLP.PLP>
-31.7671

> <Gold.PLP.part.hbond>
-3.0000

> <Gold.PLP.part.metal>
0.0000

> <Gold.PLP.part.buried>
-4.4004

> <Gold.PLP.part.nonpolar>
-24.9390

> <Gold.PLP.part.repulsive>
0.2394

> <Gold.PLP.ligand.clash>
0.0000

> <Gold.PLP.ligand.torsion>
0.8540

> <Gold.PLP.Chemscore.Hbond>
2.8432

> <Gold.PLP.Chemscore.CHOScore>
0.0000

> <Gold.PLP.Chemscore.Metal>
0.0000

> <Gold.Chemscore.Hbonds>
donor molecule, donor type, donor heavy atom, donor atom, acceptor molecule, acceptor atom, score
      L1  H     9    23       P1  7948  0.84
      L1  H    13    38       P1 10747  1.00
      P1  H 10752 10765       L1     3  1.00

> <Gold.PLP.Chemscore.Internal.Correction>
0.0118

> <Gold.Rescore>
     Score         DG    S(hbond)    S(metal)    S(lipo)     H(rot)  DE(clash)    DE(int)     intcor
     16.86     -18.93       2.16        0.00      75.23       1.00       0.04       2.02       ----

> <Gold.Chemscore.Fitness>
16.8620

> <Gold.Chemscore.DG>
-18.9281

> <Gold.Chemscore.ZeroCoef>
-5.4800

> <Gold.Chemscore.Hbond>
2.1575

> <Gold.Chemscore.Metal>
0.0000

> <Gold.Chemscore.Lipo>
75.2311

> <Gold.Chemscore.Internal_Hbond>
0.0000

> <Gold.Chemscore.DEClash>
0.0432

> <Gold.Chemscore.DEInternal>
2.0229

> <Gold.Chemscore.Rot>
1.0000

> <Gold.Chemscore.Internal.Correction>
   9.000000E+99

> <Gold.Chemscore.Hbonds>
donor molecule, donor type, donor heavy atom, donor atom, acceptor molecule, acceptor atom, score
      L1  H     9    23       P1  7948  0.14
      L1  H    13    38       P1 10747  1.00
      P1  H 10752 10765       L1     3  0.24

> <Gold.Chemscore.Hbond.Weighted>
-7.2060

> <Gold.Chemscore.Metal.Weighted>
-0.0000

> <Gold.Chemscore.Lipo.Weighted>
-8.8020

> <Gold.Chemscore.Internal_Hbond.Weighted>
0.0000

> <Gold.Chemscore.DEClash.Weighted>
0.0432

> <Gold.Chemscore.DEInternal.Weighted>
2.0229

> <Gold.Chemscore.Rot.Weighted>
2.5600

> <Gold.Chemscore.Internal.Correction.Weighted>
   9.000000E+99

> <Gold.Protein.RotatedTorsions>
[ 6907 6896 6895 6894 ] final  137.00 input  -60.11 | X-H torsion
[ 7974 7965 7964 7962 ] final -131.84 input  175.53 | X-H torsion
[ 8008 7997 7996 7995 ] final -174.17 input   59.86 | X-H torsion
[ 10167 10162 10161 10158 ] final -158.64 input  -65.29 | X-H torsion
[ 10718 10713 10712 10709 ] final   20.87 input   66.30 | X-H torsion
[ 10763 10752 10751 10750 ] final  174.27 input  -60.55 | X-H torsion
[ 11005 11000 10999 10996 ] final  115.81 input  -57.11 | X-H torsion

> <Gold.Protein.ActiveResidues>
 VAL166  LYS551  ARG553  GLY616  TRP617  ASP618  TYR619  PRO620  LYS621  CYS622 
 ASP623  PHE694  ASN695  SER759  ASP760  ASP761  ALA762  ILE779  LEU786  VAL792 
 PHE793  MET794  SER795  GLU796  ALA797  LYS798  CYS799  TRP800  GLU811  SER814 

> <Gold.Protein.RotatedAtoms>
  152.2830  133.5488  159.5509 H   0  0  0  0  0  0  0  0  0  0  0  0  # atno 6907 bound_to 6896
  150.7204  134.0537  159.3816 H   0  0  0  0  0  0  0  0  0  0  0  0  # atno 6908 bound_to 6896
  151.8446  135.0578  160.0503 H   0  0  0  0  0  0  0  0  0  0  0  0  # atno 6909 bound_to 6896
  144.9341  140.7163  143.4887 H   0  0  0  0  0  0  0  0  0  0  0  0  # atno 7974 bound_to 7965
  155.9667  140.1155  157.0848 H   0  0  0  0  0  0  0  0  0  0  0  0  # atno 8008 bound_to 7997
  154.4146  140.1171  156.5319 H   0  0  0  0  0  0  0  0  0  0  0  0  # atno 8009 bound_to 7997
  155.6650  140.3473  155.4799 H   0  0  0  0  0  0  0  0  0  0  0  0  # atno 8010 bound_to 7997
  139.6677  143.9801  152.2264 H   0  0  0  0  0  0  0  0  0  0  0  0  # atno 10167 bound_to 10162
  157.1306  130.6589  149.5950 H   0  0  0  0  0  0  0  0  0  0  0  0  # atno 10718 bound_to 10713
  154.4516  135.2765  155.1777 H   0  0  0  0  0  0  0  0  0  0  0  0  # atno 10763 bound_to 10752
  154.3602  135.6131  153.5690 H   0  0  0  0  0  0  0  0  0  0  0  0  # atno 10764 bound_to 10752
  152.9847  135.5832  154.4861 H   0  0  0  0  0  0  0  0  0  0  0  0  # atno 10765 bound_to 10752
  139.9021  134.9589  156.7102 H   0  0  0  0  0  0  0  0  0  0  0  0  # atno 11005 bound_to 11000
  145.3094  139.1823  143.4647 LP  0  0  0  0  0  0  0  0  0  0  0  0  # atno 17320 bound_to 7965
  146.3259  140.3097  142.8626 LP  0  0  0  0  0  0  0  0  0  0  0  0  # atno 17321 bound_to 7965
  139.9557  144.6591  150.8129 LP  0  0  0  0  0  0  0  0  0  0  0  0  # atno 17342 bound_to 10162
  140.7606  143.3154  151.2746 LP  0  0  0  0  0  0  0  0  0  0  0  0  # atno 17343 bound_to 10162
  155.9809  130.4812  150.6797 LP  0  0  0  0  0  0  0  0  0  0  0  0  # atno 17370 bound_to 10713
  157.4396  131.0859  151.0957 LP  0  0  0  0  0  0  0  0  0  0  0  0  # atno 17371 bound_to 10713
  140.7082  133.9247  155.8067 LP  0  0  0  0  0  0  0  0  0  0  0  0  # atno 17394 bound_to 11000
  141.0320  134.0742  157.4002 LP  0  0  0  0  0  0  0  0  0  0  0  0  # atno 17395 bound_to 11000

$$$$
