AV-unprocessed.smi:2032|AV-procd|sdf|8243|dock4
  -GOLD-   2272010513D 1   1.00000     0.00000
 Structure written by MMmdl.
 43 44  0  0  0  0  0  0  0  0  2 V2000
  150.9291  141.7023  156.5874 C   0  0  0  0  0  0  0  0  0  0  0  0
  150.5675  140.8694  155.3524 C   0  0  2  0  0  0  0  0  0  0  0  0
  149.0502  140.8481  155.0890 C   0  0  0  0  0  0  0  0  0  0  0  0
  148.7027  139.9752  153.9321 N   0  3  2  0  0  0  0  0  0  0  0  0
  147.2310  139.9430  153.6286 C   0  0  1  0  0  0  0  0  0  0  0  0
  146.5552  141.2974  153.9576 C   0  0  0  0  0  0  0  0  0  0  0  0
  146.9418  139.5258  152.1587 C   0  0  0  0  0  0  0  0  0  0  0  0
  146.9672  138.0794  151.9498 N   0  0  0  0  0  0  0  0  0  0  0  0
  145.8885  137.2840  151.8909 C   0  0  0  0  0  0  0  0  0  0  0  0
  144.7357  137.6929  152.0336 O   0  0  0  0  0  0  0  0  0  0  0  0
  146.2383  136.0052  151.6683 N   0  0  0  0  0  0  0  0  0  0  0  0
  145.3917  134.8716  151.5515 C   0  0  0  0  0  0  0  0  0  0  0  0
  144.0625  134.9334  151.4094 N   0  0  0  0  0  0  0  0  0  0  0  0
  143.4856  133.6642  151.3154 C   0  0  0  0  0  0  0  0  0  0  0  0
  144.3969  132.6402  151.3905 C   0  0  0  0  0  0  0  0  0  0  0  0
  146.0254  133.2326  151.5825 S   0  0  0  0  0  0  0  0  0  0  0  0
  149.3153  138.6297  154.1221 C   0  0  0  0  0  0  0  0  0  0  0  0
  150.8226  138.7246  154.4259 C   0  0  2  0  0  0  0  0  0  0  0  0
  151.4419  137.3514  154.7097 C   0  0  0  0  0  0  0  0  0  0  0  0
  151.0189  139.5414  155.5700 O   0  0  0  0  0  0  0  0  0  0  0  0
  150.6174  142.7400  156.4667 H   0  0  0  0  0  0  0  0  0  0  0  0
  152.0058  141.6976  156.7583 H   0  0  0  0  0  0  0  0  0  0  0  0
  150.4487  141.3104  157.4845 H   0  0  0  0  0  0  0  0  0  0  0  0
  151.0855  141.2921  154.4893 H   0  0  0  0  0  0  0  0  0  0  0  0
  148.5185  140.5017  155.9769 H   0  0  0  0  0  0  0  0  0  0  0  0
  148.7426  141.8761  154.9085 H   0  0  0  0  0  0  0  0  0  0  0  0
  146.7828  139.1865  154.2748 H   0  0  0  0  0  0  0  0  0  0  0  0
  145.4939  141.2962  153.7135 H   0  0  0  0  0  0  0  0  0  0  0  0
  147.0177  142.1153  153.4045 H   0  0  0  0  0  0  0  0  0  0  0  0
  146.5922  141.5395  155.0182 H   0  0  0  0  0  0  0  0  0  0  0  0
  145.9970  139.9567  151.8227 H   0  0  0  0  0  0  0  0  0  0  0  0
  147.7114  139.9083  151.4897 H   0  0  0  0  0  0  0  0  0  0  0  0
  147.8749  137.6547  151.8265 H   0  0  0  0  0  0  0  0  0  0  0  0
  147.2254  135.8189  151.5712 H   0  0  0  0  0  0  0  0  0  0  0  0
  142.4154  133.5816  151.1960 H   0  0  0  0  0  0  0  0  0  0  0  0
  144.2093  131.5778  151.3444 H   0  0  0  0  0  0  0  0  0  0  0  0
  148.7981  138.1066  154.9284 H   0  0  0  0  0  0  0  0  0  0  0  0
  149.2131  138.0265  153.2217 H   0  0  0  0  0  0  0  0  0  0  0  0
  151.3428  139.1661  153.5739 H   0  0  0  0  0  0  0  0  0  0  0  0
  151.3347  136.6872  153.8518 H   0  0  0  0  0  0  0  0  0  0  0  0
  150.9660  136.8719  155.5658 H   0  0  0  0  0  0  0  0  0  0  0  0
  152.5064  137.4414  154.9279 H   0  0  0  0  0  0  0  0  0  0  0  0
  149.1531  140.3782  153.1226 H   0  0  0  0  0  0  0  0  0  0  0  0
  1  2  1  0  0  0  0
  1 21  1  0  0  0  0
  1 22  1  0  0  0  0
  1 23  1  0  0  0  0
  2 20  1  0  0  0  0
  2  3  1  0  0  0  0
  2 24  1  0  0  0  0
  3  4  1  0  0  0  0
  3 25  1  0  0  0  0
  3 26  1  0  0  0  0
  4  5  1  0  0  0  0
  4 17  1  0  0  0  0
  4 43  1  0  0  0  0
  5  6  1  0  0  0  0
  5  7  1  0  0  0  0
  5 27  1  0  0  0  0
  6 28  1  0  0  0  0
  6 29  1  0  0  0  0
  6 30  1  0  0  0  0
  7  8  1  0  0  0  0
  7 31  1  0  0  0  0
  7 32  1  0  0  0  0
  8  9  1  0  0  0  0
  8 33  1  0  0  0  0
  9 10  2  0  0  0  0
  9 11  1  0  0  0  0
 11 12  1  0  0  0  0
 11 34  1  0  0  0  0
 12 16  1  0  0  0  0
 12 13  2  0  0  0  0
 13 14  1  0  0  0  0
 14 15  2  0  0  0  0
 14 35  1  0  0  0  0
 15 16  1  0  0  0  0
 15 36  1  0  0  0  0
 17 18  1  0  0  0  0
 17 37  1  0  0  0  0
 17 38  1  0  0  0  0
 18 19  1  0  0  0  0
 18 20  1  0  0  0  0
 18 39  1  0  0  0  0
 19 40  1  0  0  0  0
 19 41  1  0  0  0  0
 19 42  1  0  0  0  0
M  CHG  1   4   1
M  END
> <s_m_source_file>
AV-unprocessed.smi

> <i_m_source_file_index>
2032

> <i_lp_mmshare_version>
43012

> <i_f3d_flags>
0

> <s_epik_input>
W0NIM11bQ0BASF0xW0NIMl1OKFtDSDJdW0NASF0oTzEpW0NIM10pW0NASF0oW0NIM10pW0NIMl1bTkhdQyg9TylbTkhdYzJuW2NIXVtjSF1zMg==

> <s_epik_cmdline>
J2VwaWtfcHl0aG9uJywgJy1waCcsICc3LjAnLCAnLXRuJywgJzgnLCAnLW1hJywgJzIwMCcsICctbWV0YWxfYmluZGluZycsICctaW1hZScsICc8aW5maWxlLm1hZT4nLCAnLW9tYWUnLCAnPG91dGZpbGUubWFlPic=

> <r_lp_tautomer_probability>
0.999

> <r_epik_Ionization_Penalty>
0.695838

> <r_epik_Ionization_Penalty_Charging>
0.695697

> <r_epik_Ionization_Penalty_Neutral>
0.000141198

> <r_epik_State_Penalty>
0.717972

> <r_epik_Charging_Adjusted_Penalty>
1.41367

> <i_epik_Tot_Q>
1

> <i_epik_Tot_abs_Q>
1

> <r_epik_Metal_State_Penalty>
0.756405

> <b_epik_Metal_Only>
0

> <s_lp_Force_Field>
OPLS_2005

> <r_lp_Energy>
18.3762

> <b_lp_Chiralities_Consistent>
1

> <s_lp_Variant>
AV-unprocessed.smi:2032-13

> <Gold.Version>
5.8.1

> <Gold.Id.Protein>
6NUR|6NUR_protein|mol2

> <Gold.PLP.Fitness>
41.9749

> <Gold.PLP.PLP>
-32.1622

> <Gold.PLP.part.hbond>
-3.0343

> <Gold.PLP.part.metal>
0.0000

> <Gold.PLP.part.buried>
-1.9884

> <Gold.PLP.part.nonpolar>
-31.6147

> <Gold.PLP.part.repulsive>
4.3852

> <Gold.PLP.ligand.clash>
0.0000

> <Gold.PLP.ligand.torsion>
0.9025

> <Gold.PLP.Chemscore.Hbond>
2.8640

> <Gold.PLP.Chemscore.CHOScore>
0.9906

> <Gold.PLP.Chemscore.Metal>
0.0000

> <Gold.Chemscore.Hbonds>
donor molecule, donor type, donor heavy atom, donor atom, acceptor molecule, acceptor atom, score
      L1  H     4    43       P1  7957  0.86
      L1  H     8    33       P1  7948  1.00
      L1  H    11    34       P1  7948  1.00
      L1  C    14    35       P1 10186  1.00

> <Gold.PLP.Chemscore.Internal.Correction>
0.0538

> <Gold.Rescore>
     Score         DG    S(hbond)    S(metal)    S(lipo)     H(rot)  DE(clash)    DE(int)     intcor
     14.56     -17.70       2.21        0.00      76.70       1.61       1.05       2.09       ----

> <Gold.Chemscore.Fitness>
14.5588

> <Gold.Chemscore.DG>
-17.7018

> <Gold.Chemscore.ZeroCoef>
-5.4800

> <Gold.Chemscore.Hbond>
2.2072

> <Gold.Chemscore.Metal>
0.0000

> <Gold.Chemscore.Lipo>
76.6998

> <Gold.Chemscore.Internal_Hbond>
0.0000

> <Gold.Chemscore.DEClash>
1.0535

> <Gold.Chemscore.DEInternal>
2.0895

> <Gold.Chemscore.Rot>
1.6110

> <Gold.Chemscore.Internal.Correction>
   9.000000E+99

> <Gold.Chemscore.Hbonds>
donor molecule, donor type, donor heavy atom, donor atom, acceptor molecule, acceptor atom, score
      L1  H     4    43       P1  7957  0.79
      L1  H     8    33       P1  7948  0.96
      L1  H    11    34       P1  7948  0.97

> <Gold.Chemscore.Hbond.Weighted>
-7.3720

> <Gold.Chemscore.Metal.Weighted>
-0.0000

> <Gold.Chemscore.Lipo.Weighted>
-8.9739

> <Gold.Chemscore.Internal_Hbond.Weighted>
0.0000

> <Gold.Chemscore.DEClash.Weighted>
1.0535

> <Gold.Chemscore.DEInternal.Weighted>
2.0895

> <Gold.Chemscore.Rot.Weighted>
4.1242

> <Gold.Chemscore.Internal.Correction.Weighted>
   9.000000E+99

> <Gold.Protein.RotatedTorsions>
[ 6907 6896 6895 6894 ] final  -88.05 input  -60.11 | X-H torsion
[ 7974 7965 7964 7962 ] final  -90.13 input  175.53 | X-H torsion
[ 8008 7997 7996 7995 ] final  -95.48 input   59.86 | X-H torsion
[ 10167 10162 10161 10158 ] final   34.72 input  -65.29 | X-H torsion
[ 10718 10713 10712 10709 ] final   87.43 input   66.30 | X-H torsion
[ 10763 10752 10751 10750 ] final  -32.41 input  -60.55 | X-H torsion
[ 11005 11000 10999 10996 ] final -122.00 input  -57.11 | X-H torsion

> <Gold.Protein.ActiveResidues>
 VAL166  LYS551  ARG553  GLY616  TRP617  ASP618  TYR619  PRO620  LYS621  CYS622 
 ASP623  PHE694  ASN695  SER759  ASP760  ASP761  ALA762  ILE779  LEU786  VAL792 
 PHE793  MET794  SER795  GLU796  ALA797  LYS798  CYS799  TRP800  GLU811  SER814 

> <Gold.Protein.RotatedAtoms>
  150.6867  134.2802  159.4623 H   0  0  0  0  0  0  0  0  0  0  0  0  # atno 6907 bound_to 6896
  152.0716  134.9527  160.0583 H   0  0  0  0  0  0  0  0  0  0  0  0  # atno 6908 bound_to 6896
  152.0914  133.4168  159.4582 H   0  0  0  0  0  0  0  0  0  0  0  0  # atno 6909 bound_to 6896
  145.4306  140.9555  143.2130 H   0  0  0  0  0  0  0  0  0  0  0  0  # atno 7974 bound_to 7965
  154.7620  140.0479  157.0981 H   0  0  0  0  0  0  0  0  0  0  0  0  # atno 8008 bound_to 7997
  154.9926  140.3115  155.4880 H   0  0  0  0  0  0  0  0  0  0  0  0  # atno 8009 bound_to 7997
  156.2906  140.2216  156.5032 H   0  0  0  0  0  0  0  0  0  0  0  0  # atno 8010 bound_to 7997
  140.4288  144.1354  150.6157 H   0  0  0  0  0  0  0  0  0  0  0  0  # atno 10167 bound_to 10162
  157.6940  131.0255  150.3122 H   0  0  0  0  0  0  0  0  0  0  0  0  # atno 10718 bound_to 10713
  153.8133  135.6880  153.4838 H   0  0  0  0  0  0  0  0  0  0  0  0  # atno 10763 bound_to 10752
  153.1615  135.4578  154.9776 H   0  0  0  0  0  0  0  0  0  0  0  0  # atno 10764 bound_to 10752
  154.7958  135.3319  154.7611 H   0  0  0  0  0  0  0  0  0  0  0  0  # atno 10765 bound_to 10752
  141.0028  134.0378  157.3515 H   0  0  0  0  0  0  0  0  0  0  0  0  # atno 11005 bound_to 11000
  144.8185  139.5833  143.6997 LP  0  0  0  0  0  0  0  0  0  0  0  0  # atno 17320 bound_to 7965
  146.2609  139.6408  142.9362 LP  0  0  0  0  0  0  0  0  0  0  0  0  # atno 17321 bound_to 7965
  140.4450  143.2510  151.9423 LP  0  0  0  0  0  0  0  0  0  0  0  0  # atno 17342 bound_to 10162
  139.4784  144.5617  151.8228 LP  0  0  0  0  0  0  0  0  0  0  0  0  # atno 17343 bound_to 10162
  156.3622  130.3849  149.7242 LP  0  0  0  0  0  0  0  0  0  0  0  0  # atno 17370 bound_to 10713
  156.4685  130.7985  151.3004 LP  0  0  0  0  0  0  0  0  0  0  0  0  # atno 17371 bound_to 10713
  139.9047  135.0176  156.7434 LP  0  0  0  0  0  0  0  0  0  0  0  0  # atno 17394 bound_to 11000
  140.6861  133.9431  155.7939 LP  0  0  0  0  0  0  0  0  0  0  0  0  # atno 17395 bound_to 11000

$$$$
