AV-unprocessed.smi:3071|AV-procd|sdf|11716|dock5
  -GOLD-   2272017113D 1   1.00000     0.00000
 Structure written by MMmdl.
 29 30  0  0  0  0  0  0  0  0  3 V2000
  145.1325  135.5840  151.1066 C   0  0  0  0  0  0  0  0  0  0  0  0
  144.8640  134.1459  150.7988 C   0  0  0  0  0  0  0  0  0  0  0  0
  143.6822  133.6387  150.4293 N   0  3  0  0  0  0  0  0  0  0  0  0
  143.7858  132.2907  150.2195 C   0  0  0  0  0  0  0  0  0  0  0  0
  145.0910  131.9592  150.4724 C   0  0  0  0  0  0  0  0  0  0  0  0
  145.7314  133.1193  150.8298 N   0  0  0  0  0  0  0  0  0  0  0  0
  147.1498  133.2558  151.1911 C   0  0  0  0  0  0  0  0  0  0  0  0
  147.3967  133.1432  152.7079 C   0  0  1  0  0  0  0  0  0  0  0  0
  148.6717  132.3922  153.1045 C   0  0  0  0  0  0  0  0  0  0  0  0
  148.9525  132.9219  154.5056 C   0  0  0  0  0  0  0  0  0  0  0  0
  148.5154  134.3871  154.4282 C   0  0  0  0  0  0  0  0  0  0  0  0
  147.5084  134.4686  153.3499 N   0  3  0  0  0  0  0  0  0  0  0  0
  144.2102  136.1523  150.9816 H   0  0  0  0  0  0  0  0  0  0  0  0
  145.8913  135.9552  150.4174 H   0  0  0  0  0  0  0  0  0  0  0  0
  145.4809  135.6661  152.1360 H   0  0  0  0  0  0  0  0  0  0  0  0
  142.9453  131.6849  149.9128 H   0  0  0  0  0  0  0  0  0  0  0  0
  145.5974  131.0059  150.4263 H   0  0  0  0  0  0  0  0  0  0  0  0
  147.6978  132.4760  150.6603 H   0  0  0  0  0  0  0  0  0  0  0  0
  147.5169  134.2081  150.8065 H   0  0  0  0  0  0  0  0  0  0  0  0
  146.5499  132.6407  153.1774 H   0  0  0  0  0  0  0  0  0  0  0  0
  148.5523  131.3084  153.0790 H   0  0  0  0  0  0  0  0  0  0  0  0
  149.4945  132.6583  152.4388 H   0  0  0  0  0  0  0  0  0  0  0  0
  148.3357  132.3886  155.2306 H   0  0  0  0  0  0  0  0  0  0  0  0
  149.9952  132.8063  154.8035 H   0  0  0  0  0  0  0  0  0  0  0  0
  148.1121  134.7465  155.3756 H   0  0  0  0  0  0  0  0  0  0  0  0
  149.3602  135.0227  154.1599 H   0  0  0  0  0  0  0  0  0  0  0  0
  147.8247  135.1465  152.6708 H   0  0  0  0  0  0  0  0  0  0  0  0
  146.6120  134.7529  153.7190 H   0  0  0  0  0  0  0  0  0  0  0  0
  142.8330  134.1790  150.3177 H   0  0  0  0  0  0  0  0  0  0  0  0
  1  2  1  0  0  0  0
  1 13  1  0  0  0  0
  1 14  1  0  0  0  0
  1 15  1  0  0  0  0
  2  6  1  0  0  0  0
  2  3  2  0  0  0  0
  3  4  1  0  0  0  0
  3 29  1  0  0  0  0
  4  5  2  0  0  0  0
  4 16  1  0  0  0  0
  5  6  1  0  0  0  0
  5 17  1  0  0  0  0
  6  7  1  0  0  0  0
  7  8  1  0  0  0  0
  7 18  1  0  0  0  0
  7 19  1  0  0  0  0
  8 12  1  0  0  0  0
  8  9  1  0  0  0  0
  8 20  1  0  0  0  0
  9 10  1  0  0  0  0
  9 21  1  0  0  0  0
  9 22  1  0  0  0  0
 10 11  1  0  0  0  0
 10 23  1  0  0  0  0
 10 24  1  0  0  0  0
 11 12  1  0  0  0  0
 11 25  1  0  0  0  0
 11 26  1  0  0  0  0
 12 27  1  0  0  0  0
 12 28  1  0  0  0  0
M  CHG  1   3   1
M  CHG  1  12   1
M  END
> <s_m_source_file>
AV-unprocessed.smi

> <i_m_source_file_index>
3071

> <i_lp_mmshare_version>
43012

> <i_f3d_flags>
0

> <s_epik_input>
W0NIM11jMW5bY0hdW2NIXW4xW0NIMl1bQ0BASF0yW0NIMl1bQ0gyXVtDSDJdW05IXTI=

> <s_epik_cmdline>
J2VwaWtfcHl0aG9uJywgJy1waCcsICc3LjAnLCAnLXRuJywgJzgnLCAnLW1hJywgJzIwMCcsICctbWV0YWxfYmluZGluZycsICctaW1hZScsICc8aW5maWxlLm1hZT4nLCAnLW9tYWUnLCAnPG91dGZpbGUubWFlPic=

> <r_lp_tautomer_probability>
1

> <r_epik_Ionization_Penalty>
0.770167

> <r_epik_Ionization_Penalty_Charging>
0.000985251

> <r_epik_Ionization_Penalty_Neutral>
0.769181

> <r_epik_State_Penalty>
0.493256

> <r_epik_Charging_Adjusted_Penalty>
0.494241

> <i_epik_Tot_Q>
2

> <i_epik_Tot_abs_Q>
2

> <r_epik_Metal_State_Penalty>
4.24699

> <b_epik_Metal_Only>
0

> <s_lp_Force_Field>
OPLS_2005

> <r_lp_Energy>
34.2931

> <b_lp_Chiralities_Consistent>
1

> <s_lp_Variant>
AV-unprocessed.smi:3071-4

> <Gold.Version>
5.8.1

> <Gold.Id.Protein>
6NUR|6NUR_protein|mol2

> <Gold.PLP.Fitness>
37.8597

> <Gold.PLP.PLP>
-27.6511

> <Gold.PLP.part.hbond>
-2.0000

> <Gold.PLP.part.metal>
0.0000

> <Gold.PLP.part.buried>
-3.2683

> <Gold.PLP.part.nonpolar>
-21.9380

> <Gold.PLP.part.repulsive>
0.0111

> <Gold.PLP.ligand.clash>
0.0000

> <Gold.PLP.ligand.torsion>
0.8959

> <Gold.PLP.Chemscore.Hbond>
4.0000

> <Gold.PLP.Chemscore.CHOScore>
0.0000

> <Gold.PLP.Chemscore.Metal>
0.0000

> <Gold.Chemscore.Hbonds>
donor molecule, donor type, donor heavy atom, donor atom, acceptor molecule, acceptor atom, score
      L1  H     3    29       P1 10186  2.00
      L1  H    12    27       P1  7948  2.00

> <Gold.PLP.Chemscore.Internal.Correction>
0.0004

> <Gold.Rescore>
     Score         DG    S(hbond)    S(metal)    S(lipo)     H(rot)  DE(clash)    DE(int)     intcor
     14.62     -15.60       1.98        0.00      57.34       1.25       0.08       0.90       ----

> <Gold.Chemscore.Fitness>
14.6201

> <Gold.Chemscore.DG>
-15.6048

> <Gold.Chemscore.ZeroCoef>
-5.4800

> <Gold.Chemscore.Hbond>
1.9791

> <Gold.Chemscore.Metal>
0.0000

> <Gold.Chemscore.Lipo>
57.3393

> <Gold.Chemscore.Internal_Hbond>
0.0000

> <Gold.Chemscore.DEClash>
0.0815

> <Gold.Chemscore.DEInternal>
0.9032

> <Gold.Chemscore.Rot>
1.2477

> <Gold.Chemscore.Internal.Correction>
   9.000000E+99

> <Gold.Chemscore.Hbonds>
donor molecule, donor type, donor heavy atom, donor atom, acceptor molecule, acceptor atom, score
      L1  H     3    29       P1 10186  0.84
      L1  H    12    27       P1  7948  0.98

> <Gold.Chemscore.Hbond.Weighted>
-6.6102

> <Gold.Chemscore.Metal.Weighted>
-0.0000

> <Gold.Chemscore.Lipo.Weighted>
-6.7087

> <Gold.Chemscore.Internal_Hbond.Weighted>
0.0000

> <Gold.Chemscore.DEClash.Weighted>
0.0815

> <Gold.Chemscore.DEInternal.Weighted>
0.9032

> <Gold.Chemscore.Rot.Weighted>
3.1941

> <Gold.Chemscore.Internal.Correction.Weighted>
   9.000000E+99

> <Gold.Protein.RotatedTorsions>
[ 6907 6896 6895 6894 ] final  -30.86 input  -60.11 | X-H torsion
[ 7974 7965 7964 7962 ] final   12.46 input  175.53 | X-H torsion
[ 8008 7997 7996 7995 ] final -148.72 input   59.86 | X-H torsion
[ 10167 10162 10161 10158 ] final -128.73 input  -65.29 | X-H torsion
[ 10718 10713 10712 10709 ] final  -97.22 input   66.30 | X-H torsion
[ 10763 10752 10751 10750 ] final  -12.81 input  -60.55 | X-H torsion
[ 11005 11000 10999 10996 ] final  112.73 input  -57.11 | X-H torsion

> <Gold.Protein.ActiveResidues>
 VAL166  LYS551  ARG553  GLY616  TRP617  ASP618  TYR619  PRO620  LYS621  CYS622 
 ASP623  PHE694  ASN695  SER759  ASP760  ASP761  ALA762  ILE779  LEU786  VAL792 
 PHE793  MET794  SER795  GLU796  ALA797  LYS798  CYS799  TRP800  GLU811  SER814 

> <Gold.Protein.RotatedAtoms>
  151.0999  134.9966  159.8443 H   0  0  0  0  0  0  0  0  0  0  0  0  # atno 6907 bound_to 6896
  152.5436  134.1963  159.8704 H   0  0  0  0  0  0  0  0  0  0  0  0  # atno 6908 bound_to 6896
  151.2005  133.4569  159.2629 H   0  0  0  0  0  0  0  0  0  0  0  0  # atno 6909 bound_to 6896
  146.2351  139.9334  142.8493 H   0  0  0  0  0  0  0  0  0  0  0  0  # atno 7974 bound_to 7965
  155.5962  140.0657  157.2745 H   0  0  0  0  0  0  0  0  0  0  0  0  # atno 8008 bound_to 7997
  154.4291  140.1826  156.1173 H   0  0  0  0  0  0  0  0  0  0  0  0  # atno 8009 bound_to 7997
  156.0194  140.3318  155.7027 H   0  0  0  0  0  0  0  0  0  0  0  0  # atno 8010 bound_to 7997
  139.9472  143.6097  152.2486 H   0  0  0  0  0  0  0  0  0  0  0  0  # atno 10167 bound_to 10162
  156.0079  130.5185  150.6342 H   0  0  0  0  0  0  0  0  0  0  0  0  # atno 10718 bound_to 10713
  153.5039  135.7017  153.5817 H   0  0  0  0  0  0  0  0  0  0  0  0  # atno 10763 bound_to 10752
  153.3936  135.3889  155.1940 H   0  0  0  0  0  0  0  0  0  0  0  0  # atno 10764 bound_to 10752
  154.8708  135.3864  154.4513 H   0  0  0  0  0  0  0  0  0  0  0  0  # atno 10765 bound_to 10752
  139.8935  134.9536  156.6631 H   0  0  0  0  0  0  0  0  0  0  0  0  # atno 11005 bound_to 11000
  145.2022  140.9859  143.4149 LP  0  0  0  0  0  0  0  0  0  0  0  0  # atno 17320 bound_to 7965
  144.9763  139.3828  143.6284 LP  0  0  0  0  0  0  0  0  0  0  0  0  # atno 17321 bound_to 7965
  139.6657  144.7662  151.1877 LP  0  0  0  0  0  0  0  0  0  0  0  0  # atno 17342 bound_to 10162
  140.7594  143.5941  150.8766 LP  0  0  0  0  0  0  0  0  0  0  0  0  # atno 17343 bound_to 10162
  157.4134  131.0827  151.1199 LP  0  0  0  0  0  0  0  0  0  0  0  0  # atno 17370 bound_to 10713
  157.1823  130.6315  149.5676 LP  0  0  0  0  0  0  0  0  0  0  0  0  # atno 17371 bound_to 10713
  140.7432  133.8960  155.8293 LP  0  0  0  0  0  0  0  0  0  0  0  0  # atno 17394 bound_to 11000
  141.0061  134.1084  157.4269 LP  0  0  0  0  0  0  0  0  0  0  0  0  # atno 17395 bound_to 11000

$$$$
