AV-unprocessed.smi:3289|AV-procd|sdf|12610|dock8
  -GOLD-   2272018543D 1   1.00000     0.00000
 Structure written by MMmdl.
 39 40  0  0  0  0  0  0  0  0  1 V2000
  151.2774  141.8054  157.0846 C   0  0  0  0  0  0  0  0  0  0  0  0
  150.3351  141.2644  156.0002 C   0  0  0  0  0  0  0  0  0  0  0  0
  148.8586  141.3956  156.4037 C   0  0  0  0  0  0  0  0  0  0  0  0
  150.6855  139.8504  155.6219 C   0  0  0  0  0  0  0  0  0  0  0  0
  150.9116  139.4694  154.3667 N   0  0  0  0  0  0  0  0  0  0  0  0
  151.1656  138.1056  154.4413 C   0  0  0  0  0  0  0  0  0  0  0  0
  151.0732  137.6992  155.7491 C   0  0  0  0  0  0  0  0  0  0  0  0
  150.7567  138.8251  156.5003 N   0  0  0  0  0  0  0  0  0  0  0  0
  150.5449  138.8331  157.9407 C   0  0  0  0  0  0  0  0  0  0  0  0
  150.3026  137.4194  158.4747 C   0  0  0  0  0  0  0  0  0  0  0  0
  151.1791  136.5623  158.3650 O   0  0  0  0  0  0  0  0  0  0  0  0
  149.1090  137.1888  159.0432 N   0  0  0  0  0  0  0  0  0  0  0  0
  148.6802  135.9141  159.6071 C   0  0  0  0  0  0  0  0  0  0  0  0
  147.5443  136.1020  160.6260 C   0  0  1  0  0  0  0  0  0  0  0  0
  147.3568  134.9134  161.5633 C   0  0  0  0  0  0  0  0  0  0  0  0
  146.5820  135.5371  162.7051 C   0  0  0  0  0  0  0  0  0  0  0  0
  147.1091  136.9735  162.7395 C   0  0  0  0  0  0  0  0  0  0  0  0
  147.8261  137.1680  161.5233 O   0  0  0  0  0  0  0  0  0  0  0  0
  152.3157  141.7700  156.7530 H   0  0  0  0  0  0  0  0  0  0  0  0
  151.2014  141.2243  158.0041 H   0  0  0  0  0  0  0  0  0  0  0  0
  151.0441  142.8426  157.3259 H   0  0  0  0  0  0  0  0  0  0  0  0
  150.4653  141.9027  155.1289 H   0  0  0  0  0  0  0  0  0  0  0  0
  148.2020  141.0601  155.6004 H   0  0  0  0  0  0  0  0  0  0  0  0
  148.6031  142.4317  156.6272 H   0  0  0  0  0  0  0  0  0  0  0  0
  148.6326  140.8006  157.2892 H   0  0  0  0  0  0  0  0  0  0  0  0
  151.3886  137.5274  153.5570 H   0  0  0  0  0  0  0  0  0  0  0  0
  151.1945  136.7236  156.1965 H   0  0  0  0  0  0  0  0  0  0  0  0
  151.4318  139.2436  158.4249 H   0  0  0  0  0  0  0  0  0  0  0  0
  149.7214  139.5041  158.1868 H   0  0  0  0  0  0  0  0  0  0  0  0
  148.4509  137.9529  159.0922 H   0  0  0  0  0  0  0  0  0  0  0  0
  148.3302  135.2927  158.7826 H   0  0  0  0  0  0  0  0  0  0  0  0
  149.5210  135.3829  160.0567 H   0  0  0  0  0  0  0  0  0  0  0  0
  146.6035  136.3138  160.1143 H   0  0  0  0  0  0  0  0  0  0  0  0
  146.8314  134.0799  161.0964 H   0  0  0  0  0  0  0  0  0  0  0  0
  148.3226  134.5534  161.9215 H   0  0  0  0  0  0  0  0  0  0  0  0
  145.5159  135.5381  162.4736 H   0  0  0  0  0  0  0  0  0  0  0  0
  146.7229  135.0107  163.6495 H   0  0  0  0  0  0  0  0  0  0  0  0
  146.2930  137.6920  162.8211 H   0  0  0  0  0  0  0  0  0  0  0  0
  147.7848  137.1316  163.5804 H   0  0  0  0  0  0  0  0  0  0  0  0
  1  2  1  0  0  0  0
  1 19  1  0  0  0  0
  1 20  1  0  0  0  0
  1 21  1  0  0  0  0
  2  3  1  0  0  0  0
  2  4  1  0  0  0  0
  2 22  1  0  0  0  0
  3 23  1  0  0  0  0
  3 24  1  0  0  0  0
  3 25  1  0  0  0  0
  4  8  1  0  0  0  0
  4  5  2  0  0  0  0
  5  6  1  0  0  0  0
  6  7  2  0  0  0  0
  6 26  1  0  0  0  0
  7  8  1  0  0  0  0
  7 27  1  0  0  0  0
  8  9  1  0  0  0  0
  9 10  1  0  0  0  0
  9 28  1  0  0  0  0
  9 29  1  0  0  0  0
 10 11  2  0  0  0  0
 10 12  1  0  0  0  0
 12 13  1  0  0  0  0
 12 30  1  0  0  0  0
 13 14  1  0  0  0  0
 13 31  1  0  0  0  0
 13 32  1  0  0  0  0
 14 18  1  0  0  0  0
 14 15  1  0  0  0  0
 14 33  1  0  0  0  0
 15 16  1  0  0  0  0
 15 34  1  0  0  0  0
 15 35  1  0  0  0  0
 16 17  1  0  0  0  0
 16 36  1  0  0  0  0
 16 37  1  0  0  0  0
 17 18  1  0  0  0  0
 17 38  1  0  0  0  0
 17 39  1  0  0  0  0
M  END
> <s_m_source_file>
AV-unprocessed.smi

> <i_m_source_file_index>
3289

> <i_lp_mmshare_version>
43012

> <i_f3d_flags>
0

> <s_epik_input>
W0NIM11bQ0hdKFtDSDNdKWMxbltjSF1bY0hdbjFbQ0gyXUMoPU8pW05IXVtDSDJdW0NAQEhdMltDSDJdW0NIMl1bQ0gyXU8y

> <s_epik_cmdline>
J2VwaWtfcHl0aG9uJywgJy1waCcsICc3LjAnLCAnLXRuJywgJzgnLCAnLW1hJywgJzIwMCcsICctbWV0YWxfYmluZGluZycsICctaW1hZScsICc8aW5maWxlLm1hZT4nLCAnLW9tYWUnLCAnPG91dGZpbGUubWFlPic=

> <r_lp_tautomer_probability>
1

> <r_epik_Ionization_Penalty>
0.587725

> <r_epik_Ionization_Penalty_Charging>
0.587725

> <r_epik_Ionization_Penalty_Neutral>
1.43432e-07

> <r_epik_State_Penalty>
0.601029

> <r_epik_Charging_Adjusted_Penalty>
1.18875

> <i_epik_Tot_Q>
0

> <i_epik_Tot_abs_Q>
0

> <r_epik_Metal_State_Penalty>
0.297663

> <b_epik_Metal_Only>
0

> <s_lp_Force_Field>
OPLS_2005

> <r_lp_Energy>
18.4157

> <b_lp_Chiralities_Consistent>
1

> <s_lp_Variant>
AV-unprocessed.smi:3289-4

> <Gold.Version>
5.8.1

> <Gold.Id.Protein>
6NUR|6NUR_protein|mol2

> <Gold.PLP.Fitness>
44.7257

> <Gold.PLP.PLP>
-33.4984

> <Gold.PLP.part.hbond>
-4.0000

> <Gold.PLP.part.metal>
0.0000

> <Gold.PLP.part.buried>
-3.8577

> <Gold.PLP.part.nonpolar>
-25.5706

> <Gold.PLP.part.repulsive>
0.3333

> <Gold.PLP.ligand.clash>
0.0000

> <Gold.PLP.ligand.torsion>
0.6623

> <Gold.PLP.Chemscore.Hbond>
3.3738

> <Gold.PLP.Chemscore.CHOScore>
0.7858

> <Gold.PLP.Chemscore.Metal>
0.0000

> <Gold.Chemscore.Hbonds>
donor molecule, donor type, donor heavy atom, donor atom, acceptor molecule, acceptor atom, score
      P1  H  6896  6908       L1    11  0.63
      P1  H  6931  6943       L1    18  1.00
      P1  H  6934  6947       L1    18  0.70
      P1  H  7989  7998       L1     5  1.00
      L1  C     6    26       P1  7949  0.86

> <Gold.PLP.Chemscore.Internal.Correction>
0.0732

> <Gold.Rescore>
     Score         DG    S(hbond)    S(metal)    S(lipo)     H(rot)  DE(clash)    DE(int)     intcor
     18.04     -20.16       3.34        0.00      67.76       1.72       0.07       2.05       ----

> <Gold.Chemscore.Fitness>
18.0383

> <Gold.Chemscore.DG>
-20.1567

> <Gold.Chemscore.ZeroCoef>
-5.4800

> <Gold.Chemscore.Hbond>
3.3370

> <Gold.Chemscore.Metal>
0.0000

> <Gold.Chemscore.Lipo>
67.7588

> <Gold.Chemscore.Internal_Hbond>
0.0000

> <Gold.Chemscore.DEClash>
0.0659

> <Gold.Chemscore.DEInternal>
2.0524

> <Gold.Chemscore.Rot>
1.7175

> <Gold.Chemscore.Internal.Correction>
   9.000000E+99

> <Gold.Chemscore.Hbonds>
donor molecule, donor type, donor heavy atom, donor atom, acceptor molecule, acceptor atom, score
      P1  H  6896  6908       L1    11  0.57
      P1  H  6931  6943       L1    18  0.49
      P1  H  6934  6947       L1    18  0.21
      P1  H  7989  7998       L1     5  0.65

> <Gold.Chemscore.Hbond.Weighted>
-11.1457

> <Gold.Chemscore.Metal.Weighted>
-0.0000

> <Gold.Chemscore.Lipo.Weighted>
-7.9278

> <Gold.Chemscore.Internal_Hbond.Weighted>
0.0000

> <Gold.Chemscore.DEClash.Weighted>
0.0659

> <Gold.Chemscore.DEInternal.Weighted>
2.0524

> <Gold.Chemscore.Rot.Weighted>
4.3967

> <Gold.Chemscore.Internal.Correction.Weighted>
   9.000000E+99

> <Gold.Protein.RotatedTorsions>
[ 6907 6896 6895 6894 ] final -142.40 input  -60.11 | X-H torsion
[ 7974 7965 7964 7962 ] final   88.90 input  175.53 | X-H torsion
[ 8008 7997 7996 7995 ] final   97.37 input   59.86 | X-H torsion
[ 10167 10162 10161 10158 ] final  114.62 input  -65.29 | X-H torsion
[ 10718 10713 10712 10709 ] final   70.95 input   66.30 | X-H torsion
[ 10763 10752 10751 10750 ] final   95.24 input  -60.55 | X-H torsion
[ 11005 11000 10999 10996 ] final  -31.83 input  -57.11 | X-H torsion

> <Gold.Protein.ActiveResidues>
 VAL166  LYS551  ARG553  GLY616  TRP617  ASP618  TYR619  PRO620  LYS621  CYS622 
 ASP623  PHE694  ASN695  SER759  ASP760  ASP761  ALA762  ILE779  LEU786  VAL792 
 PHE793  MET794  SER795  GLU796  ALA797  LYS798  CYS799  TRP800  GLU811  SER814 

> <Gold.Protein.RotatedAtoms>
  151.0866  133.5348  159.2617 H   0  0  0  0  0  0  0  0  0  0  0  0  # atno 6907 bound_to 6896
  151.2231  135.0525  159.8968 H   0  0  0  0  0  0  0  0  0  0  0  0  # atno 6908 bound_to 6896
  152.5430  134.0666  159.8229 H   0  0  0  0  0  0  0  0  0  0  0  0  # atno 6909 bound_to 6896
  145.5395  139.2288  143.2573 H   0  0  0  0  0  0  0  0  0  0  0  0  # atno 7974 bound_to 7965
  156.0894  140.3259  155.7796 H   0  0  0  0  0  0  0  0  0  0  0  0  # atno 8008 bound_to 7997
  155.5021  140.0570  157.2954 H   0  0  0  0  0  0  0  0  0  0  0  0  # atno 8009 bound_to 7997
  154.4629  140.1975  156.0213 H   0  0  0  0  0  0  0  0  0  0  0  0  # atno 8010 bound_to 7997
  139.6375  144.7121  151.2304 H   0  0  0  0  0  0  0  0  0  0  0  0  # atno 10167 bound_to 10162
  157.6426  130.9503  150.0721 H   0  0  0  0  0  0  0  0  0  0  0  0  # atno 10718 bound_to 10713
  153.2509  135.4261  155.0796 H   0  0  0  0  0  0  0  0  0  0  0  0  # atno 10763 bound_to 10752
  154.8381  135.3425  154.6514 H   0  0  0  0  0  0  0  0  0  0  0  0  # atno 10764 bound_to 10752
  153.6935  135.7032  153.5140 H   0  0  0  0  0  0  0  0  0  0  0  0  # atno 10765 bound_to 10752
  140.9501  133.7226  156.1207 H   0  0  0  0  0  0  0  0  0  0  0  0  # atno 11005 bound_to 11000
  146.1990  140.6215  142.9111 LP  0  0  0  0  0  0  0  0  0  0  0  0  # atno 17320 bound_to 7965
  144.7584  140.5363  143.6753 LP  0  0  0  0  0  0  0  0  0  0  0  0  # atno 17321 bound_to 7965
  140.7473  143.6370  150.8370 LP  0  0  0  0  0  0  0  0  0  0  0  0  # atno 17342 bound_to 10162
  140.0003  143.5751  152.2878 LP  0  0  0  0  0  0  0  0  0  0  0  0  # atno 17343 bound_to 10162
  156.1722  130.3647  149.9149 LP  0  0  0  0  0  0  0  0  0  0  0  0  # atno 17370 bound_to 10713
  156.7121  130.8974  151.3610 LP  0  0  0  0  0  0  0  0  0  0  0  0  # atno 17371 bound_to 10713
  140.7614  134.3935  157.5525 LP  0  0  0  0  0  0  0  0  0  0  0  0  # atno 17394 bound_to 11000
  139.8845  134.8964  156.2700 LP  0  0  0  0  0  0  0  0  0  0  0  0  # atno 17395 bound_to 11000

$$$$
