AV-unprocessed.smi:3250|AV-procd|sdf|12425|dock6
  -GOLD-   2272018313D 1   1.00000     0.00000
 Structure written by MMmdl.
 39 40  0  0  0  0  0  0  0  0  2 V2000
  147.4314  128.7024  152.2757 C   0  0  0  0  0  0  0  0  0  0  0  0
  146.4140  129.8510  152.2165 C   0  0  0  0  0  0  0  0  0  0  0  0
  147.0576  131.1775  152.0458 N   0  3  1  0  0  0  0  0  0  0  0  0
  146.0984  132.2123  151.5915 C   0  0  0  0  0  0  0  0  0  0  0  0
  146.8115  133.5588  151.3872 C   0  0  0  0  0  0  0  0  0  0  0  0
  147.4643  133.9384  152.5923 O   0  0  0  0  0  0  0  0  0  0  0  0
  148.4650  133.0036  152.9785 C   0  0  1  0  0  0  0  0  0  0  0  0
  149.1842  133.5718  154.2155 C   0  0  0  0  0  0  0  0  0  0  0  0
  149.6066  134.9555  154.0368 N   0  0  0  0  0  0  0  0  0  0  0  0
  150.1736  135.7400  155.0253 C   0  0  0  0  0  0  0  0  0  0  0  0
  151.1674  136.5366  154.6273 N   0  0  0  0  0  0  0  0  0  0  0  0
  151.7376  137.3220  155.5673 C   0  0  0  0  0  0  0  0  0  0  0  0
  151.3054  137.3084  156.9086 C   0  0  0  0  0  0  0  0  0  0  0  0
  150.2487  136.4296  157.2198 C   0  0  0  0  0  0  0  0  0  0  0  0
  149.7738  136.3660  158.5133 O   0  0  0  0  0  0  0  0  0  0  0  0
  148.6171  135.5751  158.7644 C   0  0  0  0  0  0  0  0  0  0  0  0
  149.6856  135.6454  156.2671 N   0  0  0  0  0  0  0  0  0  0  0  0
  147.7902  131.6430  153.2493 C   0  0  0  0  0  0  0  0  0  0  0  0
  146.9197  127.7399  152.2911 H   0  0  0  0  0  0  0  0  0  0  0  0
  148.0522  128.7504  153.1699 H   0  0  0  0  0  0  0  0  0  0  0  0
  148.0890  128.7121  151.4060 H   0  0  0  0  0  0  0  0  0  0  0  0
  145.7530  129.6681  151.3683 H   0  0  0  0  0  0  0  0  0  0  0  0
  145.7826  129.8519  153.1062 H   0  0  0  0  0  0  0  0  0  0  0  0
  145.6322  131.9008  150.6560 H   0  0  0  0  0  0  0  0  0  0  0  0
  145.3014  132.3206  152.3288 H   0  0  0  0  0  0  0  0  0  0  0  0
  147.5321  133.5001  150.5698 H   0  0  0  0  0  0  0  0  0  0  0  0
  146.0890  134.3297  151.1187 H   0  0  0  0  0  0  0  0  0  0  0  0
  149.1786  132.9029  152.1590 H   0  0  0  0  0  0  0  0  0  0  0  0
  148.5305  133.5131  155.0868 H   0  0  0  0  0  0  0  0  0  0  0  0
  150.0608  132.9675  154.4498 H   0  0  0  0  0  0  0  0  0  0  0  0
  149.4189  135.3998  153.1497 H   0  0  0  0  0  0  0  0  0  0  0  0
  152.5422  137.9672  155.2469 H   0  0  0  0  0  0  0  0  0  0  0  0
  151.7613  137.9383  157.6581 H   0  0  0  0  0  0  0  0  0  0  0  0
  148.3681  135.6254  159.8244 H   0  0  0  0  0  0  0  0  0  0  0  0
  148.7875  134.5267  158.5142 H   0  0  0  0  0  0  0  0  0  0  0  0
  147.7553  135.9402  158.2039 H   0  0  0  0  0  0  0  0  0  0  0  0
  147.1000  131.7247  154.0906 H   0  0  0  0  0  0  0  0  0  0  0  0
  148.5493  130.9129  153.5281 H   0  0  0  0  0  0  0  0  0  0  0  0
  147.7384  131.0774  151.3060 H   0  0  0  0  0  0  0  0  0  0  0  0
  1  2  1  0  0  0  0
  1 19  1  0  0  0  0
  1 20  1  0  0  0  0
  1 21  1  0  0  0  0
  2  3  1  0  0  0  0
  2 22  1  0  0  0  0
  2 23  1  0  0  0  0
  3 18  1  0  0  0  0
  3  4  1  0  0  0  0
  3 39  1  0  0  0  0
  4  5  1  0  0  0  0
  4 24  1  0  0  0  0
  4 25  1  0  0  0  0
  5  6  1  0  0  0  0
  5 26  1  0  0  0  0
  5 27  1  0  0  0  0
  6  7  1  0  0  0  0
  7  8  1  0  0  0  0
  7 18  1  0  0  0  0
  7 28  1  0  0  0  0
  8  9  1  0  0  0  0
  8 29  1  0  0  0  0
  8 30  1  0  0  0  0
  9 10  1  0  0  0  0
  9 31  1  0  0  0  0
 10 17  1  0  0  0  0
 10 11  2  0  0  0  0
 11 12  1  0  0  0  0
 12 13  2  0  0  0  0
 12 32  1  0  0  0  0
 13 14  1  0  0  0  0
 13 33  1  0  0  0  0
 14 15  1  0  0  0  0
 14 17  2  0  0  0  0
 15 16  1  0  0  0  0
 16 34  1  0  0  0  0
 16 35  1  0  0  0  0
 16 36  1  0  0  0  0
 18 37  1  0  0  0  0
 18 38  1  0  0  0  0
M  CHG  1   3   1
M  END
> <s_m_source_file>
AV-unprocessed.smi

> <i_m_source_file_index>
3250

> <i_lp_mmshare_version>
43012

> <i_f3d_flags>
0

> <s_epik_input>
W0NIM11bQ0gyXU4xW0NIMl1bQ0gyXU9bQ0BIXShbQ0gyXTEpW0NIMl1bTkhdYzJuW2NIXVtjSF1jKG4yKU9bQ0gzXQ==

> <s_epik_cmdline>
J2VwaWtfcHl0aG9uJywgJy1waCcsICc3LjAnLCAnLXRuJywgJzgnLCAnLW1hJywgJzIwMCcsICctbWV0YWxfYmluZGluZycsICctaW1hZScsICc8aW5maWxlLm1hZT4nLCAnLW9tYWUnLCAnPG91dGZpbGUubWFlPic=

> <r_lp_tautomer_probability>
1

> <r_epik_Ionization_Penalty>
0.19684

> <r_epik_Ionization_Penalty_Charging>
0.178504

> <r_epik_Ionization_Penalty_Neutral>
0.0183356

> <r_epik_State_Penalty>
0.162939

> <r_epik_Charging_Adjusted_Penalty>
0.341443

> <i_epik_Tot_Q>
1

> <i_epik_Tot_abs_Q>
1

> <r_epik_Metal_State_Penalty>
0.1608

> <b_epik_Metal_Only>
0

> <s_lp_Force_Field>
OPLS_2005

> <r_lp_Energy>
7.38775

> <b_lp_Chiralities_Consistent>
1

> <s_lp_Variant>
AV-unprocessed.smi:3250-1

> <Gold.Version>
5.8.1

> <Gold.Id.Protein>
6NUR|6NUR_protein|mol2

> <Gold.PLP.Fitness>
35.5347

> <Gold.PLP.PLP>
-25.9883

> <Gold.PLP.part.hbond>
-4.0000

> <Gold.PLP.part.metal>
0.0000

> <Gold.PLP.part.buried>
-4.4711

> <Gold.PLP.part.nonpolar>
-19.6933

> <Gold.PLP.part.repulsive>
2.0567

> <Gold.PLP.ligand.clash>
0.0000

> <Gold.PLP.ligand.torsion>
0.5166

> <Gold.PLP.Chemscore.Hbond>
3.5191

> <Gold.PLP.Chemscore.CHOScore>
0.0000

> <Gold.PLP.Chemscore.Metal>
0.0000

> <Gold.Chemscore.Hbonds>
donor molecule, donor type, donor heavy atom, donor atom, acceptor molecule, acceptor atom, score
      L1  H     3    39       P1 10747  1.00
      L1  H     9    31       P1  7948  0.60
      P1  H  6896  6908       L1    15  0.27
      P1  H 10752 10765       L1    11  0.45

> <Gold.PLP.Chemscore.Internal.Correction>
0.0224

> <Gold.Rescore>
     Score         DG    S(hbond)    S(metal)    S(lipo)     H(rot)  DE(clash)    DE(int)     intcor
     13.36     -14.06       1.88        0.00      57.21       1.71       0.05       0.65       ----

> <Gold.Chemscore.Fitness>
13.3598

> <Gold.Chemscore.DG>
-14.0587

> <Gold.Chemscore.ZeroCoef>
-5.4800

> <Gold.Chemscore.Hbond>
1.8770

> <Gold.Chemscore.Metal>
0.0000

> <Gold.Chemscore.Lipo>
57.2143

> <Gold.Chemscore.Internal_Hbond>
0.0000

> <Gold.Chemscore.DEClash>
0.0451

> <Gold.Chemscore.DEInternal>
0.6538

> <Gold.Chemscore.Rot>
1.7127

> <Gold.Chemscore.Internal.Correction>
   9.000000E+99

> <Gold.Chemscore.Hbonds>
donor molecule, donor type, donor heavy atom, donor atom, acceptor molecule, acceptor atom, score
      L1  H     3    39       P1 10747  0.99
      L1  H     9    31       P1  7948  0.04
      P1  H  6896  6908       L1    15  0.01
      P1  H 10752 10765       L1    11  0.01

> <Gold.Chemscore.Hbond.Weighted>
-6.2692

> <Gold.Chemscore.Metal.Weighted>
-0.0000

> <Gold.Chemscore.Lipo.Weighted>
-6.6941

> <Gold.Chemscore.Internal_Hbond.Weighted>
0.0000

> <Gold.Chemscore.DEClash.Weighted>
0.0451

> <Gold.Chemscore.DEInternal.Weighted>
0.6538

> <Gold.Chemscore.Rot.Weighted>
4.3846

> <Gold.Chemscore.Internal.Correction.Weighted>
   9.000000E+99

> <Gold.Protein.RotatedTorsions>
[ 6907 6896 6895 6894 ] final -158.09 input  -60.11 | X-H torsion
[ 7974 7965 7964 7962 ] final  144.83 input  175.53 | X-H torsion
[ 8008 7997 7996 7995 ] final  177.66 input   59.86 | X-H torsion
[ 10167 10162 10161 10158 ] final   80.96 input  -65.29 | X-H torsion
[ 10718 10713 10712 10709 ] final  128.02 input   66.30 | X-H torsion
[ 10763 10752 10751 10750 ] final  167.79 input  -60.55 | X-H torsion
[ 11005 11000 10999 10996 ] final   47.22 input  -57.11 | X-H torsion

> <Gold.Protein.ActiveResidues>
 VAL166  LYS551  ARG553  GLY616  TRP617  ASP618  TYR619  PRO620  LYS621  CYS622 
 ASP623  PHE694  ASN695  SER759  ASP760  ASP761  ALA762  ILE779  LEU786  VAL792 
 PHE793  MET794  SER795  GLU796  ALA797  LYS798  CYS799  TRP800  GLU811  SER814 

> <Gold.Protein.RotatedAtoms>
  151.3129  133.4073  159.2648 H   0  0  0  0  0  0  0  0  0  0  0  0  # atno 6907 bound_to 6896
  151.0099  134.9389  159.8012 H   0  0  0  0  0  0  0  0  0  0  0  0  # atno 6908 bound_to 6896
  152.5298  134.3093  159.9160 H   0  0  0  0  0  0  0  0  0  0  0  0  # atno 6909 bound_to 6896
  144.8803  139.5710  143.5846 H   0  0  0  0  0  0  0  0  0  0  0  0  # atno 7974 bound_to 7965
  156.0633  140.1353  156.9916 H   0  0  0  0  0  0  0  0  0  0  0  0  # atno 8008 bound_to 7997
  154.4493  140.0987  156.6620 H   0  0  0  0  0  0  0  0  0  0  0  0  # atno 8009 bound_to 7997
  155.5344  140.3459  155.4435 H   0  0  0  0  0  0  0  0  0  0  0  0  # atno 8010 bound_to 7997
  139.9443  144.6069  150.8222 H   0  0  0  0  0  0  0  0  0  0  0  0  # atno 10167 bound_to 10162
  157.5281  131.1098  150.9051 H   0  0  0  0  0  0  0  0  0  0  0  0  # atno 10718 bound_to 10713
  154.3591  135.2753  155.2330 H   0  0  0  0  0  0  0  0  0  0  0  0  # atno 10763 bound_to 10752
  154.4526  135.5927  153.6205 H   0  0  0  0  0  0  0  0  0  0  0  0  # atno 10764 bound_to 10752
  152.9844  135.6045  154.3809 H   0  0  0  0  0  0  0  0  0  0  0  0  # atno 10765 bound_to 10752
  140.1299  134.4719  155.8530 H   0  0  0  0  0  0  0  0  0  0  0  0  # atno 11005 bound_to 11000
  146.2990  139.7366  142.9105 LP  0  0  0  0  0  0  0  0  0  0  0  0  # atno 17320 bound_to 7965
  145.3967  141.0380  143.3093 LP  0  0  0  0  0  0  0  0  0  0  0  0  # atno 17321 bound_to 7965
  140.7602  143.3145  151.2765 LP  0  0  0  0  0  0  0  0  0  0  0  0  # atno 17342 bound_to 10162
  139.6679  144.0072  152.2735 LP  0  0  0  0  0  0  0  0  0  0  0  0  # atno 17343 bound_to 10162
  156.9640  130.5466  149.5287 LP  0  0  0  0  0  0  0  0  0  0  0  0  # atno 17370 bound_to 10713
  156.0402  130.5485  150.8752 LP  0  0  0  0  0  0  0  0  0  0  0  0  # atno 17371 bound_to 10713
  141.2168  133.6792  156.7049 LP  0  0  0  0  0  0  0  0  0  0  0  0  # atno 17394 bound_to 11000
  140.2856  134.8282  157.3972 LP  0  0  0  0  0  0  0  0  0  0  0  0  # atno 17395 bound_to 11000

$$$$
