AV-unprocessed.smi:244|AV-procd|sdf|1873|dock8
  -GOLD-   2262020513D 1   1.00000     0.00000
 Structure written by MMmdl.
 56 60  0  0  0  0  0  0  0  0  1 V2000
  148.0327  141.2544  155.0661 C   0  0  0  0  0  0  0  0  0  0  0  0
  149.2037  140.4813  155.4537 N   0  0  0  0  0  0  0  0  0  0  0  0
  150.3051  141.3901  155.7688 C   0  0  0  0  0  0  0  0  0  0  0  0
  151.5125  140.5859  156.2743 C   0  0  0  0  0  0  0  0  0  0  0  0
  151.9686  139.5745  155.2067 C   0  0  1  0  0  0  0  0  0  0  0  0
  153.0784  138.7788  155.6298 O   0  0  0  0  0  0  0  0  0  0  0  0
  152.7676  137.8057  156.6237 C   0  0  0  0  0  0  0  0  0  0  0  0
  151.6519  136.8811  156.1183 C   0  0  0  0  0  0  0  0  0  0  0  0
  150.4845  137.6659  155.7385 N   0  0  0  0  0  0  0  0  0  0  0  0
  149.4108  136.8892  155.4780 C   0  0  0  0  0  0  0  0  0  0  0  0
  148.1916  137.4749  155.5655 N   0  0  0  0  0  0  0  0  0  0  0  0
  147.0903  136.7648  155.3035 C   0  0  0  0  0  0  0  0  0  0  0  0
  146.9883  135.4817  154.9498 N   0  0  0  0  0  0  0  0  0  0  0  0
  148.2147  134.8898  154.8688 C   0  0  0  0  0  0  0  0  0  0  0  0
  149.4693  135.5149  155.1130 C   0  0  0  0  0  0  0  0  0  0  0  0
  150.4993  134.6001  154.9302 N   0  0  0  0  0  0  0  0  0  0  0  0
  149.8871  133.4944  154.6035 C   0  0  0  0  0  0  0  0  0  0  0  0
  148.5140  133.5775  154.5481 N   0  0  0  0  0  0  0  0  0  0  0  0
  147.5894  132.5049  154.2158 C   0  0  0  0  0  0  0  0  0  0  0  0
  147.1888  132.4648  152.7202 C   0  0  0  0  0  0  0  0  0  0  0  0
  148.3782  132.5485  151.9534 O   0  0  0  0  0  0  0  0  0  0  0  0
  146.4488  131.1639  152.3373 C   0  0  0  0  0  0  0  0  0  0  0  0
  145.8687  131.2222  150.9131 C   0  0  0  0  0  0  0  0  0  0  0  0
  145.0314  132.3632  150.7704 O   0  0  0  0  0  0  0  0  0  0  0  0
  145.7357  133.5869  150.9411 C   0  0  0  0  0  0  0  0  0  0  0  0
  146.2996  133.6746  152.3703 C   0  0  0  0  0  0  0  0  0  0  0  0
  150.7897  138.6928  154.7373 C   0  0  1  0  0  0  0  0  0  0  0  0
  149.5725  139.5784  154.3607 C   0  0  0  0  0  0  0  0  0  0  0  0
  147.7253  141.9147  155.8777 H   0  0  0  0  0  0  0  0  0  0  0  0
  147.1946  140.5928  154.8429 H   0  0  0  0  0  0  0  0  0  0  0  0
  148.2322  141.8647  154.1844 H   0  0  0  0  0  0  0  0  0  0  0  0
  150.5763  141.9775  154.8901 H   0  0  0  0  0  0  0  0  0  0  0  0
  149.9898  142.0929  156.5410 H   0  0  0  0  0  0  0  0  0  0  0  0
  152.3325  141.2607  156.5204 H   0  0  0  0  0  0  0  0  0  0  0  0
  151.2340  140.0840  157.2008 H   0  0  0  0  0  0  0  0  0  0  0  0
  152.3191  140.1484  154.3479 H   0  0  0  0  0  0  0  0  0  0  0  0
  153.6653  137.2243  156.8340 H   0  0  0  0  0  0  0  0  0  0  0  0
  152.4834  138.2831  157.5610 H   0  0  0  0  0  0  0  0  0  0  0  0
  152.0084  136.3088  155.2609 H   0  0  0  0  0  0  0  0  0  0  0  0
  151.3841  136.1637  156.8955 H   0  0  0  0  0  0  0  0  0  0  0  0
  146.1573  137.3021  155.3893 H   0  0  0  0  0  0  0  0  0  0  0  0
  150.4228  132.5788  154.3978 H   0  0  0  0  0  0  0  0  0  0  0  0
  148.0516  131.5600  154.5041 H   0  0  0  0  0  0  0  0  0  0  0  0
  146.7036  132.6116  154.8438 H   0  0  0  0  0  0  0  0  0  0  0  0
  148.3319  131.9110  151.2573 H   0  0  0  0  0  0  0  0  0  0  0  0
  147.1072  130.2991  152.4286 H   0  0  0  0  0  0  0  0  0  0  0  0
  145.6282  130.9995  153.0369 H   0  0  0  0  0  0  0  0  0  0  0  0
  146.6630  131.2437  150.1654 H   0  0  0  0  0  0  0  0  0  0  0  0
  145.2769  130.3279  150.7169 H   0  0  0  0  0  0  0  0  0  0  0  0
  146.5296  133.6701  150.1971 H   0  0  0  0  0  0  0  0  0  0  0  0
  145.0483  134.4139  150.7619 H   0  0  0  0  0  0  0  0  0  0  0  0
  145.4618  133.7197  153.0676 H   0  0  0  0  0  0  0  0  0  0  0  0
  146.8525  134.6063  152.4983 H   0  0  0  0  0  0  0  0  0  0  0  0
  151.1113  138.1704  153.8355 H   0  0  0  0  0  0  0  0  0  0  0  0
  148.7166  138.9652  154.0772 H   0  0  0  0  0  0  0  0  0  0  0  0
  149.8219  140.1727  153.4803 H   0  0  0  0  0  0  0  0  0  0  0  0
  1  2  1  0  0  0  0
  1 29  1  0  0  0  0
  1 30  1  0  0  0  0
  1 31  1  0  0  0  0
  2 28  1  0  0  0  0
  2  3  1  0  0  0  0
  3  4  1  0  0  0  0
  3 32  1  0  0  0  0
  3 33  1  0  0  0  0
  4  5  1  0  0  0  0
  4 34  1  0  0  0  0
  4 35  1  0  0  0  0
  5 27  1  0  0  0  0
  5  6  1  0  0  0  0
  5 36  1  0  0  0  0
  6  7  1  0  0  0  0
  7  8  1  0  0  0  0
  7 37  1  0  0  0  0
  7 38  1  0  0  0  0
  8  9  1  0  0  0  0
  8 39  1  0  0  0  0
  8 40  1  0  0  0  0
  9 10  1  0  0  0  0
  9 27  1  0  0  0  0
 10 15  1  0  0  0  0
 10 11  2  0  0  0  0
 11 12  1  0  0  0  0
 12 13  2  0  0  0  0
 12 41  1  0  0  0  0
 13 14  1  0  0  0  0
 14 18  1  0  0  0  0
 14 15  2  0  0  0  0
 15 16  1  0  0  0  0
 16 17  2  0  0  0  0
 17 18  1  0  0  0  0
 17 42  1  0  0  0  0
 18 19  1  0  0  0  0
 19 20  1  0  0  0  0
 19 43  1  0  0  0  0
 19 44  1  0  0  0  0
 20 26  1  0  0  0  0
 20 21  1  0  0  0  0
 20 22  1  0  0  0  0
 21 45  1  0  0  0  0
 22 23  1  0  0  0  0
 22 46  1  0  0  0  0
 22 47  1  0  0  0  0
 23 24  1  0  0  0  0
 23 48  1  0  0  0  0
 23 49  1  0  0  0  0
 24 25  1  0  0  0  0
 25 26  1  0  0  0  0
 25 50  1  0  0  0  0
 25 51  1  0  0  0  0
 26 52  1  0  0  0  0
 26 53  1  0  0  0  0
 27 28  1  0  0  0  0
 27 54  1  0  0  0  0
 28 55  1  0  0  0  0
 28 56  1  0  0  0  0
M  END
> <s_m_source_file>
AV-unprocessed.smi

> <i_m_source_file_index>
244

> <i_lp_mmshare_version>
43012

> <i_f3d_flags>
0

> <s_epik_input>
W0NIMl0xW0NIMl1OKFtDSDNdKVtDSDJdW0NAQEhdKFtDQEhdMTIpTihbQ0gyXVtDSDJdTzIpYyhuW2NIXW4zKWMoYzM0KW5bY0hdbjRbQ0gyXUM1KFtPSF0pW0NIMl1bQ0gyXU9bQ0gyXVtDSDJdNQ==

> <s_epik_cmdline>
J2VwaWtfcHl0aG9uJywgJy1waCcsICc3LjAnLCAnLXRuJywgJzgnLCAnLW1hJywgJzIwMCcsICctbWV0YWxfYmluZGluZycsICctaW1hZScsICc8aW5maWxlLm1hZT4nLCAnLW9tYWUnLCAnPG91dGZpbGUubWFlPic=

> <r_lp_tautomer_probability>
1

> <r_epik_Ionization_Penalty>
2.27765

> <r_epik_Ionization_Penalty_Charging>
0

> <r_epik_Ionization_Penalty_Neutral>
2.27765

> <r_epik_State_Penalty>
2.4114

> <r_epik_Charging_Adjusted_Penalty>
2.4114

> <i_epik_Tot_Q>
0

> <i_epik_Tot_abs_Q>
0

> <r_epik_Metal_State_Penalty>
2.39769

> <b_epik_Metal_Only>
0

> <s_lp_Force_Field>
OPLS_2005

> <r_lp_Energy>
50.0311

> <b_lp_Chiralities_Consistent>
1

> <s_lp_Variant>
AV-unprocessed.smi:244-10

> <Gold.Version>
5.8.1

> <Gold.Id.Protein>
6NUR|6NUR_protein|mol2

> <Gold.PLP.Fitness>
42.9148

> <Gold.PLP.PLP>
-38.5068

> <Gold.PLP.part.hbond>
-2.0000

> <Gold.PLP.part.metal>
0.0000

> <Gold.PLP.part.buried>
-5.7100

> <Gold.PLP.part.nonpolar>
-31.9820

> <Gold.PLP.part.repulsive>
0.4878

> <Gold.PLP.ligand.clash>
0.0000

> <Gold.PLP.ligand.torsion>
0.8645

> <Gold.PLP.Chemscore.Hbond>
2.0000

> <Gold.PLP.Chemscore.CHOScore>
0.0000

> <Gold.PLP.Chemscore.Metal>
0.0000

> <Gold.Chemscore.Hbonds>
donor molecule, donor type, donor heavy atom, donor atom, acceptor molecule, acceptor atom, score
      L1  H    21    45       P1 10747  1.00
      P1  H  7997  8010       L1     6  1.00

> <Gold.PLP.Chemscore.Internal.Correction>
0.1370

> <Gold.Rescore>
     Score         DG    S(hbond)    S(metal)    S(lipo)     H(rot)  DE(clash)    DE(int)     intcor
     12.54     -16.29       1.69        0.00      89.40       2.06       0.12       3.63       ----

> <Gold.Chemscore.Fitness>
12.5437

> <Gold.Chemscore.DG>
-16.2934

> <Gold.Chemscore.ZeroCoef>
-5.4800

> <Gold.Chemscore.Hbond>
1.6858

> <Gold.Chemscore.Metal>
0.0000

> <Gold.Chemscore.Lipo>
89.3974

> <Gold.Chemscore.Internal_Hbond>
0.0000

> <Gold.Chemscore.DEClash>
0.1162

> <Gold.Chemscore.DEInternal>
3.6335

> <Gold.Chemscore.Rot>
2.0611

> <Gold.Chemscore.Internal.Correction>
   9.000000E+99

> <Gold.Chemscore.Hbonds>
donor molecule, donor type, donor heavy atom, donor atom, acceptor molecule, acceptor atom, score
      L1  H    21    45       P1 10747  0.93
      P1  H  7997  8010       L1     6  0.28

> <Gold.Chemscore.Hbond.Weighted>
-5.6305

> <Gold.Chemscore.Metal.Weighted>
-0.0000

> <Gold.Chemscore.Lipo.Weighted>
-10.4595

> <Gold.Chemscore.Internal_Hbond.Weighted>
0.0000

> <Gold.Chemscore.DEClash.Weighted>
0.1162

> <Gold.Chemscore.DEInternal.Weighted>
3.6335

> <Gold.Chemscore.Rot.Weighted>
5.2765

> <Gold.Chemscore.Internal.Correction.Weighted>
   9.000000E+99

> <Gold.Protein.RotatedTorsions>
[ 6907 6896 6895 6894 ] final -173.37 input  -60.11 | X-H torsion
[ 7974 7965 7964 7962 ] final  -19.56 input  175.53 | X-H torsion
[ 8008 7997 7996 7995 ] final   98.57 input   59.86 | X-H torsion
[ 10167 10162 10161 10158 ] final -116.26 input  -65.29 | X-H torsion
[ 10718 10713 10712 10709 ] final -128.85 input   66.30 | X-H torsion
[ 10763 10752 10751 10750 ] final  112.64 input  -60.55 | X-H torsion
[ 11005 11000 10999 10996 ] final  132.37 input  -57.11 | X-H torsion

> <Gold.Protein.ActiveResidues>
 VAL166  LYS551  ARG553  GLY616  TRP617  ASP618  TYR619  PRO620  LYS621  CYS622 
 ASP623  PHE694  ASN695  SER759  ASP760  ASP761  ALA762  ILE779  LEU786  VAL792 
 PHE793  MET794  SER795  GLU796  ALA797  LYS798  CYS799  TRP800  GLU811  SER814 

> <Gold.Protein.RotatedAtoms>
  151.5551  133.3411  159.2960 H   0  0  0  0  0  0  0  0  0  0  0  0  # atno 6907 bound_to 6896
  150.8456  134.7766  159.6978 H   0  0  0  0  0  0  0  0  0  0  0  0  # atno 6908 bound_to 6896
  152.4514  134.5393  159.9886 H   0  0  0  0  0  0  0  0  0  0  0  0  # atno 6909 bound_to 6896
  146.1835  140.4079  142.8485 H   0  0  0  0  0  0  0  0  0  0  0  0  # atno 7974 bound_to 7965
  156.1018  140.3241  155.7952 H   0  0  0  0  0  0  0  0  0  0  0  0  # atno 8008 bound_to 7997
  155.4824  140.0555  157.2982 H   0  0  0  0  0  0  0  0  0  0  0  0  # atno 8009 bound_to 7997
  154.4702  140.2007  156.0030 H   0  0  0  0  0  0  0  0  0  0  0  0  # atno 8010 bound_to 7997
  140.0811  143.4787  152.1925 H   0  0  0  0  0  0  0  0  0  0  0  0  # atno 10167 bound_to 10162
  156.1990  130.6845  151.0517 H   0  0  0  0  0  0  0  0  0  0  0  0  # atno 10718 bound_to 10713
  153.4808  135.3680  155.2441 H   0  0  0  0  0  0  0  0  0  0  0  0  # atno 10763 bound_to 10752
  154.8755  135.3954  154.3702 H   0  0  0  0  0  0  0  0  0  0  0  0  # atno 10764 bound_to 10752
  153.4306  135.7082  153.6299 H   0  0  0  0  0  0  0  0  0  0  0  0  # atno 10765 bound_to 10752
  139.9786  134.9555  156.9572 H   0  0  0  0  0  0  0  0  0  0  0  0  # atno 11005 bound_to 11000
  144.8355  140.6776  143.6263 LP  0  0  0  0  0  0  0  0  0  0  0  0  # atno 17320 bound_to 7965
  145.4008  139.1598  143.4178 LP  0  0  0  0  0  0  0  0  0  0  0  0  # atno 17321 bound_to 7965
  139.5779  144.7496  151.3717 LP  0  0  0  0  0  0  0  0  0  0  0  0  # atno 17342 bound_to 10162
  140.7077  143.7471  150.7511 LP  0  0  0  0  0  0  0  0  0  0  0  0  # atno 17343 bound_to 10162
  157.6975  131.0788  150.6925 LP  0  0  0  0  0  0  0  0  0  0  0  0  # atno 17370 bound_to 10713
  156.6982  130.4615  149.5580 LP  0  0  0  0  0  0  0  0  0  0  0  0  # atno 17371 bound_to 10713
  140.5143  134.0970  155.7277 LP  0  0  0  0  0  0  0  0  0  0  0  0  # atno 17394 bound_to 11000
  141.1460  133.9053  157.2213 LP  0  0  0  0  0  0  0  0  0  0  0  0  # atno 17395 bound_to 11000

$$$$
