AV-unprocessed.smi:1949|AV-procd|sdf|7878|dock2
  -GOLD-   2272010 33D 1   1.00000     0.00000
 Structure written by MMmdl.
 28 29  0  0  0  0  0  0  0  0  2 V2000
  146.8184  142.4424  154.2945 C   0  0  0  0  0  0  0  0  0  0  0  0
  148.0353  141.7334  154.7814 C   0  0  0  0  0  0  0  0  0  0  0  0
  149.0793  141.4670  153.9928 N   0  0  0  0  0  0  0  0  0  0  0  0
  150.0899  140.8008  154.6709 N   0  0  0  0  0  0  0  0  0  0  0  0
  149.8030  140.5855  155.9628 C   0  0  0  0  0  0  0  0  0  0  0  0
  150.6530  139.9626  156.8003 N   0  5  0  0  0  0  0  0  0  0  0  0
  151.6914  140.6037  157.3990 C   0  0  0  0  0  0  0  0  0  0  0  0
  152.8307  140.1416  157.4493 O   0  0  0  0  0  0  0  0  0  0  0  0
  151.4504  141.8053  157.9589 N   0  0  0  0  0  0  0  0  0  0  0  0
  152.4220  142.6488  158.6508 C   0  0  0  0  0  0  0  0  0  0  0  0
  152.1298  142.6811  160.1641 C   0  0  0  0  0  0  0  0  0  0  0  0
  152.0980  144.1581  160.5628 C   0  0  0  0  0  0  0  0  0  0  0  0
  151.6599  144.8851  159.2956 C   0  0  0  0  0  0  0  0  0  0  0  0
  152.3440  144.1112  158.1695 C   0  0  0  0  0  0  0  0  0  0  0  0
  148.2140  141.1837  156.4391 S   0  0  0  0  0  0  0  0  0  0  0  0
  147.0433  143.4956  154.1253 H   0  0  0  0  0  0  0  0  0  0  0  0
  146.0170  142.3693  155.0299 H   0  0  0  0  0  0  0  0  0  0  0  0
  146.4742  142.0011  153.3590 H   0  0  0  0  0  0  0  0  0  0  0  0
  150.5090  142.1635  157.8934 H   0  0  0  0  0  0  0  0  0  0  0  0
  153.4274  142.2592  158.4811 H   0  0  0  0  0  0  0  0  0  0  0  0
  151.1577  142.2338  160.3792 H   0  0  0  0  0  0  0  0  0  0  0  0
  152.8717  142.1234  160.7367 H   0  0  0  0  0  0  0  0  0  0  0  0
  151.4357  144.3506  161.4074 H   0  0  0  0  0  0  0  0  0  0  0  0
  153.1003  144.4845  160.8435 H   0  0  0  0  0  0  0  0  0  0  0  0
  150.5771  144.8134  159.1854 H   0  0  0  0  0  0  0  0  0  0  0  0
  151.9272  145.9422  159.3020 H   0  0  0  0  0  0  0  0  0  0  0  0
  153.3554  144.4962  158.0337 H   0  0  0  0  0  0  0  0  0  0  0  0
  151.8267  144.2307  157.2165 H   0  0  0  0  0  0  0  0  0  0  0  0
  1  2  1  0  0  0  0
  1 16  1  0  0  0  0
  1 17  1  0  0  0  0
  1 18  1  0  0  0  0
  2 15  1  0  0  0  0
  2  3  2  0  0  0  0
  3  4  1  0  0  0  0
  4  5  2  0  0  0  0
  5  6  1  0  0  0  0
  5 15  1  0  0  0  0
  6  7  1  0  0  0  0
  7  8  2  0  0  0  0
  7  9  1  0  0  0  0
  9 10  1  0  0  0  0
  9 19  1  0  0  0  0
 10 14  1  0  0  0  0
 10 11  1  0  0  0  0
 10 20  1  0  0  0  0
 11 12  1  0  0  0  0
 11 21  1  0  0  0  0
 11 22  1  0  0  0  0
 12 13  1  0  0  0  0
 12 23  1  0  0  0  0
 12 24  1  0  0  0  0
 13 14  1  0  0  0  0
 13 25  1  0  0  0  0
 13 26  1  0  0  0  0
 14 27  1  0  0  0  0
 14 28  1  0  0  0  0
M  CHG  1   6  -1
M  END
> <s_m_source_file>
AV-unprocessed.smi

> <i_m_source_file_index>
1949

> <i_lp_mmshare_version>
43012

> <i_f3d_flags>
0

> <s_epik_input>
W0NIM11jMW5uYyhzMSlbTkhdQyg9TylbTkhdW0NIXTJbQ0gyXVtDSDJdW0NIMl1bQ0gyXTI=

> <s_epik_cmdline>
J2VwaWtfcHl0aG9uJywgJy1waCcsICc3LjAnLCAnLXRuJywgJzgnLCAnLW1hJywgJzIwMCcsICctbWV0YWxfYmluZGluZycsICctaW1hZScsICc8aW5maWxlLm1hZT4nLCAnLW9tYWUnLCAnPG91dGZpbGUubWFlPic=

> <r_lp_tautomer_probability>
1

> <r_epik_Ionization_Penalty>
4.54091

> <r_epik_Ionization_Penalty_Charging>
4.38642

> <r_epik_Ionization_Penalty_Neutral>
0.154484

> <r_epik_State_Penalty>
4.38606

> <r_epik_Charging_Adjusted_Penalty>
8.77248

> <i_epik_Tot_Q>
-1

> <i_epik_Tot_abs_Q>
1

> <r_epik_Metal_State_Penalty>
0.765318

> <b_epik_Metal_Only>
1

> <s_lp_Force_Field>
OPLS_2005

> <r_lp_Energy>
17.692

> <b_lp_Chiralities_Consistent>
1

> <s_lp_Variant>
AV-unprocessed.smi:1949-2

> <Gold.Version>
5.8.1

> <Gold.Id.Protein>
6NUR|6NUR_protein|mol2

> <Gold.PLP.Fitness>
38.6135

> <Gold.PLP.PLP>
-33.4046

> <Gold.PLP.part.hbond>
-4.0000

> <Gold.PLP.part.metal>
0.0000

> <Gold.PLP.part.buried>
-4.1996

> <Gold.PLP.part.nonpolar>
-26.3790

> <Gold.PLP.part.repulsive>
0.5954

> <Gold.PLP.ligand.clash>
0.0000

> <Gold.PLP.ligand.torsion>
1.2433

> <Gold.PLP.Chemscore.Hbond>
2.5584

> <Gold.PLP.Chemscore.CHOScore>
0.0000

> <Gold.PLP.Chemscore.Metal>
0.0000

> <Gold.Chemscore.Hbonds>
donor molecule, donor type, donor heavy atom, donor atom, acceptor molecule, acceptor atom, score
      P1  H  7989  7998       L1     4  0.77
      P1  H  7997  8008       L1     8  1.00
      P1  H  8011  8017       L1     3  0.69

> <Gold.PLP.Chemscore.Internal.Correction>
0.0203

> <Gold.Rescore>
     Score         DG    S(hbond)    S(metal)    S(lipo)     H(rot)  DE(clash)    DE(int)     intcor
     16.83     -18.07       1.96        0.00      73.46       1.00       0.12       1.12       ----

> <Gold.Chemscore.Fitness>
16.8342

> <Gold.Chemscore.DG>
-18.0729

> <Gold.Chemscore.ZeroCoef>
-5.4800

> <Gold.Chemscore.Hbond>
1.9635

> <Gold.Chemscore.Metal>
0.0000

> <Gold.Chemscore.Lipo>
73.4611

> <Gold.Chemscore.Internal_Hbond>
0.0000

> <Gold.Chemscore.DEClash>
0.1205

> <Gold.Chemscore.DEInternal>
1.1181

> <Gold.Chemscore.Rot>
1.0000

> <Gold.Chemscore.Internal.Correction>
   9.000000E+99

> <Gold.Chemscore.Hbonds>
donor molecule, donor type, donor heavy atom, donor atom, acceptor molecule, acceptor atom, score
      P1  H  7989  7998       L1     4  0.34
      P1  H  7997  8008       L1     8  0.95
      P1  H  8011  8017       L1     3  0.53

> <Gold.Chemscore.Hbond.Weighted>
-6.5579

> <Gold.Chemscore.Metal.Weighted>
-0.0000

> <Gold.Chemscore.Lipo.Weighted>
-8.5950

> <Gold.Chemscore.Internal_Hbond.Weighted>
0.0000

> <Gold.Chemscore.DEClash.Weighted>
0.1205

> <Gold.Chemscore.DEInternal.Weighted>
1.1181

> <Gold.Chemscore.Rot.Weighted>
2.5600

> <Gold.Chemscore.Internal.Correction.Weighted>
   9.000000E+99

> <Gold.Protein.RotatedTorsions>
[ 6907 6896 6895 6894 ] final  -69.95 input  -60.11 | X-H torsion
[ 7974 7965 7964 7962 ] final  -21.94 input  175.53 | X-H torsion
[ 8008 7997 7996 7995 ] final  -74.12 input   59.86 | X-H torsion
[ 10167 10162 10161 10158 ] final   28.81 input  -65.29 | X-H torsion
[ 10718 10713 10712 10709 ] final  -39.88 input   66.30 | X-H torsion
[ 10763 10752 10751 10750 ] final   86.30 input  -60.55 | X-H torsion
[ 11005 11000 10999 10996 ] final  -53.24 input  -57.11 | X-H torsion

> <Gold.Protein.ActiveResidues>
 VAL166  LYS551  ARG553  GLY616  TRP617  ASP618  TYR619  PRO620  LYS621  CYS622 
 ASP623  PHE694  ASN695  SER759  ASP760  ASP761  ALA762  ILE779  LEU786  VAL792 
 PHE793  MET794  SER795  GLU796  ALA797  LYS798  CYS799  TRP800  GLU811  SER814 

> <Gold.Protein.RotatedAtoms>
  150.7281  134.5523  159.5800 H   0  0  0  0  0  0  0  0  0  0  0  0  # atno 6907 bound_to 6896
  152.3007  134.7611  160.0367 H   0  0  0  0  0  0  0  0  0  0  0  0  # atno 6908 bound_to 6896
  151.8193  133.3357  159.3616 H   0  0  0  0  0  0  0  0  0  0  0  0  # atno 6909 bound_to 6896
  146.1704  140.4411  142.8535 H   0  0  0  0  0  0  0  0  0  0  0  0  # atno 7974 bound_to 7965
  154.5304  140.0767  156.8335 H   0  0  0  0  0  0  0  0  0  0  0  0  # atno 8008 bound_to 7997
  155.3387  140.3406  155.4221 H   0  0  0  0  0  0  0  0  0  0  0  0  # atno 8009 bound_to 7997
  156.1775  140.1641  156.8322 H   0  0  0  0  0  0  0  0  0  0  0  0  # atno 8010 bound_to 7997
  140.4820  144.0600  150.6268 H   0  0  0  0  0  0  0  0  0  0  0  0  # atno 10167 bound_to 10162
  156.2875  130.4224  149.8273 H   0  0  0  0  0  0  0  0  0  0  0  0  # atno 10718 bound_to 10713
  153.1557  135.4585  154.9701 H   0  0  0  0  0  0  0  0  0  0  0  0  # atno 10763 bound_to 10752
  154.7859  135.3204  154.7889 H   0  0  0  0  0  0  0  0  0  0  0  0  # atno 10764 bound_to 10752
  153.8386  135.6932  153.4860 H   0  0  0  0  0  0  0  0  0  0  0  0  # atno 10765 bound_to 10752
  141.0965  133.6624  156.4142 H   0  0  0  0  0  0  0  0  0  0  0  0  # atno 11005 bound_to 11000
  144.8155  140.6460  143.6387 LP  0  0  0  0  0  0  0  0  0  0  0  0  # atno 17320 bound_to 7965
  145.4355  139.1543  143.3999 LP  0  0  0  0  0  0  0  0  0  0  0  0  # atno 17321 bound_to 7965
  140.3845  143.2785  152.0132 LP  0  0  0  0  0  0  0  0  0  0  0  0  # atno 17342 bound_to 10162
  139.4835  144.6128  151.7403 LP  0  0  0  0  0  0  0  0  0  0  0  0  # atno 17343 bound_to 10162
  156.5698  130.8420  151.3353 LP  0  0  0  0  0  0  0  0  0  0  0  0  # atno 17370 bound_to 10713
  157.7333  130.9728  150.1969 LP  0  0  0  0  0  0  0  0  0  0  0  0  # atno 17371 bound_to 10713
  140.5126  134.6380  157.5290 LP  0  0  0  0  0  0  0  0  0  0  0  0  # atno 17394 bound_to 11000
  139.9804  134.7147  155.9870 LP  0  0  0  0  0  0  0  0  0  0  0  0  # atno 17395 bound_to 11000

$$$$
