AV-unprocessed.smi:1138|AV-procd|sdf|4868|dock10
  -GOLD-   22720 3443D 1   1.00000     0.00000
 Structure written by MMmdl.
 49 51  0  0  0  0  0  0  0  0  1 V2000
  135.6496  136.9236  154.9715 C   0  0  0  0  0  0  0  0  0  0  0  0
  136.3019  138.1600  154.5520 N   0  0  0  0  0  0  0  0  0  0  0  0
  135.5853  139.4252  154.6553 C   0  0  0  0  0  0  0  0  0  0  0  0
  137.6793  138.1518  154.2328 C   0  0  0  0  0  0  0  0  0  0  0  0
  138.4636  136.9798  154.3715 C   0  0  0  0  0  0  0  0  0  0  0  0
  139.8294  137.0223  154.0330 C   0  0  0  0  0  0  0  0  0  0  0  0
  140.3857  138.2243  153.5561 C   0  0  0  0  0  0  0  0  0  0  0  0
  141.7692  138.2389  153.2321 N   0  0  0  0  0  0  0  0  0  0  0  0
  142.5847  137.1943  153.0072 C   0  0  0  0  0  0  0  0  0  0  0  0
  142.2530  136.0097  153.0494 O   0  0  0  0  0  0  0  0  0  0  0  0
  143.8345  137.6027  152.7455 N   0  0  0  0  0  0  0  0  0  0  0  0
  144.9701  136.7226  152.4857 C   0  0  0  0  0  0  0  0  0  0  0  0
  144.6554  135.8081  151.2825 C   0  0  0  0  0  0  0  0  0  0  0  0
  145.7490  134.7424  151.0869 C   0  0  0  0  0  0  0  0  0  0  0  0
  145.8928  133.9794  152.3332 N   0  0  0  0  0  0  0  0  0  0  0  0
  145.5229  132.6785  152.4404 C   0  0  0  0  0  0  0  0  0  0  0  0
  145.5452  132.0764  153.5151 O   0  0  0  0  0  0  0  0  0  0  0  0
  145.1025  131.9817  151.1822 C   0  0  0  0  0  0  0  0  0  0  0  0
  145.8271  130.6977  150.8365 C   0  0  0  0  0  0  0  0  0  0  0  0
  146.0783  131.9378  150.0199 C   0  0  0  0  0  0  0  0  0  0  0  0
  146.3864  134.8313  153.4246 C   0  0  0  0  0  0  0  0  0  0  0  0
  145.3227  135.8965  153.7439 C   0  0  0  0  0  0  0  0  0  0  0  0
  139.5328  139.3490  153.4667 C   0  0  0  0  0  0  0  0  0  0  0  0
  138.2235  139.3126  153.7923 N   0  0  0  0  0  0  0  0  0  0  0  0
  135.7373  136.1606  154.1975 H   0  0  0  0  0  0  0  0  0  0  0  0
  134.5882  137.0792  155.1642 H   0  0  0  0  0  0  0  0  0  0  0  0
  136.1046  136.5428  155.8867 H   0  0  0  0  0  0  0  0  0  0  0  0
  135.5503  139.9262  153.6875 H   0  0  0  0  0  0  0  0  0  0  0  0
  136.0721  140.0847  155.3745 H   0  0  0  0  0  0  0  0  0  0  0  0
  134.5580  139.2731  154.9870 H   0  0  0  0  0  0  0  0  0  0  0  0
  138.0472  136.0508  154.7301 H   0  0  0  0  0  0  0  0  0  0  0  0
  140.4387  136.1360  154.1342 H   0  0  0  0  0  0  0  0  0  0  0  0
  142.2053  139.1493  153.2385 H   0  0  0  0  0  0  0  0  0  0  0  0
  144.0181  138.5953  152.7352 H   0  0  0  0  0  0  0  0  0  0  0  0
  145.8382  137.3285  152.2183 H   0  0  0  0  0  0  0  0  0  0  0  0
  143.6969  135.3096  151.4368 H   0  0  0  0  0  0  0  0  0  0  0  0
  144.5510  136.4047  150.3756 H   0  0  0  0  0  0  0  0  0  0  0  0
  145.5023  134.1153  150.2292 H   0  0  0  0  0  0  0  0  0  0  0  0
  146.6992  135.2186  150.8406 H   0  0  0  0  0  0  0  0  0  0  0  0
  144.0515  132.0617  150.9098 H   0  0  0  0  0  0  0  0  0  0  0  0
  146.6250  130.3641  151.4983 H   0  0  0  0  0  0  0  0  0  0  0  0
  145.2344  129.9014  150.3916 H   0  0  0  0  0  0  0  0  0  0  0  0
  145.6549  131.9821  149.0185 H   0  0  0  0  0  0  0  0  0  0  0  0
  147.0542  132.4083  150.1245 H   0  0  0  0  0  0  0  0  0  0  0  0
  146.6553  134.2832  154.3265 H   0  0  0  0  0  0  0  0  0  0  0  0
  147.3092  135.3182  153.1059 H   0  0  0  0  0  0  0  0  0  0  0  0
  145.6830  136.5528  154.5369 H   0  0  0  0  0  0  0  0  0  0  0  0
  144.4279  135.4059  154.1304 H   0  0  0  0  0  0  0  0  0  0  0  0
  139.8898  140.3156  153.1479 H   0  0  0  0  0  0  0  0  0  0  0  0
  1  2  1  0  0  0  0
  1 25  1  0  0  0  0
  1 26  1  0  0  0  0
  1 27  1  0  0  0  0
  2  3  1  0  0  0  0
  2  4  1  0  0  0  0
  3 28  1  0  0  0  0
  3 29  1  0  0  0  0
  3 30  1  0  0  0  0
  4 24  1  0  0  0  0
  4  5  2  0  0  0  0
  5  6  1  0  0  0  0
  5 31  1  0  0  0  0
  6  7  2  0  0  0  0
  6 32  1  0  0  0  0
  7  8  1  0  0  0  0
  7 23  1  0  0  0  0
  8  9  1  0  0  0  0
  8 33  1  0  0  0  0
  9 10  2  0  0  0  0
  9 11  1  0  0  0  0
 11 12  1  0  0  0  0
 11 34  1  0  0  0  0
 12 22  1  0  0  0  0
 12 13  1  0  0  0  0
 12 35  1  0  0  0  0
 13 14  1  0  0  0  0
 13 36  1  0  0  0  0
 13 37  1  0  0  0  0
 14 15  1  0  0  0  0
 14 38  1  0  0  0  0
 14 39  1  0  0  0  0
 15 16  1  0  0  0  0
 15 21  1  0  0  0  0
 16 17  2  0  0  0  0
 16 18  1  0  0  0  0
 18 20  1  0  0  0  0
 18 19  1  0  0  0  0
 18 40  1  0  0  0  0
 19 20  1  0  0  0  0
 19 41  1  0  0  0  0
 19 42  1  0  0  0  0
 20 43  1  0  0  0  0
 20 44  1  0  0  0  0
 21 22  1  0  0  0  0
 21 45  1  0  0  0  0
 21 46  1  0  0  0  0
 22 47  1  0  0  0  0
 22 48  1  0  0  0  0
 23 24  2  0  0  0  0
 23 49  1  0  0  0  0
M  END
> <s_m_source_file>
AV-unprocessed.smi

> <i_m_source_file_index>
1138

> <i_lp_mmshare_version>
43012

> <i_f3d_flags>
0

> <s_epik_input>
W0NIM11OKFtDSDNdKWMxW2NIXVtjSF1jKFtjSF1uMSlbTkhdQyg9TylbTkhdW0NIXTJbQ0gyXVtDSDJdTihbQ0gyXVtDSDJdMilDKD1PKVtDSF0zW0NIMl1bQ0gyXTM=

> <s_epik_cmdline>
J2VwaWtfcHl0aG9uJywgJy1waCcsICc3LjAnLCAnLXRuJywgJzgnLCAnLW1hJywgJzIwMCcsICctbWV0YWxfYmluZGluZycsICctaW1hZScsICc8aW5maWxlLm1hZT4nLCAnLW9tYWUnLCAnPG91dGZpbGUubWFlPic=

> <r_lp_tautomer_probability>
1

> <r_epik_Ionization_Penalty>
0.622325

> <r_epik_Ionization_Penalty_Charging>
0

> <r_epik_Ionization_Penalty_Neutral>
0.622325

> <r_epik_State_Penalty>
0.637335

> <r_epik_Charging_Adjusted_Penalty>
0.637335

> <i_epik_Tot_Q>
0

> <i_epik_Tot_abs_Q>
0

> <r_epik_Metal_State_Penalty>
0.306682

> <b_epik_Metal_Only>
0

> <s_lp_Force_Field>
OPLS_2005

> <r_lp_Energy>
33.2088

> <b_lp_Chiralities_Consistent>
1

> <s_lp_Variant>
AV-unprocessed.smi:1138-2

> <Gold.Version>
5.8.1

> <Gold.Id.Protein>
6NUR|6NUR_protein|mol2

> <Gold.PLP.Fitness>
47.5948

> <Gold.PLP.PLP>
-38.9513

> <Gold.PLP.part.hbond>
-3.0000

> <Gold.PLP.part.metal>
0.0000

> <Gold.PLP.part.buried>
-2.0392

> <Gold.PLP.part.nonpolar>
-34.1505

> <Gold.PLP.part.repulsive>
0.4558

> <Gold.PLP.ligand.clash>
0.0000

> <Gold.PLP.ligand.torsion>
0.1670

> <Gold.PLP.Chemscore.Hbond>
2.0000

> <Gold.PLP.Chemscore.CHOScore>
0.9513

> <Gold.PLP.Chemscore.Metal>
0.0000

> <Gold.Chemscore.Hbonds>
donor molecule, donor type, donor heavy atom, donor atom, acceptor molecule, acceptor atom, score
      L1  H     8    33       P1 10175  0.95
      L1  H    11    34       P1 10175  1.00
      L1  C    23    49       P1 10160  0.73

> <Gold.PLP.Chemscore.Internal.Correction>
0.1234

> <Gold.Rescore>
     Score         DG    S(hbond)    S(metal)    S(lipo)     H(rot)  DE(clash)    DE(int)     intcor
     16.04     -18.81       1.95        0.00      84.53       1.20       0.24       2.54       ----

> <Gold.Chemscore.Fitness>
16.0387

> <Gold.Chemscore.DG>
-18.8101

> <Gold.Chemscore.ZeroCoef>
-5.4800

> <Gold.Chemscore.Hbond>
1.9472

> <Gold.Chemscore.Metal>
0.0000

> <Gold.Chemscore.Lipo>
84.5346

> <Gold.Chemscore.Internal_Hbond>
0.0000

> <Gold.Chemscore.DEClash>
0.2364

> <Gold.Chemscore.DEInternal>
2.5350

> <Gold.Chemscore.Rot>
1.1969

> <Gold.Chemscore.Internal.Correction>
   9.000000E+99

> <Gold.Chemscore.Hbonds>
donor molecule, donor type, donor heavy atom, donor atom, acceptor molecule, acceptor atom, score
      L1  H     8    33       P1 10175  0.86
      L1  H    11    34       P1 10175  0.99

> <Gold.Chemscore.Hbond.Weighted>
-6.5037

> <Gold.Chemscore.Metal.Weighted>
-0.0000

> <Gold.Chemscore.Lipo.Weighted>
-9.8905

> <Gold.Chemscore.Internal_Hbond.Weighted>
0.0000

> <Gold.Chemscore.DEClash.Weighted>
0.2364

> <Gold.Chemscore.DEInternal.Weighted>
2.5350

> <Gold.Chemscore.Rot.Weighted>
3.0641

> <Gold.Chemscore.Internal.Correction.Weighted>
   9.000000E+99

> <Gold.Protein.RotatedTorsions>
[ 6907 6896 6895 6894 ] final -106.59 input  -60.11 | X-H torsion
[ 7974 7965 7964 7962 ] final -141.65 input  175.53 | X-H torsion
[ 8008 7997 7996 7995 ] final   56.95 input   59.86 | X-H torsion
[ 10167 10162 10161 10158 ] final -160.81 input  -65.29 | X-H torsion
[ 10718 10713 10712 10709 ] final   -1.71 input   66.30 | X-H torsion
[ 10763 10752 10751 10750 ] final -152.97 input  -60.55 | X-H torsion
[ 11005 11000 10999 10996 ] final  104.50 input  -57.11 | X-H torsion

> <Gold.Protein.ActiveResidues>
 VAL166  LYS551  ARG553  GLY616  TRP617  ASP618  TYR619  PRO620  LYS621  CYS622 
 ASP623  PHE694  ASN695  SER759  ASP760  ASP761  ALA762  ILE779  LEU786  VAL792 
 PHE793  MET794  SER795  GLU796  ALA797  LYS798  CYS799  TRP800  GLU811  SER814 

> <Gold.Protein.RotatedAtoms>
  150.7397  133.9954  159.3620 H   0  0  0  0  0  0  0  0  0  0  0  0  # atno 6907 bound_to 6896
  151.7905  135.0735  160.0396 H   0  0  0  0  0  0  0  0  0  0  0  0  # atno 6908 bound_to 6896
  152.3211  133.5818  159.5781 H   0  0  0  0  0  0  0  0  0  0  0  0  # atno 6909 bound_to 6896
  144.8503  140.6054  143.5394 H   0  0  0  0  0  0  0  0  0  0  0  0  # atno 7974 bound_to 7965
  155.5258  140.3481  155.4416 H   0  0  0  0  0  0  0  0  0  0  0  0  # atno 8008 bound_to 7997
  156.0753  140.1373  156.9806 H   0  0  0  0  0  0  0  0  0  0  0  0  # atno 8009 bound_to 7997
  154.4550  140.0957  156.6706 H   0  0  0  0  0  0  0  0  0  0  0  0  # atno 8010 bound_to 7997
  139.6512  144.0081  152.2163 H   0  0  0  0  0  0  0  0  0  0  0  0  # atno 10167 bound_to 10162
  156.8015  130.5394  149.5721 H   0  0  0  0  0  0  0  0  0  0  0  0  # atno 10718 bound_to 10713
  154.7959  135.3224  154.7667 H   0  0  0  0  0  0  0  0  0  0  0  0  # atno 10763 bound_to 10752
  153.8346  135.6876  153.4814 H   0  0  0  0  0  0  0  0  0  0  0  0  # atno 10764 bound_to 10752
  153.1651  135.4645  154.9767 H   0  0  0  0  0  0  0  0  0  0  0  0  # atno 10765 bound_to 10752
  139.8792  134.9303  156.5372 H   0  0  0  0  0  0  0  0  0  0  0  0  # atno 11005 bound_to 11000
  145.4513  139.1523  143.3917 LP  0  0  0  0  0  0  0  0  0  0  0  0  # atno 17320 bound_to 7965
  146.2779  140.4639  142.8788 LP  0  0  0  0  0  0  0  0  0  0  0  0  # atno 17321 bound_to 7965
  139.9795  144.6438  150.7913 LP  0  0  0  0  0  0  0  0  0  0  0  0  # atno 17342 bound_to 10162
  140.7538  143.3016  151.3067 LP  0  0  0  0  0  0  0  0  0  0  0  0  # atno 17343 bound_to 10162
  156.1098  130.6032  151.0029 LP  0  0  0  0  0  0  0  0  0  0  0  0  # atno 17370 bound_to 10713
  157.6551  131.0890  150.7965 LP  0  0  0  0  0  0  0  0  0  0  0  0  # atno 17371 bound_to 10713
  140.8337  133.8259  155.9008 LP  0  0  0  0  0  0  0  0  0  0  0  0  # atno 17394 bound_to 11000
  140.9304  134.2029  157.4868 LP  0  0  0  0  0  0  0  0  0  0  0  0  # atno 17395 bound_to 11000

$$$$
