AV-unprocessed.smi:112|AV-procd|sdf|1088|dock7
  -GOLD-   2262018183D 1   1.00000     0.00000
 Structure written by MMmdl.
 54 57  0  0  0  0  0  0  0  0  3 V2000
  151.5517  136.8575  155.3304 C   0  0  0  0  0  0  0  0  0  0  0  0
  150.6205  138.0100  155.6733 C   0  0  0  0  0  0  0  0  0  0  0  0
  149.2747  137.8970  155.5925 C   0  0  0  0  0  0  0  0  0  0  0  0
  148.3945  138.9233  155.8973 N   0  0  0  0  0  0  0  0  0  0  0  0
  146.8805  138.7512  155.8747 C   0  0  1  0  0  0  0  0  0  0  0  0
  146.2682  138.5702  154.4779 C   0  0  0  0  0  0  0  0  0  0  0  0
  145.9988  137.0672  154.4002 C   0  0  1  0  0  0  0  0  0  0  0  0
  146.6137  136.5054  153.2581 O   0  0  0  0  0  0  0  0  0  0  0  0
  146.5884  136.4952  155.7025 C   0  0  2  0  0  0  0  0  0  0  0  0
  145.7931  135.3318  156.3144 C   0  0  0  0  0  0  0  0  0  0  0  0
  145.7459  134.2387  155.4218 O   0  0  0  0  0  0  0  0  0  0  0  0
  146.5609  137.6033  156.5930 O   0  0  0  0  0  0  0  0  0  0  0  0
  148.9082  140.1344  156.4103 C   0  0  0  0  0  0  0  0  0  0  0  0
  148.1518  141.0433  156.7609 O   0  0  0  0  0  0  0  0  0  0  0  0
  150.3100  140.2861  156.5061 N   0  0  0  0  0  0  0  0  0  0  0  0
  150.8548  141.5693  157.0062 C   0  0  0  0  0  0  0  0  0  0  0  0
  151.6267  141.4428  158.3382 C   0  0  0  0  0  0  0  0  0  0  0  0
  152.2361  140.3993  158.5761 O   0  0  0  0  0  0  0  0  0  0  0  0
  151.5987  142.4989  159.1892 N   0  0  0  0  0  0  0  0  0  0  0  0
  150.8795  143.7530  158.9046 C   0  0  0  0  0  0  0  0  0  0  0  0
  151.1085  144.6717  160.1246 C   0  0  0  0  0  0  0  0  0  0  0  0
  151.9656  143.8323  161.0250 C   0  0  0  0  0  0  0  0  0  0  0  0
  152.4664  144.1975  162.2862 C   0  0  0  0  0  0  0  0  0  0  0  0
  153.2641  143.2696  163.0008 C   0  0  0  0  0  0  0  0  0  0  0  0
  153.8084  143.6190  164.3281 N   0  3  0  0  0  0  0  0  0  0  0  0
  154.5919  142.8387  164.8593 O   0  0  0  0  0  0  0  0  0  0  0  0
  153.4533  144.6750  164.8420 O   0  5  0  0  0  0  0  0  0  0  0  0
  153.5324  142.0004  162.4223 C   0  0  0  0  0  0  0  0  0  0  0  0
  153.0209  141.6501  161.1535 C   0  0  0  0  0  0  0  0  0  0  0  0
  152.2289  142.5902  160.4589 C   0  0  0  0  0  0  0  0  0  0  0  0
  151.2166  139.2667  156.1282 C   0  0  0  0  0  0  0  0  0  0  0  0
  152.4336  139.4524  156.1918 O   0  0  0  0  0  0  0  0  0  0  0  0
  151.0038  135.9797  154.9863 H   0  0  0  0  0  0  0  0  0  0  0  0
  152.1328  136.5653  156.2058 H   0  0  0  0  0  0  0  0  0  0  0  0
  152.2445  137.1476  154.5397 H   0  0  0  0  0  0  0  0  0  0  0  0
  148.8878  136.9399  155.2845 H   0  0  0  0  0  0  0  0  0  0  0  0
  146.4784  139.6426  156.3585 H   0  0  0  0  0  0  0  0  0  0  0  0
  145.3212  139.1106  154.4482 H   0  0  0  0  0  0  0  0  0  0  0  0
  146.8967  138.9827  153.6883 H   0  0  0  0  0  0  0  0  0  0  0  0
  144.9230  136.8932  154.3541 H   0  0  0  0  0  0  0  0  0  0  0  0
  147.4306  136.1089  153.5192 H   0  0  0  0  0  0  0  0  0  0  0  0
  147.6303  136.2010  155.5628 H   0  0  0  0  0  0  0  0  0  0  0  0
  146.2708  134.9992  157.2363 H   0  0  0  0  0  0  0  0  0  0  0  0
  144.7791  135.6400  156.5708 H   0  0  0  0  0  0  0  0  0  0  0  0
  146.0033  134.5390  154.5637 H   0  0  0  0  0  0  0  0  0  0  0  0
  151.5107  142.0229  156.2620 H   0  0  0  0  0  0  0  0  0  0  0  0
  150.0504  142.2956  157.1283 H   0  0  0  0  0  0  0  0  0  0  0  0
  151.2653  144.2227  157.9989 H   0  0  0  0  0  0  0  0  0  0  0  0
  149.8136  143.5670  158.7676 H   0  0  0  0  0  0  0  0  0  0  0  0
  151.6274  145.5907  159.8501 H   0  0  0  0  0  0  0  0  0  0  0  0
  150.1723  144.9288  160.6209 H   0  0  0  0  0  0  0  0  0  0  0  0
  152.2382  145.1726  162.6911 H   0  0  0  0  0  0  0  0  0  0  0  0
  154.1375  141.2775  162.9494 H   0  0  0  0  0  0  0  0  0  0  0  0
  153.2485  140.6759  160.7507 H   0  0  0  0  0  0  0  0  0  0  0  0
  1  2  1  0  0  0  0
  1 33  1  0  0  0  0
  1 34  1  0  0  0  0
  1 35  1  0  0  0  0
  2 31  1  0  0  0  0
  2  3  2  0  0  0  0
  3  4  1  0  0  0  0
  3 36  1  0  0  0  0
  4  5  1  0  0  0  0
  4 13  1  0  0  0  0
  5 12  1  0  0  0  0
  5  6  1  0  0  0  0
  5 37  1  0  0  0  0
  6  7  1  0  0  0  0
  6 38  1  0  0  0  0
  6 39  1  0  0  0  0
  7  8  1  0  0  0  0
  7  9  1  0  0  0  0
  7 40  1  0  0  0  0
  8 41  1  0  0  0  0
  9 10  1  0  0  0  0
  9 12  1  0  0  0  0
  9 42  1  0  0  0  0
 10 11  1  0  0  0  0
 10 43  1  0  0  0  0
 10 44  1  0  0  0  0
 11 45  1  0  0  0  0
 13 14  2  0  0  0  0
 13 15  1  0  0  0  0
 15 16  1  0  0  0  0
 15 31  1  0  0  0  0
 16 17  1  0  0  0  0
 16 46  1  0  0  0  0
 16 47  1  0  0  0  0
 17 18  2  0  0  0  0
 17 19  1  0  0  0  0
 19 30  1  0  0  0  0
 19 20  1  0  0  0  0
 20 21  1  0  0  0  0
 20 48  1  0  0  0  0
 20 49  1  0  0  0  0
 21 22  1  0  0  0  0
 21 50  1  0  0  0  0
 21 51  1  0  0  0  0
 22 30  2  0  0  0  0
 22 23  1  0  0  0  0
 23 24  2  0  0  0  0
 23 52  1  0  0  0  0
 24 25  1  0  0  0  0
 24 28  1  0  0  0  0
 25 26  2  0  0  0  0
 25 27  1  0  0  0  0
 28 29  2  0  0  0  0
 28 53  1  0  0  0  0
 29 30  1  0  0  0  0
 29 54  1  0  0  0  0
 31 32  2  0  0  0  0
M  CHG  1  25   1
M  CHG  1  27  -1
M  END
> <s_m_source_file>
AV-unprocessed.smi

> <i_m_source_file_index>
112

> <i_lp_mmshare_version>
43012

> <i_f3d_flags>
0

> <s_epik_input>
W09IXVtDSDJdW0NAQEhdKE8xKVtDQEhdKFtPSF0pW0NIMl1bQ0BIXTFuKFtjSF1jMltDSDNdKWMoPU8pbihjMj1PKVtDSDJdQyg9TylOKFtDSDJdW0NIMl0zKWMoYzM0KVtjSF1bY0hdYyhbY0hdNClbTitdKD1PKVtPLV0=

> <s_epik_cmdline>
J2VwaWtfcHl0aG9uJywgJy1waCcsICc3LjAnLCAnLXRuJywgJzgnLCAnLW1hJywgJzIwMCcsICctbWV0YWxfYmluZGluZycsICctaW1hZScsICc8aW5maWxlLm1hZT4nLCAnLW9tYWUnLCAnPG91dGZpbGUubWFlPic=

> <r_lp_tautomer_probability>
1

> <r_epik_Ionization_Penalty>
2.5696e-07

> <r_epik_Ionization_Penalty_Charging>
1.04886e-08

> <r_epik_Ionization_Penalty_Neutral>
2.46472e-07

> <r_epik_State_Penalty>
-0

> <r_epik_Charging_Adjusted_Penalty>
1.04886e-08

> <i_epik_Tot_Q>
0

> <i_epik_Tot_abs_Q>
2

> <r_epik_Metal_State_Penalty>
-0

> <b_epik_Metal_Only>
0

> <s_epik_Chemistry_Notes>
This compound contains an acetal/aminal-like group ( X-CH(R)-Y where X, Y are N, S, or O) that may be acid/base labile, releasing an aldehyde.

> <s_lp_Force_Field>
OPLS_2005

> <r_lp_Energy>
55.094

> <b_lp_Chiralities_Consistent>
1

> <s_lp_Variant>
AV-unprocessed.smi:112-6

> <Gold.Version>
5.8.1

> <Gold.Id.Protein>
6NUR|6NUR_protein|mol2

> <Gold.PLP.Fitness>
63.3627

> <Gold.PLP.PLP>
-55.3239

> <Gold.PLP.part.hbond>
-5.1077

> <Gold.PLP.part.metal>
0.0000

> <Gold.PLP.part.buried>
-0.8980

> <Gold.PLP.part.nonpolar>
-48.4332

> <Gold.PLP.part.repulsive>
0.2690

> <Gold.PLP.ligand.clash>
0.0000

> <Gold.PLP.ligand.torsion>
0.5210

> <Gold.PLP.Chemscore.Hbond>
2.0000

> <Gold.PLP.Chemscore.CHOScore>
1.0000

> <Gold.PLP.Chemscore.Metal>
0.0000

> <Gold.Chemscore.Hbonds>
donor molecule, donor type, donor heavy atom, donor atom, acceptor molecule, acceptor atom, score
      L1  H     8    41       P1  7948  0.10
      P1  H  7997  8009       L1    32  0.54

> <Gold.PLP.Chemscore.Internal.Correction>
0.0808

> <Gold.Rescore>
     Score         DG    S(hbond)    S(metal)    S(lipo)     H(rot)  DE(clash)    DE(int)     intcor
      9.93     -18.69       1.96        0.00     128.87       3.29       2.35       6.41       ----

> <Gold.Chemscore.Fitness>
9.9299

> <Gold.Chemscore.DG>
-18.6854

> <Gold.Chemscore.ZeroCoef>
-5.4800

> <Gold.Chemscore.Hbond>
1.9624

> <Gold.Chemscore.Metal>
0.0000

> <Gold.Chemscore.Lipo>
128.8687

> <Gold.Chemscore.Internal_Hbond>
0.0000

> <Gold.Chemscore.DEClash>
2.3470

> <Gold.Chemscore.DEInternal>
6.4085

> <Gold.Chemscore.Rot>
3.2916

> <Gold.Chemscore.Internal.Correction>
   9.000000E+99

> <Gold.Chemscore.Hbonds>
donor molecule, donor type, donor heavy atom, donor atom, acceptor molecule, acceptor atom, score
      L1  H     8    41       P1  7948  0.10
      P1  H  7997  8009       L1    32  0.54

> <Gold.Chemscore.Hbond.Weighted>
-6.5543

> <Gold.Chemscore.Metal.Weighted>
-0.0000

> <Gold.Chemscore.Lipo.Weighted>
-15.0776

> <Gold.Chemscore.Internal_Hbond.Weighted>
0.0000

> <Gold.Chemscore.DEClash.Weighted>
2.3470

> <Gold.Chemscore.DEInternal.Weighted>
6.4085

> <Gold.Chemscore.Rot.Weighted>
8.4265

> <Gold.Chemscore.Internal.Correction.Weighted>
   9.000000E+99

> <Gold.Protein.RotatedTorsions>
[ 6907 6896 6895 6894 ] final  -17.76 input  -60.11 | X-H torsion
[ 7974 7965 7964 7962 ] final   76.24 input  175.53 | X-H torsion
[ 8008 7997 7996 7995 ] final -134.22 input   59.86 | X-H torsion
[ 10167 10162 10161 10158 ] final   81.20 input  -65.29 | X-H torsion
[ 10718 10713 10712 10709 ] final  -53.96 input   66.30 | X-H torsion
[ 10763 10752 10751 10750 ] final -101.31 input  -60.55 | X-H torsion
[ 11005 11000 10999 10996 ] final  -31.17 input  -57.11 | X-H torsion

> <Gold.Protein.ActiveResidues>
 VAL166  LYS551  ARG553  GLY616  TRP617  ASP618  TYR619  PRO620  LYS621  CYS622 
 ASP623  PHE694  ASN695  SER759  ASP760  ASP761  ALA762  ILE779  LEU786  VAL792 
 PHE793  MET794  SER795  GLU796  ALA797  LYS798  CYS799  TRP800  GLU811  SER814 

> <Gold.Protein.RotatedAtoms>
  151.2884  135.0735  159.9194 H   0  0  0  0  0  0  0  0  0  0  0  0  # atno 6907 bound_to 6896
  152.5321  133.9957  159.7882 H   0  0  0  0  0  0  0  0  0  0  0  0  # atno 6908 bound_to 6896
  151.0223  133.5814  159.2700 H   0  0  0  0  0  0  0  0  0  0  0  0  # atno 6909 bound_to 6896
  145.7053  139.2596  143.1682 H   0  0  0  0  0  0  0  0  0  0  0  0  # atno 7974 bound_to 7965
  155.3585  140.0481  157.3046 H   0  0  0  0  0  0  0  0  0  0  0  0  # atno 8008 bound_to 7997
  154.5190  140.2218  155.8975 H   0  0  0  0  0  0  0  0  0  0  0  0  # atno 8009 bound_to 7997
  156.1668  140.3104  155.8909 H   0  0  0  0  0  0  0  0  0  0  0  0  # atno 8010 bound_to 7997
  139.9417  144.6085  150.8245 H   0  0  0  0  0  0  0  0  0  0  0  0  # atno 10167 bound_to 10162
  156.1491  130.4152  149.9975 H   0  0  0  0  0  0  0  0  0  0  0  0  # atno 10718 bound_to 10713
  154.7648  135.4902  153.9533 H   0  0  0  0  0  0  0  0  0  0  0  0  # atno 10763 bound_to 10752
  153.1294  135.6749  153.9210 H   0  0  0  0  0  0  0  0  0  0  0  0  # atno 10764 bound_to 10752
  153.8918  135.3120  155.3426 H   0  0  0  0  0  0  0  0  0  0  0  0  # atno 10765 bound_to 10752
  140.9445  133.7258  156.1126 H   0  0  0  0  0  0  0  0  0  0  0  0  # atno 11005 bound_to 11000
  146.0761  140.7816  142.9664 LP  0  0  0  0  0  0  0  0  0  0  0  0  # atno 17320 bound_to 7965
  144.6957  140.3417  143.7198 LP  0  0  0  0  0  0  0  0  0  0  0  0  # atno 17321 bound_to 7965
  140.7609  143.3162  151.2729 LP  0  0  0  0  0  0  0  0  0  0  0  0  # atno 17342 bound_to 10162
  139.6699  144.0038  152.2746 LP  0  0  0  0  0  0  0  0  0  0  0  0  # atno 17343 bound_to 10162
  156.7838  130.9231  151.3646 LP  0  0  0  0  0  0  0  0  0  0  0  0  # atno 17370 bound_to 10713
  157.6641  130.8992  149.9894 LP  0  0  0  0  0  0  0  0  0  0  0  0  # atno 17371 bound_to 10713
  140.7688  134.3856  157.5512 LP  0  0  0  0  0  0  0  0  0  0  0  0  # atno 17394 bound_to 11000
  139.8829  134.9008  156.2797 LP  0  0  0  0  0  0  0  0  0  0  0  0  # atno 17395 bound_to 11000

$$$$
