AV-unprocessed.smi:1570|AV-procd|sdf|6324|dock8
  -GOLD-   22720 6533D 1   1.00000     0.00000
 Structure written by MMmdl.
 52 54  0  0  0  0  0  0  0  0  2 V2000
  149.6078  133.6676  153.4198 C   0  0  0  0  0  0  0  0  0  0  0  0
  148.2241  133.0062  153.4563 C   0  0  0  0  0  0  0  0  0  0  0  0
  147.1847  133.9319  153.0133 N   0  0  0  0  0  0  0  0  0  0  0  0
  146.8860  135.1328  153.5620 C   0  0  0  0  0  0  0  0  0  0  0  0
  147.4255  135.6347  154.5483 O   0  0  0  0  0  0  0  0  0  0  0  0
  145.8858  135.6889  152.8387 N   0  0  0  0  0  0  0  0  0  0  0  0
  145.2582  136.9862  153.0819 C   0  0  0  0  0  0  0  0  0  0  0  0
  146.1661  138.1505  152.6359 C   0  0  2  0  0  0  0  0  0  0  0  0
  146.7381  137.8075  151.3885 O   0  0  0  0  0  0  0  0  0  0  0  0
  147.3188  138.3847  153.6340 C   0  0  0  0  0  0  0  0  0  0  0  0
  148.0270  139.6743  153.4079 N   0  3  1  0  0  0  0  0  0  0  0  0
  147.1453  140.8600  153.2517 C   0  0  0  0  0  0  0  0  0  0  0  0
  146.6138  141.3629  154.6114 C   0  0  2  0  0  0  0  0  0  0  0  0
  145.8202  142.6665  154.4698 C   0  0  0  0  0  0  0  0  0  0  0  0
  147.7106  141.6080  155.4858 O   0  0  0  0  0  0  0  0  0  0  0  0
  148.4881  140.4425  155.7387 C   0  0  2  0  0  0  0  0  0  0  0  0
  149.5704  140.8029  156.7621 C   0  0  0  0  0  0  0  0  0  0  0  0
  149.0887  139.9486  154.4067 C   0  0  0  0  0  0  0  0  0  0  0  0
  145.5278  134.8154  151.8022 C   0  0  0  0  0  0  0  0  0  0  0  0
  144.5523  134.9231  150.7956 C   0  0  0  0  0  0  0  0  0  0  0  0
  144.4428  133.8476  149.8836 C   0  0  0  0  0  0  0  0  0  0  0  0
  145.2889  132.7135  149.9918 C   0  0  0  0  0  0  0  0  0  0  0  0
  146.2613  132.6299  151.0157 C   0  0  0  0  0  0  0  0  0  0  0  0
  146.3476  133.7111  151.9100 C   0  0  0  0  0  0  0  0  0  0  0  0
  150.3789  132.9712  153.7495 H   0  0  0  0  0  0  0  0  0  0  0  0
  149.6460  134.5393  154.0738 H   0  0  0  0  0  0  0  0  0  0  0  0
  149.8635  133.9935  152.4110 H   0  0  0  0  0  0  0  0  0  0  0  0
  148.2171  132.1180  152.8244 H   0  0  0  0  0  0  0  0  0  0  0  0
  148.0067  132.6586  154.4674 H   0  0  0  0  0  0  0  0  0  0  0  0
  144.3270  137.0080  152.5132 H   0  0  0  0  0  0  0  0  0  0  0  0
  144.9593  137.0886  154.1261 H   0  0  0  0  0  0  0  0  0  0  0  0
  145.5748  139.0584  152.5219 H   0  0  0  0  0  0  0  0  0  0  0  0
  147.6096  137.4722  151.5359 H   0  0  0  0  0  0  0  0  0  0  0  0
  146.9447  138.3441  154.6567 H   0  0  0  0  0  0  0  0  0  0  0  0
  148.0262  137.5589  153.5412 H   0  0  0  0  0  0  0  0  0  0  0  0
  147.7322  141.6500  152.7810 H   0  0  0  0  0  0  0  0  0  0  0  0
  146.3209  140.6543  152.5705 H   0  0  0  0  0  0  0  0  0  0  0  0
  145.9589  140.6151  155.0602 H   0  0  0  0  0  0  0  0  0  0  0  0
  144.9603  142.5336  153.8127 H   0  0  0  0  0  0  0  0  0  0  0  0
  146.4387  143.4631  154.0550 H   0  0  0  0  0  0  0  0  0  0  0  0
  145.4488  143.0037  155.4380 H   0  0  0  0  0  0  0  0  0  0  0  0
  147.8511  139.6703  156.1730 H   0  0  0  0  0  0  0  0  0  0  0  0
  150.1910  139.9381  156.9982 H   0  0  0  0  0  0  0  0  0  0  0  0
  149.1242  141.1540  157.6929 H   0  0  0  0  0  0  0  0  0  0  0  0
  150.2231  141.5918  156.3873 H   0  0  0  0  0  0  0  0  0  0  0  0
  149.7068  139.0632  154.5608 H   0  0  0  0  0  0  0  0  0  0  0  0
  149.7505  140.7145  153.9996 H   0  0  0  0  0  0  0  0  0  0  0  0
  143.9102  135.7876  150.7175 H   0  0  0  0  0  0  0  0  0  0  0  0
  143.7063  133.8903  149.0949 H   0  0  0  0  0  0  0  0  0  0  0  0
  145.1891  131.9040  149.2840 H   0  0  0  0  0  0  0  0  0  0  0  0
  146.9078  131.7692  151.1023 H   0  0  0  0  0  0  0  0  0  0  0  0
  148.5034  139.5525  152.5250 H   0  0  0  0  0  0  0  0  0  0  0  0
  1  2  1  0  0  0  0
  1 25  1  0  0  0  0
  1 26  1  0  0  0  0
  1 27  1  0  0  0  0
  2  3  1  0  0  0  0
  2 28  1  0  0  0  0
  2 29  1  0  0  0  0
  3 24  1  0  0  0  0
  3  4  1  0  0  0  0
  4  5  2  0  0  0  0
  4  6  1  0  0  0  0
  6  7  1  0  0  0  0
  6 19  1  0  0  0  0
  7  8  1  0  0  0  0
  7 30  1  0  0  0  0
  7 31  1  0  0  0  0
  8  9  1  0  0  0  0
  8 10  1  0  0  0  0
  8 32  1  0  0  0  0
  9 33  1  0  0  0  0
 10 11  1  0  0  0  0
 10 34  1  0  0  0  0
 10 35  1  0  0  0  0
 11 18  1  0  0  0  0
 11 12  1  0  0  0  0
 11 52  1  0  0  0  0
 12 13  1  0  0  0  0
 12 36  1  0  0  0  0
 12 37  1  0  0  0  0
 13 14  1  0  0  0  0
 13 15  1  0  0  0  0
 13 38  1  0  0  0  0
 14 39  1  0  0  0  0
 14 40  1  0  0  0  0
 14 41  1  0  0  0  0
 15 16  1  0  0  0  0
 16 17  1  0  0  0  0
 16 18  1  0  0  0  0
 16 42  1  0  0  0  0
 17 43  1  0  0  0  0
 17 44  1  0  0  0  0
 17 45  1  0  0  0  0
 18 46  1  0  0  0  0
 18 47  1  0  0  0  0
 19 24  2  0  0  0  0
 19 20  1  0  0  0  0
 20 21  2  0  0  0  0
 20 48  1  0  0  0  0
 21 22  1  0  0  0  0
 21 49  1  0  0  0  0
 22 23  2  0  0  0  0
 22 50  1  0  0  0  0
 23 24  1  0  0  0  0
 23 51  1  0  0  0  0
M  CHG  1  11   1
M  END
> <s_m_source_file>
AV-unprocessed.smi

> <i_m_source_file_index>
1570

> <i_lp_mmshare_version>
43012

> <i_f3d_flags>
0

> <s_epik_input>
W2NIXTFbY0hdW2NIXVtjSF1jKGMxMiluKFtDSDJdW0NIM10pYyg9TyluMltDSDJdW0NASF0oW09IXSlbQ0gyXU4zW0NIMl1bQ0BASF0oW0NIM10pT1tDQEBIXShbQ0gzXSlbQ0gyXTM=

> <s_epik_cmdline>
J2VwaWtfcHl0aG9uJywgJy1waCcsICc3LjAnLCAnLXRuJywgJzgnLCAnLW1hJywgJzIwMCcsICctbWV0YWxfYmluZGluZycsICctaW1hZScsICc8aW5maWxlLm1hZT4nLCAnLW9tYWUnLCAnPG91dGZpbGUubWFlPic=

> <r_epik_Ionization_Penalty>
0.706332

> <r_epik_Ionization_Penalty_Charging>
0.706318

> <r_epik_Ionization_Penalty_Neutral>
1.42224e-05

> <r_epik_State_Penalty>
0.729493

> <r_epik_Charging_Adjusted_Penalty>
1.43581

> <i_epik_Tot_Q>
1

> <i_epik_Tot_abs_Q>
1

> <r_epik_Metal_State_Penalty>
0.729493

> <b_epik_Metal_Only>
0

> <s_lp_Force_Field>
OPLS_2005

> <r_lp_Energy>
54.3222

> <b_lp_Chiralities_Consistent>
1

> <s_lp_Variant>
AV-unprocessed.smi:1570-13

> <Gold.Version>
5.8.1

> <Gold.Id.Protein>
6NUR|6NUR_protein|mol2

> <Gold.PLP.Fitness>
45.6774

> <Gold.PLP.PLP>
-40.4399

> <Gold.PLP.part.hbond>
-2.9657

> <Gold.PLP.part.metal>
0.0000

> <Gold.PLP.part.buried>
-3.9265

> <Gold.PLP.part.nonpolar>
-33.5018

> <Gold.PLP.part.repulsive>
0.2822

> <Gold.PLP.ligand.clash>
0.0000

> <Gold.PLP.ligand.torsion>
0.4534

> <Gold.PLP.Chemscore.Hbond>
2.0000

> <Gold.PLP.Chemscore.CHOScore>
0.0000

> <Gold.PLP.Chemscore.Metal>
0.0000

> <Gold.Chemscore.Hbonds>
donor molecule, donor type, donor heavy atom, donor atom, acceptor molecule, acceptor atom, score
      L1  H     9    33       P1  7948  1.00
      L1  H    11    52       P1  7957  1.00

> <Gold.PLP.Chemscore.Internal.Correction>
0.1444

> <Gold.Rescore>
     Score         DG    S(hbond)    S(metal)    S(lipo)     H(rot)  DE(clash)    DE(int)     intcor
     17.35     -18.39       1.95        0.00     101.15       2.13       0.34       0.69       ----

> <Gold.Chemscore.Fitness>
17.3535

> <Gold.Chemscore.DG>
-18.3858

> <Gold.Chemscore.ZeroCoef>
-5.4800

> <Gold.Chemscore.Hbond>
1.9537

> <Gold.Chemscore.Metal>
0.0000

> <Gold.Chemscore.Lipo>
101.1462

> <Gold.Chemscore.Internal_Hbond>
0.0000

> <Gold.Chemscore.DEClash>
0.3390

> <Gold.Chemscore.DEInternal>
0.6933

> <Gold.Chemscore.Rot>
2.1303

> <Gold.Chemscore.Internal.Correction>
   9.000000E+99

> <Gold.Chemscore.Hbonds>
donor molecule, donor type, donor heavy atom, donor atom, acceptor molecule, acceptor atom, score
      L1  H     9    33       P1  7948  0.99
      L1  H    11    52       P1  7957  0.99

> <Gold.Chemscore.Hbond.Weighted>
-6.5252

> <Gold.Chemscore.Metal.Weighted>
-0.0000

> <Gold.Chemscore.Lipo.Weighted>
-11.8341

> <Gold.Chemscore.Internal_Hbond.Weighted>
0.0000

> <Gold.Chemscore.DEClash.Weighted>
0.3390

> <Gold.Chemscore.DEInternal.Weighted>
0.6933

> <Gold.Chemscore.Rot.Weighted>
5.4535

> <Gold.Chemscore.Internal.Correction.Weighted>
   9.000000E+99

> <Gold.Protein.RotatedTorsions>
[ 6907 6896 6895 6894 ] final   64.26 input  -60.11 | X-H torsion
[ 7974 7965 7964 7962 ] final  -45.84 input  175.53 | X-H torsion
[ 8008 7997 7996 7995 ] final   56.45 input   59.86 | X-H torsion
[ 10167 10162 10161 10158 ] final    7.26 input  -65.29 | X-H torsion
[ 10718 10713 10712 10709 ] final  -71.63 input   66.30 | X-H torsion
[ 10763 10752 10751 10750 ] final  -24.14 input  -60.55 | X-H torsion
[ 11005 11000 10999 10996 ] final  -56.29 input  -57.11 | X-H torsion

> <Gold.Protein.ActiveResidues>
 VAL166  LYS551  ARG553  GLY616  TRP617  ASP618  TYR619  PRO620  LYS621  CYS622 
 ASP623  PHE694  ASN695  SER759  ASP760  ASP761  ALA762  ILE779  LEU786  VAL792 
 PHE793  MET794  SER795  GLU796  ALA797  LYS798  CYS799  TRP800  GLU811  SER814 

> <Gold.Protein.RotatedAtoms>
  152.4318  134.5764  159.9935 H   0  0  0  0  0  0  0  0  0  0  0  0  # atno 6907 bound_to 6896
  151.5885  133.3363  159.3031 H   0  0  0  0  0  0  0  0  0  0  0  0  # atno 6908 bound_to 6896
  150.8211  134.7455  159.6838 H   0  0  0  0  0  0  0  0  0  0  0  0  # atno 6909 bound_to 6896
  145.9779  140.7314  142.9378 H   0  0  0  0  0  0  0  0  0  0  0  0  # atno 7974 bound_to 7965
  155.5177  140.3479  155.4400 H   0  0  0  0  0  0  0  0  0  0  0  0  # atno 8008 bound_to 7997
  156.0806  140.1385  156.9744 H   0  0  0  0  0  0  0  0  0  0  0  0  # atno 8009 bound_to 7997
  154.4577  140.0947  156.6782 H   0  0  0  0  0  0  0  0  0  0  0  0  # atno 8010 bound_to 7997
  140.6382  143.7837  150.7389 H   0  0  0  0  0  0  0  0  0  0  0  0  # atno 10167 bound_to 10162
  156.0354  130.4355  150.2472 H   0  0  0  0  0  0  0  0  0  0  0  0  # atno 10718 bound_to 10713
  153.6790  135.6968  153.5123 H   0  0  0  0  0  0  0  0  0  0  0  0  # atno 10763 bound_to 10752
  153.2499  135.4278  155.0786 H   0  0  0  0  0  0  0  0  0  0  0  0  # atno 10764 bound_to 10752
  154.8405  135.3529  154.6334 H   0  0  0  0  0  0  0  0  0  0  0  0  # atno 10765 bound_to 10752
  141.1113  133.6610  156.4598 H   0  0  0  0  0  0  0  0  0  0  0  0  # atno 11005 bound_to 11000
  144.6854  140.2859  143.7285 LP  0  0  0  0  0  0  0  0  0  0  0  0  # atno 17320 bound_to 7965
  145.7811  139.1892  143.2157 LP  0  0  0  0  0  0  0  0  0  0  0  0  # atno 17321 bound_to 7965
  140.1463  143.4397  152.2161 LP  0  0  0  0  0  0  0  0  0  0  0  0  # atno 17342 bound_to 10162
  139.5591  144.7394  151.4206 LP  0  0  0  0  0  0  0  0  0  0  0  0  # atno 17343 bound_to 10162
  157.0572  131.0079  151.3234 LP  0  0  0  0  0  0  0  0  0  0  0  0  # atno 17370 bound_to 10713
  157.5097  130.7931  149.7692 LP  0  0  0  0  0  0  0  0  0  0  0  0  # atno 17371 bound_to 10713
  140.4766  134.6703  157.5153 LP  0  0  0  0  0  0  0  0  0  0  0  0  # atno 17394 bound_to 11000
  140.0009  134.6838  155.9532 LP  0  0  0  0  0  0  0  0  0  0  0  0  # atno 17395 bound_to 11000

$$$$
