AV-unprocessed.smi:470|AV-procd|sdf|2656|dock8
  -GOLD-   2262023 63D 1   1.00000     0.00000
 Structure written by MMmdl.
 32 33  0  0  0  0  0  0  0  0  2 V2000
  148.4156  138.9285  152.6059 N   0  0  0  0  0  0  0  0  0  0  0  0
  148.4591  139.6100  153.7547 C   0  0  0  0  0  0  0  0  0  0  0  0
  148.2507  140.8206  153.8080 O   0  0  0  0  0  0  0  0  0  0  0  0
  148.7961  138.8242  155.0249 C   0  0  0  0  0  0  0  0  0  0  0  0
  150.2708  138.8762  155.3002 C   0  0  0  0  0  0  0  0  0  0  0  0
  151.2724  138.3257  154.5433 C   0  0  0  0  0  0  0  0  0  0  0  0
  152.8418  138.6407  155.2260 S   0  0  0  0  0  0  0  0  0  0  0  0
  152.0798  139.5445  156.5360 C   0  0  0  0  0  0  0  0  0  0  0  0
  152.7352  140.1394  157.5476 N   0  5  0  0  0  0  0  0  0  0  0  0
  152.2371  141.1631  158.2983 C   0  0  0  0  0  0  0  0  0  0  0  0
  151.0386  141.3944  158.4450 O   0  0  0  0  0  0  0  0  0  0  0  0
  153.2691  142.0866  159.0136 C   0  0  2  0  0  0  0  0  0  0  0  0
  153.2222  141.9260  160.5539 C   0  0  0  0  0  0  0  0  0  0  0  0
  152.1517  142.7737  161.2176 C   0  0  0  0  0  0  0  0  0  0  0  0
  151.5631  143.8260  160.6262 C   0  0  0  0  0  0  0  0  0  0  0  0
  151.8892  144.2909  159.2194 C   0  0  0  0  0  0  0  0  0  0  0  0
  153.1265  143.5807  158.6258 C   0  0  0  0  0  0  0  0  0  0  0  0
  150.7458  139.5390  156.4353 N   0  0  0  0  0  0  0  0  0  0  0  0
  148.1758  139.4029  151.7478 H   0  0  0  0  0  0  0  0  0  0  0  0
  148.6018  137.9353  152.6050 H   0  0  0  0  0  0  0  0  0  0  0  0
  148.2282  139.2362  155.8602 H   0  0  0  0  0  0  0  0  0  0  0  0
  148.4663  137.7911  154.9087 H   0  0  0  0  0  0  0  0  0  0  0  0
  151.1835  137.7600  153.6281 H   0  0  0  0  0  0  0  0  0  0  0  0
  154.2738  141.8214  158.6879 H   0  0  0  0  0  0  0  0  0  0  0  0
  153.0455  140.8863  160.8281 H   0  0  0  0  0  0  0  0  0  0  0  0
  154.1854  142.1962  160.9875 H   0  0  0  0  0  0  0  0  0  0  0  0
  151.8816  142.5088  162.2292 H   0  0  0  0  0  0  0  0  0  0  0  0
  150.8052  144.3828  161.1570 H   0  0  0  0  0  0  0  0  0  0  0  0
  151.0113  144.1236  158.5958 H   0  0  0  0  0  0  0  0  0  0  0  0
  152.0546  145.3684  159.2301 H   0  0  0  0  0  0  0  0  0  0  0  0
  154.0183  144.1018  158.9765 H   0  0  0  0  0  0  0  0  0  0  0  0
  153.1310  143.6947  157.5410 H   0  0  0  0  0  0  0  0  0  0  0  0
  1  2  1  0  0  0  0
  1 19  1  0  0  0  0
  1 20  1  0  0  0  0
  2  3  2  0  0  0  0
  2  4  1  0  0  0  0
  4  5  1  0  0  0  0
  4 21  1  0  0  0  0
  4 22  1  0  0  0  0
  5 18  1  0  0  0  0
  5  6  2  0  0  0  0
  6  7  1  0  0  0  0
  6 23  1  0  0  0  0
  7  8  1  0  0  0  0
  8  9  1  0  0  0  0
  8 18  2  0  0  0  0
  9 10  1  0  0  0  0
 10 11  2  0  0  0  0
 10 12  1  0  0  0  0
 12 17  1  0  0  0  0
 12 13  1  0  0  0  0
 12 24  1  0  0  0  0
 13 14  1  0  0  0  0
 13 25  1  0  0  0  0
 13 26  1  0  0  0  0
 14 15  2  0  0  0  0
 14 27  1  0  0  0  0
 15 16  1  0  0  0  0
 15 28  1  0  0  0  0
 16 17  1  0  0  0  0
 16 29  1  0  0  0  0
 16 30  1  0  0  0  0
 17 31  1  0  0  0  0
 17 32  1  0  0  0  0
M  CHG  1   9  -1
M  END
> <s_m_source_file>
AV-unprocessed.smi

> <i_m_source_file_index>
470

> <i_lp_mmshare_version>
43012

> <i_f3d_flags>
0

> <s_epik_input>
W05IMl1DKD1PKVtDSDJdYzFbY0hdc2MobjEpW05IXUMoPU8pW0NAQEhdMltDSDJdW0NIXT1bQ0hdW0NIMl1bQ0gyXTI=

> <s_epik_cmdline>
J2VwaWtfcHl0aG9uJywgJy1waCcsICc3LjAnLCAnLXRuJywgJzgnLCAnLW1hJywgJzIwMCcsICctbWV0YWxfYmluZGluZycsICctaW1hZScsICc8aW5maWxlLm1hZT4nLCAnLW9tYWUnLCAnPG91dGZpbGUubWFlPic=

> <r_lp_tautomer_probability>
1

> <r_epik_Ionization_Penalty>
4.98985

> <r_epik_Ionization_Penalty_Charging>
4.63309

> <r_epik_Ionization_Penalty_Neutral>
0.356756

> <r_epik_State_Penalty>
4.63286

> <r_epik_Charging_Adjusted_Penalty>
9.26595

> <i_epik_Tot_Q>
-1

> <i_epik_Tot_abs_Q>
1

> <r_epik_Metal_State_Penalty>
0.88943

> <b_epik_Metal_Only>
1

> <s_lp_Force_Field>
OPLS_2005

> <r_lp_Energy>
8.68427

> <b_lp_Chiralities_Consistent>
1

> <s_lp_Variant>
AV-unprocessed.smi:470-3

> <Gold.Version>
5.8.1

> <Gold.Id.Protein>
6NUR|6NUR_protein|mol2

> <Gold.PLP.Fitness>
44.5119

> <Gold.PLP.PLP>
-35.4113

> <Gold.PLP.part.hbond>
-2.8127

> <Gold.PLP.part.metal>
0.0000

> <Gold.PLP.part.buried>
-3.2317

> <Gold.PLP.part.nonpolar>
-28.4582

> <Gold.PLP.part.repulsive>
0.2110

> <Gold.PLP.ligand.clash>
0.0000

> <Gold.PLP.ligand.torsion>
0.7002

> <Gold.PLP.Chemscore.Hbond>
3.1120

> <Gold.PLP.Chemscore.CHOScore>
0.3695

> <Gold.PLP.Chemscore.Metal>
0.0000

> <Gold.Chemscore.Hbonds>
donor molecule, donor type, donor heavy atom, donor atom, acceptor molecule, acceptor atom, score
      L1  H     1    19       P1  7957  0.14
      L1  H     1    20       P1  7948  1.00
      P1  H  7997  8010       L1     9  1.70
      L1  C     6    23       P1  7949  0.39

> <Gold.PLP.Chemscore.Internal.Correction>
0.0567

> <Gold.Rescore>
     Score         DG    S(hbond)    S(metal)    S(lipo)     H(rot)  DE(clash)    DE(int)     intcor
     14.54     -17.30       1.72        0.00      92.74       1.87       0.61       2.16       ----

> <Gold.Chemscore.Fitness>
14.5369

> <Gold.Chemscore.DG>
-17.3035

> <Gold.Chemscore.ZeroCoef>
-5.4800

> <Gold.Chemscore.Hbond>
1.7239

> <Gold.Chemscore.Metal>
0.0000

> <Gold.Chemscore.Lipo>
92.7357

> <Gold.Chemscore.Internal_Hbond>
0.0000

> <Gold.Chemscore.DEClash>
0.6071

> <Gold.Chemscore.DEInternal>
2.1595

> <Gold.Chemscore.Rot>
1.8689

> <Gold.Chemscore.Internal.Correction>
   9.000000E+99

> <Gold.Chemscore.Hbonds>
donor molecule, donor type, donor heavy atom, donor atom, acceptor molecule, acceptor atom, score
      L1  H     1    19       P1  7957  0.15
      L1  H     1    20       P1  7948  0.98
      P1  H  7997  8010       L1     9  0.14

> <Gold.Chemscore.Hbond.Weighted>
-5.7578

> <Gold.Chemscore.Metal.Weighted>
-0.0000

> <Gold.Chemscore.Lipo.Weighted>
-10.8501

> <Gold.Chemscore.Internal_Hbond.Weighted>
0.0000

> <Gold.Chemscore.DEClash.Weighted>
0.6071

> <Gold.Chemscore.DEInternal.Weighted>
2.1595

> <Gold.Chemscore.Rot.Weighted>
4.7844

> <Gold.Chemscore.Internal.Correction.Weighted>
   9.000000E+99

> <Gold.Protein.RotatedTorsions>
[ 6907 6896 6895 6894 ] final -146.03 input  -60.11 | X-H torsion
[ 7974 7965 7964 7962 ] final  -60.29 input  175.53 | X-H torsion
[ 8008 7997 7996 7995 ] final   50.33 input   59.86 | X-H torsion
[ 10167 10162 10161 10158 ] final  111.51 input  -65.29 | X-H torsion
[ 10718 10713 10712 10709 ] final  134.60 input   66.30 | X-H torsion
[ 10763 10752 10751 10750 ] final -115.68 input  -60.55 | X-H torsion
[ 11005 11000 10999 10996 ] final -147.03 input  -57.11 | X-H torsion

> <Gold.Protein.ActiveResidues>
 VAL166  LYS551  ARG553  GLY616  TRP617  ASP618  TYR619  PRO620  LYS621  CYS622 
 ASP623  PHE694  ASN695  SER759  ASP760  ASP761  ALA762  ILE779  LEU786  VAL792 
 PHE793  MET794  SER795  GLU796  ALA797  LYS798  CYS799  TRP800  GLU811  SER814 

> <Gold.Protein.RotatedAtoms>
  151.1359  133.5004  159.2597 H   0  0  0  0  0  0  0  0  0  0  0  0  # atno 6907 bound_to 6896
  151.1707  135.0316  159.8760 H   0  0  0  0  0  0  0  0  0  0  0  0  # atno 6908 bound_to 6896
  152.5461  134.1223  159.8457 H   0  0  0  0  0  0  0  0  0  0  0  0  # atno 6909 bound_to 6896
  145.8172  140.8562  143.0151 H   0  0  0  0  0  0  0  0  0  0  0  0  # atno 7974 bound_to 7965
  155.4170  140.3445  155.4268 H   0  0  0  0  0  0  0  0  0  0  0  0  # atno 8008 bound_to 7997
  156.1415  140.1543  156.8944 H   0  0  0  0  0  0  0  0  0  0  0  0  # atno 8009 bound_to 7997
  154.4975  140.0824  156.7709 H   0  0  0  0  0  0  0  0  0  0  0  0  # atno 8010 bound_to 7997
  139.6606  144.7129  151.1872 H   0  0  0  0  0  0  0  0  0  0  0  0  # atno 10167 bound_to 10162
  157.4656  131.1076  150.9867 H   0  0  0  0  0  0  0  0  0  0  0  0  # atno 10718 bound_to 10713
  154.8490  135.4373  154.1701 H   0  0  0  0  0  0  0  0  0  0  0  0  # atno 10763 bound_to 10752
  153.2817  135.6954  153.7385 H   0  0  0  0  0  0  0  0  0  0  0  0  # atno 10764 bound_to 10752
  153.6586  135.3439  155.3095 H   0  0  0  0  0  0  0  0  0  0  0  0  # atno 10765 bound_to 10752
  140.7759  134.3135  157.5061 H   0  0  0  0  0  0  0  0  0  0  0  0  # atno 11005 bound_to 11000
  144.6751  140.0481  143.7479 LP  0  0  0  0  0  0  0  0  0  0  0  0  # atno 17320 bound_to 7965
  145.9714  139.2872  143.1097 LP  0  0  0  0  0  0  0  0  0  0  0  0  # atno 17321 bound_to 7965
  140.7578  143.6000  150.8709 LP  0  0  0  0  0  0  0  0  0  0  0  0  # atno 17342 bound_to 10162
  139.9657  143.6113  152.2989 LP  0  0  0  0  0  0  0  0  0  0  0  0  # atno 17343 bound_to 10162
  157.0649  130.5840  149.5392 LP  0  0  0  0  0  0  0  0  0  0  0  0  # atno 17370 bound_to 10713
  156.0049  130.5134  150.7793 LP  0  0  0  0  0  0  0  0  0  0  0  0  # atno 17371 bound_to 10713
  139.8749  134.9289  156.3463 LP  0  0  0  0  0  0  0  0  0  0  0  0  # atno 17394 bound_to 11000
  140.9529  133.7439  156.0296 LP  0  0  0  0  0  0  0  0  0  0  0  0  # atno 17395 bound_to 11000

$$$$
