AV-unprocessed.smi:4|AV-procd|sdf|36|dock3
  -GOLD-   2262015153D 1   1.00000     0.00000
 Structure written by MMmdl.
 42 43  0  0  0  0  0  0  0  0  2 V2000
  150.9320  143.7790  159.7553 C   0  0  0  0  0  0  0  0  0  0  0  0
  152.3584  143.1682  159.8157 C   0  0  0  0  0  0  0  0  0  0  0  0
  153.2688  144.1661  159.0573 C   0  0  0  0  0  0  0  0  0  0  0  0
  152.7255  143.1344  161.3216 C   0  0  0  0  0  0  0  0  0  0  0  0
  152.4700  141.7896  159.2100 N   0  0  0  0  0  0  0  0  0  0  0  0
  151.4005  141.2658  158.4376 C   0  0  0  0  0  0  0  0  0  0  0  0
  151.4129  140.0403  157.8651 C   0  0  0  0  0  0  0  0  0  0  0  0
  150.2709  139.4667  157.0258 C   0  0  0  0  0  0  0  0  0  0  0  0
  150.0604  140.1729  155.7621 N   0  0  0  0  0  0  0  0  0  0  0  0
  148.9474  139.6448  154.9788 C   0  0  0  0  0  0  0  0  0  0  0  0
  148.4114  140.6929  153.9988 C   0  0  0  0  0  0  0  0  0  0  0  0
  149.5174  141.0545  153.1946 O   0  0  0  0  0  0  0  0  0  0  0  0
  147.1581  140.3165  153.1872 C   0  0  0  0  0  0  0  0  0  0  0  0
  146.6231  141.7347  153.3903 C   0  0  0  0  0  0  0  0  0  0  0  0
  147.5985  141.8762  154.5593 C   0  0  0  0  0  0  0  0  0  0  0  0
  152.6075  139.2246  158.0699 C   0  0  0  0  0  0  0  0  0  0  0  0
  152.6693  138.0951  157.5848 O   0  0  0  0  0  0  0  0  0  0  0  0
  153.6221  139.7550  158.8035 N   0  5  0  0  0  0  0  0  0  0  0  0
  153.5877  140.9993  159.3670 C   0  0  0  0  0  0  0  0  0  0  0  0
  154.5500  141.4127  160.0120 O   0  0  0  0  0  0  0  0  0  0  0  0
  150.9053  144.7669  160.2167 H   0  0  0  0  0  0  0  0  0  0  0  0
  150.2029  143.1703  160.2921 H   0  0  0  0  0  0  0  0  0  0  0  0
  150.5866  143.9140  158.7293 H   0  0  0  0  0  0  0  0  0  0  0  0
  153.0483  144.1639  157.9894 H   0  0  0  0  0  0  0  0  0  0  0  0
  154.3306  143.9552  159.1728 H   0  0  0  0  0  0  0  0  0  0  0  0
  153.1225  145.1852  159.4168 H   0  0  0  0  0  0  0  0  0  0  0  0
  152.5298  144.0954  161.7982 H   0  0  0  0  0  0  0  0  0  0  0  0
  153.7767  142.9196  161.5062 H   0  0  0  0  0  0  0  0  0  0  0  0
  152.1382  142.3840  161.8521 H   0  0  0  0  0  0  0  0  0  0  0  0
  150.5414  141.8971  158.3160 H   0  0  0  0  0  0  0  0  0  0  0  0
  150.4782  138.4149  156.8229 H   0  0  0  0  0  0  0  0  0  0  0  0
  149.3621  139.4979  157.6281 H   0  0  0  0  0  0  0  0  0  0  0  0
  150.9065  140.1180  155.2039 H   0  0  0  0  0  0  0  0  0  0  0  0
  149.2546  138.7433  154.4461 H   0  0  0  0  0  0  0  0  0  0  0  0
  148.1538  139.3330  155.6588 H   0  0  0  0  0  0  0  0  0  0  0  0
  149.6600  140.3451  152.5868 H   0  0  0  0  0  0  0  0  0  0  0  0
  147.3459  140.0543  152.1453 H   0  0  0  0  0  0  0  0  0  0  0  0
  146.5407  139.5632  153.6791 H   0  0  0  0  0  0  0  0  0  0  0  0
  146.8620  142.3987  152.5584 H   0  0  0  0  0  0  0  0  0  0  0  0
  145.5699  141.7899  153.6663 H   0  0  0  0  0  0  0  0  0  0  0  0
  147.1343  141.6546  155.5219 H   0  0  0  0  0  0  0  0  0  0  0  0
  148.1326  142.8266  154.5862 H   0  0  0  0  0  0  0  0  0  0  0  0
  1  2  1  0  0  0  0
  1 21  1  0  0  0  0
  1 22  1  0  0  0  0
  1 23  1  0  0  0  0
  2  3  1  0  0  0  0
  2  4  1  0  0  0  0
  2  5  1  0  0  0  0
  3 24  1  0  0  0  0
  3 25  1  0  0  0  0
  3 26  1  0  0  0  0
  4 27  1  0  0  0  0
  4 28  1  0  0  0  0
  4 29  1  0  0  0  0
  5 19  1  0  0  0  0
  5  6  1  0  0  0  0
  6  7  2  0  0  0  0
  6 30  1  0  0  0  0
  7  8  1  0  0  0  0
  7 16  1  0  0  0  0
  8  9  1  0  0  0  0
  8 31  1  0  0  0  0
  8 32  1  0  0  0  0
  9 10  1  0  0  0  0
  9 33  1  0  0  0  0
 10 11  1  0  0  0  0
 10 34  1  0  0  0  0
 10 35  1  0  0  0  0
 11 15  1  0  0  0  0
 11 12  1  0  0  0  0
 11 13  1  0  0  0  0
 12 36  1  0  0  0  0
 13 14  1  0  0  0  0
 13 37  1  0  0  0  0
 13 38  1  0  0  0  0
 14 15  1  0  0  0  0
 14 39  1  0  0  0  0
 14 40  1  0  0  0  0
 15 41  1  0  0  0  0
 15 42  1  0  0  0  0
 16 17  2  0  0  0  0
 16 18  1  0  0  0  0
 18 19  1  0  0  0  0
 19 20  2  0  0  0  0
M  CHG  1  18  -1
M  END
> <s_m_source_file>
AV-unprocessed.smi

> <i_m_source_file_index>
4

> <i_lp_mmshare_version>
43012

> <i_f3d_flags>
0

> <s_epik_input>
W0NIM11DKFtDSDNdKShbQ0gzXSluMVtjSF1jKGMoPU8pW25IXWMxPU8pW0NIMl1bTkhdW0NIMl1DMihbT0hdKVtDSDJdW0NIMl1bQ0gyXTI=

> <s_epik_cmdline>
J2VwaWtfcHl0aG9uJywgJy1waCcsICc3LjAnLCAnLXRuJywgJzgnLCAnLW1hJywgJzIwMCcsICctbWV0YWxfYmluZGluZycsICctaW1hZScsICc8aW5maWxlLm1hZT4nLCAnLW9tYWUnLCAnPG91dGZpbGUubWFlPic=

> <r_lp_tautomer_probability>
0.999537

> <r_epik_Ionization_Penalty>
6.25758

> <r_epik_Ionization_Penalty_Charging>
1.60838e-06

> <r_epik_Ionization_Penalty_Neutral>
6.25758

> <r_epik_State_Penalty>
6.1746

> <r_epik_Charging_Adjusted_Penalty>
6.1746

> <i_epik_Tot_Q>
-1

> <i_epik_Tot_abs_Q>
1

> <r_epik_Metal_State_Penalty>
2.58365

> <b_epik_Metal_Only>
1

> <s_lp_Force_Field>
OPLS_2005

> <r_lp_Energy>
44.4869

> <b_lp_Chiralities_Consistent>
1

> <s_lp_Variant>
AV-unprocessed.smi:4-4

> <Gold.Version>
5.8.1

> <Gold.Id.Protein>
6NUR|6NUR_protein|mol2

> <Gold.PLP.Fitness>
45.5801

> <Gold.PLP.PLP>
-35.0427

> <Gold.PLP.part.hbond>
-3.5021

> <Gold.PLP.part.metal>
0.0000

> <Gold.PLP.part.buried>
-5.4571

> <Gold.PLP.part.nonpolar>
-25.7319

> <Gold.PLP.part.repulsive>
0.0000

> <Gold.PLP.ligand.clash>
0.0000

> <Gold.PLP.ligand.torsion>
0.5618

> <Gold.PLP.Chemscore.Hbond>
3.8478

> <Gold.PLP.Chemscore.CHOScore>
0.0000

> <Gold.PLP.Chemscore.Metal>
0.0000

> <Gold.Chemscore.Hbonds>
donor molecule, donor type, donor heavy atom, donor atom, acceptor molecule, acceptor atom, score
      L1  H    12    36       P1  7957  0.66
      P1  H  7989  7998       L1    12  0.02
      P1  H  7997  8008       L1    18  1.40
      P1  H  8011  8017       L1    12  1.00

> <Gold.PLP.Chemscore.Internal.Correction>
0.1176

> <Gold.Rescore>
     Score         DG    S(hbond)    S(metal)    S(lipo)     H(rot)  DE(clash)    DE(int)     intcor
     12.37     -14.93       1.37        0.00      94.09       2.40       0.27       2.29       ----

> <Gold.Chemscore.Fitness>
12.3677

> <Gold.Chemscore.DG>
-14.9345

> <Gold.Chemscore.ZeroCoef>
-5.4800

> <Gold.Chemscore.Hbond>
1.3728

> <Gold.Chemscore.Metal>
0.0000

> <Gold.Chemscore.Lipo>
94.0921

> <Gold.Chemscore.Internal_Hbond>
0.0000

> <Gold.Chemscore.DEClash>
0.2739

> <Gold.Chemscore.DEInternal>
2.2928

> <Gold.Chemscore.Rot>
2.3983

> <Gold.Chemscore.Internal.Correction>
   9.000000E+99

> <Gold.Chemscore.Hbonds>
donor molecule, donor type, donor heavy atom, donor atom, acceptor molecule, acceptor atom, score
      L1  H    12    36       P1  7957  0.65
      P1  H  7997  8008       L1    18  0.02
      P1  H  8011  8017       L1    12  0.44

> <Gold.Chemscore.Hbond.Weighted>
-4.5852

> <Gold.Chemscore.Metal.Weighted>
-0.0000

> <Gold.Chemscore.Lipo.Weighted>
-11.0088

> <Gold.Chemscore.Internal_Hbond.Weighted>
0.0000

> <Gold.Chemscore.DEClash.Weighted>
0.2739

> <Gold.Chemscore.DEInternal.Weighted>
2.2928

> <Gold.Chemscore.Rot.Weighted>
6.1395

> <Gold.Chemscore.Internal.Correction.Weighted>
   9.000000E+99

> <Gold.Protein.RotatedTorsions>
[ 6907 6896 6895 6894 ] final  116.05 input  -60.11 | X-H torsion
[ 7974 7965 7964 7962 ] final -124.77 input  175.53 | X-H torsion
[ 8008 7997 7996 7995 ] final -102.71 input   59.86 | X-H torsion
[ 10167 10162 10161 10158 ] final   66.51 input  -65.29 | X-H torsion
[ 10718 10713 10712 10709 ] final  112.15 input   66.30 | X-H torsion
[ 10763 10752 10751 10750 ] final  -54.86 input  -60.55 | X-H torsion
[ 11005 11000 10999 10996 ] final  -85.83 input  -57.11 | X-H torsion

> <Gold.Protein.ActiveResidues>
 VAL166  LYS551  ARG553  GLY616  TRP617  ASP618  TYR619  PRO620  LYS621  CYS622 
 ASP623  PHE694  ASN695  SER759  ASP760  ASP761  ALA762  ILE779  LEU786  VAL792 
 PHE793  MET794  SER795  GLU796  ALA797  LYS798  CYS799  TRP800  GLU811  SER814 

> <Gold.Protein.RotatedAtoms>
  152.4703  133.8014  159.6954 H   0  0  0  0  0  0  0  0  0  0  0  0  # atno 6907 bound_to 6896
  150.8688  133.7526  159.2974 H   0  0  0  0  0  0  0  0  0  0  0  0  # atno 6908 bound_to 6896
  151.5067  135.1067  159.9895 H   0  0  0  0  0  0  0  0  0  0  0  0  # atno 6909 bound_to 6896
  145.0045  140.7851  143.4476 H   0  0  0  0  0  0  0  0  0  0  0  0  # atno 7974 bound_to 7965
  154.8605  140.0427  157.1662 H   0  0  0  0  0  0  0  0  0  0  0  0  # atno 8008 bound_to 7997
  154.8845  140.2977  155.5385 H   0  0  0  0  0  0  0  0  0  0  0  0  # atno 8009 bound_to 7997
  156.2998  140.2405  156.3852 H   0  0  0  0  0  0  0  0  0  0  0  0  # atno 8010 bound_to 7997
  140.0996  144.4915  150.7046 H   0  0  0  0  0  0  0  0  0  0  0  0  # atno 10167 bound_to 10162
  157.6408  131.0963  150.6853 H   0  0  0  0  0  0  0  0  0  0  0  0  # atno 10718 bound_to 10713
  154.1815  135.6442  153.5035 H   0  0  0  0  0  0  0  0  0  0  0  0  # atno 10763 bound_to 10752
  153.0058  135.5407  154.6509 H   0  0  0  0  0  0  0  0  0  0  0  0  # atno 10764 bound_to 10752
  154.5874  135.2931  155.0643 H   0  0  0  0  0  0  0  0  0  0  0  0  # atno 10765 bound_to 10752
  141.1637  133.7421  156.9073 H   0  0  0  0  0  0  0  0  0  0  0  0  # atno 11005 bound_to 11000
  145.2107  139.2206  143.5144 LP  0  0  0  0  0  0  0  0  0  0  0  0  # atno 17320 bound_to 7965
  146.3458  140.1944  142.8589 LP  0  0  0  0  0  0  0  0  0  0  0  0  # atno 17321 bound_to 7965
  140.6985  143.2419  151.4933 LP  0  0  0  0  0  0  0  0  0  0  0  0  # atno 17342 bound_to 10162
  139.5678  144.1999  152.1792 LP  0  0  0  0  0  0  0  0  0  0  0  0  # atno 17343 bound_to 10162
  156.7177  130.4671  149.5531 LP  0  0  0  0  0  0  0  0  0  0  0  0  # atno 17370 bound_to 10713
  156.1686  130.6422  151.0809 LP  0  0  0  0  0  0  0  0  0  0  0  0  # atno 17371 bound_to 10713
  140.1541  134.9210  157.2631 LP  0  0  0  0  0  0  0  0  0  0  0  0  # atno 17394 bound_to 11000
  140.2688  134.3485  155.7381 LP  0  0  0  0  0  0  0  0  0  0  0  0  # atno 17395 bound_to 11000

$$$$
