AV-unprocessed.smi:2324|AV-procd|sdf|9293|dock7
  -GOLD-   2272012513D 1   1.00000     0.00000
 Structure written by MMmdl.
 37 39  0  0  0  0  0  0  0  0  1 V2000
  145.5659  138.4123  153.2111 O   0  0  0  0  0  0  0  0  0  0  0  0
  146.5158  137.7295  152.8315 C   0  0  0  0  0  0  0  0  0  0  0  0
  147.7873  138.1168  153.0694 N   0  0  0  0  0  0  0  0  0  0  0  0
  148.3195  139.2638  153.7280 C   0  0  0  0  0  0  0  0  0  0  0  0
  147.4406  140.3662  153.7953 C   0  0  0  0  0  0  0  0  0  0  0  0
  147.8852  141.5405  154.4260 C   0  0  0  0  0  0  0  0  0  0  0  0
  149.1884  141.5347  154.9507 C   0  0  0  0  0  0  0  0  0  0  0  0
  149.9983  140.4577  154.8648 N   0  0  0  0  0  0  0  0  0  0  0  0
  149.5672  139.3448  154.2625 N   0  0  0  0  0  0  0  0  0  0  0  0
  146.3578  136.5703  152.1712 N   0  0  0  0  0  0  0  0  0  0  0  0
  145.0796  135.9602  151.8197 C   0  0  2  0  0  0  0  0  0  0  0  0
  144.2595  135.6410  153.0810 C   0  0  0  0  0  0  0  0  0  0  0  0
  142.9935  134.8486  152.7190 C   0  0  0  0  0  0  0  0  0  0  0  0
  143.3450  133.6663  152.0083 O   0  0  0  0  0  0  0  0  0  0  0  0
  143.9941  133.9297  150.7682 C   0  0  2  0  0  0  0  0  0  0  0  0
  144.2105  132.6066  150.0608 C   0  0  0  0  0  0  0  0  0  0  0  0
  144.8711  131.4490  150.7726 C   0  0  0  0  0  0  0  0  0  0  0  0
  145.5979  132.1636  149.6585 C   0  0  0  0  0  0  0  0  0  0  0  0
  145.3214  134.6656  151.0298 C   0  0  0  0  0  0  0  0  0  0  0  0
  148.4865  137.4810  152.7147 H   0  0  0  0  0  0  0  0  0  0  0  0
  146.4468  140.3163  153.3742 H   0  0  0  0  0  0  0  0  0  0  0  0
  147.2515  142.4115  154.5044 H   0  0  0  0  0  0  0  0  0  0  0  0
  149.5887  142.4060  155.4474 H   0  0  0  0  0  0  0  0  0  0  0  0
  147.1910  136.0709  151.8933 H   0  0  0  0  0  0  0  0  0  0  0  0
  144.5129  136.6467  151.1879 H   0  0  0  0  0  0  0  0  0  0  0  0
  144.8618  135.0543  153.7761 H   0  0  0  0  0  0  0  0  0  0  0  0
  143.9867  136.5592  153.6024 H   0  0  0  0  0  0  0  0  0  0  0  0
  142.4568  134.5672  153.6251 H   0  0  0  0  0  0  0  0  0  0  0  0
  142.3114  135.4559  152.1220 H   0  0  0  0  0  0  0  0  0  0  0  0
  143.3448  134.5516  150.1488 H   0  0  0  0  0  0  0  0  0  0  0  0
  143.4113  132.3440  149.3701 H   0  0  0  0  0  0  0  0  0  0  0  0
  145.2253  131.6129  151.7886 H   0  0  0  0  0  0  0  0  0  0  0  0
  144.4899  130.4509  150.5670 H   0  0  0  0  0  0  0  0  0  0  0  0
  145.7025  131.6417  148.7096 H   0  0  0  0  0  0  0  0  0  0  0  0
  146.4341  132.8034  149.9333 H   0  0  0  0  0  0  0  0  0  0  0  0
  145.8181  134.8902  150.0851 H   0  0  0  0  0  0  0  0  0  0  0  0
  145.9941  134.0126  151.5884 H   0  0  0  0  0  0  0  0  0  0  0  0
  1  2  2  0  0  0  0
  2  3  1  0  0  0  0
  2 10  1  0  0  0  0
  3  4  1  0  0  0  0
  3 20  1  0  0  0  0
  4  9  1  0  0  0  0
  4  5  2  0  0  0  0
  5  6  1  0  0  0  0
  5 21  1  0  0  0  0
  6  7  2  0  0  0  0
  6 22  1  0  0  0  0
  7  8  1  0  0  0  0
  7 23  1  0  0  0  0
  8  9  2  0  0  0  0
 10 11  1  0  0  0  0
 10 24  1  0  0  0  0
 11 19  1  0  0  0  0
 11 12  1  0  0  0  0
 11 25  1  0  0  0  0
 12 13  1  0  0  0  0
 12 26  1  0  0  0  0
 12 27  1  0  0  0  0
 13 14  1  0  0  0  0
 13 28  1  0  0  0  0
 13 29  1  0  0  0  0
 14 15  1  0  0  0  0
 15 16  1  0  0  0  0
 15 19  1  0  0  0  0
 15 30  1  0  0  0  0
 16 18  1  0  0  0  0
 16 17  1  0  0  0  0
 16 31  1  0  0  0  0
 17 18  1  0  0  0  0
 17 32  1  0  0  0  0
 17 33  1  0  0  0  0
 18 34  1  0  0  0  0
 18 35  1  0  0  0  0
 19 36  1  0  0  0  0
 19 37  1  0  0  0  0
M  END
> <s_m_source_file>
AV-unprocessed.smi

> <i_m_source_file_index>
2324

> <i_lp_mmshare_version>
43012

> <i_f3d_flags>
0

> <s_epik_input>
bjFuW2NIXVtjSF1bY0hdYzFbTkhdQyg9TylbTkhdW0NAQEhdMltDSDJdW0NIMl1PW0NASF0oW0NIMl0yKVtDSF0zW0NIMl1bQ0gyXTM=

> <s_epik_cmdline>
J2VwaWtfcHl0aG9uJywgJy1waCcsICc3LjAnLCAnLXRuJywgJzgnLCAnLW1hJywgJzIwMCcsICctbWV0YWxfYmluZGluZycsICctaW1hZScsICc8aW5maWxlLm1hZT4nLCAnLW9tYWUnLCAnPG91dGZpbGUubWFlPic=

> <r_lp_tautomer_probability>
1

> <r_epik_Ionization_Penalty>
0.00521499

> <r_epik_Ionization_Penalty_Charging>
0

> <r_epik_Ionization_Penalty_Neutral>
0.00521499

> <r_epik_State_Penalty>
-0

> <r_epik_Charging_Adjusted_Penalty>
0

> <i_epik_Tot_Q>
0

> <i_epik_Tot_abs_Q>
0

> <r_epik_Metal_State_Penalty>
-0

> <b_epik_Metal_Only>
0

> <s_lp_Force_Field>
OPLS_2005

> <r_lp_Energy>
26.0154

> <b_lp_Chiralities_Consistent>
1

> <s_lp_Variant>
AV-unprocessed.smi:2324-3

> <Gold.Version>
5.8.1

> <Gold.Id.Protein>
6NUR|6NUR_protein|mol2

> <Gold.PLP.Fitness>
43.3884

> <Gold.PLP.PLP>
-33.0975

> <Gold.PLP.part.hbond>
-3.5460

> <Gold.PLP.part.metal>
0.0000

> <Gold.PLP.part.buried>
-1.9919

> <Gold.PLP.part.nonpolar>
-31.0918

> <Gold.PLP.part.repulsive>
3.7418

> <Gold.PLP.ligand.clash>
0.0000

> <Gold.PLP.ligand.torsion>
0.8924

> <Gold.PLP.Chemscore.Hbond>
2.6680

> <Gold.PLP.Chemscore.CHOScore>
1.0000

> <Gold.PLP.Chemscore.Metal>
0.0000

> <Gold.Chemscore.Hbonds>
donor molecule, donor type, donor heavy atom, donor atom, acceptor molecule, acceptor atom, score
      L1  H     3    20       P1  7948  1.00
      L1  H    10    24       P1  7948  0.85
      P1  H  7989  7998       L1     8  0.53
      L1  C     7    23       P1  8028  1.00

> <Gold.PLP.Chemscore.Internal.Correction>
1.0717

> <Gold.Rescore>
     Score         DG    S(hbond)    S(metal)    S(lipo)     H(rot)  DE(clash)    DE(int)     intcor
     13.42     -17.11       1.86        0.00      73.52       1.25       0.20       3.49       ----

> <Gold.Chemscore.Fitness>
13.4203

> <Gold.Chemscore.DG>
-17.1102

> <Gold.Chemscore.ZeroCoef>
-5.4800

> <Gold.Chemscore.Hbond>
1.8631

> <Gold.Chemscore.Metal>
0.0000

> <Gold.Chemscore.Lipo>
73.5158

> <Gold.Chemscore.Internal_Hbond>
0.0000

> <Gold.Chemscore.DEClash>
0.1985

> <Gold.Chemscore.DEInternal>
3.4913

> <Gold.Chemscore.Rot>
1.2476

> <Gold.Chemscore.Internal.Correction>
   9.000000E+99

> <Gold.Chemscore.Hbonds>
donor molecule, donor type, donor heavy atom, donor atom, acceptor molecule, acceptor atom, score
      L1  H     3    20       P1  7948  0.94
      L1  H    10    24       P1  7948  0.85
      P1  H  7989  7998       L1     8  0.06

> <Gold.Chemscore.Hbond.Weighted>
-6.2226

> <Gold.Chemscore.Metal.Weighted>
-0.0000

> <Gold.Chemscore.Lipo.Weighted>
-8.6014

> <Gold.Chemscore.Internal_Hbond.Weighted>
0.0000

> <Gold.Chemscore.DEClash.Weighted>
0.1985

> <Gold.Chemscore.DEInternal.Weighted>
3.4913

> <Gold.Chemscore.Rot.Weighted>
3.1938

> <Gold.Chemscore.Internal.Correction.Weighted>
   9.000000E+99

> <Gold.Protein.RotatedTorsions>
[ 6907 6896 6895 6894 ] final  -38.08 input  -60.11 | X-H torsion
[ 7974 7965 7964 7962 ] final   83.08 input  175.53 | X-H torsion
[ 8008 7997 7996 7995 ] final -143.02 input   59.86 | X-H torsion
[ 10167 10162 10161 10158 ] final  100.36 input  -65.29 | X-H torsion
[ 10718 10713 10712 10709 ] final  124.57 input   66.30 | X-H torsion
[ 10763 10752 10751 10750 ] final  -36.89 input  -60.55 | X-H torsion
[ 11005 11000 10999 10996 ] final  110.79 input  -57.11 | X-H torsion

> <Gold.Protein.ActiveResidues>
 VAL166  LYS551  ARG553  GLY616  TRP617  ASP618  TYR619  PRO620  LYS621  CYS622 
 ASP623  PHE694  ASN695  SER759  ASP760  ASP761  ALA762  ILE779  LEU786  VAL792 
 PHE793  MET794  SER795  GLU796  ALA797  LYS798  CYS799  TRP800  GLU811  SER814 

> <Gold.Protein.RotatedAtoms>
  151.0068  134.9365  159.7984 H   0  0  0  0  0  0  0  0  0  0  0  0  # atno 6907 bound_to 6896
  152.5292  134.3081  159.9113 H   0  0  0  0  0  0  0  0  0  0  0  0  # atno 6908 bound_to 6896
  151.3087  133.4048  159.2679 H   0  0  0  0  0  0  0  0  0  0  0  0  # atno 6909 bound_to 6896
  145.6166  139.2378  143.2162 H   0  0  0  0  0  0  0  0  0  0  0  0  # atno 7974 bound_to 7965
  155.5038  140.0577  157.2935 H   0  0  0  0  0  0  0  0  0  0  0  0  # atno 8008 bound_to 7997
  154.4577  140.1981  156.0281 H   0  0  0  0  0  0  0  0  0  0  0  0  # atno 8009 bound_to 7997
  156.0831  140.3244  155.7723 H   0  0  0  0  0  0  0  0  0  0  0  0  # atno 8010 bound_to 7997
  139.7534  144.6977  151.0398 H   0  0  0  0  0  0  0  0  0  0  0  0  # atno 10167 bound_to 10162
  157.5574  131.1091  150.8598 H   0  0  0  0  0  0  0  0  0  0  0  0  # atno 10718 bound_to 10713
  153.8873  135.6815  153.4763 H   0  0  0  0  0  0  0  0  0  0  0  0  # atno 10763 bound_to 10752
  153.1200  135.4744  154.9178 H   0  0  0  0  0  0  0  0  0  0  0  0  # atno 10764 bound_to 10752
  154.7639  135.3219  154.8276 H   0  0  0  0  0  0  0  0  0  0  0  0  # atno 10765 bound_to 10752
  139.8889  134.9492  156.6333 H   0  0  0  0  0  0  0  0  0  0  0  0  # atno 11005 bound_to 11000
  146.1463  140.6988  142.9343 LP  0  0  0  0  0  0  0  0  0  0  0  0  # atno 17320 bound_to 7965
  144.7248  140.4489  143.6981 LP  0  0  0  0  0  0  0  0  0  0  0  0  # atno 17321 bound_to 7965
  140.7800  143.4782  151.0054 LP  0  0  0  0  0  0  0  0  0  0  0  0  # atno 17342 bound_to 10162
  139.8469  143.7489  152.3179 LP  0  0  0  0  0  0  0  0  0  0  0  0  # atno 17343 bound_to 10162
  156.9105  130.5279  149.5280 LP  0  0  0  0  0  0  0  0  0  0  0  0  # atno 17370 bound_to 10713
  156.0631  130.5680  150.9233 LP  0  0  0  0  0  0  0  0  0  0  0  0  # atno 17371 bound_to 10713
  140.7650  133.8786  155.8447 LP  0  0  0  0  0  0  0  0  0  0  0  0  # atno 17394 bound_to 11000
  140.9890  134.1303  157.4425 LP  0  0  0  0  0  0  0  0  0  0  0  0  # atno 17395 bound_to 11000

$$$$
