AV-unprocessed.smi:109|AV-procd|sdf|1059|dock3
  -GOLD-   2262018133D 1   1.00000     0.00000
 Structure written by MMmdl.
 58 61  0  0  0  0  0  0  0  0  1 V2000
  153.1645  138.7460  157.2193 O   0  0  0  0  0  0  0  0  0  0  0  0
  152.1090  139.4803  157.8012 C   0  0  0  0  0  0  0  0  0  0  0  0
  151.4365  140.3644  156.7366 C   0  0  0  0  0  0  0  0  0  0  0  0
  150.5776  141.5174  157.3138 C   0  0  2  0  0  0  0  0  0  0  0  0
  149.7911  142.1278  156.2392 N   0  0  0  0  0  0  0  0  0  0  0  0
  148.9888  141.4034  155.4268 C   0  0  0  0  0  0  0  0  0  0  0  0
  148.8599  141.6982  154.1073 N   0  0  0  0  0  0  0  0  0  0  0  0
  148.0494  140.9696  153.3348 C   0  0  0  0  0  0  0  0  0  0  0  0
  147.2922  139.9245  153.6741 N   0  0  0  0  0  0  0  0  0  0  0  0
  147.4208  139.6181  154.9976 C   0  0  0  0  0  0  0  0  0  0  0  0
  148.2435  140.3072  155.9323 C   0  0  0  0  0  0  0  0  0  0  0  0
  148.1209  139.7251  157.1866 N   0  0  0  0  0  0  0  0  0  0  0  0
  147.2725  138.7503  157.0000 C   0  0  0  0  0  0  0  0  0  0  0  0
  146.7986  138.6135  155.7139 N   0  0  0  0  0  0  0  0  0  0  0  0
  145.8194  137.5920  155.2160 C   0  0  2  0  0  0  0  0  0  0  0  0
  146.2542  137.0946  153.9834 O   0  0  0  0  0  0  0  0  0  0  0  0
  145.2869  137.3522  152.9654 C   0  0  1  0  0  0  0  0  0  0  0  0
  145.3224  136.2249  151.9229 C   0  0  0  0  0  0  0  0  0  0  0  0
  146.1890  135.1981  152.3547 O   0  0  0  0  0  0  0  0  0  0  0  0
  143.9773  137.4213  153.7521 C   0  0  2  0  0  0  0  0  0  0  0  0
  142.9349  138.0780  153.0560 O   0  0  0  0  0  0  0  0  0  0  0  0
  144.3968  138.1512  155.0199 C   0  0  2  0  0  0  0  0  0  0  0  0
  144.3553  139.5634  154.8790 O   0  0  0  0  0  0  0  0  0  0  0  0
  151.4146  142.6192  158.0261 C   0  0  0  0  0  0  0  0  0  0  0  0
  152.1036  142.1240  159.3229 C   0  0  0  0  0  0  0  0  0  0  0  0
  152.8888  143.2378  160.0355 C   0  0  0  0  0  0  0  0  0  0  0  0
  151.9973  144.4463  160.3442 C   0  0  0  0  0  0  0  0  0  0  0  0
  151.3343  144.9664  159.0637 C   0  0  0  0  0  0  0  0  0  0  0  0
  150.5398  143.8551  158.3608 C   0  0  0  0  0  0  0  0  0  0  0  0
  145.8591  136.7888  155.9531 H   0  0  0  0  0  0  0  0  0  0  0  0
  145.4830  138.3209  152.5029 H   0  0  0  0  0  0  0  0  0  0  0  0
  143.6519  136.4115  154.0086 H   0  0  0  0  0  0  0  0  0  0  0  0
  143.7720  137.8733  155.8695 H   0  0  0  0  0  0  0  0  0  0  0  0
  152.7946  138.0562  156.6898 H   0  0  0  0  0  0  0  0  0  0  0  0
  151.4003  138.7769  158.2382 H   0  0  0  0  0  0  0  0  0  0  0  0
  152.5085  140.0912  158.6111 H   0  0  0  0  0  0  0  0  0  0  0  0
  152.2368  140.7724  156.1219 H   0  0  0  0  0  0  0  0  0  0  0  0
  150.8258  139.7465  156.0769 H   0  0  0  0  0  0  0  0  0  0  0  0
  149.9211  141.0920  158.0725 H   0  0  0  0  0  0  0  0  0  0  0  0
  149.8720  143.1317  156.1631 H   0  0  0  0  0  0  0  0  0  0  0  0
  147.9992  141.2673  152.2979 H   0  0  0  0  0  0  0  0  0  0  0  0
  146.9637  138.0991  157.8048 H   0  0  0  0  0  0  0  0  0  0  0  0
  144.3251  135.8272  151.7329 H   0  0  0  0  0  0  0  0  0  0  0  0
  145.7078  136.6009  150.9748 H   0  0  0  0  0  0  0  0  0  0  0  0
  147.0791  135.4655  152.1825 H   0  0  0  0  0  0  0  0  0  0  0  0
  143.1509  138.9959  152.9922 H   0  0  0  0  0  0  0  0  0  0  0  0
  144.4143  139.7725  153.9587 H   0  0  0  0  0  0  0  0  0  0  0  0
  152.1998  142.9405  157.3396 H   0  0  0  0  0  0  0  0  0  0  0  0
  151.3569  141.7113  160.0024 H   0  0  0  0  0  0  0  0  0  0  0  0
  152.8061  141.3209  159.1068 H   0  0  0  0  0  0  0  0  0  0  0  0
  153.3229  142.8529  160.9586 H   0  0  0  0  0  0  0  0  0  0  0  0
  153.7247  143.5521  159.4094 H   0  0  0  0  0  0  0  0  0  0  0  0
  151.2308  144.1636  161.0669 H   0  0  0  0  0  0  0  0  0  0  0  0
  152.5870  145.2373  160.8082 H   0  0  0  0  0  0  0  0  0  0  0  0
  150.6743  145.8012  159.3007 H   0  0  0  0  0  0  0  0  0  0  0  0
  152.0960  145.3560  158.3873 H   0  0  0  0  0  0  0  0  0  0  0  0
  150.0975  144.2738  157.4567 H   0  0  0  0  0  0  0  0  0  0  0  0
  149.7052  143.5515  158.9942 H   0  0  0  0  0  0  0  0  0  0  0  0
  1  2  1  0  0  0  0
  1 34  1  0  0  0  0
  2  3  1  0  0  0  0
  2 35  1  0  0  0  0
  2 36  1  0  0  0  0
  3  4  1  0  0  0  0
  3 37  1  0  0  0  0
  3 38  1  0  0  0  0
  4  5  1  0  0  0  0
  4 24  1  0  0  0  0
  4 39  1  0  0  0  0
  5  6  1  0  0  0  0
  5 40  1  0  0  0  0
  6 11  1  0  0  0  0
  6  7  2  0  0  0  0
  7  8  1  0  0  0  0
  8  9  2  0  0  0  0
  8 41  1  0  0  0  0
  9 10  1  0  0  0  0
 10 14  1  0  0  0  0
 10 11  2  0  0  0  0
 11 12  1  0  0  0  0
 12 13  2  0  0  0  0
 13 14  1  0  0  0  0
 13 42  1  0  0  0  0
 14 15  1  0  0  0  0
 15 30  1  0  0  0  0
 15 22  1  0  0  0  0
 15 16  1  0  0  0  0
 16 17  1  0  0  0  0
 17 31  1  0  0  0  0
 17 18  1  0  0  0  0
 17 20  1  0  0  0  0
 18 19  1  0  0  0  0
 18 43  1  0  0  0  0
 18 44  1  0  0  0  0
 19 45  1  0  0  0  0
 20 32  1  0  0  0  0
 20 21  1  0  0  0  0
 20 22  1  0  0  0  0
 21 46  1  0  0  0  0
 22 33  1  0  0  0  0
 22 23  1  0  0  0  0
 23 47  1  0  0  0  0
 24 29  1  0  0  0  0
 24 25  1  0  0  0  0
 24 48  1  0  0  0  0
 25 26  1  0  0  0  0
 25 49  1  0  0  0  0
 25 50  1  0  0  0  0
 26 27  1  0  0  0  0
 26 51  1  0  0  0  0
 26 52  1  0  0  0  0
 27 28  1  0  0  0  0
 27 53  1  0  0  0  0
 27 54  1  0  0  0  0
 28 29  1  0  0  0  0
 28 55  1  0  0  0  0
 28 56  1  0  0  0  0
 29 57  1  0  0  0  0
 29 58  1  0  0  0  0
M  END
> <s_m_source_file>
AV-unprocessed.smi

> <i_m_source_file_index>
109

> <i_lp_mmshare_version>
43012

> <i_f3d_flags>
0

> <s_epik_input>
W0NIMl0xW0NIMl1bQ0gyXVtDSDJdW0NIMl1bQ0hdMVtDQEhdKFtDSDJdW0NIMl1bT0hdKVtOSF1jKG5bY0hdbjIpYyhjMjMpbltjSF1uM1tDQEBIXTRPW0NASF0oW0NIMl1bT0hdKVtDQEBIXShbT0hdKVtDQEhdNFtPSF0=

> <s_epik_cmdline>
J2VwaWtfcHl0aG9uJywgJy1waCcsICc3LjAnLCAnLXRuJywgJzgnLCAnLW1hJywgJzIwMCcsICctbWV0YWxfYmluZGluZycsICctaW1hZScsICc8aW5maWxlLm1hZT4nLCAnLW9tYWUnLCAnPG91dGZpbGUubWFlPic=

> <r_lp_tautomer_probability>
1

> <r_epik_Ionization_Penalty>
0.000793976

> <r_epik_Ionization_Penalty_Charging>
0

> <r_epik_Ionization_Penalty_Neutral>
0.000793976

> <r_epik_State_Penalty>
-0

> <r_epik_Charging_Adjusted_Penalty>
0

> <i_epik_Tot_Q>
0

> <i_epik_Tot_abs_Q>
0

> <r_epik_Metal_State_Penalty>
-0

> <b_epik_Metal_Only>
0

> <s_epik_Chemistry_Notes>
This compound contains an acetal/aminal-like group ( X-CH(R)-Y where X, Y are N, S, or O) that may be acid/base labile, releasing an aldehyde.

> <s_lp_Force_Field>
OPLS_2005

> <r_lp_Energy>
58.6638

> <b_lp_Chiralities_Consistent>
1

> <s_lp_Variant>
AV-unprocessed.smi:109-29

> <Gold.Version>
5.8.1

> <Gold.Id.Protein>
6NUR|6NUR_protein|mol2

> <Gold.PLP.Fitness>
54.5285

> <Gold.PLP.PLP>
-41.0371

> <Gold.PLP.part.hbond>
-5.9023

> <Gold.PLP.part.metal>
0.0000

> <Gold.PLP.part.buried>
-5.2544

> <Gold.PLP.part.nonpolar>
-30.9199

> <Gold.PLP.part.repulsive>
0.5694

> <Gold.PLP.ligand.clash>
0.0000

> <Gold.PLP.ligand.torsion>
1.6823

> <Gold.PLP.Chemscore.Hbond>
5.0736

> <Gold.PLP.Chemscore.CHOScore>
0.4864

> <Gold.PLP.Chemscore.Metal>
0.0000

> <Gold.Chemscore.Hbonds>
donor molecule, donor type, donor heavy atom, donor atom, acceptor molecule, acceptor atom, score
      L1  H     5    40       P1  8028  0.86
      L1  H    19    45       P1  7948  1.00
      L1  H    21    46       P1 10175  1.00
      L1  H    23    47       P1 10175  0.98
      P1  H  7997  8009       L1     1  1.00
      P1  H  8011  8017       L1     7  0.17
      L1  C     8    41       P1  7957  0.57

> <Gold.PLP.Chemscore.Internal.Correction>
0.1762

> <Gold.Rescore>
     Score         DG    S(hbond)    S(metal)    S(lipo)     H(rot)  DE(clash)    DE(int)     intcor
     13.23     -18.51       4.81        0.00      93.77       5.47       0.44       4.85       ----

> <Gold.Chemscore.Fitness>
13.2274

> <Gold.Chemscore.DG>
-18.5116

> <Gold.Chemscore.ZeroCoef>
-5.4800

> <Gold.Chemscore.Hbond>
4.8068

> <Gold.Chemscore.Metal>
0.0000

> <Gold.Chemscore.Lipo>
93.7654

> <Gold.Chemscore.Internal_Hbond>
0.0000

> <Gold.Chemscore.DEClash>
0.4377

> <Gold.Chemscore.DEInternal>
4.8465

> <Gold.Chemscore.Rot>
5.4662

> <Gold.Chemscore.Internal.Correction>
   9.000000E+99

> <Gold.Chemscore.Hbonds>
donor molecule, donor type, donor heavy atom, donor atom, acceptor molecule, acceptor atom, score
      L1  H     5    40       P1  8028  0.84
      L1  H    19    45       P1  7948  0.94
      L1  H    21    46       P1 10175  0.99
      L1  H    23    47       P1 10175  0.93
      P1  H  7997  8009       L1     1  0.48

> <Gold.Chemscore.Hbond.Weighted>
-16.0546

> <Gold.Chemscore.Metal.Weighted>
-0.0000

> <Gold.Chemscore.Lipo.Weighted>
-10.9705

> <Gold.Chemscore.Internal_Hbond.Weighted>
0.0000

> <Gold.Chemscore.DEClash.Weighted>
0.4377

> <Gold.Chemscore.DEInternal.Weighted>
4.8465

> <Gold.Chemscore.Rot.Weighted>
13.9935

> <Gold.Chemscore.Internal.Correction.Weighted>
   9.000000E+99

> <Gold.Protein.RotatedTorsions>
[ 6907 6896 6895 6894 ] final  117.03 input  -60.11 | X-H torsion
[ 7974 7965 7964 7962 ] final  168.55 input  175.53 | X-H torsion
[ 8008 7997 7996 7995 ] final -173.03 input   59.86 | X-H torsion
[ 10167 10162 10161 10158 ] final  -58.67 input  -65.29 | X-H torsion
[ 10718 10713 10712 10709 ] final -168.01 input   66.30 | X-H torsion
[ 10763 10752 10751 10750 ] final  157.87 input  -60.55 | X-H torsion
[ 11005 11000 10999 10996 ] final   57.42 input  -57.11 | X-H torsion

> <Gold.Protein.ActiveResidues>
 VAL166  LYS551  ARG553  GLY616  TRP617  ASP618  TYR619  PRO620  LYS621  CYS622 
 ASP623  PHE694  ASN695  SER759  ASP760  ASP761  ALA762  ILE779  LEU786  VAL792 
 PHE793  MET794  SER795  GLU796  ALA797  LYS798  CYS799  TRP800  GLU811  SER814 

> <Gold.Protein.RotatedAtoms>
  152.4639  133.7880  159.6886 H   0  0  0  0  0  0  0  0  0  0  0  0  # atno 6907 bound_to 6896
  150.8594  133.7656  159.3004 H   0  0  0  0  0  0  0  0  0  0  0  0  # atno 6908 bound_to 6896
  151.5226  135.1070  159.9934 H   0  0  0  0  0  0  0  0  0  0  0  0  # atno 6909 bound_to 6896
  144.7385  139.8924  143.6404 H   0  0  0  0  0  0  0  0  0  0  0  0  # atno 7974 bound_to 7965
  155.9522  140.1128  157.0967 H   0  0  0  0  0  0  0  0  0  0  0  0  # atno 8008 bound_to 7997
  154.4112  140.1198  156.5134 H   0  0  0  0  0  0  0  0  0  0  0  0  # atno 8009 bound_to 7997
  155.6827  140.3473  155.4864 H   0  0  0  0  0  0  0  0  0  0  0  0  # atno 8010 bound_to 7997
  140.6183  143.2410  151.5544 H   0  0  0  0  0  0  0  0  0  0  0  0  # atno 10167 bound_to 10162
  156.6907  130.9158  151.3068 H   0  0  0  0  0  0  0  0  0  0  0  0  # atno 10718 bound_to 10713
  154.2071  135.2787  155.2971 H   0  0  0  0  0  0  0  0  0  0  0  0  # atno 10763 bound_to 10752
  154.5808  135.5590  153.7187 H   0  0  0  0  0  0  0  0  0  0  0  0  # atno 10764 bound_to 10752
  153.0073  135.6344  154.2210 H   0  0  0  0  0  0  0  0  0  0  0  0  # atno 10765 bound_to 10752
  140.0454  134.5814  155.9330 H   0  0  0  0  0  0  0  0  0  0  0  0  # atno 11005 bound_to 11000
  146.1132  139.4139  143.0275 LP  0  0  0  0  0  0  0  0  0  0  0  0  # atno 17320 bound_to 7965
  145.7413  141.0007  143.1299 LP  0  0  0  0  0  0  0  0  0  0  0  0  # atno 17321 bound_to 7965
  139.5417  144.2630  152.1363 LP  0  0  0  0  0  0  0  0  0  0  0  0  # atno 17342 bound_to 10162
  140.1845  144.4812  150.6511 LP  0  0  0  0  0  0  0  0  0  0  0  0  # atno 17343 bound_to 10162
  157.7010  130.9333  150.0785 LP  0  0  0  0  0  0  0  0  0  0  0  0  # atno 17370 bound_to 10713
  156.1800  130.3649  149.9048 LP  0  0  0  0  0  0  0  0  0  0  0  0  # atno 17371 bound_to 10713
  141.1904  133.6568  156.5410 LP  0  0  0  0  0  0  0  0  0  0  0  0  # atno 17394 bound_to 11000
  140.4003  134.7363  157.4775 LP  0  0  0  0  0  0  0  0  0  0  0  0  # atno 17395 bound_to 11000

$$$$
