AV-unprocessed.smi:465|AV-procd|sdf|2639|dock7
  -GOLD-   2262023 43D 1   1.00000     0.00000
 Structure written by MMmdl.
 42 44  0  0  0  0  0  0  0  0  1 V2000
  153.6165  142.8989  163.4129 C   0  0  0  0  0  0  0  0  0  0  0  0
  152.9767  142.9126  162.0400 C   0  0  0  0  0  0  0  0  0  0  0  0
  153.1660  141.8348  161.1528 C   0  0  0  0  0  0  0  0  0  0  0  0
  152.5640  141.8541  159.8799 C   0  0  0  0  0  0  0  0  0  0  0  0
  151.7654  142.9430  159.4739 C   0  0  0  0  0  0  0  0  0  0  0  0
  151.2111  142.8774  158.2134 O   0  0  0  0  0  0  0  0  0  0  0  0
  150.9324  141.5953  157.6691 C   0  0  0  0  0  0  0  0  0  0  0  0
  151.3685  141.5799  156.1993 C   0  0  0  0  0  0  0  0  0  0  0  0
  150.5962  140.6210  155.4245 N   0  0  0  0  0  0  0  0  0  0  0  0
  150.9560  139.3777  155.0141 C   0  0  0  0  0  0  0  0  0  0  0  0
  152.2912  138.7702  155.3345 C   0  0  0  0  0  0  0  0  0  0  0  0
  152.5465  138.6247  156.8433 C   0  0  0  0  0  0  0  0  0  0  0  0
  153.9022  138.3249  157.1001 O   0  0  0  0  0  0  0  0  0  0  0  0
  150.0405  138.7155  154.3050 N   0  0  0  0  0  0  0  0  0  0  0  0
  148.9925  139.6129  154.2450 C   0  0  0  0  0  0  0  0  0  0  0  0
  147.7258  139.5058  153.6271 C   0  0  0  0  0  0  0  0  0  0  0  0
  146.8053  140.5720  153.6968 C   0  0  0  0  0  0  0  0  0  0  0  0
  147.1374  141.7578  154.3834 C   0  0  0  0  0  0  0  0  0  0  0  0
  148.3938  141.8848  155.0065 C   0  0  0  0  0  0  0  0  0  0  0  0
  149.3087  140.8170  154.9349 C   0  0  0  0  0  0  0  0  0  0  0  0
  151.5808  144.0251  160.3714 C   0  0  0  0  0  0  0  0  0  0  0  0
  152.1824  144.0065  161.6447 C   0  0  0  0  0  0  0  0  0  0  0  0
  154.3721  142.1167  163.4904 H   0  0  0  0  0  0  0  0  0  0  0  0
  152.8603  142.7215  164.1778 H   0  0  0  0  0  0  0  0  0  0  0  0
  154.0967  143.8556  163.6196 H   0  0  0  0  0  0  0  0  0  0  0  0
  153.7715  140.9890  161.4440 H   0  0  0  0  0  0  0  0  0  0  0  0
  152.7151  141.0222  159.2077 H   0  0  0  0  0  0  0  0  0  0  0  0
  151.4758  140.8255  158.2196 H   0  0  0  0  0  0  0  0  0  0  0  0
  149.8655  141.3789  157.7433 H   0  0  0  0  0  0  0  0  0  0  0  0
  151.2734  142.5711  155.7575 H   0  0  0  0  0  0  0  0  0  0  0  0
  152.4237  141.3157  156.1261 H   0  0  0  0  0  0  0  0  0  0  0  0
  152.3168  137.7795  154.8794 H   0  0  0  0  0  0  0  0  0  0  0  0
  153.0965  139.3282  154.8574 H   0  0  0  0  0  0  0  0  0  0  0  0
  152.2559  139.5283  157.3803 H   0  0  0  0  0  0  0  0  0  0  0  0
  151.9445  137.8074  157.2410 H   0  0  0  0  0  0  0  0  0  0  0  0
  154.0179  137.3881  157.0538 H   0  0  0  0  0  0  0  0  0  0  0  0
  147.4625  138.6022  153.0974 H   0  0  0  0  0  0  0  0  0  0  0  0
  145.8401  140.4798  153.2207 H   0  0  0  0  0  0  0  0  0  0  0  0
  146.4267  142.5701  154.4313 H   0  0  0  0  0  0  0  0  0  0  0  0
  148.6514  142.7923  155.5320 H   0  0  0  0  0  0  0  0  0  0  0  0
  150.9806  144.8824  160.1075 H   0  0  0  0  0  0  0  0  0  0  0  0
  152.0310  144.8365  162.3192 H   0  0  0  0  0  0  0  0  0  0  0  0
  1  2  1  0  0  0  0
  1 23  1  0  0  0  0
  1 24  1  0  0  0  0
  1 25  1  0  0  0  0
  2 22  1  0  0  0  0
  2  3  2  0  0  0  0
  3  4  1  0  0  0  0
  3 26  1  0  0  0  0
  4  5  2  0  0  0  0
  4 27  1  0  0  0  0
  5  6  1  0  0  0  0
  5 21  1  0  0  0  0
  6  7  1  0  0  0  0
  7  8  1  0  0  0  0
  7 28  1  0  0  0  0
  7 29  1  0  0  0  0
  8  9  1  0  0  0  0
  8 30  1  0  0  0  0
  8 31  1  0  0  0  0
  9 20  1  0  0  0  0
  9 10  1  0  0  0  0
 10 11  1  0  0  0  0
 10 14  2  0  0  0  0
 11 12  1  0  0  0  0
 11 32  1  0  0  0  0
 11 33  1  0  0  0  0
 12 13  1  0  0  0  0
 12 34  1  0  0  0  0
 12 35  1  0  0  0  0
 13 36  1  0  0  0  0
 14 15  1  0  0  0  0
 15 20  2  0  0  0  0
 15 16  1  0  0  0  0
 16 17  2  0  0  0  0
 16 37  1  0  0  0  0
 17 18  1  0  0  0  0
 17 38  1  0  0  0  0
 18 19  2  0  0  0  0
 18 39  1  0  0  0  0
 19 20  1  0  0  0  0
 19 40  1  0  0  0  0
 21 22  2  0  0  0  0
 21 41  1  0  0  0  0
 22 42  1  0  0  0  0
M  END
> <s_m_source_file>
AV-unprocessed.smi

> <i_m_source_file_index>
465

> <i_lp_mmshare_version>
43012

> <i_f3d_flags>
0

> <s_epik_input>
W0NIM11jMVtjSF1bY0hdYyhbY0hdW2NIXTEpT1tDSDJdW0NIMl1uKGMobjIpW0NIMl1bQ0gyXVtPSF0pYyhjMjMpW2NIXVtjSF1bY0hdW2NIXTM=

> <s_epik_cmdline>
J2VwaWtfcHl0aG9uJywgJy1waCcsICc3LjAnLCAnLXRuJywgJzgnLCAnLW1hJywgJzIwMCcsICctbWV0YWxfYmluZGluZycsICctaW1hZScsICc8aW5maWxlLm1hZT4nLCAnLW9tYWUnLCAnPG91dGZpbGUubWFlPic=

> <r_lp_tautomer_probability>
1

> <r_epik_Ionization_Penalty>
0.207749

> <r_epik_Ionization_Penalty_Charging>
0

> <r_epik_Ionization_Penalty_Neutral>
0.207749

> <r_epik_State_Penalty>
0.197758

> <r_epik_Charging_Adjusted_Penalty>
0.197758

> <i_epik_Tot_Q>
0

> <i_epik_Tot_abs_Q>
0

> <r_epik_Metal_State_Penalty>
0.000234715

> <b_epik_Metal_Only>
0

> <s_lp_Force_Field>
OPLS_2005

> <r_lp_Energy>
16.7212

> <b_lp_Chiralities_Consistent>
1

> <s_lp_Variant>
AV-unprocessed.smi:465-1

> <Gold.Version>
5.8.1

> <Gold.Id.Protein>
6NUR|6NUR_protein|mol2

> <Gold.PLP.Fitness>
51.3938

> <Gold.PLP.PLP>
-51.4682

> <Gold.PLP.part.hbond>
-1.0000

> <Gold.PLP.part.metal>
0.0000

> <Gold.PLP.part.buried>
-2.1158

> <Gold.PLP.part.nonpolar>
-47.0900

> <Gold.PLP.part.repulsive>
0.2802

> <Gold.PLP.ligand.clash>
0.0000

> <Gold.PLP.ligand.torsion>
1.1374

> <Gold.PLP.Chemscore.Hbond>
0.7200

> <Gold.PLP.Chemscore.CHOScore>
0.0000

> <Gold.PLP.Chemscore.Metal>
0.0000

> <Gold.Chemscore.Hbonds>
donor molecule, donor type, donor heavy atom, donor atom, acceptor molecule, acceptor atom, score
      P1  H  7997  8009       L1    13  0.72

> <Gold.PLP.Chemscore.Internal.Correction>
0.0404

> <Gold.Rescore>
     Score         DG    S(hbond)    S(metal)    S(lipo)     H(rot)  DE(clash)    DE(int)     intcor
     16.90     -18.53       0.68        0.00     142.05       2.28       0.49       1.14       ----

> <Gold.Chemscore.Fitness>
16.9005

> <Gold.Chemscore.DG>
-18.5252

> <Gold.Chemscore.ZeroCoef>
-5.4800

> <Gold.Chemscore.Hbond>
0.6790

> <Gold.Chemscore.Metal>
0.0000

> <Gold.Chemscore.Lipo>
142.0476

> <Gold.Chemscore.Internal_Hbond>
0.0000

> <Gold.Chemscore.DEClash>
0.4870

> <Gold.Chemscore.DEInternal>
1.1377

> <Gold.Chemscore.Rot>
2.2821

> <Gold.Chemscore.Internal.Correction>
   9.000000E+99

> <Gold.Chemscore.Hbonds>
donor molecule, donor type, donor heavy atom, donor atom, acceptor molecule, acceptor atom, score
      P1  H  7997  8009       L1    13  0.18

> <Gold.Chemscore.Hbond.Weighted>
-2.2678

> <Gold.Chemscore.Metal.Weighted>
-0.0000

> <Gold.Chemscore.Lipo.Weighted>
-16.6196

> <Gold.Chemscore.Internal_Hbond.Weighted>
0.0000

> <Gold.Chemscore.DEClash.Weighted>
0.4870

> <Gold.Chemscore.DEInternal.Weighted>
1.1377

> <Gold.Chemscore.Rot.Weighted>
5.8421

> <Gold.Chemscore.Internal.Correction.Weighted>
   9.000000E+99

> <Gold.Protein.RotatedTorsions>
[ 6907 6896 6895 6894 ] final -136.59 input  -60.11 | X-H torsion
[ 7974 7965 7964 7962 ] final   -5.96 input  175.53 | X-H torsion
[ 8008 7997 7996 7995 ] final  153.84 input   59.86 | X-H torsion
[ 10167 10162 10161 10158 ] final  -50.15 input  -65.29 | X-H torsion
[ 10718 10713 10712 10709 ] final  179.23 input   66.30 | X-H torsion
[ 10763 10752 10751 10750 ] final -108.10 input  -60.55 | X-H torsion
[ 11005 11000 10999 10996 ] final -152.77 input  -57.11 | X-H torsion

> <Gold.Protein.ActiveResidues>
 VAL166  LYS551  ARG553  GLY616  TRP617  ASP618  TYR619  PRO620  LYS621  CYS622 
 ASP623  PHE694  ASN695  SER759  ASP760  ASP761  ALA762  ILE779  LEU786  VAL792 
 PHE793  MET794  SER795  GLU796  ALA797  LYS798  CYS799  TRP800  GLU811  SER814 

> <Gold.Protein.RotatedAtoms>
  151.0119  133.5957  159.2681 H   0  0  0  0  0  0  0  0  0  0  0  0  # atno 6907 bound_to 6896
  151.3106  135.0792  159.9280 H   0  0  0  0  0  0  0  0  0  0  0  0  # atno 6908 bound_to 6896
  152.5301  133.9784  159.7849 H   0  0  0  0  0  0  0  0  0  0  0  0  # atno 6909 bound_to 6896
  146.2341  140.2099  142.8335 H   0  0  0  0  0  0  0  0  0  0  0  0  # atno 7974 bound_to 7965
  156.2561  140.1983  156.6553 H   0  0  0  0  0  0  0  0  0  0  0  0  # atno 8008 bound_to 7997
  154.6506  140.0572  156.9976 H   0  0  0  0  0  0  0  0  0  0  0  0  # atno 8009 bound_to 7997
  155.1424  140.3244  155.4452 H   0  0  0  0  0  0  0  0  0  0  0  0  # atno 8010 bound_to 7997
  140.6651  143.2669  151.4317 H   0  0  0  0  0  0  0  0  0  0  0  0  # atno 10167 bound_to 10162
  156.8788  130.9809  151.3064 H   0  0  0  0  0  0  0  0  0  0  0  0  # atno 10718 bound_to 10713
  154.8115  135.4650  154.0529 H   0  0  0  0  0  0  0  0  0  0  0  0  # atno 10763 bound_to 10752
  153.1956  135.6861  153.8303 H   0  0  0  0  0  0  0  0  0  0  0  0  # atno 10764 bound_to 10752
  153.7806  135.3257  155.3342 H   0  0  0  0  0  0  0  0  0  0  0  0  # atno 10765 bound_to 10752
  140.7153  134.3787  157.5192 H   0  0  0  0  0  0  0  0  0  0  0  0  # atno 11005 bound_to 11000
  144.9715  140.8373  143.5452 LP  0  0  0  0  0  0  0  0  0  0  0  0  # atno 17320 bound_to 7965
  145.2081  139.2218  143.5157 LP  0  0  0  0  0  0  0  0  0  0  0  0  # atno 17321 bound_to 7965
  139.5898  144.1525  152.2074 LP  0  0  0  0  0  0  0  0  0  0  0  0  # atno 17342 bound_to 10162
  140.0876  144.5648  150.7078 LP  0  0  0  0  0  0  0  0  0  0  0  0  # atno 17343 bound_to 10162
  157.6152  130.8613  149.9017 LP  0  0  0  0  0  0  0  0  0  0  0  0  # atno 17370 bound_to 10713
  156.0688  130.3688  150.0821 LP  0  0  0  0  0  0  0  0  0  0  0  0  # atno 17371 bound_to 10713
  139.8861  134.8918  156.2602 LP  0  0  0  0  0  0  0  0  0  0  0  0  # atno 17394 bound_to 11000
  141.0050  133.7129  156.1020 LP  0  0  0  0  0  0  0  0  0  0  0  0  # atno 17395 bound_to 11000

$$$$
