AV-unprocessed.smi:102|AV-procd|sdf|973|dock10
  -GOLD-   2262017523D 1   1.00000     0.00000
 Structure written by MMmdl.
 43 44  0  0  0  0  0  0  0  0  2 V2000
  142.5528  136.7910  155.9630 C   0  0  0  0  0  0  0  0  0  0  0  0
  143.4636  136.1067  156.9742 C   0  0  0  0  0  0  0  0  0  0  0  0
  143.0694  135.1576  157.6521 O   0  0  0  0  0  0  0  0  0  0  0  0
  144.6854  136.6586  157.0220 O   0  0  0  0  0  0  0  0  0  0  0  0
  145.7508  135.9673  157.6550 C   0  0  0  0  0  0  0  0  0  0  0  0
  147.0473  136.7887  157.5402 C   0  0  2  0  0  0  0  0  0  0  0  0
  147.3641  136.8813  156.1500 O   0  0  0  0  0  0  0  0  0  0  0  0
  148.5588  136.2144  155.8521 C   0  0  1  0  0  0  0  0  0  0  0  0
  149.6596  137.2262  155.6032 N   0  0  0  0  0  0  0  0  0  0  0  0
  149.4258  138.5886  155.7025 C   0  0  0  0  0  0  0  0  0  0  0  0
  150.4125  139.4850  155.4999 C   0  0  0  0  0  0  0  0  0  0  0  0
  150.1543  140.7998  155.6074 F   0  0  0  0  0  0  0  0  0  0  0  0
  151.7569  139.0182  155.1686 C   0  0  0  0  0  0  0  0  0  0  0  0
  152.6528  139.8408  154.9854 O   0  0  0  0  0  0  0  0  0  0  0  0
  151.9601  137.6722  155.0776 N   0  5  0  0  0  0  0  0  0  0  0  0
  150.9653  136.7606  155.2861 C   0  0  0  0  0  0  0  0  0  0  0  0
  151.1431  135.5447  155.2175 O   0  0  0  0  0  0  0  0  0  0  0  0
  148.9147  135.3540  157.0694 C   0  0  2  0  0  0  0  0  0  0  0  0
  148.3079  134.0728  156.9341 O   0  0  0  0  0  0  0  0  0  0  0  0
  148.5600  133.0958  157.8214 C   0  0  0  0  0  0  0  0  0  0  0  0
  147.7613  131.8313  157.5337 C   0  0  0  0  0  0  0  0  0  0  0  0
  149.3305  133.1612  158.7787 O   0  0  0  0  0  0  0  0  0  0  0  0
  148.2877  136.1575  158.1942 C   0  0  2  0  0  0  0  0  0  0  0  0
  148.0423  135.3536  159.3433 O   0  0  0  0  0  0  0  0  0  0  0  0
  147.7779  135.9279  160.5292 C   0  0  0  0  0  0  0  0  0  0  0  0
  147.6345  134.9061  161.6487 C   0  0  0  0  0  0  0  0  0  0  0  0
  147.6407  137.1332  160.7380 O   0  0  0  0  0  0  0  0  0  0  0  0
  143.0644  137.6218  155.4759 H   0  0  0  0  0  0  0  0  0  0  0  0
  141.6636  137.1792  156.4598 H   0  0  0  0  0  0  0  0  0  0  0  0
  142.2396  136.0816  155.1971 H   0  0  0  0  0  0  0  0  0  0  0  0
  145.5238  135.7526  158.6997 H   0  0  0  0  0  0  0  0  0  0  0  0
  145.8744  135.0085  157.1501 H   0  0  0  0  0  0  0  0  0  0  0  0
  146.8764  137.7927  157.9303 H   0  0  0  0  0  0  0  0  0  0  0  0
  148.4529  135.6609  154.9173 H   0  0  0  0  0  0  0  0  0  0  0  0
  148.4430  138.9585  155.9506 H   0  0  0  0  0  0  0  0  0  0  0  0
  149.9955  135.2758  157.1958 H   0  0  0  0  0  0  0  0  0  0  0  0
  147.4682  131.7882  156.4844 H   0  0  0  0  0  0  0  0  0  0  0  0
  146.8600  131.8086  158.1463 H   0  0  0  0  0  0  0  0  0  0  0  0
  148.3565  130.9468  157.7616 H   0  0  0  0  0  0  0  0  0  0  0  0
  148.9892  136.9557  158.4424 H   0  0  0  0  0  0  0  0  0  0  0  0
  148.3711  134.1101  161.5371 H   0  0  0  0  0  0  0  0  0  0  0  0
  146.6391  134.4630  161.6276 H   0  0  0  0  0  0  0  0  0  0  0  0
  147.7827  135.3794  162.6196 H   0  0  0  0  0  0  0  0  0  0  0  0
  1  2  1  0  0  0  0
  1 28  1  0  0  0  0
  1 29  1  0  0  0  0
  1 30  1  0  0  0  0
  2  3  2  0  0  0  0
  2  4  1  0  0  0  0
  4  5  1  0  0  0  0
  5  6  1  0  0  0  0
  5 31  1  0  0  0  0
  5 32  1  0  0  0  0
  6 23  1  0  0  0  0
  6  7  1  0  0  0  0
  6 33  1  0  0  0  0
  7  8  1  0  0  0  0
  8  9  1  0  0  0  0
  8 18  1  0  0  0  0
  8 34  1  0  0  0  0
  9 16  1  0  0  0  0
  9 10  1  0  0  0  0
 10 11  2  0  0  0  0
 10 35  1  0  0  0  0
 11 12  1  0  0  0  0
 11 13  1  0  0  0  0
 13 14  2  0  0  0  0
 13 15  1  0  0  0  0
 15 16  1  0  0  0  0
 16 17  2  0  0  0  0
 18 19  1  0  0  0  0
 18 23  1  0  0  0  0
 18 36  1  0  0  0  0
 19 20  1  0  0  0  0
 20 21  1  0  0  0  0
 20 22  2  0  0  0  0
 21 37  1  0  0  0  0
 21 38  1  0  0  0  0
 21 39  1  0  0  0  0
 23 24  1  0  0  0  0
 23 40  1  0  0  0  0
 24 25  1  0  0  0  0
 25 26  1  0  0  0  0
 25 27  2  0  0  0  0
 26 41  1  0  0  0  0
 26 42  1  0  0  0  0
 26 43  1  0  0  0  0
M  CHG  1  15  -1
M  END
> <s_m_source_file>
AV-unprocessed.smi

> <i_m_source_file_index>
102

> <i_lp_mmshare_version>
43012

> <i_f3d_flags>
0

> <s_epik_input>
W0NIM11DKD1PKU9bQ0gyXVtDQEBIXTFPW0NASF0oW0NAQEhdKE9DKD1PKVtDSDNdKVtDQEhdMU9DKD1PKVtDSDNdKW4yW2NIXWMoRiljKD1PKVtuSF1jMj1P

> <s_epik_cmdline>
J2VwaWtfcHl0aG9uJywgJy1waCcsICc3LjAnLCAnLXRuJywgJzgnLCAnLW1hJywgJzIwMCcsICctbWV0YWxfYmluZGluZycsICctaW1hZScsICc8aW5maWxlLm1hZT4nLCAnLW9tYWUnLCAnPG91dGZpbGUubWFlPic=

> <r_epik_Ionization_Penalty>
1.40304

> <r_epik_Ionization_Penalty_Charging>
1.43915e-08

> <r_epik_Ionization_Penalty_Neutral>
1.40304

> <r_epik_State_Penalty>
1.48536

> <r_epik_Charging_Adjusted_Penalty>
1.48536

> <i_epik_Tot_Q>
-1

> <i_epik_Tot_abs_Q>
1

> <r_epik_Metal_State_Penalty>
0.00663881

> <b_epik_Metal_Only>
0

> <s_epik_Chemistry_Notes>
This compound has an ester and may undergo hydrolysis at high or low pH. This compound contains an acetal/aminal-like group ( X-CH(R)-Y where X, Y are N, S, or O) that may be acid/base labile, releasing an aldehyde.

> <s_lp_Force_Field>
OPLS_2005

> <r_lp_Energy>
27.0853

> <b_lp_Chiralities_Consistent>
1

> <s_lp_Variant>
AV-unprocessed.smi:102-29

> <Gold.Version>
5.8.1

> <Gold.Id.Protein>
6NUR|6NUR_protein|mol2

> <Gold.PLP.Fitness>
39.8707

> <Gold.PLP.PLP>
-25.7489

> <Gold.PLP.part.hbond>
-7.0881

> <Gold.PLP.part.metal>
0.0000

> <Gold.PLP.part.buried>
-4.6145

> <Gold.PLP.part.nonpolar>
-14.7458

> <Gold.PLP.part.repulsive>
0.2768

> <Gold.PLP.ligand.clash>
0.0000

> <Gold.PLP.ligand.torsion>
0.4129

> <Gold.PLP.Chemscore.Hbond>
4.9493

> <Gold.PLP.Chemscore.CHOScore>
0.0000

> <Gold.PLP.Chemscore.Metal>
0.0000

> <Gold.Chemscore.Hbonds>
donor molecule, donor type, donor heavy atom, donor atom, acceptor molecule, acceptor atom, score
      P1  H  6896  6908       L1    22  1.00
      P1  H  6931  6943       L1    27  0.62
      P1  H  6934  6947       L1    27  0.96
      P1  H  7989  7998       L1    14  0.42
      P1  H  7997  8010       L1    14  0.93
      P1  H 10752 10763       L1    17  1.00

> <Gold.PLP.Chemscore.Internal.Correction>
0.1000

> <Gold.Rescore>
     Score         DG    S(hbond)    S(metal)    S(lipo)     H(rot)  DE(clash)    DE(int)     intcor
      9.82     -12.80       4.45        0.00      22.80       4.00       0.63       2.34       ----

> <Gold.Chemscore.Fitness>
9.8233

> <Gold.Chemscore.DG>
-12.7962

> <Gold.Chemscore.ZeroCoef>
-5.4800

> <Gold.Chemscore.Hbond>
4.4539

> <Gold.Chemscore.Metal>
0.0000

> <Gold.Chemscore.Lipo>
22.7988

> <Gold.Chemscore.Internal_Hbond>
0.0000

> <Gold.Chemscore.DEClash>
0.6281

> <Gold.Chemscore.DEInternal>
2.3447

> <Gold.Chemscore.Rot>
3.9951

> <Gold.Chemscore.Internal.Correction>
   9.000000E+99

> <Gold.Chemscore.Hbonds>
donor molecule, donor type, donor heavy atom, donor atom, acceptor molecule, acceptor atom, score
      P1  H  6896  6908       L1    22  0.97
      P1  H  6931  6943       L1    27  0.62
      P1  H  6934  6947       L1    27  0.91
      P1  H  7989  7998       L1    14  0.06
      P1  H  7997  8010       L1    14  0.88
      P1  H 10752 10763       L1    17  0.25

> <Gold.Chemscore.Hbond.Weighted>
-14.8761

> <Gold.Chemscore.Metal.Weighted>
-0.0000

> <Gold.Chemscore.Lipo.Weighted>
-2.6675

> <Gold.Chemscore.Internal_Hbond.Weighted>
0.0000

> <Gold.Chemscore.DEClash.Weighted>
0.6281

> <Gold.Chemscore.DEInternal.Weighted>
2.3447

> <Gold.Chemscore.Rot.Weighted>
10.2274

> <Gold.Chemscore.Internal.Correction.Weighted>
   9.000000E+99

> <Gold.Protein.RotatedTorsions>
[ 6907 6896 6895 6894 ] final  113.34 input  -60.11 | X-H torsion
[ 7974 7965 7964 7962 ] final -152.90 input  175.53 | X-H torsion
[ 8008 7997 7996 7995 ] final  112.08 input   59.86 | X-H torsion
[ 10167 10162 10161 10158 ] final  -22.48 input  -65.29 | X-H torsion
[ 10718 10713 10712 10709 ] final  108.26 input   66.30 | X-H torsion
[ 10763 10752 10751 10750 ] final   73.80 input  -60.55 | X-H torsion
[ 11005 11000 10999 10996 ] final   16.86 input  -57.11 | X-H torsion

> <Gold.Protein.ActiveResidues>
 VAL166  LYS551  ARG553  GLY616  TRP617  ASP618  TYR619  PRO620  LYS621  CYS622 
 ASP623  PHE694  ASN695  SER759  ASP760  ASP761  ALA762  ILE779  LEU786  VAL792 
 PHE793  MET794  SER795  GLU796  ALA797  LYS798  CYS799  TRP800  GLU811  SER814 

> <Gold.Protein.RotatedAtoms>
  152.4866  133.8389  159.7141 H   0  0  0  0  0  0  0  0  0  0  0  0  # atno 6907 bound_to 6896
  150.8958  133.7174  159.2899 H   0  0  0  0  0  0  0  0  0  0  0  0  # atno 6908 bound_to 6896
  151.4631  135.1044  159.9783 H   0  0  0  0  0  0  0  0  0  0  0  0  # atno 6909 bound_to 6896
  144.7769  140.4599  143.5867 H   0  0  0  0  0  0  0  0  0  0  0  0  # atno 7974 bound_to 7965
  156.2168  140.3006  155.9859 H   0  0  0  0  0  0  0  0  0  0  0  0  # atno 8008 bound_to 7997
  155.2584  140.0429  157.3011 H   0  0  0  0  0  0  0  0  0  0  0  0  # atno 8009 bound_to 7997
  154.5780  140.2367  155.8103 H   0  0  0  0  0  0  0  0  0  0  0  0  # atno 8010 bound_to 7997
  140.7286  143.4531  151.0487 H   0  0  0  0  0  0  0  0  0  0  0  0  # atno 10167 bound_to 10162
  157.6594  131.0890  150.6279 H   0  0  0  0  0  0  0  0  0  0  0  0  # atno 10718 bound_to 10713
  153.0545  135.5049  154.7948 H   0  0  0  0  0  0  0  0  0  0  0  0  # atno 10763 bound_to 10752
  154.6784  135.2964  154.9649 H   0  0  0  0  0  0  0  0  0  0  0  0  # atno 10764 bound_to 10752
  154.0443  135.6712  153.4846 H   0  0  0  0  0  0  0  0  0  0  0  0  # atno 10765 bound_to 10752
  140.4423  134.1309  155.7692 H   0  0  0  0  0  0  0  0  0  0  0  0  # atno 11005 bound_to 11000
  145.6160  139.1518  143.3049 LP  0  0  0  0  0  0  0  0  0  0  0  0  # atno 17320 bound_to 7965
  146.1954  140.6273  142.9126 LP  0  0  0  0  0  0  0  0  0  0  0  0  # atno 17321 bound_to 7965
  139.8209  143.7821  152.3177 LP  0  0  0  0  0  0  0  0  0  0  0  0  # atno 17342 bound_to 10162
  139.7903  144.7412  150.9964 LP  0  0  0  0  0  0  0  0  0  0  0  0  # atno 17343 bound_to 10162
  156.6583  130.4505  149.5696 LP  0  0  0  0  0  0  0  0  0  0  0  0  # atno 17370 bound_to 10713
  156.2086  130.6665  151.1245 LP  0  0  0  0  0  0  0  0  0  0  0  0  # atno 17371 bound_to 10713
  141.1700  133.8628  157.1600 LP  0  0  0  0  0  0  0  0  0  0  0  0  # atno 17394 bound_to 11000
  140.0061  135.0008  157.0296 LP  0  0  0  0  0  0  0  0  0  0  0  0  # atno 17395 bound_to 11000

$$$$
