AV-unprocessed.smi:1056|AV-procd|sdf|4634|dock2
  -GOLD-   22720 3133D 1   1.00000     0.00000
 Structure written by MMmdl.
 46 48  0  0  0  0  0  0  0  0  3 V2000
  152.6282  142.8827  160.8540 C   0  0  0  0  0  0  0  0  0  0  0  0
  152.2340  142.1948  159.5580 C   0  0  0  0  0  0  0  0  0  0  0  0
  151.2821  142.8230  158.7239 C   0  0  0  0  0  0  0  0  0  0  0  0
  150.9467  142.1731  157.5421 C   0  0  0  0  0  0  0  0  0  0  0  0
  150.0590  142.5288  156.5249 N   0  3  0  0  0  0  0  0  0  0  0  0
  150.0688  141.5714  155.5570 C   0  0  0  0  0  0  0  0  0  0  0  0
  150.9486  140.6066  155.9413 N   0  0  0  0  0  0  0  0  0  0  0  0
  151.3409  139.3667  155.2543 C   0  0  0  0  0  0  0  0  0  0  0  0
  150.1366  138.4783  154.8766 C   0  0  2  0  0  0  0  0  0  0  0  0
  150.5890  137.3357  154.1786 O   0  0  0  0  0  0  0  0  0  0  0  0
  149.1218  139.2051  153.9703 C   0  0  0  0  0  0  0  0  0  0  0  0
  148.0346  138.3158  153.4891 N   0  3  2  0  0  0  0  0  0  0  0  0
  147.0182  139.0097  152.6628 C   0  0  0  0  0  0  0  0  0  0  0  0
  146.0536  137.9868  152.0361 C   0  0  0  0  0  0  0  0  0  0  0  0
  145.6368  136.9446  152.9715 N   0  0  0  0  0  0  0  0  0  0  0  0
  146.2182  136.6811  154.1530 C   0  0  0  0  0  0  0  0  0  0  0  0
  145.8188  135.7785  154.8835 O   0  0  0  0  0  0  0  0  0  0  0  0
  147.4125  137.5413  154.5931 C   0  0  0  0  0  0  0  0  0  0  0  0
  151.5208  140.9396  157.1764 C   0  0  0  0  0  0  0  0  0  0  0  0
  152.4558  140.3041  157.9913 C   0  0  0  0  0  0  0  0  0  0  0  0
  152.8121  140.9504  159.1967 C   0  0  0  0  0  0  0  0  0  0  0  0
  153.8333  140.2830  160.1022 C   0  0  0  0  0  0  0  0  0  0  0  0
  152.1022  143.8296  160.9793 H   0  0  0  0  0  0  0  0  0  0  0  0
  153.6979  143.0935  160.8658 H   0  0  0  0  0  0  0  0  0  0  0  0
  152.3886  142.2531  161.7110 H   0  0  0  0  0  0  0  0  0  0  0  0
  150.8365  143.7696  158.9933 H   0  0  0  0  0  0  0  0  0  0  0  0
  149.4857  141.5801  154.6473 H   0  0  0  0  0  0  0  0  0  0  0  0
  151.8834  139.6623  154.3555 H   0  0  0  0  0  0  0  0  0  0  0  0
  152.0554  138.8222  155.8719 H   0  0  0  0  0  0  0  0  0  0  0  0
  149.6491  138.1224  155.7839 H   0  0  0  0  0  0  0  0  0  0  0  0
  149.9043  137.0474  153.5939 H   0  0  0  0  0  0  0  0  0  0  0  0
  148.6889  140.0319  154.5359 H   0  0  0  0  0  0  0  0  0  0  0  0
  149.6224  139.6552  153.1111 H   0  0  0  0  0  0  0  0  0  0  0  0
  146.4653  139.7102  153.2907 H   0  0  0  0  0  0  0  0  0  0  0  0
  147.4845  139.5959  151.8718 H   0  0  0  0  0  0  0  0  0  0  0  0
  145.1717  138.4901  151.6392 H   0  0  0  0  0  0  0  0  0  0  0  0
  146.5397  137.4949  151.1929 H   0  0  0  0  0  0  0  0  0  0  0  0
  144.8483  136.3746  152.6982 H   0  0  0  0  0  0  0  0  0  0  0  0
  148.1637  136.8942  155.0480 H   0  0  0  0  0  0  0  0  0  0  0  0
  147.0673  138.2274  155.3680 H   0  0  0  0  0  0  0  0  0  0  0  0
  152.8960  139.3552  157.7229 H   0  0  0  0  0  0  0  0  0  0  0  0
  154.1678  139.3290  159.6933 H   0  0  0  0  0  0  0  0  0  0  0  0
  153.4060  140.0911  161.0868 H   0  0  0  0  0  0  0  0  0  0  0  0
  154.7104  140.9191  160.2230 H   0  0  0  0  0  0  0  0  0  0  0  0
  148.4708  137.6303  152.8894 H   0  0  0  0  0  0  0  0  0  0  0  0
  149.4906  143.3657  156.4903 H   0  0  0  0  0  0  0  0  0  0  0  0
  1  2  1  0  0  0  0
  1 23  1  0  0  0  0
  1 24  1  0  0  0  0
  1 25  1  0  0  0  0
  2 21  1  0  0  0  0
  2  3  2  0  0  0  0
  3  4  1  0  0  0  0
  3 26  1  0  0  0  0
  4 19  2  0  0  0  0
  4  5  1  0  0  0  0
  5  6  2  0  0  0  0
  5 46  1  0  0  0  0
  6  7  1  0  0  0  0
  6 27  1  0  0  0  0
  7  8  1  0  0  0  0
  7 19  1  0  0  0  0
  8  9  1  0  0  0  0
  8 28  1  0  0  0  0
  8 29  1  0  0  0  0
  9 10  1  0  0  0  0
  9 11  1  0  0  0  0
  9 30  1  0  0  0  0
 10 31  1  0  0  0  0
 11 12  1  0  0  0  0
 11 32  1  0  0  0  0
 11 33  1  0  0  0  0
 12 18  1  0  0  0  0
 12 13  1  0  0  0  0
 12 45  1  0  0  0  0
 13 14  1  0  0  0  0
 13 34  1  0  0  0  0
 13 35  1  0  0  0  0
 14 15  1  0  0  0  0
 14 36  1  0  0  0  0
 14 37  1  0  0  0  0
 15 16  1  0  0  0  0
 15 38  1  0  0  0  0
 16 17  2  0  0  0  0
 16 18  1  0  0  0  0
 18 39  1  0  0  0  0
 18 40  1  0  0  0  0
 19 20  1  0  0  0  0
 20 21  2  0  0  0  0
 20 41  1  0  0  0  0
 21 22  1  0  0  0  0
 22 42  1  0  0  0  0
 22 43  1  0  0  0  0
 22 44  1  0  0  0  0
M  CHG  1   5   1
M  CHG  1  12   1
M  END
> <s_m_source_file>
AV-unprocessed.smi

> <i_m_source_file_index>
1056

> <i_lp_mmshare_version>
43012

> <i_f3d_flags>
0

> <s_epik_input>
W0NIM11jKFtjSF0xKWMoW0NIM10pW2NIXWMoYzEyKW4oW2NIXW4yKVtDSDJdW0NASF0oW09IXSlbQ0gyXU4zW0NIMl1bQ0gyXVtOSF1DKD1PKVtDSDJdMw==

> <s_epik_cmdline>
J2VwaWtfcHl0aG9uJywgJy1waCcsICc3LjAnLCAnLXRuJywgJzgnLCAnLW1hJywgJzIwMCcsICctbWV0YWxfYmluZGluZycsICctaW1hZScsICc8aW5maWxlLm1hZT4nLCAnLW9tYWUnLCAnPG91dGZpbGUubWFlPic=

> <r_epik_Ionization_Penalty>
1.262

> <r_epik_Ionization_Penalty_Charging>
1.26188

> <r_epik_Ionization_Penalty_Neutral>
0.000125436

> <r_epik_State_Penalty>
1.3387

> <r_epik_Charging_Adjusted_Penalty>
2.60058

> <i_epik_Tot_Q>
2

> <i_epik_Tot_abs_Q>
2

> <r_epik_Metal_State_Penalty>
1.58938

> <b_epik_Metal_Only>
0

> <s_lp_Force_Field>
OPLS_2005

> <r_lp_Energy>
36.1571

> <b_lp_Chiralities_Consistent>
1

> <s_lp_Variant>
AV-unprocessed.smi:1056-5

> <Gold.Version>
5.8.1

> <Gold.Id.Protein>
6NUR|6NUR_protein|mol2

> <Gold.PLP.Fitness>
56.0922

> <Gold.PLP.PLP>
-41.6235

> <Gold.PLP.part.hbond>
-4.7950

> <Gold.PLP.part.metal>
0.0000

> <Gold.PLP.part.buried>
1.1023

> <Gold.PLP.part.nonpolar>
-37.8097

> <Gold.PLP.part.repulsive>
0.1492

> <Gold.PLP.ligand.clash>
0.0000

> <Gold.PLP.ligand.torsion>
0.0928

> <Gold.PLP.Chemscore.Hbond>
4.8613

> <Gold.PLP.Chemscore.CHOScore>
0.0000

> <Gold.PLP.Chemscore.Metal>
0.0000

> <Gold.Chemscore.Hbonds>
donor molecule, donor type, donor heavy atom, donor atom, acceptor molecule, acceptor atom, score
      L1  H     5    46       P1  8028  2.00
      L1  H    10    31       P1  7948  0.83
      L1  H    12    45       P1  7948  2.00

> <Gold.PLP.Chemscore.Internal.Correction>
0.0705

> <Gold.Rescore>
     Score         DG    S(hbond)    S(metal)    S(lipo)     H(rot)  DE(clash)    DE(int)     intcor
     17.77     -19.48       2.43        0.00     103.57       2.44       0.56       1.14       ----

> <Gold.Chemscore.Fitness>
17.7702

> <Gold.Chemscore.DG>
-19.4781

> <Gold.Chemscore.ZeroCoef>
-5.4800

> <Gold.Chemscore.Hbond>
2.4300

> <Gold.Chemscore.Metal>
0.0000

> <Gold.Chemscore.Lipo>
103.5677

> <Gold.Chemscore.Internal_Hbond>
0.0000

> <Gold.Chemscore.DEClash>
0.5635

> <Gold.Chemscore.DEInternal>
1.1444

> <Gold.Chemscore.Rot>
2.4357

> <Gold.Chemscore.Internal.Correction>
   9.000000E+99

> <Gold.Chemscore.Hbonds>
donor molecule, donor type, donor heavy atom, donor atom, acceptor molecule, acceptor atom, score
      L1  H     5    46       P1  8028  0.96
      L1  H    10    31       P1  7948  0.37
      L1  H    12    45       P1  7948  1.00

> <Gold.Chemscore.Hbond.Weighted>
-8.1161

> <Gold.Chemscore.Metal.Weighted>
-0.0000

> <Gold.Chemscore.Lipo.Weighted>
-12.1174

> <Gold.Chemscore.Internal_Hbond.Weighted>
0.0000

> <Gold.Chemscore.DEClash.Weighted>
0.5635

> <Gold.Chemscore.DEInternal.Weighted>
1.1444

> <Gold.Chemscore.Rot.Weighted>
6.2353

> <Gold.Chemscore.Internal.Correction.Weighted>
   9.000000E+99

> <Gold.Protein.RotatedTorsions>
[ 6907 6896 6895 6894 ] final -151.92 input  -60.11 | X-H torsion
[ 7974 7965 7964 7962 ] final   14.14 input  175.53 | X-H torsion
[ 8008 7997 7996 7995 ] final   77.32 input   59.86 | X-H torsion
[ 10167 10162 10161 10158 ] final  115.89 input  -65.29 | X-H torsion
[ 10718 10713 10712 10709 ] final   74.36 input   66.30 | X-H torsion
[ 10763 10752 10751 10750 ] final  -79.48 input  -60.55 | X-H torsion
[ 11005 11000 10999 10996 ] final   64.20 input  -57.11 | X-H torsion

> <Gold.Protein.ActiveResidues>
 VAL166  LYS551  ARG553  GLY616  TRP617  ASP618  TYR619  PRO620  LYS621  CYS622 
 ASP623  PHE694  ASN695  SER759  ASP760  ASP761  ALA762  ILE779  LEU786  VAL792 
 PHE793  MET794  SER795  GLU796  ALA797  LYS798  CYS799  TRP800  GLU811  SER814 

> <Gold.Protein.RotatedAtoms>
  151.2201  133.4507  159.2600 H   0  0  0  0  0  0  0  0  0  0  0  0  # atno 6907 bound_to 6896
  151.0893  134.9906  159.8405 H   0  0  0  0  0  0  0  0  0  0  0  0  # atno 6908 bound_to 6896
  152.5433  134.2136  159.8812 H   0  0  0  0  0  0  0  0  0  0  0  0  # atno 6909 bound_to 6896
  146.2312  139.9086  142.8528 H   0  0  0  0  0  0  0  0  0  0  0  0  # atno 7974 bound_to 7965
  155.8399  140.3462  155.5625 H   0  0  0  0  0  0  0  0  0  0  0  0  # atno 8008 bound_to 7997
  155.8152  140.0904  157.1901 H   0  0  0  0  0  0  0  0  0  0  0  0  # atno 8009 bound_to 7997
  154.4005  140.1440  156.3421 H   0  0  0  0  0  0  0  0  0  0  0  0  # atno 8010 bound_to 7997
  139.6285  144.7112  151.2482 H   0  0  0  0  0  0  0  0  0  0  0  0  # atno 10167 bound_to 10162
  157.6589  130.9674  150.1200 H   0  0  0  0  0  0  0  0  0  0  0  0  # atno 10718 bound_to 10713
  154.5392  135.5694  153.6824 H   0  0  0  0  0  0  0  0  0  0  0  0  # atno 10763 bound_to 10752
  152.9959  135.6223  154.2525 H   0  0  0  0  0  0  0  0  0  0  0  0  # atno 10764 bound_to 10752
  154.2455  135.2861  155.2817 H   0  0  0  0  0  0  0  0  0  0  0  0  # atno 10765 bound_to 10752
  139.9974  134.6495  155.9987 H   0  0  0  0  0  0  0  0  0  0  0  0  # atno 11005 bound_to 11000
  145.2252  140.9951  143.4022 LP  0  0  0  0  0  0  0  0  0  0  0  0  # atno 17320 bound_to 7965
  144.9576  139.4014  143.6371 LP  0  0  0  0  0  0  0  0  0  0  0  0  # atno 17321 bound_to 7965
  140.7425  143.6523  150.8237 LP  0  0  0  0  0  0  0  0  0  0  0  0  # atno 17342 bound_to 10162
  140.0145  143.5608  152.2826 LP  0  0  0  0  0  0  0  0  0  0  0  0  # atno 17343 bound_to 10162
  156.2074  130.3664  149.8712 LP  0  0  0  0  0  0  0  0  0  0  0  0  # atno 17370 bound_to 10713
  156.6600  130.8778  151.3546 LP  0  0  0  0  0  0  0  0  0  0  0  0  # atno 17371 bound_to 10713
  141.1615  133.6538  156.4336 LP  0  0  0  0  0  0  0  0  0  0  0  0  # atno 17394 bound_to 11000
  140.4792  134.6681  157.5163 LP  0  0  0  0  0  0  0  0  0  0  0  0  # atno 17395 bound_to 11000

$$$$
