AV-unprocessed.smi:3264|AV-procd|sdf|12494|dock3
  -GOLD-   2272018393D 1   1.00000     0.00000
 Structure written by MMmdl.
 32 33  0  0  0  0  0  0  0  0  1 V2000
  153.9150  141.3700  161.1779 C   0  0  0  0  0  0  0  0  0  0  0  0
  152.9218  142.3814  160.7183 C   0  0  0  0  0  0  0  0  0  0  0  0
  152.3211  142.3354  159.5265 N   0  0  0  0  0  0  0  0  0  0  0  0
  151.4284  143.3945  159.3324 C   0  0  0  0  0  0  0  0  0  0  0  0
  150.6603  143.5006  158.0500 C   0  0  0  0  0  0  0  0  0  0  0  0
  150.9830  142.3491  157.0832 C   0  0  0  0  0  0  0  0  0  0  0  0
  149.8129  141.9520  156.3087 N   0  0  0  0  0  0  0  0  0  0  0  0
  149.8048  141.0176  155.3458 C   0  0  0  0  0  0  0  0  0  0  0  0
  150.8083  140.3896  155.0061 O   0  0  0  0  0  0  0  0  0  0  0  0
  148.4589  140.7650  154.6569 C   0  0  2  0  0  0  0  0  0  0  0  0
  147.8425  142.0131  153.9960 C   0  0  0  0  0  0  0  0  0  0  0  0
  146.6030  142.2883  154.8259 C   0  0  0  0  0  0  0  0  0  0  0  0
  146.2527  140.9001  155.3417 C   0  0  0  0  0  0  0  0  0  0  0  0
  147.5229  140.3488  155.6486 O   0  0  0  0  0  0  0  0  0  0  0  0
  151.3603  144.2483  160.4050 C   0  0  0  0  0  0  0  0  0  0  0  0
  152.4172  143.7525  161.6983 S   0  0  0  0  0  0  0  0  0  0  0  0
  154.4626  140.9604  160.3284 H   0  0  0  0  0  0  0  0  0  0  0  0
  153.4053  140.5563  161.6934 H   0  0  0  0  0  0  0  0  0  0  0  0
  154.6279  141.8279  161.8637 H   0  0  0  0  0  0  0  0  0  0  0  0
  149.5906  143.5130  158.2626 H   0  0  0  0  0  0  0  0  0  0  0  0
  150.8783  144.4533  157.5659 H   0  0  0  0  0  0  0  0  0  0  0  0
  151.7595  142.6584  156.3829 H   0  0  0  0  0  0  0  0  0  0  0  0
  151.3808  141.4915  157.6285 H   0  0  0  0  0  0  0  0  0  0  0  0
  148.9453  142.4253  156.5163 H   0  0  0  0  0  0  0  0  0  0  0  0
  148.5600  139.9727  153.9132 H   0  0  0  0  0  0  0  0  0  0  0  0
  148.5080  142.8766  153.9609 H   0  0  0  0  0  0  0  0  0  0  0  0
  147.5595  141.7813  152.9685 H   0  0  0  0  0  0  0  0  0  0  0  0
  146.8499  142.9445  155.6616 H   0  0  0  0  0  0  0  0  0  0  0  0
  145.7969  142.7482  154.2537 H   0  0  0  0  0  0  0  0  0  0  0  0
  145.6022  140.9245  156.2161 H   0  0  0  0  0  0  0  0  0  0  0  0
  145.7709  140.3037  154.5654 H   0  0  0  0  0  0  0  0  0  0  0  0
  150.7527  145.1346  160.5132 H   0  0  0  0  0  0  0  0  0  0  0  0
  1  2  1  0  0  0  0
  1 17  1  0  0  0  0
  1 18  1  0  0  0  0
  1 19  1  0  0  0  0
  2 16  1  0  0  0  0
  2  3  2  0  0  0  0
  3  4  1  0  0  0  0
  4  5  1  0  0  0  0
  4 15  2  0  0  0  0
  5  6  1  0  0  0  0
  5 20  1  0  0  0  0
  5 21  1  0  0  0  0
  6  7  1  0  0  0  0
  6 22  1  0  0  0  0
  6 23  1  0  0  0  0
  7  8  1  0  0  0  0
  7 24  1  0  0  0  0
  8  9  2  0  0  0  0
  8 10  1  0  0  0  0
 10 14  1  0  0  0  0
 10 11  1  0  0  0  0
 10 25  1  0  0  0  0
 11 12  1  0  0  0  0
 11 26  1  0  0  0  0
 11 27  1  0  0  0  0
 12 13  1  0  0  0  0
 12 28  1  0  0  0  0
 12 29  1  0  0  0  0
 13 14  1  0  0  0  0
 13 30  1  0  0  0  0
 13 31  1  0  0  0  0
 15 16  1  0  0  0  0
 15 32  1  0  0  0  0
M  END
> <s_m_source_file>
AV-unprocessed.smi

> <i_m_source_file_index>
3264

> <i_lp_mmshare_version>
43012

> <i_f3d_flags>
0

> <s_epik_input>
W0NIM11jMW5jKFtjSF1zMSlbQ0gyXVtDSDJdW05IXUMoPU8pW0NAQEhdMltDSDJdW0NIMl1bQ0gyXU8y

> <s_epik_cmdline>
J2VwaWtfcHl0aG9uJywgJy1waCcsICc3LjAnLCAnLXRuJywgJzgnLCAnLW1hJywgJzIwMCcsICctbWV0YWxfYmluZGluZycsICctaW1hZScsICc8aW5maWxlLm1hZT4nLCAnLW9tYWUnLCAnPG91dGZpbGUubWFlPic=

> <r_epik_Ionization_Penalty>
0.00112246

> <r_epik_Ionization_Penalty_Charging>
0

> <r_epik_Ionization_Penalty_Neutral>
0.00112246

> <r_epik_State_Penalty>
0.000737392

> <r_epik_Charging_Adjusted_Penalty>
0.000737392

> <i_epik_Tot_Q>
0

> <i_epik_Tot_abs_Q>
0

> <r_epik_Metal_State_Penalty>
-0

> <b_epik_Metal_Only>
0

> <s_lp_Force_Field>
OPLS_2005

> <r_lp_Energy>
12.7546

> <b_lp_Chiralities_Consistent>
1

> <s_lp_Variant>
AV-unprocessed.smi:3264-1

> <Gold.Version>
5.8.1

> <Gold.Id.Protein>
6NUR|6NUR_protein|mol2

> <Gold.PLP.Fitness>
38.5714

> <Gold.PLP.PLP>
-35.8629

> <Gold.PLP.part.hbond>
-2.0000

> <Gold.PLP.part.metal>
0.0000

> <Gold.PLP.part.buried>
-3.4855

> <Gold.PLP.part.nonpolar>
-29.7373

> <Gold.PLP.part.repulsive>
0.1625

> <Gold.PLP.ligand.clash>
0.0000

> <Gold.PLP.ligand.torsion>
0.2424

> <Gold.PLP.Chemscore.Hbond>
1.0601

> <Gold.PLP.Chemscore.CHOScore>
0.0000

> <Gold.PLP.Chemscore.Metal>
0.0000

> <Gold.Chemscore.Hbonds>
donor molecule, donor type, donor heavy atom, donor atom, acceptor molecule, acceptor atom, score
      P1  H  7989  7998       L1     9  1.00

> <Gold.PLP.Chemscore.Internal.Correction>
0.0131

> <Gold.Rescore>
     Score         DG    S(hbond)    S(metal)    S(lipo)     H(rot)  DE(clash)    DE(int)     intcor
     15.30     -15.60       0.98        0.00      91.75       1.52       0.02       0.27       ----

> <Gold.Chemscore.Fitness>
15.3029

> <Gold.Chemscore.DG>
-15.5951

> <Gold.Chemscore.ZeroCoef>
-5.4800

> <Gold.Chemscore.Hbond>
0.9764

> <Gold.Chemscore.Metal>
0.0000

> <Gold.Chemscore.Lipo>
91.7493

> <Gold.Chemscore.Internal_Hbond>
0.0000

> <Gold.Chemscore.DEClash>
0.0174

> <Gold.Chemscore.DEInternal>
0.2749

> <Gold.Chemscore.Rot>
1.5159

> <Gold.Chemscore.Internal.Correction>
   9.000000E+99

> <Gold.Chemscore.Hbonds>
donor molecule, donor type, donor heavy atom, donor atom, acceptor molecule, acceptor atom, score
      L1  H     7    24       P1  8028  0.01
      P1  H  7989  7998       L1     9  0.94

> <Gold.Chemscore.Hbond.Weighted>
-3.2611

> <Gold.Chemscore.Metal.Weighted>
-0.0000

> <Gold.Chemscore.Lipo.Weighted>
-10.7347

> <Gold.Chemscore.Internal_Hbond.Weighted>
0.0000

> <Gold.Chemscore.DEClash.Weighted>
0.0174

> <Gold.Chemscore.DEInternal.Weighted>
0.2749

> <Gold.Chemscore.Rot.Weighted>
3.8807

> <Gold.Chemscore.Internal.Correction.Weighted>
   9.000000E+99

> <Gold.Protein.RotatedTorsions>
[ 6907 6896 6895 6894 ] final  -66.97 input  -60.11 | X-H torsion
[ 7974 7965 7964 7962 ] final   11.97 input  175.53 | X-H torsion
[ 8008 7997 7996 7995 ] final   45.82 input   59.86 | X-H torsion
[ 10167 10162 10161 10158 ] final -125.92 input  -65.29 | X-H torsion
[ 10718 10713 10712 10709 ] final  103.51 input   66.30 | X-H torsion
[ 10763 10752 10751 10750 ] final    7.46 input  -60.55 | X-H torsion
[ 11005 11000 10999 10996 ] final -151.51 input  -57.11 | X-H torsion

> <Gold.Protein.ActiveResidues>
 VAL166  LYS551  ARG553  GLY616  TRP617  ASP618  TYR619  PRO620  LYS621  CYS622 
 ASP623  PHE694  ASN695  SER759  ASP760  ASP761  ALA762  ILE779  LEU786  VAL792 
 PHE793  MET794  SER795  GLU796  ALA797  LYS798  CYS799  TRP800  GLU811  SER814 

> <Gold.Protein.RotatedAtoms>
  150.7435  134.5947  159.6005 H   0  0  0  0  0  0  0  0  0  0  0  0  # atno 6907 bound_to 6896
  152.3325  134.7238  160.0295 H   0  0  0  0  0  0  0  0  0  0  0  0  # atno 6908 bound_to 6896
  151.7717  133.3306  159.3483 H   0  0  0  0  0  0  0  0  0  0  0  0  # atno 6909 bound_to 6896
  146.2361  139.9406  142.8484 H   0  0  0  0  0  0  0  0  0  0  0  0  # atno 7974 bound_to 7965
  155.3421  140.3408  155.4239 H   0  0  0  0  0  0  0  0  0  0  0  0  # atno 8008 bound_to 7997
  156.1807  140.1663  156.8314 H   0  0  0  0  0  0  0  0  0  0  0  0  # atno 8009 bound_to 7997
  154.5331  140.0741  156.8363 H   0  0  0  0  0  0  0  0  0  0  0  0  # atno 8010 bound_to 7997
  139.9769  143.5784  152.2392 H   0  0  0  0  0  0  0  0  0  0  0  0  # atno 10167 bound_to 10162
  157.6770  131.0781  150.5567 H   0  0  0  0  0  0  0  0  0  0  0  0  # atno 10718 bound_to 10713
  153.2360  135.6898  153.7836 H   0  0  0  0  0  0  0  0  0  0  0  0  # atno 10763 bound_to 10752
  153.6982  135.3301  155.3219 H   0  0  0  0  0  0  0  0  0  0  0  0  # atno 10764 bound_to 10752
  154.8335  135.4561  154.1264 H   0  0  0  0  0  0  0  0  0  0  0  0  # atno 10765 bound_to 10752
  140.7288  134.3645  157.5170 H   0  0  0  0  0  0  0  0  0  0  0  0  # atno 11005 bound_to 11000
  145.1956  140.9831  143.4185 LP  0  0  0  0  0  0  0  0  0  0  0  0  # atno 17320 bound_to 7965
  144.9818  139.3775  143.6258 LP  0  0  0  0  0  0  0  0  0  0  0  0  # atno 17321 bound_to 7965
  139.6438  144.7657  151.2284 LP  0  0  0  0  0  0  0  0  0  0  0  0  # atno 17342 bound_to 10162
  140.7502  143.6272  150.8457 LP  0  0  0  0  0  0  0  0  0  0  0  0  # atno 17343 bound_to 10162
  156.5870  130.4319  149.5952 LP  0  0  0  0  0  0  0  0  0  0  0  0  # atno 17370 bound_to 10713
  156.2614  130.6964  151.1734 LP  0  0  0  0  0  0  0  0  0  0  0  0  # atno 17371 bound_to 10713
  139.8831  134.9004  156.2788 LP  0  0  0  0  0  0  0  0  0  0  0  0  # atno 17394 bound_to 11000
  140.9939  133.7192  156.0856 LP  0  0  0  0  0  0  0  0  0  0  0  0  # atno 17395 bound_to 11000

$$$$
