AV-unprocessed.smi:1155|AV-procd|sdf|4904|dock5
  -GOLD-   22720 3483D 1   1.00000     0.00000
 Structure written by MMmdl.
 38 40  0  0  0  0  0  0  0  0  1 V2000
  150.7089  138.1518  154.5045 C   0  0  0  0  0  0  0  0  0  0  0  0
  149.5927  139.0889  154.3531 N   0  0  0  0  0  0  0  0  0  0  0  0
  148.3579  138.5741  153.9120 C   0  0  0  0  0  0  0  0  0  0  0  0
  147.2700  139.3569  153.7392 C   0  0  0  0  0  0  0  0  0  0  0  0
  146.0071  138.9128  153.3196 N   0  0  0  0  0  0  0  0  0  0  0  0
  145.5567  137.6538  153.1625 C   0  0  0  0  0  0  0  0  0  0  0  0
  146.2191  136.6284  153.3183 O   0  0  0  0  0  0  0  0  0  0  0  0
  144.2675  137.6532  152.7890 N   0  0  0  0  0  0  0  0  0  0  0  0
  143.4413  136.4831  152.4974 C   0  0  0  0  0  0  0  0  0  0  0  0
  142.6641  135.9602  153.6969 C   0  0  0  0  0  0  0  0  0  0  0  0
  141.2072  135.5803  153.5811 C   0  0  0  0  0  0  0  0  0  0  0  0
  141.6110  136.8034  154.3739 C   0  0  0  0  0  0  0  0  0  0  0  0
  144.1974  135.3577  151.8073 C   0  0  0  0  0  0  0  0  0  0  0  0
  145.3550  135.6472  150.8832 C   0  0  0  0  0  0  0  0  0  0  0  0
  144.0555  135.1124  150.3238 C   0  0  0  0  0  0  0  0  0  0  0  0
  147.4225  140.7644  154.0408 C   0  0  0  0  0  0  0  0  0  0  0  0
  148.5986  141.2638  154.4677 C   0  0  0  0  0  0  0  0  0  0  0  0
  149.7738  140.4086  154.6481 C   0  0  0  0  0  0  0  0  0  0  0  0
  150.8538  140.8505  155.0411 O   0  0  0  0  0  0  0  0  0  0  0  0
  150.4607  137.1411  154.1787 H   0  0  0  0  0  0  0  0  0  0  0  0
  151.0168  138.0923  155.5494 H   0  0  0  0  0  0  0  0  0  0  0  0
  151.5676  138.4770  153.9154 H   0  0  0  0  0  0  0  0  0  0  0  0
  148.3707  137.5090  153.7450 H   0  0  0  0  0  0  0  0  0  0  0  0
  145.3521  139.6497  153.1033 H   0  0  0  0  0  0  0  0  0  0  0  0
  143.8148  138.5496  152.6865 H   0  0  0  0  0  0  0  0  0  0  0  0
  142.7024  136.8475  151.7823 H   0  0  0  0  0  0  0  0  0  0  0  0
  143.2534  135.3256  154.3562 H   0  0  0  0  0  0  0  0  0  0  0  0
  140.7105  135.7447  152.6271 H   0  0  0  0  0  0  0  0  0  0  0  0
  140.8715  134.7074  154.1373 H   0  0  0  0  0  0  0  0  0  0  0  0
  141.5439  136.7459  155.4584 H   0  0  0  0  0  0  0  0  0  0  0  0
  141.3860  137.7770  153.9434 H   0  0  0  0  0  0  0  0  0  0  0  0
  144.2985  134.4620  152.4175 H   0  0  0  0  0  0  0  0  0  0  0  0
  145.5968  136.6895  150.6846 H   0  0  0  0  0  0  0  0  0  0  0  0
  146.2054  134.9695  150.9195 H   0  0  0  0  0  0  0  0  0  0  0  0
  144.0409  134.0785  149.9850 H   0  0  0  0  0  0  0  0  0  0  0  0
  143.4390  135.8005  149.7488 H   0  0  0  0  0  0  0  0  0  0  0  0
  146.5813  141.4312  153.9196 H   0  0  0  0  0  0  0  0  0  0  0  0
  148.6792  142.3193  154.6818 H   0  0  0  0  0  0  0  0  0  0  0  0
  1  2  1  0  0  0  0
  1 20  1  0  0  0  0
  1 21  1  0  0  0  0
  1 22  1  0  0  0  0
  2 18  1  0  0  0  0
  2  3  1  0  0  0  0
  3  4  2  0  0  0  0
  3 23  1  0  0  0  0
  4  5  1  0  0  0  0
  4 16  1  0  0  0  0
  5  6  1  0  0  0  0
  5 24  1  0  0  0  0
  6  7  2  0  0  0  0
  6  8  1  0  0  0  0
  8  9  1  0  0  0  0
  8 25  1  0  0  0  0
  9 10  1  0  0  0  0
  9 13  1  0  0  0  0
  9 26  1  0  0  0  0
 10 12  1  0  0  0  0
 10 11  1  0  0  0  0
 10 27  1  0  0  0  0
 11 12  1  0  0  0  0
 11 28  1  0  0  0  0
 11 29  1  0  0  0  0
 12 30  1  0  0  0  0
 12 31  1  0  0  0  0
 13 15  1  0  0  0  0
 13 14  1  0  0  0  0
 13 32  1  0  0  0  0
 14 15  1  0  0  0  0
 14 33  1  0  0  0  0
 14 34  1  0  0  0  0
 15 35  1  0  0  0  0
 15 36  1  0  0  0  0
 16 17  2  0  0  0  0
 16 37  1  0  0  0  0
 17 18  1  0  0  0  0
 17 38  1  0  0  0  0
 18 19  2  0  0  0  0
M  END
> <s_m_source_file>
AV-unprocessed.smi

> <i_m_source_file_index>
1155

> <i_lp_mmshare_version>
43012

> <i_f3d_flags>
0

> <s_epik_input>
Tz1jMVtjSF1bY0hdYyhbY0hdbjFbQ0gzXSlbTkhdQyg9TylbTkhdW0NIXShbQ0hdMltDSDJdW0NIMl0yKVtDSF0zW0NIMl1bQ0gyXTM=

> <s_epik_cmdline>
J2VwaWtfcHl0aG9uJywgJy1waCcsICc3LjAnLCAnLXRuJywgJzgnLCAnLW1hJywgJzIwMCcsICctbWV0YWxfYmluZGluZycsICctaW1hZScsICc8aW5maWxlLm1hZT4nLCAnLW9tYWUnLCAnPG91dGZpbGUubWFlPic=

> <r_lp_tautomer_probability>
1

> <r_epik_Ionization_Penalty>
2.79104e-05

> <r_epik_Ionization_Penalty_Charging>
6.05378e-06

> <r_epik_Ionization_Penalty_Neutral>
2.18566e-05

> <r_epik_State_Penalty>
-0

> <r_epik_Charging_Adjusted_Penalty>
6.05378e-06

> <i_epik_Tot_Q>
0

> <i_epik_Tot_abs_Q>
0

> <r_epik_Metal_State_Penalty>
-0

> <b_epik_Metal_Only>
0

> <s_lp_Force_Field>
OPLS_2005

> <r_lp_Energy>
36.9075

> <b_lp_Chiralities_Consistent>
1

> <s_lp_Variant>
AV-unprocessed.smi:1155-1

> <Gold.Version>
5.8.1

> <Gold.Id.Protein>
6NUR|6NUR_protein|mol2

> <Gold.PLP.Fitness>
44.0047

> <Gold.PLP.PLP>
-34.4484

> <Gold.PLP.part.hbond>
-3.7815

> <Gold.PLP.part.metal>
0.0000

> <Gold.PLP.part.buried>
-3.6882

> <Gold.PLP.part.nonpolar>
-28.8692

> <Gold.PLP.part.repulsive>
0.4427

> <Gold.PLP.ligand.clash>
0.0000

> <Gold.PLP.ligand.torsion>
1.9065

> <Gold.PLP.Chemscore.Hbond>
2.7344

> <Gold.PLP.Chemscore.CHOScore>
1.0000

> <Gold.PLP.Chemscore.Metal>
0.0000

> <Gold.Chemscore.Hbonds>
donor molecule, donor type, donor heavy atom, donor atom, acceptor molecule, acceptor atom, score
      L1  H     5    24       P1 10175  1.00
      L1  H     8    25       P1 10175  1.00
      P1  H  7989  7998       L1    19  0.68
      L1  C     3    23       P1  7948  1.00

> <Gold.PLP.Chemscore.Internal.Correction>
2.1660

> <Gold.Rescore>
     Score         DG    S(hbond)    S(metal)    S(lipo)     H(rot)  DE(clash)    DE(int)     intcor
     11.37     -17.43       2.16        0.00      70.05       1.35       0.57       5.48       ----

> <Gold.Chemscore.Fitness>
11.3699

> <Gold.Chemscore.DG>
-17.4279

> <Gold.Chemscore.ZeroCoef>
-5.4800

> <Gold.Chemscore.Hbond>
2.1580

> <Gold.Chemscore.Metal>
0.0000

> <Gold.Chemscore.Lipo>
70.0537

> <Gold.Chemscore.Internal_Hbond>
0.0000

> <Gold.Chemscore.DEClash>
0.5730

> <Gold.Chemscore.DEInternal>
5.4850

> <Gold.Chemscore.Rot>
1.3500

> <Gold.Chemscore.Internal.Correction>
   9.000000E+99

> <Gold.Chemscore.Hbonds>
donor molecule, donor type, donor heavy atom, donor atom, acceptor molecule, acceptor atom, score
      L1  H     5    24       P1 10175  0.97
      L1  H     8    25       P1 10175  0.99
      P1  H  7989  7998       L1    19  0.12

> <Gold.Chemscore.Hbond.Weighted>
-7.2076

> <Gold.Chemscore.Metal.Weighted>
-0.0000

> <Gold.Chemscore.Lipo.Weighted>
-8.1963

> <Gold.Chemscore.Internal_Hbond.Weighted>
0.0000

> <Gold.Chemscore.DEClash.Weighted>
0.5730

> <Gold.Chemscore.DEInternal.Weighted>
5.4850

> <Gold.Chemscore.Rot.Weighted>
3.4560

> <Gold.Chemscore.Internal.Correction.Weighted>
   9.000000E+99

> <Gold.Protein.RotatedTorsions>
[ 6907 6896 6895 6894 ] final   36.46 input  -60.11 | X-H torsion
[ 7974 7965 7964 7962 ] final -141.28 input  175.53 | X-H torsion
[ 8008 7997 7996 7995 ] final   70.19 input   59.86 | X-H torsion
[ 10167 10162 10161 10158 ] final  -36.30 input  -65.29 | X-H torsion
[ 10718 10713 10712 10709 ] final  124.47 input   66.30 | X-H torsion
[ 10763 10752 10751 10750 ] final   35.55 input  -60.55 | X-H torsion
[ 11005 11000 10999 10996 ] final   28.63 input  -57.11 | X-H torsion

> <Gold.Protein.ActiveResidues>
 VAL166  LYS551  ARG553  GLY616  TRP617  ASP618  TYR619  PRO620  LYS621  CYS622 
 ASP623  PHE694  ASN695  SER759  ASP760  ASP761  ALA762  ILE779  LEU786  VAL792 
 PHE793  MET794  SER795  GLU796  ALA797  LYS798  CYS799  TRP800  GLU811  SER814 

> <Gold.Protein.RotatedAtoms>
  152.1300  134.9142  160.0558 H   0  0  0  0  0  0  0  0  0  0  0  0  # atno 6907 bound_to 6896
  152.0250  133.3909  159.4282 H   0  0  0  0  0  0  0  0  0  0  0  0  # atno 6908 bound_to 6896
  150.6855  134.3505  159.4951 H   0  0  0  0  0  0  0  0  0  0  0  0  # atno 6909 bound_to 6896
  144.8531  140.6099  143.5377 H   0  0  0  0  0  0  0  0  0  0  0  0  # atno 7974 bound_to 7965
  155.7350  140.3491  155.5077 H   0  0  0  0  0  0  0  0  0  0  0  0  # atno 8008 bound_to 7997
  155.9147  140.1056  157.1274 H   0  0  0  0  0  0  0  0  0  0  0  0  # atno 8009 bound_to 7997
  154.4061  140.1261  156.4589 H   0  0  0  0  0  0  0  0  0  0  0  0  # atno 8010 bound_to 7997
  140.7146  143.3418  151.2340 H   0  0  0  0  0  0  0  0  0  0  0  0  # atno 10167 bound_to 10162
  157.5583  131.1091  150.8584 H   0  0  0  0  0  0  0  0  0  0  0  0  # atno 10718 bound_to 10713
  153.0114  135.6330  154.1844 H   0  0  0  0  0  0  0  0  0  0  0  0  # atno 10763 bound_to 10752
  154.1586  135.2825  155.3117 H   0  0  0  0  0  0  0  0  0  0  0  0  # atno 10764 bound_to 10752
  154.5999  135.5591  153.7424 H   0  0  0  0  0  0  0  0  0  0  0  0  # atno 10765 bound_to 10752
  140.3136  134.2622  155.7730 H   0  0  0  0  0  0  0  0  0  0  0  0  # atno 11005 bound_to 11000
  145.4459  139.1529  143.3945 LP  0  0  0  0  0  0  0  0  0  0  0  0  # atno 17320 bound_to 7965
  146.2801  140.4583  142.8779 LP  0  0  0  0  0  0  0  0  0  0  0  0  # atno 17321 bound_to 7965
  139.6928  143.9664  152.2867 LP  0  0  0  0  0  0  0  0  0  0  0  0  # atno 17342 bound_to 10162
  139.9331  144.6729  150.8343 LP  0  0  0  0  0  0  0  0  0  0  0  0  # atno 17343 bound_to 10162
  156.9089  130.5273  149.5281 LP  0  0  0  0  0  0  0  0  0  0  0  0  # atno 17370 bound_to 10713
  156.0638  130.5686  150.9248 LP  0  0  0  0  0  0  0  0  0  0  0  0  # atno 17371 bound_to 10713
  141.2103  133.7724  156.9943 LP  0  0  0  0  0  0  0  0  0  0  0  0  # atno 17394 bound_to 11000
  140.1003  134.9539  157.1913 LP  0  0  0  0  0  0  0  0  0  0  0  0  # atno 17395 bound_to 11000

$$$$
