AV-unprocessed.smi:12|AV-procd|sdf|68|dock8
  -GOLD-   2262015193D 1   1.00000     0.00000
 Structure written by MMmdl.
 41 44  0  0  0  0  0  0  0  0  1 V2000
  146.0733  136.8149  152.3929 C   0  0  0  0  0  0  0  0  0  0  0  0
  146.3075  138.0366  153.2630 C   0  0  0  0  0  0  0  0  0  0  0  0
  147.3967  138.8250  153.1043 C   0  0  0  0  0  0  0  0  0  0  0  0
  147.5659  139.9080  153.9210 N   0  0  0  0  0  0  0  0  0  0  0  0
  146.5957  140.2016  154.9035 C   0  0  0  0  0  0  0  0  0  0  0  0
  145.5271  139.4985  155.1161 N   0  0  0  0  0  0  0  0  0  0  0  0
  145.3104  138.3619  154.3136 C   0  0  0  0  0  0  0  0  0  0  0  0
  144.3148  137.6594  154.4827 O   0  0  0  0  0  0  0  0  0  0  0  0
  146.9706  141.3284  155.5688 O   0  0  0  0  0  0  0  0  0  0  0  0
  148.2239  141.8036  155.0561 C   0  0  1  0  0  0  0  0  0  0  0  0
  149.3233  141.6066  156.0967 C   0  0  2  0  0  0  0  0  0  0  0  0
  150.2563  142.6696  156.0408 O   0  0  0  0  0  0  0  0  0  0  0  0
  149.9470  140.2582  155.7107 C   0  0  2  0  0  0  0  0  0  0  0  0
  151.3973  140.0385  156.1616 C   0  0  0  0  0  0  0  0  0  0  0  0
  151.5907  140.6835  157.4094 O   0  0  0  0  0  0  0  0  0  0  0  0
  152.5994  140.3055  158.2172 C   0  0  0  0  0  0  0  0  0  0  0  0
  153.3151  139.3250  158.0024 O   0  0  0  0  0  0  0  0  0  0  0  0
  152.7622  141.2021  159.3979 C   0  0  0  0  0  0  0  0  0  0  0  0
  153.6433  140.8258  160.4385 C   0  0  0  0  0  0  0  0  0  0  0  0
  153.8173  141.6528  161.5651 C   0  0  0  0  0  0  0  0  0  0  0  0
  153.1108  142.8654  161.6661 C   0  0  0  0  0  0  0  0  0  0  0  0
  152.2302  143.2504  160.6384 C   0  0  0  0  0  0  0  0  0  0  0  0
  152.0558  142.4252  159.5101 C   0  0  0  0  0  0  0  0  0  0  0  0
  149.8412  140.2471  154.2926 O   0  0  0  0  0  0  0  0  0  0  0  0
  148.6620  140.8819  153.8989 C   0  0  1  0  0  0  0  0  0  0  0  0
  146.8707  136.6924  151.6594 H   0  0  0  0  0  0  0  0  0  0  0  0
  145.1298  136.9041  151.8536 H   0  0  0  0  0  0  0  0  0  0  0  0
  146.0368  135.9132  153.0050 H   0  0  0  0  0  0  0  0  0  0  0  0
  148.1369  138.6073  152.3484 H   0  0  0  0  0  0  0  0  0  0  0  0
  148.1309  142.8359  154.7153 H   0  0  0  0  0  0  0  0  0  0  0  0
  148.9189  141.5798  157.1093 H   0  0  0  0  0  0  0  0  0  0  0  0
  149.8420  143.4129  155.6297 H   0  0  0  0  0  0  0  0  0  0  0  0
  149.3175  139.4604  156.1097 H   0  0  0  0  0  0  0  0  0  0  0  0
  151.6229  138.9743  156.2424 H   0  0  0  0  0  0  0  0  0  0  0  0
  152.0805  140.4690  155.4280 H   0  0  0  0  0  0  0  0  0  0  0  0
  154.1965  139.8993  160.3831 H   0  0  0  0  0  0  0  0  0  0  0  0
  154.4945  141.3558  162.3523 H   0  0  0  0  0  0  0  0  0  0  0  0
  153.2438  143.4991  162.5305 H   0  0  0  0  0  0  0  0  0  0  0  0
  151.6866  144.1805  160.7145 H   0  0  0  0  0  0  0  0  0  0  0  0
  151.3708  142.7498  158.7405 H   0  0  0  0  0  0  0  0  0  0  0  0
  148.6639  141.3151  152.8983 H   0  0  0  0  0  0  0  0  0  0  0  0
  1  2  1  0  0  0  0
  1 26  1  0  0  0  0
  1 27  1  0  0  0  0
  1 28  1  0  0  0  0
  2  7  1  0  0  0  0
  2  3  2  0  0  0  0
  3  4  1  0  0  0  0
  3 29  1  0  0  0  0
  4 25  1  0  0  0  0
  4  5  1  0  0  0  0
  5  6  2  0  0  0  0
  5  9  1  0  0  0  0
  6  7  1  0  0  0  0
  7  8  2  0  0  0  0
  9 10  1  0  0  0  0
 10 25  1  0  0  0  0
 10 11  1  0  0  0  0
 10 30  1  0  0  0  0
 11 12  1  0  0  0  0
 11 13  1  0  0  0  0
 11 31  1  0  0  0  0
 12 32  1  0  0  0  0
 13 14  1  0  0  0  0
 13 24  1  0  0  0  0
 13 33  1  0  0  0  0
 14 15  1  0  0  0  0
 14 34  1  0  0  0  0
 14 35  1  0  0  0  0
 15 16  1  0  0  0  0
 16 17  2  0  0  0  0
 16 18  1  0  0  0  0
 18 23  1  0  0  0  0
 18 19  2  0  0  0  0
 19 20  1  0  0  0  0
 19 36  1  0  0  0  0
 20 21  2  0  0  0  0
 20 37  1  0  0  0  0
 21 22  1  0  0  0  0
 21 38  1  0  0  0  0
 22 23  2  0  0  0  0
 22 39  1  0  0  0  0
 23 40  1  0  0  0  0
 24 25  1  0  0  0  0
 25 41  1  0  0  0  0
M  END
> <s_m_source_file>
AV-unprocessed.smi

> <i_m_source_file_index>
12

> <i_lp_mmshare_version>
43012

> <i_f3d_flags>
0

> <s_epik_input>
W0NIM11jKFtjSF0xKWMoPU8pbmMobjEyKU9bQ0BIXTNbQ0BASF0yT1tDQEBIXShbQ0BASF0zW09IXSlbQ0gyXU9DKD1PKWM0W2NIXVtjSF1bY0hdW2NIXVtjSF00

> <s_epik_cmdline>
J2VwaWtfcHl0aG9uJywgJy1waCcsICc3LjAnLCAnLXRuJywgJzgnLCAnLW1hJywgJzIwMCcsICctbWV0YWxfYmluZGluZycsICctaW1hZScsICc8aW5maWxlLm1hZT4nLCAnLW9tYWUnLCAnPG91dGZpbGUubWFlPic=

> <r_lp_tautomer_probability>
0.933681

> <r_epik_Ionization_Penalty>
0.00399549

> <r_epik_Ionization_Penalty_Charging>
3.09373e-09

> <r_epik_Ionization_Penalty_Neutral>
0.00399549

> <r_epik_State_Penalty>
0.00284953

> <r_epik_Charging_Adjusted_Penalty>
0.00284953

> <i_epik_Tot_Q>
0

> <i_epik_Tot_abs_Q>
0

> <r_epik_Metal_State_Penalty>
-0

> <b_epik_Metal_Only>
0

> <s_epik_Chemistry_Notes>
This compound has an ester and may undergo hydrolysis at high or low pH. This compound contains an acetal/aminal-like group ( X-CH(R)-Y where X, Y are N, S, or O) that may be acid/base labile, releasing an aldehyde.

> <s_lp_Force_Field>
OPLS_2005

> <r_lp_Energy>
39.7302

> <b_lp_Chiralities_Consistent>
1

> <s_lp_Variant>
AV-unprocessed.smi:12-8

> <Gold.Version>
5.8.1

> <Gold.Id.Protein>
6NUR|6NUR_protein|mol2

> <Gold.PLP.Fitness>
51.0395

> <Gold.PLP.PLP>
-37.9322

> <Gold.PLP.part.hbond>
-2.9050

> <Gold.PLP.part.metal>
0.0000

> <Gold.PLP.part.buried>
1.1727

> <Gold.PLP.part.nonpolar>
-36.0388

> <Gold.PLP.part.repulsive>
0.3813

> <Gold.PLP.ligand.clash>
0.0000

> <Gold.PLP.ligand.torsion>
0.5223

> <Gold.PLP.Chemscore.Hbond>
2.8437

> <Gold.PLP.Chemscore.CHOScore>
1.8723

> <Gold.PLP.Chemscore.Metal>
0.0000

> <Gold.Chemscore.Hbonds>
donor molecule, donor type, donor heavy atom, donor atom, acceptor molecule, acceptor atom, score
      L1  H    12    32       P1  8028  1.00
      P1  H  7989  7998       L1    24  0.84
      P1  H  7997  8008       L1    17  1.00
      L1  C     3    29       P1  7948  0.88
      L1  C     3    29       P1  7957  1.00

> <Gold.PLP.Chemscore.Internal.Correction>
0.0039

> <Gold.Rescore>
     Score         DG    S(hbond)    S(metal)    S(lipo)     H(rot)  DE(clash)    DE(int)     intcor
     16.49     -20.34       2.57        0.00     101.44       2.18       1.89       1.95       ----

> <Gold.Chemscore.Fitness>
16.4921

> <Gold.Chemscore.DG>
-20.3352

> <Gold.Chemscore.ZeroCoef>
-5.4800

> <Gold.Chemscore.Hbond>
2.5650

> <Gold.Chemscore.Metal>
0.0000

> <Gold.Chemscore.Lipo>
101.4420

> <Gold.Chemscore.Internal_Hbond>
0.0000

> <Gold.Chemscore.DEClash>
1.8882

> <Gold.Chemscore.DEInternal>
1.9548

> <Gold.Chemscore.Rot>
2.1800

> <Gold.Chemscore.Internal.Correction>
   9.000000E+99

> <Gold.Chemscore.Hbonds>
donor molecule, donor type, donor heavy atom, donor atom, acceptor molecule, acceptor atom, score
      L1  H    12    32       P1  8028  0.96
      P1  H  7989  7998       L1    24  0.53
      P1  H  7997  8008       L1    17  0.35

> <Gold.Chemscore.Hbond.Weighted>
-8.5672

> <Gold.Chemscore.Metal.Weighted>
-0.0000

> <Gold.Chemscore.Lipo.Weighted>
-11.8687

> <Gold.Chemscore.Internal_Hbond.Weighted>
0.0000

> <Gold.Chemscore.DEClash.Weighted>
1.8882

> <Gold.Chemscore.DEInternal.Weighted>
1.9548

> <Gold.Chemscore.Rot.Weighted>
5.5807

> <Gold.Chemscore.Internal.Correction.Weighted>
   9.000000E+99

> <Gold.Protein.RotatedTorsions>
[ 6907 6896 6895 6894 ] final -139.64 input  -60.11 | X-H torsion
[ 7974 7965 7964 7962 ] final  141.48 input  175.53 | X-H torsion
[ 8008 7997 7996 7995 ] final  -89.09 input   59.86 | X-H torsion
[ 10167 10162 10161 10158 ] final  -59.48 input  -65.29 | X-H torsion
[ 10718 10713 10712 10709 ] final  154.96 input   66.30 | X-H torsion
[ 10763 10752 10751 10750 ] final -107.37 input  -60.55 | X-H torsion
[ 11005 11000 10999 10996 ] final -101.11 input  -57.11 | X-H torsion

> <Gold.Protein.ActiveResidues>
 VAL166  LYS551  ARG553  GLY616  TRP617  ASP618  TYR619  PRO620  LYS621  CYS622 
 ASP623  PHE694  ASN695  SER759  ASP760  ASP761  ALA762  ILE779  LEU786  VAL792 
 PHE793  MET794  SER795  GLU796  ALA797  LYS798  CYS799  TRP800  GLU811  SER814 

> <Gold.Protein.RotatedAtoms>
  151.0504  133.5629  159.2642 H   0  0  0  0  0  0  0  0  0  0  0  0  # atno 6907 bound_to 6896
  151.2642  135.0663  159.9119 H   0  0  0  0  0  0  0  0  0  0  0  0  # atno 6908 bound_to 6896
  152.5381  134.0245  159.8051 H   0  0  0  0  0  0  0  0  0  0  0  0  # atno 6909 bound_to 6896
  144.9093  139.5315  143.5716 H   0  0  0  0  0  0  0  0  0  0  0  0  # atno 7974 bound_to 7965
  154.6825  140.0546  157.0281 H   0  0  0  0  0  0  0  0  0  0  0  0  # atno 8008 bound_to 7997
  155.0931  140.3221  155.4549 H   0  0  0  0  0  0  0  0  0  0  0  0  # atno 8009 bound_to 7997
  156.2699  140.2044  156.6058 H   0  0  0  0  0  0  0  0  0  0  0  0  # atno 8010 bound_to 7997
  140.6132  143.2394  151.5659 H   0  0  0  0  0  0  0  0  0  0  0  0  # atno 10167 bound_to 10162
  157.2247  131.0726  151.1891 H   0  0  0  0  0  0  0  0  0  0  0  0  # atno 10718 bound_to 10713
  154.8071  135.4677  154.0419 H   0  0  0  0  0  0  0  0  0  0  0  0  # atno 10763 bound_to 10752
  153.1880  135.6851  153.8397 H   0  0  0  0  0  0  0  0  0  0  0  0  # atno 10764 bound_to 10752
  153.7924  135.3241  155.3357 H   0  0  0  0  0  0  0  0  0  0  0  0  # atno 10765 bound_to 10752
  141.1244  133.8452  157.1189 H   0  0  0  0  0  0  0  0  0  0  0  0  # atno 11005 bound_to 11000
  146.3150  139.7886  142.8990 LP  0  0  0  0  0  0  0  0  0  0  0  0  # atno 17320 bound_to 7965
  145.3482  141.0302  143.3353 LP  0  0  0  0  0  0  0  0  0  0  0  0  # atno 17321 bound_to 7965
  139.5378  144.2732  152.1288 LP  0  0  0  0  0  0  0  0  0  0  0  0  # atno 17342 bound_to 10162
  140.1936  144.4727  150.6466 LP  0  0  0  0  0  0  0  0  0  0  0  0  # atno 17343 bound_to 10162
  157.3540  130.7097  149.6459 LP  0  0  0  0  0  0  0  0  0  0  0  0  # atno 17370 bound_to 10713
  155.9679  130.4244  150.4608 LP  0  0  0  0  0  0  0  0  0  0  0  0  # atno 17371 bound_to 10713
  140.0229  134.9937  157.0628 LP  0  0  0  0  0  0  0  0  0  0  0  0  # atno 17394 bound_to 11000
  140.4410  134.1681  155.7174 LP  0  0  0  0  0  0  0  0  0  0  0  0  # atno 17395 bound_to 11000

$$$$
