#       Name:                AV-unprocessed.smi:33
#       Creating user name   scv26
#       Creation time:       Thu Mar 26 15:49:24 2020


#       File generated by GOLD software.
#

@<TRIPOS>MOLECULE
AV-unprocessed.smi:33
    80    85     1
SMALL
NO_CHARGES


@<TRIPOS>ATOM
      1 ****        -7.5025  -0.8159   2.6011 O.2            1 S1                 0.0000
      2 ****        -7.2182  -0.0753   1.6574 C.2            1 S1                 0.0000
      3 ****        -6.0358  -0.1101   1.0119 O.3            1 S1                 0.0000
      4 ****        -5.0359  -1.0365   1.4054 C.3            1 S1                 0.0000
      5 ****        -3.9002  -1.0306   0.3758 C.3            1 S1                 0.0000
      6 ****        -2.8180  -1.8387   0.8348 O.3            1 S1                 0.0000
      7 ****        -2.1572  -2.4244  -0.2513 C.3            1 S1                 0.0000
      8 ****        -0.7165  -2.0088  -0.2469 N.pl3          1 S1                 0.0000
      9 ****         0.3703  -2.7809  -0.5940 C.2            1 S1                 0.0000
     10 ****         1.5300  -2.1867  -0.5165 N.2            1 S1                 0.0000
     11 ****         1.2201  -0.9054  -0.0814 C.ar           1 S1                 0.0000
     12 ****         1.9920   0.2524   0.2056 C.ar           1 S1                 0.0000
     13 ****         3.3383   0.2893   0.0714 N.am           1 S1                 0.0000
     14 ****         3.8736   0.2493  -1.2974 C.2            1 S1                 0.0000
     15 ****         3.1753   0.6381  -2.2357 O.2            1 S1                 0.0000
     16 ****         5.2775  -0.2203  -1.5530 C.ar           1 S1                 0.0000
     17 ****         6.1301   0.5254  -2.3961 C.ar           1 S1                 0.0000
     18 ****         7.4426   0.0820  -2.6499 C.ar           1 S1                 0.0000
     19 ****         7.9038  -1.1193  -2.0785 C.ar           1 S1                 0.0000
     20 ****         7.0492  -1.8825  -1.2604 C.ar           1 S1                 0.0000
     21 ****         5.7373  -1.4391  -1.0048 C.ar           1 S1                 0.0000
     22 ****         4.1375   0.3686   1.3029 C.2            1 S1                 0.0000
     23 ****         3.6644  -0.0494   2.3616 O.2            1 S1                 0.0000
     24 ****         5.5428   0.8998   1.2689 C.ar           1 S1                 0.0000
     25 ****         6.5789   0.1978   1.9229 C.ar           1 S1                 0.0000
     26 ****         7.8960   0.6962   1.9051 C.ar           1 S1                 0.0000
     27 ****         8.1820   1.9093   1.2505 C.ar           1 S1                 0.0000
     28 ****         7.1487   2.6288   0.6207 C.ar           1 S1                 0.0000
     29 ****         5.8315   2.1305   0.6368 C.ar           1 S1                 0.0000
     30 ****         1.3400   1.3663   0.6275 N.ar           1 S1                 0.0000
     31 ****         0.0105   1.3466   0.7565 C.ar           1 S1                 0.0000
     32 ****        -0.8361   0.3418   0.5212 N.ar           1 S1                 0.0000
     33 ****        -0.1850  -0.7813   0.0996 C.ar           1 S1                 0.0000
     34 ****        -2.9042  -2.0155  -1.5370 C.3            1 S1                 0.0000
     35 ****        -2.3136  -0.9192  -2.2158 O.3            1 S1                 0.0000
     36 ****        -4.2641  -1.6595  -0.9670 C.3            1 S1                 0.0000
     37 ****        -4.9786  -0.8664  -1.7673 F              1 S1                 0.0000
     38 ****        -8.1499   0.9518   1.1078 C.ar           1 S1                 0.0000
     39 ****        -9.4446   1.0810   1.6630 C.ar           1 S1                 0.0000
     40 ****       -10.3464   2.0418   1.1653 C.ar           1 S1                 0.0000
     41 ****        -9.9643   2.8857   0.1063 C.ar           1 S1                 0.0000
     42 ****        -8.6794   2.7673  -0.4549 C.ar           1 S1                 0.0000
     43 ****        -7.7760   1.8070   0.0417 C.ar           1 S1                 0.0000
     44 ****        -4.6528  -0.7489   2.3851 H              1 S1                 0.0000
     45 ****        -5.4538  -2.0400   1.4983 H              1 S1                 0.0000
     46 ****        -3.5327  -0.0146   0.2258 H              1 S1                 0.0000
     47 ****        -2.1329  -3.5049  -0.1040 H              1 S1                 0.0000
     48 ****         0.2748  -3.8082  -0.9144 H              1 S1                 0.0000
     49 ****         5.7863   1.4489  -2.8396 H              1 S1                 0.0000
     50 ****         8.0953   0.6635  -3.2841 H              1 S1                 0.0000
     51 ****         8.9103  -1.4587  -2.2734 H              1 S1                 0.0000
     52 ****         7.3990  -2.8090  -0.8294 H              1 S1                 0.0000
     53 ****         5.0884  -2.0354  -0.3794 H              1 S1                 0.0000
     54 ****         6.3710  -0.7343   2.4284 H              1 S1                 0.0000
     55 ****         8.6869   0.1479   2.3950 H              1 S1                 0.0000
     56 ****         9.1921   2.2912   1.2375 H              1 S1                 0.0000
     57 ****         7.3655   3.5637   0.1258 H              1 S1                 0.0000
     58 ****         5.0460   2.6938   0.1539 H              1 S1                 0.0000
     59 ****        -0.4401   2.2678   1.0951 H              1 S1                 0.0000
     60 ****        -2.9548  -2.8630  -2.2211 H              1 S1                 0.0000
     61 ****        -1.4187  -1.1413  -2.4232 H              1 S1                 0.0000
     62 ****        -4.8479  -2.5677  -0.8101 H              1 S1                 0.0000
     63 ****        -9.7611   0.4437   2.4762 H              1 S1                 0.0000
     64 ****       -11.3322   2.1314   1.5975 H              1 S1                 0.0000
     65 ****       -10.6555   3.6228  -0.2750 H              1 S1                 0.0000
     66 ****        -8.3845   3.4149  -1.2674 H              1 S1                 0.0000
     67 ****        -6.7973   1.7439  -0.4112 H              1 S1                 0.0000
     68 ****        -6.8381  -1.4888   2.9263 LP             1 S1                 0.0000
     69 ****        -8.3974  -0.7436   3.0414 LP             1 S1                 0.0000
     70 ****        -3.1729  -2.5577   1.4322 LP             1 S1                 0.0000
     71 ****        -2.1738  -1.2691   1.3452 LP             1 S1                 0.0000
     72 ****         2.4320  -2.5662  -0.7226 LP             1 S1                 0.0000
     73 ****         2.2508   0.9781  -2.0636 LP             1 S1                 0.0000
     74 ****         3.5333   0.6136  -3.1691 LP             1 S1                 0.0000
     75 ****         2.7435  -0.4388   2.3785 LP             1 S1                 0.0000
     76 ****         4.2015   0.0009   3.2036 LP             1 S1                 0.0000
     77 ****         1.8529   2.1979   0.8407 LP             1 S1                 0.0000
     78 ****        -1.8271   0.4043   0.6395 LP             1 S1                 0.0000
     79 ****        -2.3328  -0.1094  -1.6293 LP             1 S1                 0.0000
     80 ****        -2.8187  -0.7325  -3.0584 LP             1 S1                 0.0000
@<TRIPOS>BOND
    1    1    2 2     
    2    2    3 1     
    3    2   38 1     
    4    3    4 1     
    5    4    5 1     
    6    4   44 1     
    7    4   45 1     
    8    5   36 1     
    9    5    6 1     
   10    5   46 1     
   11    6    7 1     
   12    7    8 1     
   13    7   34 1     
   14    7   47 1     
   15    8   33 1     
   16    8    9 1     
   17    9   10 2     
   18    9   48 1     
   19   10   11 1     
   20   11   33 ar    
   21   11   12 ar    
   22   12   13 1     
   23   12   30 ar    
   24   13   14 am    
   25   13   22 am    
   26   14   15 2     
   27   14   16 1     
   28   16   21 ar    
   29   16   17 ar    
   30   17   18 ar    
   31   17   49 1     
   32   18   19 ar    
   33   18   50 1     
   34   19   20 ar    
   35   19   51 1     
   36   20   21 ar    
   37   20   52 1     
   38   21   53 1     
   39   22   23 2     
   40   22   24 1     
   41   24   29 ar    
   42   24   25 ar    
   43   25   26 ar    
   44   25   54 1     
   45   26   27 ar    
   46   26   55 1     
   47   27   28 ar    
   48   27   56 1     
   49   28   29 ar    
   50   28   57 1     
   51   29   58 1     
   52   30   31 ar    
   53   31   32 ar    
   54   31   59 1     
   55   32   33 ar    
   56   34   35 1     
   57   34   36 1     
   58   34   60 1     
   59   35   61 1     
   60   36   37 1     
   61   36   62 1     
   62   38   43 ar    
   63   38   39 ar    
   64   39   40 ar    
   65   39   63 1     
   66   40   41 ar    
   67   40   64 1     
   68   41   42 ar    
   69   41   65 1     
   70   42   43 ar    
   71   42   66 1     
   72   43   67 1     
   73    1   68 1     
   74    1   69 1     
   75    6   70 1     
   76    6   71 1     
   77   10   72 1     
   78   15   73 1     
   79   15   74 1     
   80   23   75 1     
   81   23   76 1     
   82   30   77 1     
   83   32   78 1     
   84   35   79 1     
   85   35   80 1     
@<TRIPOS>SUBSTRUCTURE
      1 S1             1
@<TRIPOS>SET
LONE_PAIRS      STATIC     ATOMS    <user>   **** ""
13 68 69 70 71 72 73 74 75 76 77 78 79 80
DONOR_HYDROGENS      STATIC     ATOMS    <user>   **** ""
1 61
ATOM$BLUE        STATIC     ATOMS    COLORGROUP SYSTEM
13 68 69 70 71 72 73 74 75 76 77 78 79 80
ATOM$RED        STATIC     ATOMS    COLORGROUP SYSTEM
1 61
