AV-unprocessed.smi:2466|AV-procd|sdf|9724|dock2
  -GOLD-   2272013363D 1   1.00000     0.00000
 Structure written by MMmdl.
 36 37  0  0  0  0  0  0  0  0  1 V2000
  153.1278  138.0655  155.5126 C   0  0  0  0  0  0  0  0  0  0  0  0
  152.4530  139.0307  156.3117 O   0  0  0  0  0  0  0  0  0  0  0  0
  151.2924  139.5893  155.8175 C   0  0  0  0  0  0  0  0  0  0  0  0
  150.4896  138.8425  154.9311 C   0  0  0  0  0  0  0  0  0  0  0  0
  149.3077  139.4499  154.4508 C   0  0  0  0  0  0  0  0  0  0  0  0
  148.5258  138.6614  153.5657 N   0  0  0  0  0  0  0  0  0  0  0  0
  147.2016  138.7307  153.3433 C   0  0  0  0  0  0  0  0  0  0  0  0
  146.4321  139.5310  153.8756 O   0  0  0  0  0  0  0  0  0  0  0  0
  146.8118  137.8069  152.4522 N   0  0  0  0  0  0  0  0  0  0  0  0
  145.4422  137.5920  151.9898 C   0  0  0  0  0  0  0  0  0  0  0  0
  145.0972  136.1004  151.8545 C   0  0  0  0  0  0  0  0  0  0  0  0
  145.6068  135.3666  153.1042 C   0  0  0  0  0  0  0  0  0  0  0  0
  143.6437  135.7754  151.4475 C   0  0  0  0  0  0  0  0  0  0  0  0
  144.1676  134.6910  150.5079 C   0  0  0  0  0  0  0  0  0  0  0  0
  145.4965  135.4450  150.5146 C   0  0  0  0  0  0  0  0  0  0  0  0
  148.9854  140.7071  154.8436 N   0  0  0  0  0  0  0  0  0  0  0  0
  149.8123  141.3307  155.6850 C   0  0  0  0  0  0  0  0  0  0  0  0
  150.9448  140.8438  156.1935 N   0  0  0  0  0  0  0  0  0  0  0  0
  154.0191  137.7218  156.0373 H   0  0  0  0  0  0  0  0  0  0  0  0
  153.4482  138.4906  154.5603 H   0  0  0  0  0  0  0  0  0  0  0  0
  152.4989  137.1945  155.3224 H   0  0  0  0  0  0  0  0  0  0  0  0
  150.7734  137.8425  154.6367 H   0  0  0  0  0  0  0  0  0  0  0  0
  149.0312  137.9553  153.0517 H   0  0  0  0  0  0  0  0  0  0  0  0
  147.5169  137.1976  152.0640 H   0  0  0  0  0  0  0  0  0  0  0  0
  144.7858  138.0640  152.7213 H   0  0  0  0  0  0  0  0  0  0  0  0
  145.2529  138.1181  151.0525 H   0  0  0  0  0  0  0  0  0  0  0  0
  145.5159  134.2850  153.0034 H   0  0  0  0  0  0  0  0  0  0  0  0
  145.0459  135.6471  153.9959 H   0  0  0  0  0  0  0  0  0  0  0  0
  146.6586  135.5817  153.2951 H   0  0  0  0  0  0  0  0  0  0  0  0
  143.0129  135.4074  152.2574 H   0  0  0  0  0  0  0  0  0  0  0  0
  143.1577  136.5913  150.9090 H   0  0  0  0  0  0  0  0  0  0  0  0
  144.2299  133.7096  150.9803 H   0  0  0  0  0  0  0  0  0  0  0  0
  143.6711  134.6462  149.5381 H   0  0  0  0  0  0  0  0  0  0  0  0
  145.5706  136.1588  149.6921 H   0  0  0  0  0  0  0  0  0  0  0  0
  146.3792  134.8065  150.5610 H   0  0  0  0  0  0  0  0  0  0  0  0
  149.5357  142.3306  155.9852 H   0  0  0  0  0  0  0  0  0  0  0  0
  1  2  1  0  0  0  0
  1 19  1  0  0  0  0
  1 20  1  0  0  0  0
  1 21  1  0  0  0  0
  2  3  1  0  0  0  0
  3 18  1  0  0  0  0
  3  4  2  0  0  0  0
  4  5  1  0  0  0  0
  4 22  1  0  0  0  0
  5  6  1  0  0  0  0
  5 16  2  0  0  0  0
  6  7  1  0  0  0  0
  6 23  1  0  0  0  0
  7  8  2  0  0  0  0
  7  9  1  0  0  0  0
  9 10  1  0  0  0  0
  9 24  1  0  0  0  0
 10 11  1  0  0  0  0
 10 25  1  0  0  0  0
 10 26  1  0  0  0  0
 11 15  1  0  0  0  0
 11 12  1  0  0  0  0
 11 13  1  0  0  0  0
 12 27  1  0  0  0  0
 12 28  1  0  0  0  0
 12 29  1  0  0  0  0
 13 14  1  0  0  0  0
 13 30  1  0  0  0  0
 13 31  1  0  0  0  0
 14 15  1  0  0  0  0
 14 32  1  0  0  0  0
 14 33  1  0  0  0  0
 15 34  1  0  0  0  0
 15 35  1  0  0  0  0
 16 17  1  0  0  0  0
 17 18  2  0  0  0  0
 17 36  1  0  0  0  0
M  END
> <s_m_source_file>
AV-unprocessed.smi

> <i_m_source_file_index>
2466

> <i_lp_mmshare_version>
43012

> <i_f3d_flags>
0

> <s_epik_input>
W0NIM11PYzFbY0hdYyhuW2NIXW4xKVtOSF1DKD1PKVtOSF1bQ0gyXUMyKFtDSDNdKVtDSDJdW0NIMl1bQ0gyXTI=

> <s_epik_cmdline>
J2VwaWtfcHl0aG9uJywgJy1waCcsICc3LjAnLCAnLXRuJywgJzgnLCAnLW1hJywgJzIwMCcsICctbWV0YWxfYmluZGluZycsICctaW1hZScsICc8aW5maWxlLm1hZT4nLCAnLW9tYWUnLCAnPG91dGZpbGUubWFlPic=

> <r_lp_tautomer_probability>
1

> <r_epik_Ionization_Penalty>
2.72078e-05

> <r_epik_Ionization_Penalty_Charging>
0

> <r_epik_Ionization_Penalty_Neutral>
2.72078e-05

> <r_epik_State_Penalty>
-0

> <r_epik_Charging_Adjusted_Penalty>
0

> <i_epik_Tot_Q>
0

> <i_epik_Tot_abs_Q>
0

> <r_epik_Metal_State_Penalty>
-0

> <b_epik_Metal_Only>
0

> <s_lp_Force_Field>
OPLS_2005

> <r_lp_Energy>
15.1515

> <b_lp_Chiralities_Consistent>
1

> <s_lp_Variant>
AV-unprocessed.smi:2466-1

> <Gold.Version>
5.8.1

> <Gold.Id.Protein>
6NUR|6NUR_protein|mol2

> <Gold.PLP.Fitness>
42.0096

> <Gold.PLP.PLP>
-31.6691

> <Gold.PLP.part.hbond>
-4.8656

> <Gold.PLP.part.metal>
0.0000

> <Gold.PLP.part.buried>
-2.0374

> <Gold.PLP.part.nonpolar>
-26.1332

> <Gold.PLP.part.repulsive>
0.3861

> <Gold.PLP.ligand.clash>
0.0000

> <Gold.PLP.ligand.torsion>
0.8562

> <Gold.PLP.Chemscore.Hbond>
2.9760

> <Gold.PLP.Chemscore.CHOScore>
1.0000

> <Gold.PLP.Chemscore.Metal>
0.0000

> <Gold.Chemscore.Hbonds>
donor molecule, donor type, donor heavy atom, donor atom, acceptor molecule, acceptor atom, score
      L1  H     6    23       P1  7948  0.89
      L1  H     9    24       P1  7948  1.00
      P1  H  7997  8008       L1     2  0.23
      L1  C    17    36       P1  8028  1.00

> <Gold.PLP.Chemscore.Internal.Correction>
0.1249

> <Gold.Rescore>
     Score         DG    S(hbond)    S(metal)    S(lipo)     H(rot)  DE(clash)    DE(int)     intcor
     13.27     -16.00       2.79        0.00      45.86       1.62       0.83       1.91       ----

> <Gold.Chemscore.Fitness>
13.2657

> <Gold.Chemscore.DG>
-16.0048

> <Gold.Chemscore.ZeroCoef>
-5.4800

> <Gold.Chemscore.Hbond>
2.7870

> <Gold.Chemscore.Metal>
0.0000

> <Gold.Chemscore.Lipo>
45.8561

> <Gold.Chemscore.Internal_Hbond>
0.0000

> <Gold.Chemscore.DEClash>
0.8296

> <Gold.Chemscore.DEInternal>
1.9095

> <Gold.Chemscore.Rot>
1.6207

> <Gold.Chemscore.Internal.Correction>
   9.000000E+99

> <Gold.Chemscore.Hbonds>
donor molecule, donor type, donor heavy atom, donor atom, acceptor molecule, acceptor atom, score
      L1  H     6    23       P1  7948  0.81
      L1  H     9    24       P1  7948  1.00

> <Gold.Chemscore.Hbond.Weighted>
-9.3087

> <Gold.Chemscore.Metal.Weighted>
-0.0000

> <Gold.Chemscore.Lipo.Weighted>
-5.3652

> <Gold.Chemscore.Internal_Hbond.Weighted>
0.0000

> <Gold.Chemscore.DEClash.Weighted>
0.8296

> <Gold.Chemscore.DEInternal.Weighted>
1.9095

> <Gold.Chemscore.Rot.Weighted>
4.1491

> <Gold.Chemscore.Internal.Correction.Weighted>
   9.000000E+99

> <Gold.Protein.RotatedTorsions>
[ 6907 6896 6895 6894 ] final -101.06 input  -60.11 | X-H torsion
[ 7974 7965 7964 7962 ] final -122.32 input  175.53 | X-H torsion
[ 8008 7997 7996 7995 ] final  -47.64 input   59.86 | X-H torsion
[ 10167 10162 10161 10158 ] final -162.75 input  -65.29 | X-H torsion
[ 10718 10713 10712 10709 ] final  -25.31 input   66.30 | X-H torsion
[ 10763 10752 10751 10750 ] final   93.72 input  -60.55 | X-H torsion
[ 11005 11000 10999 10996 ] final   31.92 input  -57.11 | X-H torsion

> <Gold.Protein.ActiveResidues>
 VAL166  LYS551  ARG553  GLY616  TRP617  ASP618  TYR619  PRO620  LYS621  CYS622 
 ASP623  PHE694  ASN695  SER759  ASP760  ASP761  ALA762  ILE779  LEU786  VAL792 
 PHE793  MET794  SER795  GLU796  ALA797  LYS798  CYS799  TRP800  GLU811  SER814 

> <Gold.Protein.RotatedAtoms>
  150.7140  134.0791  159.3891 H   0  0  0  0  0  0  0  0  0  0  0  0  # atno 6907 bound_to 6896
  151.8775  135.0464  160.0495 H   0  0  0  0  0  0  0  0  0  0  0  0  # atno 6908 bound_to 6896
  152.2594  133.5249  159.5409 H   0  0  0  0  0  0  0  0  0  0  0  0  # atno 6909 bound_to 6896
  145.0308  140.8065  143.4325 H   0  0  0  0  0  0  0  0  0  0  0  0  # atno 7974 bound_to 7965
  154.4019  140.1341  156.4208 H   0  0  0  0  0  0  0  0  0  0  0  0  # atno 8008 bound_to 7997
  155.7644  140.3485  155.5194 H   0  0  0  0  0  0  0  0  0  0  0  0  # atno 8009 bound_to 7997
  155.8828  140.0990  157.1464 H   0  0  0  0  0  0  0  0  0  0  0  0  # atno 8010 bound_to 7997
  139.6370  144.0331  152.2062 H   0  0  0  0  0  0  0  0  0  0  0  0  # atno 10167 bound_to 10162
  156.4660  130.4514  149.6899 H   0  0  0  0  0  0  0  0  0  0  0  0  # atno 10718 bound_to 10713
  153.2335  135.4315  155.0621 H   0  0  0  0  0  0  0  0  0  0  0  0  # atno 10763 bound_to 10752
  154.8308  135.3385  154.6753 H   0  0  0  0  0  0  0  0  0  0  0  0  # atno 10764 bound_to 10752
  153.7179  135.7019  153.5076 H   0  0  0  0  0  0  0  0  0  0  0  0  # atno 10765 bound_to 10752
  140.2788  134.2997  155.7806 H   0  0  0  0  0  0  0  0  0  0  0  0  # atno 11005 bound_to 11000
  145.1774  139.2371  143.5310 LP  0  0  0  0  0  0  0  0  0  0  0  0  # atno 17320 bound_to 7965
  146.3498  140.1539  142.8592 LP  0  0  0  0  0  0  0  0  0  0  0  0  # atno 17321 bound_to 7965
  140.0011  144.6292  150.7729 LP  0  0  0  0  0  0  0  0  0  0  0  0  # atno 17342 bound_to 10162
  140.7470  143.2900  151.3356 LP  0  0  0  0  0  0  0  0  0  0  0  0  # atno 17343 bound_to 10162
  156.3667  130.7509  151.2488 LP  0  0  0  0  0  0  0  0  0  0  0  0  # atno 17370 bound_to 10713
  157.7494  131.0335  150.4273 LP  0  0  0  0  0  0  0  0  0  0  0  0  # atno 17371 bound_to 10713
  141.2166  133.7512  156.9448 LP  0  0  0  0  0  0  0  0  0  0  0  0  # atno 17394 bound_to 11000
  140.1303  134.9360  157.2327 LP  0  0  0  0  0  0  0  0  0  0  0  0  # atno 17395 bound_to 11000

$$$$
