AV-unprocessed.smi:1489|AV-procd|sdf|6026|dock1
  -GOLD-   22720 6123D 1   1.00000     0.00000
 Structure written by MMmdl.
 46 48  0  0  0  0  0  0  0  0  1 V2000
  146.4404  139.0220  154.2690 O   0  0  0  0  0  0  0  0  0  0  0  0
  147.2500  138.3963  153.5859 C   0  0  0  0  0  0  0  0  0  0  0  0
  148.5858  138.5451  153.6179 N   0  0  0  0  0  0  0  0  0  0  0  0
  149.3825  139.4269  154.4001 C   0  0  0  0  0  0  0  0  0  0  0  0
  150.7220  139.1872  154.7885 C   0  0  0  0  0  0  0  0  0  0  0  0
  151.3885  140.1492  155.5714 C   0  0  0  0  0  0  0  0  0  0  0  0
  150.7027  141.3259  155.9539 C   0  0  0  0  0  0  0  0  0  0  0  0
  151.3360  142.3144  156.7333 N   0  0  0  0  0  0  0  0  0  0  0  0
  150.9937  143.7231  156.6107 C   0  0  0  0  0  0  0  0  0  0  0  0
  151.7916  144.4121  157.7164 C   0  0  0  0  0  0  0  0  0  0  0  0
  151.8455  143.3522  158.8165 C   0  0  0  0  0  0  0  0  0  0  0  0
  151.8751  142.0222  158.0545 C   0  0  0  0  0  0  0  0  0  0  0  0
  149.4223  141.5552  155.5785 N   0  0  0  0  0  0  0  0  0  0  0  0
  148.7878  140.6304  154.8289 C   0  0  0  0  0  0  0  0  0  0  0  0
  146.8940  137.4564  152.6983 N   0  0  0  0  0  0  0  0  0  0  0  0
  145.5241  137.0414  152.4103 C   0  0  2  0  0  0  0  0  0  0  0  0
  144.8262  136.6250  153.7179 C   0  0  0  0  0  0  0  0  0  0  0  0
  143.3915  136.1310  153.4604 C   0  0  0  0  0  0  0  0  0  0  0  0
  143.3434  134.9955  152.4210 C   0  0  2  0  0  0  0  0  0  0  0  0
  143.9058  133.8176  152.9646 O   0  0  0  0  0  0  0  0  0  0  0  0
  144.0795  135.3832  151.1246 C   0  0  0  0  0  0  0  0  0  0  0  0
  145.5099  135.8836  151.3918 C   0  0  0  0  0  0  0  0  0  0  0  0
  149.1062  137.9358  153.0039 H   0  0  0  0  0  0  0  0  0  0  0  0
  151.2579  138.2939  154.5120 H   0  0  0  0  0  0  0  0  0  0  0  0
  152.4137  139.9732  155.8610 H   0  0  0  0  0  0  0  0  0  0  0  0
  151.2472  144.1161  155.6257 H   0  0  0  0  0  0  0  0  0  0  0  0
  149.9226  143.8531  156.7707 H   0  0  0  0  0  0  0  0  0  0  0  0
  152.8011  144.6288  157.3644 H   0  0  0  0  0  0  0  0  0  0  0  0
  151.3399  145.3483  158.0455 H   0  0  0  0  0  0  0  0  0  0  0  0
  152.6975  143.4756  159.4854 H   0  0  0  0  0  0  0  0  0  0  0  0
  150.9370  143.4073  159.4178 H   0  0  0  0  0  0  0  0  0  0  0  0
  151.2966  141.2610  158.5788 H   0  0  0  0  0  0  0  0  0  0  0  0
  152.8985  141.6617  157.9451 H   0  0  0  0  0  0  0  0  0  0  0  0
  147.7673  140.8629  154.5614 H   0  0  0  0  0  0  0  0  0  0  0  0
  147.6255  136.9910  152.1811 H   0  0  0  0  0  0  0  0  0  0  0  0
  144.9771  137.8879  151.9902 H   0  0  0  0  0  0  0  0  0  0  0  0
  145.3990  135.8372  154.2094 H   0  0  0  0  0  0  0  0  0  0  0  0
  144.8025  137.4659  154.4123 H   0  0  0  0  0  0  0  0  0  0  0  0
  142.9324  135.8075  154.3955 H   0  0  0  0  0  0  0  0  0  0  0  0
  142.7901  136.9668  153.1010 H   0  0  0  0  0  0  0  0  0  0  0  0
  142.3022  134.7713  152.1864 H   0  0  0  0  0  0  0  0  0  0  0  0
  143.2645  133.4099  153.5265 H   0  0  0  0  0  0  0  0  0  0  0  0
  144.1004  134.5395  150.4336 H   0  0  0  0  0  0  0  0  0  0  0  0
  143.5194  136.1724  150.6216 H   0  0  0  0  0  0  0  0  0  0  0  0
  145.9627  136.2033  150.4524 H   0  0  0  0  0  0  0  0  0  0  0  0
  146.1216  135.0591  151.7611 H   0  0  0  0  0  0  0  0  0  0  0  0
  1  2  2  0  0  0  0
  2  3  1  0  0  0  0
  2 15  1  0  0  0  0
  3  4  1  0  0  0  0
  3 23  1  0  0  0  0
  4 14  1  0  0  0  0
  4  5  2  0  0  0  0
  5  6  1  0  0  0  0
  5 24  1  0  0  0  0
  6  7  2  0  0  0  0
  6 25  1  0  0  0  0
  7  8  1  0  0  0  0
  7 13  1  0  0  0  0
  8 12  1  0  0  0  0
  8  9  1  0  0  0  0
  9 10  1  0  0  0  0
  9 26  1  0  0  0  0
  9 27  1  0  0  0  0
 10 11  1  0  0  0  0
 10 28  1  0  0  0  0
 10 29  1  0  0  0  0
 11 12  1  0  0  0  0
 11 30  1  0  0  0  0
 11 31  1  0  0  0  0
 12 32  1  0  0  0  0
 12 33  1  0  0  0  0
 13 14  2  0  0  0  0
 14 34  1  0  0  0  0
 15 16  1  0  0  0  0
 15 35  1  0  0  0  0
 16 22  1  0  0  0  0
 16 17  1  0  0  0  0
 16 36  1  0  0  0  0
 17 18  1  0  0  0  0
 17 37  1  0  0  0  0
 17 38  1  0  0  0  0
 18 19  1  0  0  0  0
 18 39  1  0  0  0  0
 18 40  1  0  0  0  0
 19 20  1  0  0  0  0
 19 21  1  0  0  0  0
 19 41  1  0  0  0  0
 20 42  1  0  0  0  0
 21 22  1  0  0  0  0
 21 43  1  0  0  0  0
 21 44  1  0  0  0  0
 22 45  1  0  0  0  0
 22 46  1  0  0  0  0
M  END
> <s_m_source_file>
AV-unprocessed.smi

> <i_m_source_file_index>
1489

> <i_lp_mmshare_version>
43012

> <i_f3d_flags>
0

> <s_epik_input>
W0NIMl0xW0NIMl1bQ0BIXShbT0hdKVtDSDJdW0NIMl1bQ0BIXTFbTkhdQyg9TylbTkhdYzJbY0hdW2NIXWMobltjSF0yKU4zW0NIMl1bQ0gyXVtDSDJdW0NIMl0z

> <s_epik_cmdline>
J2VwaWtfcHl0aG9uJywgJy1waCcsICc3LjAnLCAnLXRuJywgJzgnLCAnLW1hJywgJzIwMCcsICctbWV0YWxfYmluZGluZycsICctaW1hZScsICc8aW5maWxlLm1hZT4nLCAnLW9tYWUnLCAnPG91dGZpbGUubWFlPic=

> <r_lp_tautomer_probability>
1

> <r_epik_Ionization_Penalty>
0.104121

> <r_epik_Ionization_Penalty_Charging>
0

> <r_epik_Ionization_Penalty_Neutral>
0.104121

> <r_epik_State_Penalty>
0.0934704

> <r_epik_Charging_Adjusted_Penalty>
0.0934704

> <i_epik_Tot_Q>
0

> <i_epik_Tot_abs_Q>
0

> <r_epik_Metal_State_Penalty>
0.0794432

> <b_epik_Metal_Only>
0

> <s_lp_Force_Field>
OPLS_2005

> <r_lp_Energy>
35.391

> <b_lp_Chiralities_Consistent>
1

> <s_lp_Variant>
AV-unprocessed.smi:1489-2

> <Gold.Version>
5.8.1

> <Gold.Id.Protein>
6NUR|6NUR_protein|mol2

> <Gold.PLP.Fitness>
45.2998

> <Gold.PLP.PLP>
-39.2590

> <Gold.PLP.part.hbond>
-3.9368

> <Gold.PLP.part.metal>
0.0000

> <Gold.PLP.part.buried>
-1.8591

> <Gold.PLP.part.nonpolar>
-35.0158

> <Gold.PLP.part.repulsive>
0.3174

> <Gold.PLP.ligand.clash>
0.0000

> <Gold.PLP.ligand.torsion>
0.9183

> <Gold.PLP.Chemscore.Hbond>
2.5623

> <Gold.PLP.Chemscore.CHOScore>
0.0000

> <Gold.PLP.Chemscore.Metal>
0.0000

> <Gold.Chemscore.Hbonds>
donor molecule, donor type, donor heavy atom, donor atom, acceptor molecule, acceptor atom, score
      L1  H     3    23       P1  7948  0.90
      L1  H    15    35       P1  7948  1.00
      L1  H    20    42       P1 10957  0.69

> <Gold.PLP.Chemscore.Internal.Correction>
0.1907

> <Gold.Rescore>
     Score         DG    S(hbond)    S(metal)    S(lipo)     H(rot)  DE(clash)    DE(int)     intcor
     17.60     -22.66       2.83        0.00      97.01       1.41       1.72       3.33       ----

> <Gold.Chemscore.Fitness>
17.6046

> <Gold.Chemscore.DG>
-22.6593

> <Gold.Chemscore.ZeroCoef>
-5.4800

> <Gold.Chemscore.Hbond>
2.8254

> <Gold.Chemscore.Metal>
0.0000

> <Gold.Chemscore.Lipo>
97.0103

> <Gold.Chemscore.Internal_Hbond>
0.0000

> <Gold.Chemscore.DEClash>
1.7245

> <Gold.Chemscore.DEInternal>
3.3302

> <Gold.Chemscore.Rot>
1.4093

> <Gold.Chemscore.Internal.Correction>
   9.000000E+99

> <Gold.Chemscore.Hbonds>
donor molecule, donor type, donor heavy atom, donor atom, acceptor molecule, acceptor atom, score
      L1  H     3    23       P1  7948  0.82
      L1  H    15    35       P1  7948  0.95
      L1  H    20    42       P1 10957  0.64

> <Gold.Chemscore.Hbond.Weighted>
-9.4369

> <Gold.Chemscore.Metal.Weighted>
-0.0000

> <Gold.Chemscore.Lipo.Weighted>
-11.3502

> <Gold.Chemscore.Internal_Hbond.Weighted>
0.0000

> <Gold.Chemscore.DEClash.Weighted>
1.7245

> <Gold.Chemscore.DEInternal.Weighted>
3.3302

> <Gold.Chemscore.Rot.Weighted>
3.6077

> <Gold.Chemscore.Internal.Correction.Weighted>
   9.000000E+99

> <Gold.Protein.RotatedTorsions>
[ 6907 6896 6895 6894 ] final  168.82 input  -60.11 | X-H torsion
[ 7974 7965 7964 7962 ] final  -31.31 input  175.53 | X-H torsion
[ 8008 7997 7996 7995 ] final   96.78 input   59.86 | X-H torsion
[ 10167 10162 10161 10158 ] final  -96.79 input  -65.29 | X-H torsion
[ 10718 10713 10712 10709 ] final -167.16 input   66.30 | X-H torsion
[ 10763 10752 10751 10750 ] final  106.79 input  -60.55 | X-H torsion
[ 11005 11000 10999 10996 ] final   41.17 input  -57.11 | X-H torsion

> <Gold.Protein.ActiveResidues>
 VAL166  LYS551  ARG553  GLY616  TRP617  ASP618  TYR619  PRO620  LYS621  CYS622 
 ASP623  PHE694  ASN695  SER759  ASP760  ASP761  ALA762  ILE779  LEU786  VAL792 
 PHE793  MET794  SER795  GLU796  ALA797  LYS798  CYS799  TRP800  GLU811  SER814 

> <Gold.Protein.RotatedAtoms>
  151.8416  133.3424  159.3644 H   0  0  0  0  0  0  0  0  0  0  0  0  # atno 6907 bound_to 6896
  150.7233  134.5386  159.5745 H   0  0  0  0  0  0  0  0  0  0  0  0  # atno 6908 bound_to 6896
  152.2861  134.7775  160.0438 H   0  0  0  0  0  0  0  0  0  0  0  0  # atno 6909 bound_to 6896
  146.1077  140.5651  142.8792 H   0  0  0  0  0  0  0  0  0  0  0  0  # atno 7974 bound_to 7965
  156.0832  140.3268  155.7720 H   0  0  0  0  0  0  0  0  0  0  0  0  # atno 8008 bound_to 7997
  155.5119  140.0578  157.2939 H   0  0  0  0  0  0  0  0  0  0  0  0  # atno 8009 bound_to 7997
  154.4594  140.1959  156.0304 H   0  0  0  0  0  0  0  0  0  0  0  0  # atno 8010 bound_to 7997
  140.2901  143.3227  152.0354 H   0  0  0  0  0  0  0  0  0  0  0  0  # atno 10167 bound_to 10162
  156.6784  130.9112  151.3053 H   0  0  0  0  0  0  0  0  0  0  0  0  # atno 10718 bound_to 10713
  153.3979  135.3865  155.1967 H   0  0  0  0  0  0  0  0  0  0  0  0  # atno 10763 bound_to 10752
  154.8726  135.3764  154.4656 H   0  0  0  0  0  0  0  0  0  0  0  0  # atno 10764 bound_to 10752
  153.5150  135.7087  153.5823 H   0  0  0  0  0  0  0  0  0  0  0  0  # atno 10765 bound_to 10752
  140.1860  134.4045  155.8173 H   0  0  0  0  0  0  0  0  0  0  0  0  # atno 11005 bound_to 11000
  144.7485  140.5129  143.6819 LP  0  0  0  0  0  0  0  0  0  0  0  0  # atno 17320 bound_to 7965
  145.5727  139.1484  143.3279 LP  0  0  0  0  0  0  0  0  0  0  0  0  # atno 17321 bound_to 7965
  139.4940  144.6531  151.6632 LP  0  0  0  0  0  0  0  0  0  0  0  0  # atno 17342 bound_to 10162
  140.5739  144.0061  150.6231 LP  0  0  0  0  0  0  0  0  0  0  0  0  # atno 17343 bound_to 10162
  157.7052  130.9377  150.0909 LP  0  0  0  0  0  0  0  0  0  0  0  0  # atno 17370 bound_to 10713
  156.1886  130.3653  149.8940 LP  0  0  0  0  0  0  0  0  0  0  0  0  # atno 17371 bound_to 10713
  141.2225  133.7023  156.8013 LP  0  0  0  0  0  0  0  0  0  0  0  0  # atno 17394 bound_to 11000
  140.2213  134.8754  157.3380 LP  0  0  0  0  0  0  0  0  0  0  0  0  # atno 17395 bound_to 11000

$$$$
