AV-unprocessed.smi:444|AV-procd|sdf|2587|dock3
  -GOLD-   2262022573D 1   1.00000     0.00000
 Structure written by MMmdl.
 45 46  0  0  0  0  0  0  0  0  1 V2000
  153.8464  142.4277  161.2354 C   0  0  0  0  0  0  0  0  0  0  0  0
  152.8660  142.2265  160.0984 C   0  0  0  0  0  0  0  0  0  0  0  0
  152.4137  143.3282  159.3471 C   0  0  0  0  0  0  0  0  0  0  0  0
  151.5051  143.1329  158.2916 C   0  0  0  0  0  0  0  0  0  0  0  0
  151.0436  141.8370  157.9804 C   0  0  0  0  0  0  0  0  0  0  0  0
  150.0634  141.6448  156.8383 C   0  0  0  0  0  0  0  0  0  0  0  0
  151.4901  140.7213  158.7261 C   0  0  0  0  0  0  0  0  0  0  0  0
  151.0000  139.4815  158.3694 O   0  0  0  0  0  0  0  0  0  0  0  0
  151.5535  138.3276  158.9883 C   0  0  0  0  0  0  0  0  0  0  0  0
  150.6617  137.1158  158.6662 C   0  0  2  0  0  0  0  0  0  0  0  0
  150.4249  137.1402  157.2719 O   0  0  0  0  0  0  0  0  0  0  0  0
  149.2976  137.1956  159.3877 C   0  0  0  0  0  0  0  0  0  0  0  0
  148.8847  135.8931  159.9255 N   0  0  0  0  0  0  0  0  0  0  0  0
  149.0102  134.8492  159.0291 N   0  0  0  0  0  0  0  0  0  0  0  0
  148.6838  133.6410  159.3521 C   0  0  0  0  0  0  0  0  0  0  0  0
  148.8616  132.5863  158.2934 C   0  0  0  0  0  0  0  0  0  0  0  0
  148.1733  133.3639  160.6909 C   0  0  0  0  0  0  0  0  0  0  0  0
  147.8093  131.9220  161.0175 C   0  0  0  0  0  0  0  0  0  0  0  0
  148.0467  134.3986  161.5589 C   0  0  0  0  0  0  0  0  0  0  0  0
  147.5506  134.2248  162.8861 C   0  0  0  0  0  0  0  0  0  0  0  0
  147.1378  134.0674  163.9561 N   0  0  0  0  0  0  0  0  0  0  0  0
  148.4083  135.7710  161.1971 C   0  0  0  0  0  0  0  0  0  0  0  0
  148.2938  136.7327  161.9581 O   0  0  0  0  0  0  0  0  0  0  0  0
  152.4072  140.9304  159.7879 C   0  0  0  0  0  0  0  0  0  0  0  0
  153.8915  143.4743  161.5385 H   0  0  0  0  0  0  0  0  0  0  0  0
  154.8454  142.1157  160.9303 H   0  0  0  0  0  0  0  0  0  0  0  0
  153.5516  141.8374  162.1035 H   0  0  0  0  0  0  0  0  0  0  0  0
  152.7609  144.3251  159.5767 H   0  0  0  0  0  0  0  0  0  0  0  0
  151.1637  143.9843  157.7210 H   0  0  0  0  0  0  0  0  0  0  0  0
  149.1484  141.1740  157.1993 H   0  0  0  0  0  0  0  0  0  0  0  0
  150.4995  141.0055  156.0700 H   0  0  0  0  0  0  0  0  0  0  0  0
  149.7954  142.5956  156.3762 H   0  0  0  0  0  0  0  0  0  0  0  0
  152.5496  138.1688  158.5724 H   0  0  0  0  0  0  0  0  0  0  0  0
  151.6587  138.4568  160.0672 H   0  0  0  0  0  0  0  0  0  0  0  0
  151.1817  136.1975  158.9431 H   0  0  0  0  0  0  0  0  0  0  0  0
  150.9405  137.8346  156.8906 H   0  0  0  0  0  0  0  0  0  0  0  0
  149.3734  137.8855  160.2302 H   0  0  0  0  0  0  0  0  0  0  0  0
  148.5345  137.6360  158.7427 H   0  0  0  0  0  0  0  0  0  0  0  0
  147.9264  132.0557  158.1128 H   0  0  0  0  0  0  0  0  0  0  0  0
  149.6124  131.8566  158.5976 H   0  0  0  0  0  0  0  0  0  0  0  0
  149.1844  133.0143  157.3428 H   0  0  0  0  0  0  0  0  0  0  0  0
  147.5104  131.7971  162.0579 H   0  0  0  0  0  0  0  0  0  0  0  0
  148.6588  131.2607  160.8424 H   0  0  0  0  0  0  0  0  0  0  0  0
  146.9791  131.5886  160.3939 H   0  0  0  0  0  0  0  0  0  0  0  0
  152.7757  140.1076  160.3813 H   0  0  0  0  0  0  0  0  0  0  0  0
  1  2  1  0  0  0  0
  1 25  1  0  0  0  0
  1 26  1  0  0  0  0
  1 27  1  0  0  0  0
  2 24  1  0  0  0  0
  2  3  2  0  0  0  0
  3  4  1  0  0  0  0
  3 28  1  0  0  0  0
  4  5  2  0  0  0  0
  4 29  1  0  0  0  0
  5  6  1  0  0  0  0
  5  7  1  0  0  0  0
  6 30  1  0  0  0  0
  6 31  1  0  0  0  0
  6 32  1  0  0  0  0
  7  8  1  0  0  0  0
  7 24  2  0  0  0  0
  8  9  1  0  0  0  0
  9 10  1  0  0  0  0
  9 33  1  0  0  0  0
  9 34  1  0  0  0  0
 10 11  1  0  0  0  0
 10 12  1  0  0  0  0
 10 35  1  0  0  0  0
 11 36  1  0  0  0  0
 12 13  1  0  0  0  0
 12 37  1  0  0  0  0
 12 38  1  0  0  0  0
 13 22  1  0  0  0  0
 13 14  1  0  0  0  0
 14 15  2  0  0  0  0
 15 16  1  0  0  0  0
 15 17  1  0  0  0  0
 16 39  1  0  0  0  0
 16 40  1  0  0  0  0
 16 41  1  0  0  0  0
 17 18  1  0  0  0  0
 17 19  2  0  0  0  0
 18 42  1  0  0  0  0
 18 43  1  0  0  0  0
 18 44  1  0  0  0  0
 19 20  1  0  0  0  0
 19 22  1  0  0  0  0
 20 21  3  0  0  0  0
 22 23  2  0  0  0  0
 24 45  1  0  0  0  0
M  END
> <s_m_source_file>
AV-unprocessed.smi

> <i_m_source_file_index>
444

> <i_lp_mmshare_version>
43012

> <i_f3d_flags>
0

> <s_epik_input>
W0NIM11jMVtjSF1bY0hdYyhbQ0gzXSljKFtjSF0xKU9bQ0gyXVtDQEhdKFtPSF0pW0NIMl1uMm5jKFtDSDNdKWMoW0NIM10pYyhDI04pYzI9Tw==

> <s_epik_cmdline>
J2VwaWtfcHl0aG9uJywgJy1waCcsICc3LjAnLCAnLXRuJywgJzgnLCAnLW1hJywgJzIwMCcsICctbWV0YWxfYmluZGluZycsICctaW1hZScsICc8aW5maWxlLm1hZT4nLCAnLW9tYWUnLCAnPG91dGZpbGUubWFlPic=

> <r_lp_tautomer_probability>
1

> <r_epik_Ionization_Penalty>
1.17331e-07

> <r_epik_Ionization_Penalty_Charging>
1.57223e-10

> <r_epik_Ionization_Penalty_Neutral>
1.17174e-07

> <r_epik_State_Penalty>
-0

> <r_epik_Charging_Adjusted_Penalty>
1.57223e-10

> <i_epik_Tot_Q>
0

> <i_epik_Tot_abs_Q>
0

> <r_epik_Metal_State_Penalty>
-0

> <b_epik_Metal_Only>
0

> <s_lp_Force_Field>
OPLS_2005

> <r_lp_Energy>
32.4723

> <b_lp_Chiralities_Consistent>
1

> <s_lp_Variant>
AV-unprocessed.smi:444-1

> <Gold.Version>
5.8.1

> <Gold.Id.Protein>
6NUR|6NUR_protein|mol2

> <Gold.PLP.Fitness>
49.3288

> <Gold.PLP.PLP>
-43.6802

> <Gold.PLP.part.hbond>
-3.9925

> <Gold.PLP.part.metal>
0.0000

> <Gold.PLP.part.buried>
-5.4482

> <Gold.PLP.part.nonpolar>
-35.6485

> <Gold.PLP.part.repulsive>
0.0144

> <Gold.PLP.ligand.clash>
0.0000

> <Gold.PLP.ligand.torsion>
0.9025

> <Gold.PLP.Chemscore.Hbond>
2.4802

> <Gold.PLP.Chemscore.CHOScore>
0.0000

> <Gold.PLP.Chemscore.Metal>
0.0000

> <Gold.Chemscore.Hbonds>
donor molecule, donor type, donor heavy atom, donor atom, acceptor molecule, acceptor atom, score
      P1  H  6888  6897       L1    21  0.02
      P1  H  6896  6909       L1    14  0.27
      P1  H  6931  6943       L1    23  1.00

> <Gold.PLP.Chemscore.Internal.Correction>
0.0129

> <Gold.Rescore>
     Score         DG    S(hbond)    S(metal)    S(lipo)     H(rot)  DE(clash)    DE(int)     intcor
     17.48     -18.36       1.77        0.00     109.57       2.29       0.03       0.85       ----

> <Gold.Chemscore.Fitness>
17.4811

> <Gold.Chemscore.DG>
-18.3551

> <Gold.Chemscore.ZeroCoef>
-5.4800

> <Gold.Chemscore.Hbond>
1.7721

> <Gold.Chemscore.Metal>
0.0000

> <Gold.Chemscore.Lipo>
109.5705

> <Gold.Chemscore.Internal_Hbond>
0.0000

> <Gold.Chemscore.DEClash>
0.0255

> <Gold.Chemscore.DEInternal>
0.8485

> <Gold.Chemscore.Rot>
2.2905

> <Gold.Chemscore.Internal.Correction>
   9.000000E+99

> <Gold.Chemscore.Hbonds>
donor molecule, donor type, donor heavy atom, donor atom, acceptor molecule, acceptor atom, score
      P1  H  6888  6897       L1    21  0.03
      P1  H  6931  6943       L1    23  1.00

> <Gold.Chemscore.Hbond.Weighted>
-5.9190

> <Gold.Chemscore.Metal.Weighted>
-0.0000

> <Gold.Chemscore.Lipo.Weighted>
-12.8198

> <Gold.Chemscore.Internal_Hbond.Weighted>
0.0000

> <Gold.Chemscore.DEClash.Weighted>
0.0255

> <Gold.Chemscore.DEInternal.Weighted>
0.8485

> <Gold.Chemscore.Rot.Weighted>
5.8636

> <Gold.Chemscore.Internal.Correction.Weighted>
   9.000000E+99

> <Gold.Protein.RotatedTorsions>
[ 6907 6896 6895 6894 ] final   50.34 input  -60.11 | X-H torsion
[ 7974 7965 7964 7962 ] final   13.89 input  175.53 | X-H torsion
[ 8008 7997 7996 7995 ] final  162.99 input   59.86 | X-H torsion
[ 10167 10162 10161 10158 ] final   16.84 input  -65.29 | X-H torsion
[ 10718 10713 10712 10709 ] final    7.82 input   66.30 | X-H torsion
[ 10763 10752 10751 10750 ] final   -6.19 input  -60.55 | X-H torsion
[ 11005 11000 10999 10996 ] final   70.34 input  -57.11 | X-H torsion

> <Gold.Protein.ActiveResidues>
 VAL166  LYS551  ARG553  GLY616  TRP617  ASP618  TYR619  PRO620  LYS621  CYS622 
 ASP623  PHE694  ASN695  SER759  ASP760  ASP761  ALA762  ILE779  LEU786  VAL792 
 PHE793  MET794  SER795  GLU796  ALA797  LYS798  CYS799  TRP800  GLU811  SER814 

> <Gold.Protein.RotatedAtoms>
  152.3007  134.7614  160.0358 H   0  0  0  0  0  0  0  0  0  0  0  0  # atno 6907 bound_to 6896
  151.8128  133.3379  159.3569 H   0  0  0  0  0  0  0  0  0  0  0  0  # atno 6908 bound_to 6896
  150.7272  134.5577  159.5871 H   0  0  0  0  0  0  0  0  0  0  0  0  # atno 6909 bound_to 6896
  146.2318  139.9122  142.8522 H   0  0  0  0  0  0  0  0  0  0  0  0  # atno 7974 bound_to 7965
  156.1990  140.1735  156.7938 H   0  0  0  0  0  0  0  0  0  0  0  0  # atno 8008 bound_to 7997
  154.5567  140.0707  156.8786 H   0  0  0  0  0  0  0  0  0  0  0  0  # atno 8009 bound_to 7997
  155.2925  140.3356  155.4254 H   0  0  0  0  0  0  0  0  0  0  0  0  # atno 8010 bound_to 7997
  140.5769  143.9056  150.6757 H   0  0  0  0  0  0  0  0  0  0  0  0  # atno 10167 bound_to 10162
  156.9426  130.5867  149.5653 H   0  0  0  0  0  0  0  0  0  0  0  0  # atno 10718 bound_to 10713
  153.4089  135.7007  153.6373 H   0  0  0  0  0  0  0  0  0  0  0  0  # atno 10763 bound_to 10752
  153.4875  135.3680  155.2475 H   0  0  0  0  0  0  0  0  0  0  0  0  # atno 10764 bound_to 10752
  154.8715  135.4081  154.3437 H   0  0  0  0  0  0  0  0  0  0  0  0  # atno 10765 bound_to 10752
  139.9603  134.7072  156.0660 H   0  0  0  0  0  0  0  0  0  0  0  0  # atno 11005 bound_to 11000
  145.2218  140.9938  143.4041 LP  0  0  0  0  0  0  0  0  0  0  0  0  # atno 17320 bound_to 7965
  144.9604  139.3986  143.6359 LP  0  0  0  0  0  0  0  0  0  0  0  0  # atno 17321 bound_to 7965
  140.2545  143.3568  152.1376 LP  0  0  0  0  0  0  0  0  0  0  0  0  # atno 17342 bound_to 10162
  139.5147  144.6952  151.5649 LP  0  0  0  0  0  0  0  0  0  0  0  0  # atno 17343 bound_to 10162
  156.0398  130.5481  150.8742 LP  0  0  0  0  0  0  0  0  0  0  0  0  # atno 17370 bound_to 10713
  157.5775  131.0946  150.9323 LP  0  0  0  0  0  0  0  0  0  0  0  0  # atno 17371 bound_to 10713
  141.1280  133.6594  156.3387 LP  0  0  0  0  0  0  0  0  0  0  0  0  # atno 17394 bound_to 11000
  140.5515  134.6023  157.5409 LP  0  0  0  0  0  0  0  0  0  0  0  0  # atno 17395 bound_to 11000

$$$$
