#       Name:                AV-unprocessed.smi:1709
#       Creating user name   scv26
#       Creation time:       Fri Mar 27 08:10:04 2020


#       File generated by GOLD software.
#

@<TRIPOS>MOLECULE
AV-unprocessed.smi:1709
    46    48     1
SMALL
NO_CHARGES


@<TRIPOS>ATOM
      1 ****        -1.2871  -4.0425   1.9208 C.3            1 S1                 0.0000
      2 ****         0.1109  -4.5612   1.6237 C.ar           1 S1                 0.0000
      3 ****         0.3665  -5.9452   1.7268 C.ar           1 S1                 0.0000
      4 ****         1.6581  -6.4265   1.4551 C.ar           1 S1                 0.0000
      5 ****         2.6463  -5.4968   1.0915 C.ar           1 S1                 0.0000
      6 ****         2.4107  -4.1726   0.9914 N.ar           1 S1                 0.0000
      7 ****         1.1667  -3.6889   1.2441 C.ar           1 S1                 0.0000
      8 ****         0.8339  -2.3003   1.1752 N.am           1 S1                 0.0000
      9 ****         1.5421  -1.2290   0.7590 C.2            1 S1                 0.0000
     10 ****         2.6927  -1.3503   0.3425 O.2            1 S1                 0.0000
     11 ****         0.9172  -0.0420   0.8282 N.am           1 S1                 0.0000
     12 ****         1.4700   1.2432   0.4075 C.3            1 S1                 0.0000
     13 ****         0.9176   2.4251   1.2279 C.3            1 S1                 0.0000
     14 ****         0.6465   3.5245   0.1961 C.3            1 S1                 0.0000
     15 ****         0.2686   2.7659  -1.0017 N.4            1 S1                 1.0000
     16 ****         0.1713   3.4836  -2.2889 C.3            1 S1                 0.0000
     17 ****        -0.4115   2.5186  -3.3437 C.3            1 S1                 0.0000
     18 ****         0.3701   1.1873  -3.4133 C.3            1 S1                 0.0000
     19 ****         0.5467   0.5527  -2.0171 C.3            1 S1                 0.0000
     20 ****         1.1615   1.5963  -1.0666 C.3            1 S1                 0.0000
     21 ****        -1.9719  -4.8579   2.1554 H              1 S1                 0.0000
     22 ****        -1.6882  -3.5070   1.0598 H              1 S1                 0.0000
     23 ****        -1.2685  -3.3638   2.7739 H              1 S1                 0.0000
     24 ****        -0.4165  -6.6331   2.0112 H              1 S1                 0.0000
     25 ****         1.8851  -7.4801   1.5246 H              1 S1                 0.0000
     26 ****         3.6527  -5.8229   0.8754 H              1 S1                 0.0000
     27 ****        -0.0753  -2.0754   1.5526 H              1 S1                 0.0000
     28 ****        -0.0281  -0.0373   1.1857 H              1 S1                 0.0000
     29 ****         2.5541   1.2233   0.5361 H              1 S1                 0.0000
     30 ****        -0.0215   2.1463   1.7088 H              1 S1                 0.0000
     31 ****         1.6032   2.7501   2.0111 H              1 S1                 0.0000
     32 ****        -0.1399   4.2121   0.5091 H              1 S1                 0.0000
     33 ****         1.5529   4.0991  -0.0014 H              1 S1                 0.0000
     34 ****        -0.4755   4.3545  -2.1777 H              1 S1                 0.0000
     35 ****         1.1546   3.8459  -2.5928 H              1 S1                 0.0000
     36 ****        -1.4521   2.3057  -3.0952 H              1 S1                 0.0000
     37 ****        -0.4231   2.9972  -4.3234 H              1 S1                 0.0000
     38 ****        -0.1374   0.4898  -4.0801 H              1 S1                 0.0000
     39 ****         1.3519   1.3708  -3.8514 H              1 S1                 0.0000
     40 ****        -0.4174   0.2119  -1.6370 H              1 S1                 0.0000
     41 ****         1.1888  -0.3253  -2.0903 H              1 S1                 0.0000
     42 ****         2.1054   1.9298  -1.5036 H              1 S1                 0.0000
     43 ****        -0.6528   2.4008  -0.8076 H              1 S1                 0.0000
     44 ****         3.1486  -3.5494   0.7322 LP             1 S1                 0.0000
     45 ****         3.1192  -2.2541   0.3079 LP             1 S1                 0.0000
     46 ****         3.2018  -0.5452   0.0384 LP             1 S1                 0.0000
@<TRIPOS>BOND
    1    1    2 1     
    2    1   21 1     
    3    1   22 1     
    4    1   23 1     
    5    2    7 ar    
    6    2    3 ar    
    7    3    4 ar    
    8    3   24 1     
    9    4    5 ar    
   10    4   25 1     
   11    5    6 ar    
   12    5   26 1     
   13    6    7 ar    
   14    7    8 1     
   15    8    9 am    
   16    8   27 1     
   17    9   10 2     
   18    9   11 am    
   19   11   12 1     
   20   11   28 1     
   21   12   20 1     
   22   12   13 1     
   23   12   29 1     
   24   13   14 1     
   25   13   30 1     
   26   13   31 1     
   27   14   15 1     
   28   14   32 1     
   29   14   33 1     
   30   15   20 1     
   31   15   16 1     
   32   15   43 1     
   33   16   17 1     
   34   16   34 1     
   35   16   35 1     
   36   17   18 1     
   37   17   36 1     
   38   17   37 1     
   39   18   19 1     
   40   18   38 1     
   41   18   39 1     
   42   19   20 1     
   43   19   40 1     
   44   19   41 1     
   45   20   42 1     
   46    6   44 1     
   47   10   45 1     
   48   10   46 1     
@<TRIPOS>SUBSTRUCTURE
      1 S1             1
@<TRIPOS>SET
LONE_PAIRS      STATIC     ATOMS    <user>   **** ""
3 44 45 46
DONOR_HYDROGENS      STATIC     ATOMS    <user>   **** ""
3 27 28 43
ATOM$BLUE        STATIC     ATOMS    COLORGROUP SYSTEM
3 44 45 46
ATOM$RED        STATIC     ATOMS    COLORGROUP SYSTEM
3 27 28 43
