AV-unprocessed.smi:119|AV-procd|sdf|1133|dock7
  -GOLD-   2262018263D 1   1.00000     0.00000
 Structure written by MMmdl.
 51 54  0  0  0  0  0  0  0  0  1 V2000
  146.1086  131.9047  157.4453 C   0  0  0  0  0  0  0  0  0  0  0  0
  146.2963  133.1962  158.2521 C   0  0  2  0  0  0  0  0  0  0  0  0
  146.6015  134.3880  157.3218 C   0  0  0  0  0  0  0  0  0  0  0  0
  146.5670  135.7653  158.0099 C   0  0  0  0  0  0  0  0  0  0  0  0
  147.7003  135.9564  158.9205 N   0  0  0  0  0  0  0  0  0  0  0  0
  148.9091  136.3576  158.4506 C   0  0  0  0  0  0  0  0  0  0  0  0
  149.9005  136.4351  159.1796 O   0  0  0  0  0  0  0  0  0  0  0  0
  149.0589  136.7356  156.9585 C   0  0  0  0  0  0  0  0  0  0  0  0
  150.0502  137.8119  156.7434 N   0  0  0  0  0  0  0  0  0  0  0  0
  151.0731  137.6284  155.7806 C   0  0  0  0  0  0  0  0  0  0  0  0
  151.1509  136.5925  155.1189 O   0  0  0  0  0  0  0  0  0  0  0  0
  152.0093  138.7383  155.6396 C   0  0  0  0  0  0  0  0  0  0  0  0
  152.9947  138.6664  154.7285 F   0  0  0  0  0  0  0  0  0  0  0  0
  151.9006  139.8411  156.4091 C   0  0  0  0  0  0  0  0  0  0  0  0
  150.9228  139.9895  157.3728 N   0  0  0  0  0  0  0  0  0  0  0  0
  150.8596  141.2691  158.1742 C   0  0  2  0  0  0  0  0  0  0  0  0
  150.6948  142.5309  157.3052 C   0  0  0  0  0  0  0  0  0  0  0  0
  151.9170  143.3578  157.6693 C   0  0  0  0  0  0  0  0  0  0  0  0
  152.3200  142.7880  159.0250 C   0  0  0  0  0  0  0  0  0  0  0  0
  152.0460  141.4016  158.8947 O   0  0  0  0  0  0  0  0  0  0  0  0
  149.9498  138.9783  157.5402 C   0  0  0  0  0  0  0  0  0  0  0  0
  149.0381  139.1031  158.3600 O   0  0  0  0  0  0  0  0  0  0  0  0
  147.4877  135.6136  160.2799 C   0  0  0  0  0  0  0  0  0  0  0  0
  147.3582  136.6378  161.2433 C   0  0  0  0  0  0  0  0  0  0  0  0
  147.1561  136.3121  162.5980 C   0  0  0  0  0  0  0  0  0  0  0  0
  147.0826  134.9632  162.9945 C   0  0  0  0  0  0  0  0  0  0  0  0
  147.2084  133.9387  162.0367 C   0  0  0  0  0  0  0  0  0  0  0  0
  147.4048  134.2582  160.6785 C   0  0  0  0  0  0  0  0  0  0  0  0
  147.5840  132.9426  159.5105 S   0  0  0  0  0  0  0  0  0  0  0  0
  145.2991  132.0050  156.7218 H   0  0  0  0  0  0  0  0  0  0  0  0
  145.8630  131.0669  158.0984 H   0  0  0  0  0  0  0  0  0  0  0  0
  147.0154  131.6456  156.8979 H   0  0  0  0  0  0  0  0  0  0  0  0
  145.3641  133.3943  158.7824 H   0  0  0  0  0  0  0  0  0  0  0  0
  147.5605  134.2377  156.8239 H   0  0  0  0  0  0  0  0  0  0  0  0
  145.8563  134.4014  156.5258 H   0  0  0  0  0  0  0  0  0  0  0  0
  146.5496  136.5543  157.2563 H   0  0  0  0  0  0  0  0  0  0  0  0
  145.6312  135.8781  158.5594 H   0  0  0  0  0  0  0  0  0  0  0  0
  149.3095  135.8290  156.4064 H   0  0  0  0  0  0  0  0  0  0  0  0
  148.1098  137.0553  156.5272 H   0  0  0  0  0  0  0  0  0  0  0  0
  152.6176  140.6357  156.2619 H   0  0  0  0  0  0  0  0  0  0  0  0
  150.0284  141.1474  158.8702 H   0  0  0  0  0  0  0  0  0  0  0  0
  150.6357  142.3030  156.2404 H   0  0  0  0  0  0  0  0  0  0  0  0
  149.7759  143.0380  157.6008 H   0  0  0  0  0  0  0  0  0  0  0  0
  152.7140  143.1923  156.9437 H   0  0  0  0  0  0  0  0  0  0  0  0
  151.7114  144.4279  157.7044 H   0  0  0  0  0  0  0  0  0  0  0  0
  153.3678  142.9705  159.2647 H   0  0  0  0  0  0  0  0  0  0  0  0
  151.7045  143.2079  159.8220 H   0  0  0  0  0  0  0  0  0  0  0  0
  147.4166  137.6746  160.9451 H   0  0  0  0  0  0  0  0  0  0  0  0
  147.0597  137.0971  163.3335 H   0  0  0  0  0  0  0  0  0  0  0  0
  146.9309  134.7140  164.0342 H   0  0  0  0  0  0  0  0  0  0  0  0
  147.1537  132.9057  162.3481 H   0  0  0  0  0  0  0  0  0  0  0  0
  1  2  1  0  0  0  0
  1 30  1  0  0  0  0
  1 31  1  0  0  0  0
  1 32  1  0  0  0  0
  2 29  1  0  0  0  0
  2  3  1  0  0  0  0
  2 33  1  0  0  0  0
  3  4  1  0  0  0  0
  3 34  1  0  0  0  0
  3 35  1  0  0  0  0
  4  5  1  0  0  0  0
  4 36  1  0  0  0  0
  4 37  1  0  0  0  0
  5  6  1  0  0  0  0
  5 23  1  0  0  0  0
  6  7  2  0  0  0  0
  6  8  1  0  0  0  0
  8  9  1  0  0  0  0
  8 38  1  0  0  0  0
  8 39  1  0  0  0  0
  9 21  1  0  0  0  0
  9 10  1  0  0  0  0
 10 11  2  0  0  0  0
 10 12  1  0  0  0  0
 12 13  1  0  0  0  0
 12 14  2  0  0  0  0
 14 15  1  0  0  0  0
 14 40  1  0  0  0  0
 15 16  1  0  0  0  0
 15 21  1  0  0  0  0
 16 20  1  0  0  0  0
 16 17  1  0  0  0  0
 16 41  1  0  0  0  0
 17 18  1  0  0  0  0
 17 42  1  0  0  0  0
 17 43  1  0  0  0  0
 18 19  1  0  0  0  0
 18 44  1  0  0  0  0
 18 45  1  0  0  0  0
 19 20  1  0  0  0  0
 19 46  1  0  0  0  0
 19 47  1  0  0  0  0
 21 22  2  0  0  0  0
 23 28  2  0  0  0  0
 23 24  1  0  0  0  0
 24 25  2  0  0  0  0
 24 48  1  0  0  0  0
 25 26  1  0  0  0  0
 25 49  1  0  0  0  0
 26 27  2  0  0  0  0
 26 50  1  0  0  0  0
 27 28  1  0  0  0  0
 27 51  1  0  0  0  0
 28 29  1  0  0  0  0
M  END
> <s_m_source_file>
AV-unprocessed.smi

> <i_m_source_file_index>
119

> <i_lp_mmshare_version>
43012

> <i_f3d_flags>
0

> <s_epik_input>
W2NIXTFbY0hdW2NIXVtjSF1jKGMxMilTW0NASF0oW0NIM10pW0NIMl1bQ0gyXU4yQyg9TylbQ0gyXW4zYyg9TyljKEYpW2NIXW4oYzM9TylbQ0BASF00W0NIMl1bQ0gyXVtDSDJdTzQ=

> <s_epik_cmdline>
J2VwaWtfcHl0aG9uJywgJy1waCcsICc3LjAnLCAnLXRuJywgJzgnLCAnLW1hJywgJzIwMCcsICctbWV0YWxfYmluZGluZycsICctaW1hZScsICc8aW5maWxlLm1hZT4nLCAnLW9tYWUnLCAnPG91dGZpbGUubWFlPic=

> <r_lp_tautomer_probability>
1

> <r_epik_Ionization_Penalty>
1.68882e-06

> <r_epik_Ionization_Penalty_Charging>
3.67303e-09

> <r_epik_Ionization_Penalty_Neutral>
1.68515e-06

> <r_epik_State_Penalty>
-0

> <r_epik_Charging_Adjusted_Penalty>
3.67303e-09

> <i_epik_Tot_Q>
0

> <i_epik_Tot_abs_Q>
0

> <r_epik_Metal_State_Penalty>
-0

> <b_epik_Metal_Only>
0

> <s_epik_Chemistry_Notes>
This compound contains an acetal/aminal-like group ( X-CH(R)-Y where X, Y are N, S, or O) that may be acid/base labile, releasing an aldehyde.

> <s_lp_Force_Field>
OPLS_2005

> <r_lp_Energy>
42.8221

> <b_lp_Chiralities_Consistent>
1

> <s_lp_Variant>
AV-unprocessed.smi:119-1

> <Gold.Version>
5.8.1

> <Gold.Id.Protein>
6NUR|6NUR_protein|mol2

> <Gold.PLP.Fitness>
51.2257

> <Gold.PLP.PLP>
-46.1316

> <Gold.PLP.part.hbond>
-2.3791

> <Gold.PLP.part.metal>
0.0000

> <Gold.PLP.part.buried>
-5.7092

> <Gold.PLP.part.nonpolar>
-38.8456

> <Gold.PLP.part.repulsive>
0.1207

> <Gold.PLP.ligand.clash>
0.0015

> <Gold.PLP.ligand.torsion>
0.4675

> <Gold.PLP.Chemscore.Hbond>
2.0000

> <Gold.PLP.Chemscore.CHOScore>
0.0000

> <Gold.PLP.Chemscore.Metal>
0.0000

> <Gold.Chemscore.Hbonds>
donor molecule, donor type, donor heavy atom, donor atom, acceptor molecule, acceptor atom, score
      P1  H  6896  6907       L1     7  1.00
      P1  H 10752 10763       L1    11  0.80

> <Gold.PLP.Chemscore.Internal.Correction>
0.0307

> <Gold.Rescore>
     Score         DG    S(hbond)    S(metal)    S(lipo)     H(rot)  DE(clash)    DE(int)     intcor
     18.04     -19.95       1.94        0.00     101.65       1.53       0.18       1.73       ----

> <Gold.Chemscore.Fitness>
18.0373

> <Gold.Chemscore.DG>
-19.9461

> <Gold.Chemscore.ZeroCoef>
-5.4800

> <Gold.Chemscore.Hbond>
1.9405

> <Gold.Chemscore.Metal>
0.0000

> <Gold.Chemscore.Lipo>
101.6496

> <Gold.Chemscore.Internal_Hbond>
0.0000

> <Gold.Chemscore.DEClash>
0.1793

> <Gold.Chemscore.DEInternal>
1.7295

> <Gold.Chemscore.Rot>
1.5266

> <Gold.Chemscore.Internal.Correction>
   9.000000E+99

> <Gold.Chemscore.Hbonds>
donor molecule, donor type, donor heavy atom, donor atom, acceptor molecule, acceptor atom, score
      P1  H  6896  6907       L1     7  0.99
      P1  H 10752 10763       L1    11  0.78

> <Gold.Chemscore.Hbond.Weighted>
-6.4812

> <Gold.Chemscore.Metal.Weighted>
-0.0000

> <Gold.Chemscore.Lipo.Weighted>
-11.8930

> <Gold.Chemscore.Internal_Hbond.Weighted>
0.0000

> <Gold.Chemscore.DEClash.Weighted>
0.1793

> <Gold.Chemscore.DEInternal.Weighted>
1.7295

> <Gold.Chemscore.Rot.Weighted>
3.9081

> <Gold.Chemscore.Internal.Correction.Weighted>
   9.000000E+99

> <Gold.Protein.RotatedTorsions>
[ 6907 6896 6895 6894 ] final  -30.36 input  -60.11 | X-H torsion
[ 7974 7965 7964 7962 ] final  -64.21 input  175.53 | X-H torsion
[ 8008 7997 7996 7995 ] final  165.14 input   59.86 | X-H torsion
[ 10167 10162 10161 10158 ] final -144.20 input  -65.29 | X-H torsion
[ 10718 10713 10712 10709 ] final  -36.26 input   66.30 | X-H torsion
[ 10763 10752 10751 10750 ] final   56.66 input  -60.55 | X-H torsion
[ 11005 11000 10999 10996 ] final  141.16 input  -57.11 | X-H torsion

> <Gold.Protein.ActiveResidues>
 VAL166  LYS551  ARG553  GLY616  TRP617  ASP618  TYR619  PRO620  LYS621  CYS622 
 ASP623  PHE694  ASN695  SER759  ASP760  ASP761  ALA762  ILE779  LEU786  VAL792 
 PHE793  MET794  SER795  GLU796  ALA797  LYS798  CYS799  TRP800  GLU811  SER814 

> <Gold.Protein.RotatedAtoms>
  151.1067  135.0003  159.8474 H   0  0  0  0  0  0  0  0  0  0  0  0  # atno 6907 bound_to 6896
  152.5440  134.1885  159.8674 H   0  0  0  0  0  0  0  0  0  0  0  0  # atno 6908 bound_to 6896
  151.1932  133.4610  159.2628 H   0  0  0  0  0  0  0  0  0  0  0  0  # atno 6909 bound_to 6896
  145.7696  140.8820  143.0387 H   0  0  0  0  0  0  0  0  0  0  0  0  # atno 7974 bound_to 7965
  156.1825  140.1678  156.8248 H   0  0  0  0  0  0  0  0  0  0  0  0  # atno 8008 bound_to 7997
  154.5376  140.0743  156.8487 H   0  0  0  0  0  0  0  0  0  0  0  0  # atno 8009 bound_to 7997
  155.3280  140.3377  155.4242 H   0  0  0  0  0  0  0  0  0  0  0  0  # atno 8010 bound_to 7997
  139.7921  143.7951  152.2651 H   0  0  0  0  0  0  0  0  0  0  0  0  # atno 10167 bound_to 10162
  156.3290  130.4276  149.7890 H   0  0  0  0  0  0  0  0  0  0  0  0  # atno 10718 bound_to 10713
  152.9836  135.5668  154.5265 H   0  0  0  0  0  0  0  0  0  0  0  0  # atno 10763 bound_to 10752
  154.4744  135.2786  155.1620 H   0  0  0  0  0  0  0  0  0  0  0  0  # atno 10764 bound_to 10752
  154.3155  135.6279  153.5537 H   0  0  0  0  0  0  0  0  0  0  0  0  # atno 10765 bound_to 10752
  140.0381  134.9319  157.0790 H   0  0  0  0  0  0  0  0  0  0  0  0  # atno 11005 bound_to 11000
  144.6815  139.9836  143.7483 LP  0  0  0  0  0  0  0  0  0  0  0  0  # atno 17320 bound_to 7965
  146.0183  139.3229  143.0828 LP  0  0  0  0  0  0  0  0  0  0  0  0  # atno 17321 bound_to 7965
  139.8045  144.7360  150.9779 LP  0  0  0  0  0  0  0  0  0  0  0  0  # atno 17342 bound_to 10162
  140.7820  143.4311  151.0693 LP  0  0  0  0  0  0  0  0  0  0  0  0  # atno 17343 bound_to 10162
  156.5170  130.8197  151.3189 LP  0  0  0  0  0  0  0  0  0  0  0  0  # atno 17370 bound_to 10713
  157.7427  130.9895  150.2534 LP  0  0  0  0  0  0  0  0  0  0  0  0  # atno 17371 bound_to 10713
  140.4115  134.1976  155.7163 LP  0  0  0  0  0  0  0  0  0  0  0  0  # atno 17394 bound_to 11000
  141.1868  133.8294  157.1055 LP  0  0  0  0  0  0  0  0  0  0  0  0  # atno 17395 bound_to 11000

$$$$
