AV-unprocessed.smi:2829|AV-procd|sdf|10901|dock1
  -GOLD-   2272015343D 1   1.00000     0.00000
 Structure written by MMmdl.
 50 53  0  0  0  0  0  0  0  0  1 V2000
  145.4779  132.4237  161.9317 C   0  0  0  0  0  0  0  0  0  0  0  0
  144.7545  133.7689  161.7141 C   0  0  0  0  0  0  0  0  0  0  0  0
  143.4659  133.5452  160.8951 C   0  0  0  0  0  0  0  0  0  0  0  0
  144.3347  134.3006  163.1033 C   0  0  0  0  0  0  0  0  0  0  0  0
  145.6825  134.7436  160.9669 C   0  0  0  0  0  0  0  0  0  0  0  0
  146.9342  135.1618  161.4726 C   0  0  0  0  0  0  0  0  0  0  0  0
  147.6882  136.0568  160.6948 C   0  0  0  0  0  0  0  0  0  0  0  0
  147.1586  136.4867  159.4617 C   0  0  0  0  0  0  0  0  0  0  0  0
  147.9732  137.3912  158.7321 N   0  0  0  0  0  0  0  0  0  0  0  0
  149.3183  137.4762  158.7172 C   0  0  0  0  0  0  0  0  0  0  0  0
  150.0745  136.7557  159.3659 O   0  0  0  0  0  0  0  0  0  0  0  0
  149.7952  138.4548  157.9281 N   0  0  0  0  0  0  0  0  0  0  0  0
  151.1972  138.8079  157.6939 C   0  0  1  0  0  0  0  0  0  0  0  0
  151.7252  138.4105  156.2950 C   0  0  1  0  0  0  0  0  0  0  0  0
  150.8246  137.9523  155.1764 C   0  0  0  0  0  0  0  0  0  0  0  0
  150.2794  139.2636  154.6200 C   0  0  0  0  0  0  0  0  0  0  0  0
  151.3216  140.2125  154.8457 O   0  0  0  0  0  0  0  0  0  0  0  0
  152.0520  139.8784  156.0290 C   0  0  1  0  0  0  0  0  0  0  0  0
  151.3946  140.2956  157.3574 C   0  0  0  0  0  0  0  0  0  0  0  0
  150.2630  141.3438  157.4056 C   0  0  0  0  0  0  0  0  0  0  0  0
  151.3053  142.3748  157.8440 C   0  0  0  0  0  0  0  0  0  0  0  0
  152.1716  141.2068  158.3210 C   0  0  0  0  0  0  0  0  0  0  0  0
  145.9490  136.0433  159.0368 N   0  0  0  0  0  0  0  0  0  0  0  0
  145.2275  135.1914  159.7711 N   0  0  0  0  0  0  0  0  0  0  0  0
  144.8512  131.7195  162.4797 H   0  0  0  0  0  0  0  0  0  0  0  0
  146.3982  132.5575  162.5019 H   0  0  0  0  0  0  0  0  0  0  0  0
  145.7437  131.9480  160.9868 H   0  0  0  0  0  0  0  0  0  0  0  0
  143.6761  133.1025  159.9207 H   0  0  0  0  0  0  0  0  0  0  0  0
  142.9393  134.4847  160.7224 H   0  0  0  0  0  0  0  0  0  0  0  0
  142.7788  132.8733  161.4106 H   0  0  0  0  0  0  0  0  0  0  0  0
  143.6766  133.5964  163.6137 H   0  0  0  0  0  0  0  0  0  0  0  0
  143.7927  135.2440  163.0271 H   0  0  0  0  0  0  0  0  0  0  0  0
  145.1973  134.4571  163.7524 H   0  0  0  0  0  0  0  0  0  0  0  0
  147.3251  134.8245  162.4199 H   0  0  0  0  0  0  0  0  0  0  0  0
  148.6508  136.4036  161.0414 H   0  0  0  0  0  0  0  0  0  0  0  0
  147.4781  138.0543  158.1544 H   0  0  0  0  0  0  0  0  0  0  0  0
  149.1117  139.0383  157.4673 H   0  0  0  0  0  0  0  0  0  0  0  0
  151.8738  138.4943  158.4911 H   0  0  0  0  0  0  0  0  0  0  0  0
  152.6268  137.8041  156.3902 H   0  0  0  0  0  0  0  0  0  0  0  0
  151.4102  137.4421  154.4109 H   0  0  0  0  0  0  0  0  0  0  0  0
  150.0353  137.2707  155.4923 H   0  0  0  0  0  0  0  0  0  0  0  0
  150.0182  139.1973  153.5638 H   0  0  0  0  0  0  0  0  0  0  0  0
  149.3876  139.5677  155.1694 H   0  0  0  0  0  0  0  0  0  0  0  0
  153.1190  140.0953  155.9670 H   0  0  0  0  0  0  0  0  0  0  0  0
  149.7832  141.5699  156.4538 H   0  0  0  0  0  0  0  0  0  0  0  0
  149.5266  141.1511  158.1873 H   0  0  0  0  0  0  0  0  0  0  0  0
  151.7463  142.9122  157.0027 H   0  0  0  0  0  0  0  0  0  0  0  0
  150.9757  143.0527  158.6319 H   0  0  0  0  0  0  0  0  0  0  0  0
  151.9978  140.9572  159.3691 H   0  0  0  0  0  0  0  0  0  0  0  0
  153.2353  141.3101  158.1050 H   0  0  0  0  0  0  0  0  0  0  0  0
  1  2  1  0  0  0  0
  1 25  1  0  0  0  0
  1 26  1  0  0  0  0
  1 27  1  0  0  0  0
  2  3  1  0  0  0  0
  2  4  1  0  0  0  0
  2  5  1  0  0  0  0
  3 28  1  0  0  0  0
  3 29  1  0  0  0  0
  3 30  1  0  0  0  0
  4 31  1  0  0  0  0
  4 32  1  0  0  0  0
  4 33  1  0  0  0  0
  5 24  1  0  0  0  0
  5  6  2  0  0  0  0
  6  7  1  0  0  0  0
  6 34  1  0  0  0  0
  7  8  2  0  0  0  0
  7 35  1  0  0  0  0
  8  9  1  0  0  0  0
  8 23  1  0  0  0  0
  9 10  1  0  0  0  0
  9 36  1  0  0  0  0
 10 11  2  0  0  0  0
 10 12  1  0  0  0  0
 12 13  1  0  0  0  0
 12 37  1  0  0  0  0
 13 19  1  0  0  0  0
 13 14  1  0  0  0  0
 13 38  1  0  0  0  0
 14 18  1  0  0  0  0
 14 15  1  0  0  0  0
 14 39  1  0  0  0  0
 15 16  1  0  0  0  0
 15 40  1  0  0  0  0
 15 41  1  0  0  0  0
 16 17  1  0  0  0  0
 16 42  1  0  0  0  0
 16 43  1  0  0  0  0
 17 18  1  0  0  0  0
 18 19  1  0  0  0  0
 18 44  1  0  0  0  0
 19 22  1  0  0  0  0
 19 20  1  0  0  0  0
 20 21  1  0  0  0  0
 20 45  1  0  0  0  0
 20 46  1  0  0  0  0
 21 22  1  0  0  0  0
 21 47  1  0  0  0  0
 21 48  1  0  0  0  0
 22 49  1  0  0  0  0
 22 50  1  0  0  0  0
 23 24  2  0  0  0  0
M  END
> <s_m_source_file>
AV-unprocessed.smi

> <i_m_source_file_index>
2829

> <i_lp_mmshare_version>
43012

> <i_f3d_flags>
0

> <s_epik_input>
W0NIM11DKFtDSDNdKShbQ0gzXSljMVtjSF1bY0hdYyhubjEpW05IXUMoPU8pW05IXVtDQEBIXTJbQ0BIXShbQ0gyXVtDSDJdTzMpW0NAQEhdM0MyNFtDSDJdW0NIMl1bQ0gyXTQ=

> <s_epik_cmdline>
J2VwaWtfcHl0aG9uJywgJy1waCcsICc3LjAnLCAnLXRuJywgJzgnLCAnLW1hJywgJzIwMCcsICctbWV0YWxfYmluZGluZycsICctaW1hZScsICc8aW5maWxlLm1hZT4nLCAnLW9tYWUnLCAnPG91dGZpbGUubWFlPic=

> <r_lp_tautomer_probability>
1

> <r_epik_Ionization_Penalty>
0.011915

> <r_epik_Ionization_Penalty_Charging>
0

> <r_epik_Ionization_Penalty_Neutral>
0.011915

> <r_epik_State_Penalty>
0.00486223

> <r_epik_Charging_Adjusted_Penalty>
0.00486223

> <i_epik_Tot_Q>
0

> <i_epik_Tot_abs_Q>
0

> <r_epik_Metal_State_Penalty>
-0

> <b_epik_Metal_Only>
0

> <s_lp_Force_Field>
OPLS_2005

> <r_lp_Energy>
61.8896

> <b_lp_Chiralities_Consistent>
1

> <s_lp_Variant>
AV-unprocessed.smi:2829-4

> <Gold.Version>
5.8.1

> <Gold.Id.Protein>
6NUR|6NUR_protein|mol2

> <Gold.PLP.Fitness>
39.4341

> <Gold.PLP.PLP>
-34.1598

> <Gold.PLP.part.hbond>
-1.9206

> <Gold.PLP.part.metal>
0.0000

> <Gold.PLP.part.buried>
-5.6782

> <Gold.PLP.part.nonpolar>
-26.9178

> <Gold.PLP.part.repulsive>
0.2755

> <Gold.PLP.ligand.clash>
0.0000

> <Gold.PLP.ligand.torsion>
0.4533

> <Gold.PLP.Chemscore.Hbond>
2.0000

> <Gold.PLP.Chemscore.CHOScore>
0.0000

> <Gold.PLP.Chemscore.Metal>
0.0000

> <Gold.Chemscore.Hbonds>
donor molecule, donor type, donor heavy atom, donor atom, acceptor molecule, acceptor atom, score
      P1  H  6896  6907       L1    11  1.00
      P1  H  7989  7998       L1    17  0.99

> <Gold.PLP.Chemscore.Internal.Correction>
0.1810

> <Gold.Rescore>
     Score         DG    S(hbond)    S(metal)    S(lipo)     H(rot)  DE(clash)    DE(int)     intcor
     19.17     -20.99       1.98        0.00     101.53       1.16       0.01       1.81       ----

> <Gold.Chemscore.Fitness>
19.1677

> <Gold.Chemscore.DG>
-20.9947

> <Gold.Chemscore.ZeroCoef>
-5.4800

> <Gold.Chemscore.Hbond>
1.9790

> <Gold.Chemscore.Metal>
0.0000

> <Gold.Chemscore.Lipo>
101.5285

> <Gold.Chemscore.Internal_Hbond>
0.0000

> <Gold.Chemscore.DEClash>
0.0124

> <Gold.Chemscore.DEInternal>
1.8146

> <Gold.Chemscore.Rot>
1.1618

> <Gold.Chemscore.Internal.Correction>
   9.000000E+99

> <Gold.Chemscore.Hbonds>
donor molecule, donor type, donor heavy atom, donor atom, acceptor molecule, acceptor atom, score
      P1  H  6896  6907       L1    11  0.94
      P1  H  7989  7998       L1    17  0.60

> <Gold.Chemscore.Hbond.Weighted>
-6.6100

> <Gold.Chemscore.Metal.Weighted>
-0.0000

> <Gold.Chemscore.Lipo.Weighted>
-11.8788

> <Gold.Chemscore.Internal_Hbond.Weighted>
0.0000

> <Gold.Chemscore.DEClash.Weighted>
0.0124

> <Gold.Chemscore.DEInternal.Weighted>
1.8146

> <Gold.Chemscore.Rot.Weighted>
2.9741

> <Gold.Chemscore.Internal.Correction.Weighted>
   9.000000E+99

> <Gold.Protein.RotatedTorsions>
[ 6907 6896 6895 6894 ] final  -39.79 input  -60.11 | X-H torsion
[ 7974 7965 7964 7962 ] final  140.58 input  175.53 | X-H torsion
[ 8008 7997 7996 7995 ] final   34.24 input   59.86 | X-H torsion
[ 10167 10162 10161 10158 ] final   82.89 input  -65.29 | X-H torsion
[ 10718 10713 10712 10709 ] final   81.47 input   66.30 | X-H torsion
[ 10763 10752 10751 10750 ] final -137.82 input  -60.55 | X-H torsion
[ 11005 11000 10999 10996 ] final  123.48 input  -57.11 | X-H torsion

> <Gold.Protein.ActiveResidues>
 VAL166  LYS551  ARG553  GLY616  TRP617  ASP618  TYR619  PRO620  LYS621  CYS622 
 ASP623  PHE694  ASN695  SER759  ASP760  ASP761  ALA762  ILE779  LEU786  VAL792 
 PHE793  MET794  SER795  GLU796  ALA797  LYS798  CYS799  TRP800  GLU811  SER814 

> <Gold.Protein.RotatedAtoms>
  150.9862  134.9207  159.7872 H   0  0  0  0  0  0  0  0  0  0  0  0  # atno 6907 bound_to 6896
  152.5237  134.3343  159.9204 H   0  0  0  0  0  0  0  0  0  0  0  0  # atno 6908 bound_to 6896
  151.3350  133.3944  159.2700 H   0  0  0  0  0  0  0  0  0  0  0  0  # atno 6909 bound_to 6896
  144.9173  139.5213  143.5680 H   0  0  0  0  0  0  0  0  0  0  0  0  # atno 7974 bound_to 7965
  155.1516  140.3275  155.4430 H   0  0  0  0  0  0  0  0  0  0  0  0  # atno 8008 bound_to 7997
  156.2572  140.1976  156.6578 H   0  0  0  0  0  0  0  0  0  0  0  0  # atno 8009 bound_to 7997
  154.6469  140.0563  156.9897 H   0  0  0  0  0  0  0  0  0  0  0  0  # atno 8010 bound_to 7997
  139.9241  144.6194  150.8411 H   0  0  0  0  0  0  0  0  0  0  0  0  # atno 10167 bound_to 10162
  157.6834  131.0005  150.2232 H   0  0  0  0  0  0  0  0  0  0  0  0  # atno 10718 bound_to 10713
  154.8652  135.3630  154.5285 H   0  0  0  0  0  0  0  0  0  0  0  0  # atno 10763 bound_to 10752
  153.5912  135.7015  153.5427 H   0  0  0  0  0  0  0  0  0  0  0  0  # atno 10764 bound_to 10752
  153.3372  135.4108  155.1504 H   0  0  0  0  0  0  0  0  0  0  0  0  # atno 10765 bound_to 10752
  139.9314  134.9641  156.8265 H   0  0  0  0  0  0  0  0  0  0  0  0  # atno 11005 bound_to 11000
  146.3188  139.8026  142.8962 LP  0  0  0  0  0  0  0  0  0  0  0  0  # atno 17320 bound_to 7965
  145.3354  141.0276  143.3423 LP  0  0  0  0  0  0  0  0  0  0  0  0  # atno 17321 bound_to 7965
  140.7655  143.3276  151.2481 LP  0  0  0  0  0  0  0  0  0  0  0  0  # atno 17342 bound_to 10162
  139.6837  143.9810  152.2822 LP  0  0  0  0  0  0  0  0  0  0  0  0  # atno 17343 bound_to 10162
  156.2879  130.3742  149.7870 LP  0  0  0  0  0  0  0  0  0  0  0  0  # atno 17370 bound_to 10713
  156.5538  130.8354  151.3308 LP  0  0  0  0  0  0  0  0  0  0  0  0  # atno 17371 bound_to 10713
  140.6191  134.0010  155.7610 LP  0  0  0  0  0  0  0  0  0  0  0  0  # atno 17394 bound_to 11000
  141.0905  133.9924  157.3245 LP  0  0  0  0  0  0  0  0  0  0  0  0  # atno 17395 bound_to 11000

$$$$
