AV-unprocessed.smi:2474|AV-procd|sdf|9752|dock1
  -GOLD-   2272013393D 1   1.00000     0.00000
 Structure written by MMmdl.
 40 41  0  0  0  0  0  0  0  0  1 V2000
  145.5211  136.3709  151.6851 C   0  0  0  0  0  0  0  0  0  0  0  0
  146.0027  137.5115  152.5157 C   0  0  0  0  0  0  0  0  0  0  0  0
  145.9315  137.6468  153.8800 C   0  0  0  0  0  0  0  0  0  0  0  0
  146.4803  138.8384  154.3586 N   0  0  0  0  0  0  0  0  0  0  0  0
  146.9578  139.6110  153.3787 C   0  0  0  0  0  0  0  0  0  0  0  0
  147.6204  140.9357  153.6084 C   0  0  1  0  0  0  0  0  0  0  0  0
  146.7203  141.9080  154.3839 C   0  0  0  0  0  0  0  0  0  0  0  0
  149.0370  140.8122  154.2144 C   0  0  0  0  0  0  0  0  0  0  0  0
  149.3688  141.9053  155.1246 N   0  0  0  0  0  0  0  0  0  0  0  0
  150.4344  141.9360  155.9360 C   0  0  0  0  0  0  0  0  0  0  0  0
  151.2904  141.0526  155.9845 O   0  0  0  0  0  0  0  0  0  0  0  0
  150.4410  143.0342  156.7039 N   0  0  0  0  0  0  0  0  0  0  0  0
  151.4332  143.3380  157.7306 C   0  0  2  0  0  0  0  0  0  0  0  0
  151.7144  142.0824  158.5824 C   0  0  0  0  0  0  0  0  0  0  0  0
  152.7918  142.3236  159.6522 C   0  0  0  0  0  0  0  0  0  0  0  0
  152.3936  143.4214  160.6487 C   0  0  0  0  0  0  0  0  0  0  0  0
  152.1703  145.0158  159.8147 S   0  0  0  0  0  0  0  0  0  0  0  0
  150.9304  144.5101  158.5909 C   0  0  0  0  0  0  0  0  0  0  0  0
  146.7648  138.8972  151.7809 S   0  0  0  0  0  0  0  0  0  0  0  0
  145.0641  135.5987  152.3043 H   0  0  0  0  0  0  0  0  0  0  0  0
  146.3463  135.9174  151.1357 H   0  0  0  0  0  0  0  0  0  0  0  0
  144.7770  136.7069  150.9627 H   0  0  0  0  0  0  0  0  0  0  0  0
  145.5108  136.9453  154.5852 H   0  0  0  0  0  0  0  0  0  0  0  0
  147.7457  141.3792  152.6198 H   0  0  0  0  0  0  0  0  0  0  0  0
  145.7708  142.0586  153.8696 H   0  0  0  0  0  0  0  0  0  0  0  0
  147.1963  142.8831  154.4910 H   0  0  0  0  0  0  0  0  0  0  0  0
  146.5017  141.5337  155.3845 H   0  0  0  0  0  0  0  0  0  0  0  0
  149.1555  139.8540  154.7224 H   0  0  0  0  0  0  0  0  0  0  0  0
  149.7768  140.8291  153.4135 H   0  0  0  0  0  0  0  0  0  0  0  0
  148.7209  142.6788  155.1598 H   0  0  0  0  0  0  0  0  0  0  0  0
  149.6911  143.6997  156.5869 H   0  0  0  0  0  0  0  0  0  0  0  0
  152.3590  143.6501  157.2429 H   0  0  0  0  0  0  0  0  0  0  0  0
  150.7940  141.7435  159.0597 H   0  0  0  0  0  0  0  0  0  0  0  0
  152.0396  141.2655  157.9367 H   0  0  0  0  0  0  0  0  0  0  0  0
  152.9721  141.3953  160.1950 H   0  0  0  0  0  0  0  0  0  0  0  0
  153.7359  142.5855  159.1728 H   0  0  0  0  0  0  0  0  0  0  0  0
  151.4680  143.1545  161.1600 H   0  0  0  0  0  0  0  0  0  0  0  0
  153.1616  143.5323  161.4144 H   0  0  0  0  0  0  0  0  0  0  0  0
  150.7005  145.3715  157.9631 H   0  0  0  0  0  0  0  0  0  0  0  0
  150.0112  144.2387  159.1114 H   0  0  0  0  0  0  0  0  0  0  0  0
  1  2  1  0  0  0  0
  1 20  1  0  0  0  0
  1 21  1  0  0  0  0
  1 22  1  0  0  0  0
  2 19  1  0  0  0  0
  2  3  2  0  0  0  0
  3  4  1  0  0  0  0
  3 23  1  0  0  0  0
  4  5  2  0  0  0  0
  5  6  1  0  0  0  0
  5 19  1  0  0  0  0
  6  7  1  0  0  0  0
  6  8  1  0  0  0  0
  6 24  1  0  0  0  0
  7 25  1  0  0  0  0
  7 26  1  0  0  0  0
  7 27  1  0  0  0  0
  8  9  1  0  0  0  0
  8 28  1  0  0  0  0
  8 29  1  0  0  0  0
  9 10  1  0  0  0  0
  9 30  1  0  0  0  0
 10 11  2  0  0  0  0
 10 12  1  0  0  0  0
 12 13  1  0  0  0  0
 12 31  1  0  0  0  0
 13 18  1  0  0  0  0
 13 14  1  0  0  0  0
 13 32  1  0  0  0  0
 14 15  1  0  0  0  0
 14 33  1  0  0  0  0
 14 34  1  0  0  0  0
 15 16  1  0  0  0  0
 15 35  1  0  0  0  0
 15 36  1  0  0  0  0
 16 17  1  0  0  0  0
 16 37  1  0  0  0  0
 16 38  1  0  0  0  0
 17 18  1  0  0  0  0
 18 39  1  0  0  0  0
 18 40  1  0  0  0  0
M  END
> <s_m_source_file>
AV-unprocessed.smi

> <i_m_source_file_index>
2474

> <i_lp_mmshare_version>
43012

> <i_f3d_flags>
0

> <s_epik_input>
W0NIM11jMVtjSF1uYyhzMSlbQ0BIXShbQ0gzXSlbQ0gyXVtOSF1DKD1PKVtOSF1bQ0BASF0yW0NIMl1bQ0gyXVtDSDJdU1tDSDJdMg==

> <s_epik_cmdline>
J2VwaWtfcHl0aG9uJywgJy1waCcsICc3LjAnLCAnLXRuJywgJzgnLCAnLW1hJywgJzIwMCcsICctbWV0YWxfYmluZGluZycsICctaW1hZScsICc8aW5maWxlLm1hZT4nLCAnLW9tYWUnLCAnPG91dGZpbGUubWFlPic=

> <r_epik_Ionization_Penalty>
0.000644338

> <r_epik_Ionization_Penalty_Charging>
0

> <r_epik_Ionization_Penalty_Neutral>
0.000644338

> <r_epik_State_Penalty>
0.000374131

> <r_epik_Charging_Adjusted_Penalty>
0.000374131

> <i_epik_Tot_Q>
0

> <i_epik_Tot_abs_Q>
0

> <r_epik_Metal_State_Penalty>
-0

> <b_epik_Metal_Only>
0

> <s_lp_Force_Field>
OPLS_2005

> <r_lp_Energy>
-6.48006

> <b_lp_Chiralities_Consistent>
1

> <s_lp_Variant>
AV-unprocessed.smi:2474-2

> <Gold.Version>
5.8.1

> <Gold.Id.Protein>
6NUR|6NUR_protein|mol2

> <Gold.PLP.Fitness>
48.0835

> <Gold.PLP.PLP>
-44.5440

> <Gold.PLP.part.hbond>
-2.2384

> <Gold.PLP.part.metal>
0.0000

> <Gold.PLP.part.buried>
-1.5268

> <Gold.PLP.part.nonpolar>
-40.2529

> <Gold.PLP.part.repulsive>
0.4187

> <Gold.PLP.ligand.clash>
0.0000

> <Gold.PLP.ligand.torsion>
0.9293

> <Gold.PLP.Chemscore.Hbond>
1.7520

> <Gold.PLP.Chemscore.CHOScore>
0.0000

> <Gold.PLP.Chemscore.Metal>
0.0000

> <Gold.Chemscore.Hbonds>
donor molecule, donor type, donor heavy atom, donor atom, acceptor molecule, acceptor atom, score
      L1  H     9    30       P1  8028  0.59
      L1  H    12    31       P1  8028  1.00

> <Gold.PLP.Chemscore.Internal.Correction>
0.1422

> <Gold.Rescore>
     Score         DG    S(hbond)    S(metal)    S(lipo)     H(rot)  DE(clash)    DE(int)     intcor
     18.91     -21.03       1.50        0.00     122.11       1.46       0.16       1.97       ----

> <Gold.Chemscore.Fitness>
18.9088

> <Gold.Chemscore.DG>
-21.0314

> <Gold.Chemscore.ZeroCoef>
-5.4800

> <Gold.Chemscore.Hbond>
1.4987

> <Gold.Chemscore.Metal>
0.0000

> <Gold.Chemscore.Lipo>
122.1145

> <Gold.Chemscore.Internal_Hbond>
0.0000

> <Gold.Chemscore.DEClash>
0.1567

> <Gold.Chemscore.DEInternal>
1.9659

> <Gold.Chemscore.Rot>
1.4616

> <Gold.Chemscore.Internal.Correction>
   9.000000E+99

> <Gold.Chemscore.Hbonds>
donor molecule, donor type, donor heavy atom, donor atom, acceptor molecule, acceptor atom, score
      L1  H     9    30       P1  8028  0.58
      L1  H    12    31       P1  8028  0.93

> <Gold.Chemscore.Hbond.Weighted>
-5.0057

> <Gold.Chemscore.Metal.Weighted>
-0.0000

> <Gold.Chemscore.Lipo.Weighted>
-14.2874

> <Gold.Chemscore.Internal_Hbond.Weighted>
0.0000

> <Gold.Chemscore.DEClash.Weighted>
0.1567

> <Gold.Chemscore.DEInternal.Weighted>
1.9659

> <Gold.Chemscore.Rot.Weighted>
3.7416

> <Gold.Chemscore.Internal.Correction.Weighted>
   9.000000E+99

> <Gold.Protein.RotatedTorsions>
[ 6907 6896 6895 6894 ] final   21.75 input  -60.11 | X-H torsion
[ 7974 7965 7964 7962 ] final  -49.29 input  175.53 | X-H torsion
[ 8008 7997 7996 7995 ] final  101.22 input   59.86 | X-H torsion
[ 10167 10162 10161 10158 ] final   72.08 input  -65.29 | X-H torsion
[ 10718 10713 10712 10709 ] final  -24.47 input   66.30 | X-H torsion
[ 10763 10752 10751 10750 ] final -119.36 input  -60.55 | X-H torsion
[ 11005 11000 10999 10996 ] final   99.25 input  -57.11 | X-H torsion

> <Gold.Protein.ActiveResidues>
 VAL166  LYS551  ARG553  GLY616  TRP617  ASP618  TYR619  PRO620  LYS621  CYS622 
 ASP623  PHE694  ASN695  SER759  ASP760  ASP761  ALA762  ILE779  LEU786  VAL792 
 PHE793  MET794  SER795  GLU796  ALA797  LYS798  CYS799  TRP800  GLU811  SER814 

> <Gold.Protein.RotatedAtoms>
  151.9167  135.0316  160.0518 H   0  0  0  0  0  0  0  0  0  0  0  0  # atno 6907 bound_to 6896
  152.2234  133.4997  159.5183 H   0  0  0  0  0  0  0  0  0  0  0  0  # atno 6908 bound_to 6896
  150.7006  134.1229  159.4084 H   0  0  0  0  0  0  0  0  0  0  0  0  # atno 6909 bound_to 6896
  145.9421  140.7652  142.9547 H   0  0  0  0  0  0  0  0  0  0  0  0  # atno 7974 bound_to 7965
  156.1278  140.3201  155.8303 H   0  0  0  0  0  0  0  0  0  0  0  0  # atno 8008 bound_to 7997
  155.4387  140.0524  157.3029 H   0  0  0  0  0  0  0  0  0  0  0  0  # atno 8009 bound_to 7997
  154.4876  140.2079  155.9634 H   0  0  0  0  0  0  0  0  0  0  0  0  # atno 8010 bound_to 7997
  140.0392  144.5403  150.7447 H   0  0  0  0  0  0  0  0  0  0  0  0  # atno 10167 bound_to 10162
  156.4772  130.4537  149.6833 H   0  0  0  0  0  0  0  0  0  0  0  0  # atno 10718 bound_to 10713
  154.8615  135.4241  154.2286 H   0  0  0  0  0  0  0  0  0  0  0  0  # atno 10763 bound_to 10752
  153.3276  135.6986  153.6982 H   0  0  0  0  0  0  0  0  0  0  0  0  # atno 10764 bound_to 10752
  153.6011  135.3536  155.2919 H   0  0  0  0  0  0  0  0  0  0  0  0  # atno 10765 bound_to 10752
  139.8771  134.9087  156.4578 H   0  0  0  0  0  0  0  0  0  0  0  0  # atno 11005 bound_to 11000
  144.6781  140.2297  143.7357 LP  0  0  0  0  0  0  0  0  0  0  0  0  # atno 17320 bound_to 7965
  145.8285  139.2075  143.1896 LP  0  0  0  0  0  0  0  0  0  0  0  0  # atno 17321 bound_to 7965
  140.7268  143.2644  151.4093 LP  0  0  0  0  0  0  0  0  0  0  0  0  # atno 17342 bound_to 10162
  139.6025  144.1266  152.2213 LP  0  0  0  0  0  0  0  0  0  0  0  0  # atno 17343 bound_to 10162
  156.3559  130.7456  151.2422 LP  0  0  0  0  0  0  0  0  0  0  0  0  # atno 17370 bound_to 10713
  157.7486  131.0364  150.4407 LP  0  0  0  0  0  0  0  0  0  0  0  0  # atno 17371 bound_to 10713
  140.8886  133.7865  155.9546 LP  0  0  0  0  0  0  0  0  0  0  0  0  # atno 17394 bound_to 11000
  140.8778  134.2648  157.5159 LP  0  0  0  0  0  0  0  0  0  0  0  0  # atno 17395 bound_to 11000

$$$$
