AV-unprocessed.smi:2783|AV-procd|sdf|10725|dock6
  -GOLD-   2272015163D 1   1.00000     0.00000
 Structure written by MMmdl.
 28 28  0  0  0  0  0  0  0  0  2 V2000
  152.5710  143.2868  162.1369 C   0  0  0  0  0  0  0  0  0  0  0  0
  151.7518  142.9039  161.0336 O   0  0  0  0  0  0  0  0  0  0  0  0
  152.3844  142.6733  159.7658 C   0  0  0  0  0  0  0  0  0  0  0  0
  152.9742  144.0317  159.3475 C   0  0  0  0  0  0  0  0  0  0  0  0
  153.5277  141.6413  159.9096 C   0  0  0  0  0  0  0  0  0  0  0  0
  151.3507  142.2324  158.7025 C   0  0  0  0  0  0  0  0  0  0  0  0
  150.2359  142.7549  158.6917 O   0  0  0  0  0  0  0  0  0  0  0  0
  151.7472  141.2617  157.8566 N   0  0  0  0  0  0  0  0  0  0  0  0
  151.0659  140.6440  156.7685 C   0  0  0  0  0  0  0  0  0  0  0  0
  150.0153  141.2494  156.0357 C   0  0  0  0  0  0  0  0  0  0  0  0
  149.4290  140.5323  154.9742 C   0  0  0  0  0  0  0  0  0  0  0  0
  149.8149  139.2933  154.6070 N   0  0  0  0  0  0  0  0  0  0  0  0
  150.8199  138.7196  155.3003 C   0  0  0  0  0  0  0  0  0  0  0  0
  151.4765  139.3458  156.3801 C   0  0  0  0  0  0  0  0  0  0  0  0
  152.4902  138.6917  157.0256 O   0  5  0  0  0  0  0  0  0  0  0  0
  151.9635  143.3009  163.0414 H   0  0  0  0  0  0  0  0  0  0  0  0
  152.9751  144.2903  162.0052 H   0  0  0  0  0  0  0  0  0  0  0  0
  153.3985  142.5991  162.3099 H   0  0  0  0  0  0  0  0  0  0  0  0
  153.4907  143.9681  158.3888 H   0  0  0  0  0  0  0  0  0  0  0  0
  153.6929  144.3908  160.0847 H   0  0  0  0  0  0  0  0  0  0  0  0
  152.1971  144.7920  159.2548 H   0  0  0  0  0  0  0  0  0  0  0  0
  154.1379  141.5937  159.0069 H   0  0  0  0  0  0  0  0  0  0  0  0
  153.1510  140.6349  160.0951 H   0  0  0  0  0  0  0  0  0  0  0  0
  154.1904  141.9046  160.7344 H   0  0  0  0  0  0  0  0  0  0  0  0
  152.6776  140.9022  158.0175 H   0  0  0  0  0  0  0  0  0  0  0  0
  149.6481  142.2394  156.2506 H   0  0  0  0  0  0  0  0  0  0  0  0
  148.6262  140.9708  154.4002 H   0  0  0  0  0  0  0  0  0  0  0  0
  151.1103  137.7293  154.9806 H   0  0  0  0  0  0  0  0  0  0  0  0
  1  2  1  0  0  0  0
  1 16  1  0  0  0  0
  1 17  1  0  0  0  0
  1 18  1  0  0  0  0
  2  3  1  0  0  0  0
  3  4  1  0  0  0  0
  3  5  1  0  0  0  0
  3  6  1  0  0  0  0
  4 19  1  0  0  0  0
  4 20  1  0  0  0  0
  4 21  1  0  0  0  0
  5 22  1  0  0  0  0
  5 23  1  0  0  0  0
  5 24  1  0  0  0  0
  6  7  2  0  0  0  0
  6  8  1  0  0  0  0
  8 25  1  0  0  0  0
  8  9  1  0  0  0  0
  9 10  2  0  0  0  0
  9 14  1  0  0  0  0
 10 11  1  0  0  0  0
 10 26  1  0  0  0  0
 11 12  2  0  0  0  0
 11 27  1  0  0  0  0
 12 13  1  0  0  0  0
 13 14  2  0  0  0  0
 13 28  1  0  0  0  0
 14 15  1  0  0  0  0
M  CHG  1  15  -1
M  END
> <s_m_source_file>
AV-unprocessed.smi

> <i_m_source_file_index>
2783

> <i_lp_mmshare_version>
43012

> <i_f3d_flags>
0

> <s_epik_input>
W0NIM11PQyhbQ0gzXSkoW0NIM10pQyg9TylbTkhdYzFbY0hdW2NIXW5bY0hdYzFbT0hd

> <s_epik_cmdline>
J2VwaWtfcHl0aG9uJywgJy1waCcsICc3LjAnLCAnLXRuJywgJzgnLCAnLW1hJywgJzIwMCcsICctbWV0YWxfYmluZGluZycsICctaW1hZScsICc8aW5maWxlLm1hZT4nLCAnLW9tYWUnLCAnPG91dGZpbGUubWFlPic=

> <r_lp_tautomer_probability>
0.56342

> <r_epik_Ionization_Penalty>
4.44895

> <r_epik_Ionization_Penalty_Charging>
2.11839

> <r_epik_Ionization_Penalty_Neutral>
2.33056

> <r_epik_State_Penalty>
2.66573

> <r_epik_Charging_Adjusted_Penalty>
4.78411

> <i_epik_Tot_Q>
-1

> <i_epik_Tot_abs_Q>
1

> <r_epik_Metal_State_Penalty>
0.617134

> <b_epik_Metal_Only>
1

> <s_lp_Force_Field>
OPLS_2005

> <r_lp_Energy>
12.8614

> <b_lp_Chiralities_Consistent>
1

> <s_lp_Variant>
AV-unprocessed.smi:2783-3

> <Gold.Version>
5.8.1

> <Gold.Id.Protein>
6NUR|6NUR_protein|mol2

> <Gold.PLP.Fitness>
39.9904

> <Gold.PLP.PLP>
-35.3589

> <Gold.PLP.part.hbond>
-3.3220

> <Gold.PLP.part.metal>
0.0000

> <Gold.PLP.part.buried>
-3.3393

> <Gold.PLP.part.nonpolar>
-29.1614

> <Gold.PLP.part.repulsive>
0.4569

> <Gold.PLP.ligand.clash>
0.2191

> <Gold.PLP.ligand.torsion>
0.8660

> <Gold.PLP.Chemscore.Hbond>
2.1835

> <Gold.PLP.Chemscore.CHOScore>
0.0000

> <Gold.PLP.Chemscore.Metal>
0.0000

> <Gold.Chemscore.Hbonds>
donor molecule, donor type, donor heavy atom, donor atom, acceptor molecule, acceptor atom, score
      P1  H  6933  6945       L1     2  0.06
      P1  H  7997  8008       L1    15  0.29

> <Gold.PLP.Chemscore.Internal.Correction>
0.0321

> <Gold.Rescore>
     Score         DG    S(hbond)    S(metal)    S(lipo)     H(rot)  DE(clash)    DE(int)     intcor
     13.65     -15.14       0.98        0.00      81.79       1.24       0.01       1.49       ----

> <Gold.Chemscore.Fitness>
13.6457

> <Gold.Chemscore.DG>
-15.1431

> <Gold.Chemscore.ZeroCoef>
-5.4800

> <Gold.Chemscore.Hbond>
0.9788

> <Gold.Chemscore.Metal>
0.0000

> <Gold.Chemscore.Lipo>
81.7862

> <Gold.Chemscore.Internal_Hbond>
0.0000

> <Gold.Chemscore.DEClash>
0.0096

> <Gold.Chemscore.DEInternal>
1.4877

> <Gold.Chemscore.Rot>
1.2402

> <Gold.Chemscore.Internal.Correction>
   9.000000E+99

> <Gold.Chemscore.Hbonds>
donor molecule, donor type, donor heavy atom, donor atom, acceptor molecule, acceptor atom, score
      P1  H  6933  6945       L1     2  0.01
      P1  H  7997  8008       L1    15  0.08

> <Gold.Chemscore.Hbond.Weighted>
-3.2690

> <Gold.Chemscore.Metal.Weighted>
-0.0000

> <Gold.Chemscore.Lipo.Weighted>
-9.5690

> <Gold.Chemscore.Internal_Hbond.Weighted>
0.0000

> <Gold.Chemscore.DEClash.Weighted>
0.0096

> <Gold.Chemscore.DEInternal.Weighted>
1.4877

> <Gold.Chemscore.Rot.Weighted>
3.1750

> <Gold.Chemscore.Internal.Correction.Weighted>
   9.000000E+99

> <Gold.Protein.RotatedTorsions>
[ 6907 6896 6895 6894 ] final  112.27 input  -60.11 | X-H torsion
[ 7974 7965 7964 7962 ] final  147.03 input  175.53 | X-H torsion
[ 8008 7997 7996 7995 ] final  -61.86 input   59.86 | X-H torsion
[ 10167 10162 10161 10158 ] final  150.40 input  -65.29 | X-H torsion
[ 10718 10713 10712 10709 ] final  -63.58 input   66.30 | X-H torsion
[ 10763 10752 10751 10750 ] final -119.36 input  -60.55 | X-H torsion
[ 11005 11000 10999 10996 ] final -166.58 input  -57.11 | X-H torsion

> <Gold.Protein.ActiveResidues>
 VAL166  LYS551  ARG553  GLY616  TRP617  ASP618  TYR619  PRO620  LYS621  CYS622 
 ASP623  PHE694  ASN695  SER759  ASP760  ASP761  ALA762  ILE779  LEU786  VAL792 
 PHE793  MET794  SER795  GLU796  ALA797  LYS798  CYS799  TRP800  GLU811  SER814 

> <Gold.Protein.RotatedAtoms>
  152.4925  133.8539  159.7215 H   0  0  0  0  0  0  0  0  0  0  0  0  # atno 6907 bound_to 6896
  150.9069  133.7038  159.2871 H   0  0  0  0  0  0  0  0  0  0  0  0  # atno 6908 bound_to 6896
  151.4460  135.1029  159.9736 H   0  0  0  0  0  0  0  0  0  0  0  0  # atno 6909 bound_to 6896
  144.8623  139.5979  143.5925 H   0  0  0  0  0  0  0  0  0  0  0  0  # atno 7974 bound_to 7965
  154.4469  140.1008  156.6497 H   0  0  0  0  0  0  0  0  0  0  0  0  # atno 8008 bound_to 7997
  155.5411  140.3483  155.4428 H   0  0  0  0  0  0  0  0  0  0  0  0  # atno 8009 bound_to 7997
  156.0596  140.1323  156.9945 H   0  0  0  0  0  0  0  0  0  0  0  0  # atno 8010 bound_to 7997
  139.4850  144.5525  151.7375 H   0  0  0  0  0  0  0  0  0  0  0  0  # atno 10167 bound_to 10162
  156.0782  130.4222  150.1297 H   0  0  0  0  0  0  0  0  0  0  0  0  # atno 10718 bound_to 10713
  154.8615  135.4241  154.2286 H   0  0  0  0  0  0  0  0  0  0  0  0  # atno 10763 bound_to 10752
  153.3275  135.6986  153.6982 H   0  0  0  0  0  0  0  0  0  0  0  0  # atno 10764 bound_to 10752
  153.6012  135.3536  155.2919 H   0  0  0  0  0  0  0  0  0  0  0  0  # atno 10765 bound_to 10752
  140.5628  134.5316  157.5146 H   0  0  0  0  0  0  0  0  0  0  0  0  # atno 11005 bound_to 11000
  146.2870  139.7032  142.9188 LP  0  0  0  0  0  0  0  0  0  0  0  0  # atno 17320 bound_to 7965
  145.4288  141.0413  143.2922 LP  0  0  0  0  0  0  0  0  0  0  0  0  # atno 17321 bound_to 7965
  140.5082  144.1066  150.5988 LP  0  0  0  0  0  0  0  0  0  0  0  0  # atno 17342 bound_to 10162
  140.3982  143.2717  151.9979 LP  0  0  0  0  0  0  0  0  0  0  0  0  # atno 17343 bound_to 10162
  156.9334  130.9721  151.3529 LP  0  0  0  0  0  0  0  0  0  0  0  0  # atno 17370 bound_to 10713
  157.5887  130.8428  149.8627 LP  0  0  0  0  0  0  0  0  0  0  0  0  # atno 17371 bound_to 10713
  139.9399  134.7806  156.0705 LP  0  0  0  0  0  0  0  0  0  0  0  0  # atno 17394 bound_to 11000
  141.1104  133.6645  156.2964 LP  0  0  0  0  0  0  0  0  0  0  0  0  # atno 17395 bound_to 11000

$$$$
