AV-unprocessed.smi:2191|AV-procd|sdf|8895|dock6
  -GOLD-   2272012103D 1   1.00000     0.00000
 Structure written by MMmdl.
 37 39  0  0  0  0  0  0  0  0  2 V2000
  153.6388  139.0438  157.8675 O   0  0  0  0  0  0  0  0  0  0  0  0
  152.4311  139.7335  157.6126 C   0  0  1  0  0  0  0  0  0  0  0  0
  152.4906  141.1013  158.3076 C   0  0  0  0  0  0  0  0  0  0  0  0
  153.0620  140.9367  159.5991 O   0  0  0  0  0  0  0  0  0  0  0  0
  153.0347  142.0078  160.4662 C   0  0  0  0  0  0  0  0  0  0  0  0
  153.6088  141.8151  161.7400 C   0  0  0  0  0  0  0  0  0  0  0  0
  153.6232  142.8549  162.6896 C   0  0  0  0  0  0  0  0  0  0  0  0
  153.0619  144.1054  162.3718 C   0  0  0  0  0  0  0  0  0  0  0  0
  152.4880  144.3127  161.1039 C   0  0  0  0  0  0  0  0  0  0  0  0
  152.4728  143.2722  160.1544 C   0  0  0  0  0  0  0  0  0  0  0  0
  152.2132  139.8535  156.0906 C   0  0  0  0  0  0  0  0  0  0  0  0
  151.0560  140.6892  155.7452 N   0  0  0  0  0  0  0  0  0  0  0  0
  150.8274  142.0100  155.9787 C   0  0  0  0  0  0  0  0  0  0  0  0
  149.6052  142.3136  155.4594 N   0  3  0  0  0  0  0  0  0  0  0  0
  149.0447  141.1696  154.8865 C   0  0  0  0  0  0  0  0  0  0  0  0
  147.8285  140.9756  154.2391 C   0  0  0  0  0  0  0  0  0  0  0  0
  147.5636  139.6729  153.7673 C   0  0  0  0  0  0  0  0  0  0  0  0
  148.4883  138.6234  153.9472 C   0  0  0  0  0  0  0  0  0  0  0  0
  149.7179  138.8309  154.6066 C   0  0  0  0  0  0  0  0  0  0  0  0
  149.9720  140.1218  155.0680 C   0  0  0  0  0  0  0  0  0  0  0  0
  153.4437  138.2778  158.3853 H   0  0  0  0  0  0  0  0  0  0  0  0
  151.6240  139.1490  158.0555 H   0  0  0  0  0  0  0  0  0  0  0  0
  153.1095  141.7836  157.7218 H   0  0  0  0  0  0  0  0  0  0  0  0
  151.4889  141.5286  158.3797 H   0  0  0  0  0  0  0  0  0  0  0  0
  154.0417  140.8582  161.9928 H   0  0  0  0  0  0  0  0  0  0  0  0
  154.0647  142.6927  163.6617 H   0  0  0  0  0  0  0  0  0  0  0  0
  153.0719  144.9042  163.0987 H   0  0  0  0  0  0  0  0  0  0  0  0
  152.0582  145.2724  160.8575 H   0  0  0  0  0  0  0  0  0  0  0  0
  152.0247  143.4709  159.1928 H   0  0  0  0  0  0  0  0  0  0  0  0
  153.0934  140.2702  155.5993 H   0  0  0  0  0  0  0  0  0  0  0  0
  152.0507  138.8686  155.6502 H   0  0  0  0  0  0  0  0  0  0  0  0
  151.4955  142.6939  156.4820 H   0  0  0  0  0  0  0  0  0  0  0  0
  147.1179  141.7771  154.0994 H   0  0  0  0  0  0  0  0  0  0  0  0
  146.6321  139.4745  153.2570 H   0  0  0  0  0  0  0  0  0  0  0  0
  148.2502  137.6389  153.5712 H   0  0  0  0  0  0  0  0  0  0  0  0
  150.4215  138.0220  154.7386 H   0  0  0  0  0  0  0  0  0  0  0  0
  149.1877  143.2347  155.4945 H   0  0  0  0  0  0  0  0  0  0  0  0
  1  2  1  0  0  0  0
  1 21  1  0  0  0  0
  2  3  1  0  0  0  0
  2 11  1  0  0  0  0
  2 22  1  0  0  0  0
  3  4  1  0  0  0  0
  3 23  1  0  0  0  0
  3 24  1  0  0  0  0
  4  5  1  0  0  0  0
  5 10  1  0  0  0  0
  5  6  2  0  0  0  0
  6  7  1  0  0  0  0
  6 25  1  0  0  0  0
  7  8  2  0  0  0  0
  7 26  1  0  0  0  0
  8  9  1  0  0  0  0
  8 27  1  0  0  0  0
  9 10  2  0  0  0  0
  9 28  1  0  0  0  0
 10 29  1  0  0  0  0
 11 12  1  0  0  0  0
 11 30  1  0  0  0  0
 11 31  1  0  0  0  0
 12 20  1  0  0  0  0
 12 13  1  0  0  0  0
 13 14  2  0  0  0  0
 13 32  1  0  0  0  0
 14 15  1  0  0  0  0
 14 37  1  0  0  0  0
 15 20  2  0  0  0  0
 15 16  1  0  0  0  0
 16 17  2  0  0  0  0
 16 33  1  0  0  0  0
 17 18  1  0  0  0  0
 17 34  1  0  0  0  0
 18 19  2  0  0  0  0
 18 35  1  0  0  0  0
 19 20  1  0  0  0  0
 19 36  1  0  0  0  0
M  CHG  1  14   1
M  END
> <s_m_source_file>
AV-unprocessed.smi

> <i_m_source_file_index>
2191

> <i_lp_mmshare_version>
43012

> <i_f3d_flags>
0

> <s_epik_input>
W2NIXTFbY0hdW2NIXVtjSF1jKGMxMiluKFtjSF1uMilbQ0gyXVtDQEhdKFtPSF0pW0NIMl1PYzNbY0hdW2NIXVtjSF1bY0hdW2NIXTM=

> <s_epik_cmdline>
J2VwaWtfcHl0aG9uJywgJy1waCcsICc3LjAnLCAnLXRuJywgJzgnLCAnLW1hJywgJzIwMCcsICctbWV0YWxfYmluZGluZycsICctaW1hZScsICc8aW5maWxlLm1hZT4nLCAnLW9tYWUnLCAnPG91dGZpbGUubWFlPic=

> <r_lp_tautomer_probability>
1

> <r_epik_Ionization_Penalty>
1.35015

> <r_epik_Ionization_Penalty_Charging>
1.35015

> <r_epik_Ionization_Penalty_Neutral>
2.3993e-06

> <r_epik_State_Penalty>
1.42814

> <r_epik_Charging_Adjusted_Penalty>
2.77829

> <i_epik_Tot_Q>
1

> <i_epik_Tot_abs_Q>
1

> <r_epik_Metal_State_Penalty>
5.46522

> <b_epik_Metal_Only>
0

> <s_lp_Force_Field>
OPLS_2005

> <r_lp_Energy>
19.3108

> <b_lp_Chiralities_Consistent>
1

> <s_lp_Variant>
AV-unprocessed.smi:2191-4

> <Gold.Version>
5.8.1

> <Gold.Id.Protein>
6NUR|6NUR_protein|mol2

> <Gold.PLP.Fitness>
55.6307

> <Gold.PLP.PLP>
-47.0444

> <Gold.PLP.part.hbond>
-1.7414

> <Gold.PLP.part.metal>
0.0000

> <Gold.PLP.part.buried>
-3.5371

> <Gold.PLP.part.nonpolar>
-40.8581

> <Gold.PLP.part.repulsive>
0.1768

> <Gold.PLP.ligand.clash>
0.0000

> <Gold.PLP.ligand.torsion>
0.1953

> <Gold.PLP.Chemscore.Hbond>
2.9825

> <Gold.PLP.Chemscore.CHOScore>
0.0000

> <Gold.PLP.Chemscore.Metal>
0.0000

> <Gold.Chemscore.Hbonds>
donor molecule, donor type, donor heavy atom, donor atom, acceptor molecule, acceptor atom, score
      L1  H    14    37       P1  8028  1.95
      P1  H  7997  8008       L1     1  0.85

> <Gold.PLP.Chemscore.Internal.Correction>
0.0294

> <Gold.Rescore>
     Score         DG    S(hbond)    S(metal)    S(lipo)     H(rot)  DE(clash)    DE(int)     intcor
     17.84     -19.31       1.72        0.00     119.59       2.31       0.40       1.06       ----

> <Gold.Chemscore.Fitness>
17.8448

> <Gold.Chemscore.DG>
-19.3106

> <Gold.Chemscore.ZeroCoef>
-5.4800

> <Gold.Chemscore.Hbond>
1.7185

> <Gold.Chemscore.Metal>
0.0000

> <Gold.Chemscore.Lipo>
119.5938

> <Gold.Chemscore.Internal_Hbond>
0.0000

> <Gold.Chemscore.DEClash>
0.4009

> <Gold.Chemscore.DEInternal>
1.0649

> <Gold.Chemscore.Rot>
2.3053

> <Gold.Chemscore.Internal.Correction>
   9.000000E+99

> <Gold.Chemscore.Hbonds>
donor molecule, donor type, donor heavy atom, donor atom, acceptor molecule, acceptor atom, score
      L1  H    14    37       P1  8028  0.91
      P1  H  7997  8008       L1     1  0.14

> <Gold.Chemscore.Hbond.Weighted>
-5.7396

> <Gold.Chemscore.Metal.Weighted>
-0.0000

> <Gold.Chemscore.Lipo.Weighted>
-13.9925

> <Gold.Chemscore.Internal_Hbond.Weighted>
0.0000

> <Gold.Chemscore.DEClash.Weighted>
0.4009

> <Gold.Chemscore.DEInternal.Weighted>
1.0649

> <Gold.Chemscore.Rot.Weighted>
5.9015

> <Gold.Chemscore.Internal.Correction.Weighted>
   9.000000E+99

> <Gold.Protein.RotatedTorsions>
[ 6907 6896 6895 6894 ] final  148.71 input  -60.11 | X-H torsion
[ 7974 7965 7964 7962 ] final   -3.52 input  175.53 | X-H torsion
[ 8008 7997 7996 7995 ] final  -85.07 input   59.86 | X-H torsion
[ 10167 10162 10161 10158 ] final  136.49 input  -65.29 | X-H torsion
[ 10718 10713 10712 10709 ] final   16.34 input   66.30 | X-H torsion
[ 10763 10752 10751 10750 ] final   57.99 input  -60.55 | X-H torsion
[ 11005 11000 10999 10996 ] final  108.35 input  -57.11 | X-H torsion

> <Gold.Protein.ActiveResidues>
 VAL166  LYS551  ARG553  GLY616  TRP617  ASP618  TYR619  PRO620  LYS621  CYS622 
 ASP623  PHE694  ASN695  SER759  ASP760  ASP761  ALA762  ILE779  LEU786  VAL792 
 PHE793  MET794  SER795  GLU796  ALA797  LYS798  CYS799  TRP800  GLU811  SER814 

> <Gold.Protein.RotatedAtoms>
  152.1378  133.4446  159.4751 H   0  0  0  0  0  0  0  0  0  0  0  0  # atno 6907 bound_to 6896
  150.6883  134.2342  159.4456 H   0  0  0  0  0  0  0  0  0  0  0  0  # atno 6908 bound_to 6896
  152.0231  134.9811  160.0621 H   0  0  0  0  0  0  0  0  0  0  0  0  # atno 6909 bound_to 6896
  146.2388  140.1734  142.8332 H   0  0  0  0  0  0  0  0  0  0  0  0  # atno 7974 bound_to 7965
  154.6367  140.0596  156.9797 H   0  0  0  0  0  0  0  0  0  0  0  0  # atno 8008 bound_to 7997
  155.1581  140.3280  155.4398 H   0  0  0  0  0  0  0  0  0  0  0  0  # atno 8009 bound_to 7997
  156.2510  140.1935  156.6689 H   0  0  0  0  0  0  0  0  0  0  0  0  # atno 8010 bound_to 7997
  139.5178  144.6461  151.5434 H   0  0  0  0  0  0  0  0  0  0  0  0  # atno 10167 bound_to 10162
  157.0665  130.6330  149.5796 H   0  0  0  0  0  0  0  0  0  0  0  0  # atno 10718 bound_to 10713
  152.9861  135.5622  154.5480 H   0  0  0  0  0  0  0  0  0  0  0  0  # atno 10763 bound_to 10752
  154.4923  135.2793  155.1489 H   0  0  0  0  0  0  0  0  0  0  0  0  # atno 10764 bound_to 10752
  154.2954  135.6318  153.5455 H   0  0  0  0  0  0  0  0  0  0  0  0  # atno 10765 bound_to 10752
  139.8842  134.9428  156.5958 H   0  0  0  0  0  0  0  0  0  0  0  0  # atno 11005 bound_to 11000
  144.9993  140.8617  143.5291 LP  0  0  0  0  0  0  0  0  0  0  0  0  # atno 17320 bound_to 7965
  145.1751  139.2383  143.5322 LP  0  0  0  0  0  0  0  0  0  0  0  0  # atno 17321 bound_to 7965
  140.6247  143.9191  150.6555 LP  0  0  0  0  0  0  0  0  0  0  0  0  # atno 17342 bound_to 10162
  140.2476  143.3617  152.1433 LP  0  0  0  0  0  0  0  0  0  0  0  0  # atno 17343 bound_to 10162
  155.9963  130.5032  150.7491 LP  0  0  0  0  0  0  0  0  0  0  0  0  # atno 17370 bound_to 10713
  157.4912  131.0911  151.0424 LP  0  0  0  0  0  0  0  0  0  0  0  0  # atno 17371 bound_to 10713
  140.7921  133.8574  155.8654 LP  0  0  0  0  0  0  0  0  0  0  0  0  # atno 17394 bound_to 11000
  140.9668  134.1583  157.4609 LP  0  0  0  0  0  0  0  0  0  0  0  0  # atno 17395 bound_to 11000

$$$$
