AV-unprocessed.smi:686|AV-procd|sdf|3339|dock4
  -GOLD-   22720 0313D 1   1.00000     0.00000
 Structure written by MMmdl.
 41 42  0  0  0  0  0  0  0  0  2 V2000
  148.9074  138.1113  156.8689 C   0  0  0  0  0  0  0  0  0  0  0  0
  149.1745  137.3407  155.5689 C   0  0  2  0  0  0  0  0  0  0  0  0
  148.2438  136.1465  155.3580 C   0  0  0  0  0  0  0  0  0  0  0  0
  148.9729  135.2514  154.4373 N   0  3  2  0  0  0  0  0  0  0  0  0
  148.4397  133.8629  154.3388 C   0  0  0  0  0  0  0  0  0  0  0  0
  149.1368  133.0746  153.2140 C   0  0  0  0  0  0  0  0  0  0  0  0
  146.9168  133.8546  154.1081 C   0  0  0  0  0  0  0  0  0  0  0  0
  150.3950  135.3499  154.8371 C   0  0  0  0  0  0  0  0  0  0  0  0
  150.5863  136.7388  155.4747 C   0  0  1  0  0  0  0  0  0  0  0  0
  151.4482  137.5904  154.6502 N   0  0  0  0  0  0  0  0  0  0  0  0
  152.0372  139.0612  155.3337 S   0  0  0  0  0  0  0  0  0  0  0  0
  153.4467  139.1955  154.9366 O   0  0  0  0  0  0  0  0  0  0  0  0
  151.0776  140.1252  155.0003 O   0  0  0  0  0  0  0  0  0  0  0  0
  151.9451  138.7284  157.1432 C   0  0  0  0  0  0  0  0  0  0  0  0
  152.3413  139.9618  157.9031 C   0  0  0  0  0  0  0  0  0  0  0  0
  151.6618  141.2092  157.9801 C   0  0  0  0  0  0  0  0  0  0  0  0
  152.4571  141.9547  158.8019 C   0  0  0  0  0  0  0  0  0  0  0  0
  153.5350  141.2337  159.2018 O   0  0  0  0  0  0  0  0  0  0  0  0
  153.4514  139.9620  158.6239 N   0  0  0  0  0  0  0  0  0  0  0  0
  149.0270  137.4710  157.7433 H   0  0  0  0  0  0  0  0  0  0  0  0
  147.8934  138.5119  156.8848 H   0  0  0  0  0  0  0  0  0  0  0  0
  149.5969  138.9495  156.9733 H   0  0  0  0  0  0  0  0  0  0  0  0
  149.0180  138.0205  154.7289 H   0  0  0  0  0  0  0  0  0  0  0  0
  148.0675  135.6297  156.3033 H   0  0  0  0  0  0  0  0  0  0  0  0
  147.2795  136.4554  154.9535 H   0  0  0  0  0  0  0  0  0  0  0  0
  148.6390  133.3532  155.2828 H   0  0  0  0  0  0  0  0  0  0  0  0
  148.7149  132.0737  153.1190 H   0  0  0  0  0  0  0  0  0  0  0  0
  150.2034  132.9498  153.4015 H   0  0  0  0  0  0  0  0  0  0  0  0
  149.0224  133.5728  152.2507 H   0  0  0  0  0  0  0  0  0  0  0  0
  146.5462  132.8362  153.9860 H   0  0  0  0  0  0  0  0  0  0  0  0
  146.6478  134.4131  153.2108 H   0  0  0  0  0  0  0  0  0  0  0  0
  146.3734  134.2861  154.9487 H   0  0  0  0  0  0  0  0  0  0  0  0
  150.6259  134.5824  155.5777 H   0  0  0  0  0  0  0  0  0  0  0  0
  151.0452  135.1825  153.9776 H   0  0  0  0  0  0  0  0  0  0  0  0
  151.0279  136.6327  156.4673 H   0  0  0  0  0  0  0  0  0  0  0  0
  151.0262  137.7605  153.7371 H   0  0  0  0  0  0  0  0  0  0  0  0
  150.9252  138.4321  157.3874 H   0  0  0  0  0  0  0  0  0  0  0  0
  152.6013  137.8888  157.3747 H   0  0  0  0  0  0  0  0  0  0  0  0
  150.7393  141.5100  157.5062 H   0  0  0  0  0  0  0  0  0  0  0  0
  152.3950  142.9651  159.1785 H   0  0  0  0  0  0  0  0  0  0  0  0
  148.9042  135.6703  153.5208 H   0  0  0  0  0  0  0  0  0  0  0  0
  1  2  1  0  0  0  0
  1 20  1  0  0  0  0
  1 21  1  0  0  0  0
  1 22  1  0  0  0  0
  2  9  1  0  0  0  0
  2  3  1  0  0  0  0
  2 23  1  0  0  0  0
  3  4  1  0  0  0  0
  3 24  1  0  0  0  0
  3 25  1  0  0  0  0
  4  5  1  0  0  0  0
  4  8  1  0  0  0  0
  4 41  1  0  0  0  0
  5  6  1  0  0  0  0
  5  7  1  0  0  0  0
  5 26  1  0  0  0  0
  6 27  1  0  0  0  0
  6 28  1  0  0  0  0
  6 29  1  0  0  0  0
  7 30  1  0  0  0  0
  7 31  1  0  0  0  0
  7 32  1  0  0  0  0
  8  9  1  0  0  0  0
  8 33  1  0  0  0  0
  8 34  1  0  0  0  0
  9 10  1  0  0  0  0
  9 35  1  0  0  0  0
 10 11  1  0  0  0  0
 10 36  1  0  0  0  0
 11 12  2  0  0  0  0
 11 13  2  0  0  0  0
 11 14  1  0  0  0  0
 14 15  1  0  0  0  0
 14 37  1  0  0  0  0
 14 38  1  0  0  0  0
 15 19  2  0  0  0  0
 15 16  1  0  0  0  0
 16 17  2  0  0  0  0
 16 39  1  0  0  0  0
 17 18  1  0  0  0  0
 17 40  1  0  0  0  0
 18 19  1  0  0  0  0
M  CHG  1   4   1
M  END
> <s_m_source_file>
AV-unprocessed.smi

> <i_m_source_file_index>
686

> <i_lp_mmshare_version>
43012

> <i_f3d_flags>
0

> <s_epik_input>
W0NIM11bQ0BASF0xW0NIMl1OKFtDSF0oW0NIM10pW0NIM10pW0NIMl1bQ0BIXTFbTkhdUyg9TykoPU8pW0NIMl1jMltjSF1bY0hdb24y

> <s_epik_cmdline>
J2VwaWtfcHl0aG9uJywgJy1waCcsICc3LjAnLCAnLXRuJywgJzgnLCAnLW1hJywgJzIwMCcsICctbWV0YWxfYmluZGluZycsICctaW1hZScsICc8aW5maWxlLm1hZT4nLCAnLW9tYWUnLCAnPG91dGZpbGUubWFlPic=

> <r_epik_Ionization_Penalty>
0.00200818

> <r_epik_Ionization_Penalty_Charging>
0.000701289

> <r_epik_Ionization_Penalty_Neutral>
0.00130689

> <r_epik_State_Penalty>
0.00131314

> <r_epik_Charging_Adjusted_Penalty>
0.00201443

> <i_epik_Tot_Q>
1

> <i_epik_Tot_abs_Q>
1

> <r_epik_Metal_State_Penalty>
0.310831

> <b_epik_Metal_Only>
0

> <s_lp_Force_Field>
OPLS_2005

> <r_lp_Energy>
20.8584

> <b_lp_Chiralities_Consistent>
1

> <s_lp_Variant>
AV-unprocessed.smi:686-3

> <Gold.Version>
5.8.1

> <Gold.Id.Protein>
6NUR|6NUR_protein|mol2

> <Gold.PLP.Fitness>
39.4655

> <Gold.PLP.PLP>
-26.4651

> <Gold.PLP.part.hbond>
-4.0000

> <Gold.PLP.part.metal>
0.0000

> <Gold.PLP.part.buried>
-5.0804

> <Gold.PLP.part.nonpolar>
-16.7921

> <Gold.PLP.part.repulsive>
0.0600

> <Gold.PLP.ligand.clash>
0.0000

> <Gold.PLP.ligand.torsion>
0.7383

> <Gold.PLP.Chemscore.Hbond>
4.7600

> <Gold.PLP.Chemscore.CHOScore>
0.0000

> <Gold.PLP.Chemscore.Metal>
0.0000

> <Gold.Chemscore.Hbonds>
donor molecule, donor type, donor heavy atom, donor atom, acceptor molecule, acceptor atom, score
      L1  H     4    41       P1  7948  2.00
      P1  H  7989  7998       L1    13  1.00
      P1  H  7997  8008       L1    19  1.00
      P1  H  7997  8009       L1    12  0.75

> <Gold.PLP.Chemscore.Internal.Correction>
0.1970

> <Gold.Rescore>
     Score         DG    S(hbond)    S(metal)    S(lipo)     H(rot)  DE(clash)    DE(int)     intcor
     15.88     -16.92       2.92        0.00      56.22       1.91       0.09       0.96       ----

> <Gold.Chemscore.Fitness>
15.8803

> <Gold.Chemscore.DG>
-16.9249

> <Gold.Chemscore.ZeroCoef>
-5.4800

> <Gold.Chemscore.Hbond>
2.9225

> <Gold.Chemscore.Metal>
0.0000

> <Gold.Chemscore.Lipo>
56.2156

> <Gold.Chemscore.Internal_Hbond>
0.0000

> <Gold.Chemscore.DEClash>
0.0861

> <Gold.Chemscore.DEInternal>
0.9585

> <Gold.Chemscore.Rot>
1.9115

> <Gold.Chemscore.Internal.Correction>
   9.000000E+99

> <Gold.Chemscore.Hbonds>
donor molecule, donor type, donor heavy atom, donor atom, acceptor molecule, acceptor atom, score
      L1  H     4    41       P1  7948  0.91
      P1  H  7989  7998       L1    13  0.60
      P1  H  7997  8008       L1    19  0.11
      P1  H  7997  8009       L1    12  0.76

> <Gold.Chemscore.Hbond.Weighted>
-9.7612

> <Gold.Chemscore.Metal.Weighted>
-0.0000

> <Gold.Chemscore.Lipo.Weighted>
-6.5772

> <Gold.Chemscore.Internal_Hbond.Weighted>
0.0000

> <Gold.Chemscore.DEClash.Weighted>
0.0861

> <Gold.Chemscore.DEInternal.Weighted>
0.9585

> <Gold.Chemscore.Rot.Weighted>
4.8935

> <Gold.Chemscore.Internal.Correction.Weighted>
   9.000000E+99

> <Gold.Protein.RotatedTorsions>
[ 6907 6896 6895 6894 ] final -151.40 input  -60.11 | X-H torsion
[ 7974 7965 7964 7962 ] final  -25.90 input  175.53 | X-H torsion
[ 8008 7997 7996 7995 ] final -103.03 input   59.86 | X-H torsion
[ 10167 10162 10161 10158 ] final -105.18 input  -65.29 | X-H torsion
[ 10718 10713 10712 10709 ] final  -70.08 input   66.30 | X-H torsion
[ 10763 10752 10751 10750 ] final  -65.23 input  -60.55 | X-H torsion
[ 11005 11000 10999 10996 ] final   35.44 input  -57.11 | X-H torsion

> <Gold.Protein.ActiveResidues>
 VAL166  LYS551  ARG553  GLY616  TRP617  ASP618  TYR619  PRO620  LYS621  CYS622 
 ASP623  PHE694  ASN695  SER759  ASP760  ASP761  ALA762  ILE779  LEU786  VAL792 
 PHE793  MET794  SER795  GLU796  ALA797  LYS798  CYS799  TRP800  GLU811  SER814 

> <Gold.Protein.RotatedAtoms>
  151.2125  133.4547  159.2598 H   0  0  0  0  0  0  0  0  0  0  0  0  # atno 6907 bound_to 6896
  151.0962  134.9945  159.8437 H   0  0  0  0  0  0  0  0  0  0  0  0  # atno 6908 bound_to 6896
  152.5439  134.2055  159.8782 H   0  0  0  0  0  0  0  0  0  0  0  0  # atno 6909 bound_to 6896
  146.1461  140.4947  142.8631 H   0  0  0  0  0  0  0  0  0  0  0  0  # atno 7974 bound_to 7965
  154.8651  140.0425  157.1689 H   0  0  0  0  0  0  0  0  0  0  0  0  # atno 8008 bound_to 7997
  154.8798  140.2971  155.5411 H   0  0  0  0  0  0  0  0  0  0  0  0  # atno 8009 bound_to 7997
  156.2999  140.2413  156.3799 H   0  0  0  0  0  0  0  0  0  0  0  0  # atno 8010 bound_to 7997
  140.2013  143.3816  152.1127 H   0  0  0  0  0  0  0  0  0  0  0  0  # atno 10167 bound_to 10162
  156.0424  130.4325  150.2243 H   0  0  0  0  0  0  0  0  0  0  0  0  # atno 10718 bound_to 10713
  154.3420  135.6155  153.5601 H   0  0  0  0  0  0  0  0  0  0  0  0  # atno 10763 bound_to 10752
  152.9803  135.5772  154.4842 H   0  0  0  0  0  0  0  0  0  0  0  0  # atno 10764 bound_to 10752
  154.4548  135.2854  155.1732 H   0  0  0  0  0  0  0  0  0  0  0  0  # atno 10765 bound_to 10752
  140.2427  134.3396  155.7919 H   0  0  0  0  0  0  0  0  0  0  0  0  # atno 11005 bound_to 11000
  144.7848  140.5914  143.6581 LP  0  0  0  0  0  0  0  0  0  0  0  0  # atno 17320 bound_to 7965
  145.4934  139.1487  143.3697 LP  0  0  0  0  0  0  0  0  0  0  0  0  # atno 17321 bound_to 7965
  139.5216  144.7048  151.5387 LP  0  0  0  0  0  0  0  0  0  0  0  0  # atno 17342 bound_to 10162
  140.6388  143.8930  150.6672 LP  0  0  0  0  0  0  0  0  0  0  0  0  # atno 17343 bound_to 10162
  157.0336  131.0015  151.3305 LP  0  0  0  0  0  0  0  0  0  0  0  0  # atno 17370 bound_to 10713
  157.5259  130.8028  149.7862 LP  0  0  0  0  0  0  0  0  0  0  0  0  # atno 17371 bound_to 10713
  141.2209  133.7308  156.8910 LP  0  0  0  0  0  0  0  0  0  0  0  0  # atno 17394 bound_to 11000
  140.1637  134.9148  157.2747 LP  0  0  0  0  0  0  0  0  0  0  0  0  # atno 17395 bound_to 11000

$$$$
