#       Name:                AV-unprocessed.smi:3053
#       Creating user name   scv26
#       Creation time:       Fri Mar 27 17:03:06 2020


#       File generated by GOLD software.
#

@<TRIPOS>MOLECULE
AV-unprocessed.smi:3053
    36    37     1
SMALL
NO_CHARGES


@<TRIPOS>ATOM
      1 ****        -2.6649   1.8225   2.8129 C.3            1 S1                 0.0000
      2 ****        -2.5211   0.7391   1.8004 C.2            1 S1                 0.0000
      3 ****        -1.8838  -0.4104   2.0360 N.2            1 S1                 0.0000
      4 ****        -1.8626  -1.2520   0.9196 C.2            1 S1                 0.0000
      5 ****        -1.1391  -2.5660   0.9849 C.3            1 S1                 0.0000
      6 ****         0.3959  -2.4287   0.9273 C.3            1 S1                 0.0000
      7 ****         0.8436  -1.6943  -0.2547 N.am           1 S1                 0.0000
      8 ****         1.1491  -0.3871  -0.2896 C.2            1 S1                 0.0000
      9 ****         1.1357   0.3382   0.7061 O.2            1 S1                 0.0000
     10 ****         1.5259   0.1857  -1.6625 C.3            1 S1                 0.0000
     11 ****         3.0077   0.5794  -1.7737 C.3            1 S1                 0.0000
     12 ****         2.9454   2.0170  -1.9549 N.am           1 S1                 0.0000
     13 ****         1.6984   2.4870  -2.0259 C.2            1 S1                 0.0000
     14 ****         1.3781   3.6609  -2.1925 O.2            1 S1                 0.0000
     15 ****         0.8594   1.4581  -1.8843 N.am           1 S1                 0.0000
     16 ****        -2.5210  -0.7285  -0.1656 C.2            1 S1                 0.0000
     17 ****        -3.1633   0.8556   0.1666 S.3            1 S1                 0.0000
     18 ****        -2.5826   1.4165   3.8216 H              1 S1                 0.0000
     19 ****        -3.6362   2.3066   2.7099 H              1 S1                 0.0000
     20 ****        -1.8836   2.5691   2.6700 H              1 S1                 0.0000
     21 ****        -1.4149  -3.0963   1.8970 H              1 S1                 0.0000
     22 ****        -1.4670  -3.2056   0.1647 H              1 S1                 0.0000
     23 ****         0.7604  -1.9487   1.8371 H              1 S1                 0.0000
     24 ****         0.8504  -3.4192   0.9072 H              1 S1                 0.0000
     25 ****         0.8919  -2.2130  -1.1198 H              1 S1                 0.0000
     26 ****         1.2461  -0.5060  -2.4589 H              1 S1                 0.0000
     27 ****         3.5913   0.3347  -0.8846 H              1 S1                 0.0000
     28 ****         3.4834   0.1135  -2.6374 H              1 S1                 0.0000
     29 ****         3.7715   2.5930  -2.0290 H              1 S1                 0.0000
     30 ****        -0.1462   1.5487  -1.8841 H              1 S1                 0.0000
     31 ****        -2.6488  -1.1690  -1.1431 H              1 S1                 0.0000
     32 ****        -1.4673  -0.6438   2.9146 LP             1 S1                 0.0000
     33 ****         0.8883  -0.0411   1.5977 LP             1 S1                 0.0000
     34 ****         1.3723   1.3062   0.6227 LP             1 S1                 0.0000
     35 ****         2.0838   4.3629  -2.2887 LP             1 S1                 0.0000
     36 ****         0.4117   3.9147  -2.2320 LP             1 S1                 0.0000
@<TRIPOS>BOND
    1    1    2 1     
    2    1   18 1     
    3    1   19 1     
    4    1   20 1     
    5    2   17 1     
    6    2    3 2     
    7    3    4 1     
    8    4    5 1     
    9    4   16 2     
   10    5    6 1     
   11    5   21 1     
   12    5   22 1     
   13    6    7 1     
   14    6   23 1     
   15    6   24 1     
   16    7    8 am    
   17    7   25 1     
   18    8    9 2     
   19    8   10 1     
   20   10   15 1     
   21   10   11 1     
   22   10   26 1     
   23   11   12 1     
   24   11   27 1     
   25   11   28 1     
   26   12   13 am    
   27   12   29 1     
   28   13   14 2     
   29   13   15 am    
   30   15   30 1     
   31   16   17 1     
   32   16   31 1     
   33    3   32 1     
   34    9   33 1     
   35    9   34 1     
   36   14   35 1     
   37   14   36 1     
@<TRIPOS>SUBSTRUCTURE
      1 S1             1
@<TRIPOS>SET
LONE_PAIRS      STATIC     ATOMS    <user>   **** ""
5 32 33 34 35 36
DONOR_HYDROGENS      STATIC     ATOMS    <user>   **** ""
3 25 29 30
ATOM$BLUE        STATIC     ATOMS    COLORGROUP SYSTEM
5 32 33 34 35 36
ATOM$RED        STATIC     ATOMS    COLORGROUP SYSTEM
3 25 29 30
