#       Name:                AV-unprocessed.smi:1399
#       Creating user name   scv26
#       Creation time:       Fri Mar 27 05:30:51 2020


#       File generated by GOLD software.
#

@<TRIPOS>MOLECULE
AV-unprocessed.smi:1399
    43    44     1
SMALL
NO_CHARGES


@<TRIPOS>ATOM
      1 ****        -4.6122   2.9516  -2.1093 N.am           1 S1                 0.0000
      2 ****        -3.3711   2.5734  -2.4230 C.2            1 S1                 0.0000
      3 ****        -2.6209   3.2793  -3.0946 O.2            1 S1                 0.0000
      4 ****        -2.9197   1.1978  -1.9218 C.3            1 S1                 0.0000
      5 ****        -1.4420   1.0443  -1.8946 N.4            1 S1                 1.0000
      6 ****        -1.0197  -0.3781  -1.9587 C.3            1 S1                 0.0000
      7 ****         0.5097  -0.4990  -2.0863 C.3            1 S1                 0.0000
      8 ****         1.2456   0.2405  -0.9554 C.3            1 S1                 0.0000
      9 ****         1.0766  -0.4630   0.3168 N.am           1 S1                 0.0000
     10 ****         2.0610  -0.9620   1.0789 C.2            1 S1                 0.0000
     11 ****         3.2553  -0.8826   0.7936 O.2            1 S1                 0.0000
     12 ****         1.5686  -1.5507   2.1806 N.am           1 S1                 0.0000
     13 ****         2.3002  -2.1977   3.2077 C.2            1 S1                 0.0000
     14 ****         3.7066  -2.4039   3.3223 C.2            1 S1                 0.0000
     15 ****         4.0056  -3.0581   4.4357 N.2            1 S1                 0.0000
     16 ****         2.8099  -3.2718   5.0295 N.pl3          1 S1                 0.0000
     17 ****         1.7462  -2.7654   4.3162 C.2            1 S1                 0.0000
     18 ****         0.7332   1.6876  -0.8507 C.3            1 S1                 0.0000
     19 ****        -0.8016   1.7523  -0.7536 C.3            1 S1                 0.0000
     20 ****         2.7376  -3.7594   5.9112 H              1 S1                 0.0000
     21 ****        -4.9556   3.8483  -2.4234 H              1 S1                 0.0000
     22 ****        -5.2090   2.3442  -1.5662 H              1 S1                 0.0000
     23 ****        -3.3357   0.9932  -0.9338 H              1 S1                 0.0000
     24 ****        -3.3524   0.4632  -2.6023 H              1 S1                 0.0000
     25 ****        -1.3714  -0.9042  -1.0697 H              1 S1                 0.0000
     26 ****        -1.4864  -0.8629  -2.8168 H              1 S1                 0.0000
     27 ****         0.8038  -1.5493  -2.1056 H              1 S1                 0.0000
     28 ****         0.8193  -0.0815  -3.0455 H              1 S1                 0.0000
     29 ****         2.3047   0.2781  -1.2149 H              1 S1                 0.0000
     30 ****         0.1296  -0.5837   0.6439 H              1 S1                 0.0000
     31 ****         0.5660  -1.5379   2.2967 H              1 S1                 0.0000
     32 ****         4.5069  -2.1142   2.6578 H              1 S1                 0.0000
     33 ****         0.7229  -2.8518   4.6509 H              1 S1                 0.0000
     34 ****         1.1856   2.1880   0.0066 H              1 S1                 0.0000
     35 ****         1.0558   2.2454  -1.7309 H              1 S1                 0.0000
     36 ****        -1.1108   2.7976  -0.7375 H              1 S1                 0.0000
     37 ****        -1.1404   1.3128   0.1858 H              1 S1                 0.0000
     38 ****        -1.1016   1.4799  -2.7405 H              1 S1                 0.0000
     39 ****        -2.9347   4.1694  -3.4250 LP             1 S1                 0.0000
     40 ****        -1.6970   2.9632  -3.3103 LP             1 S1                 0.0000
     41 ****         3.5387  -0.4251  -0.0492 LP             1 S1                 0.0000
     42 ****         3.9425  -1.2756   1.4046 LP             1 S1                 0.0000
     43 ****         4.9103  -3.3316   4.7624 LP             1 S1                 0.0000
@<TRIPOS>BOND
    1    1    2 am    
    2    1   21 1     
    3    1   22 1     
    4    2    3 2     
    5    2    4 1     
    6    4    5 1     
    7    4   23 1     
    8    4   24 1     
    9    5   19 1     
   10    5    6 1     
   11    5   38 1     
   12    6    7 1     
   13    6   25 1     
   14    6   26 1     
   15    7    8 1     
   16    7   27 1     
   17    7   28 1     
   18    8    9 1     
   19    8   18 1     
   20    8   29 1     
   21    9   10 am    
   22    9   30 1     
   23   10   11 2     
   24   10   12 am    
   25   12   13 1     
   26   12   31 1     
   27   13   17 2     
   28   13   14 1     
   29   14   15 2     
   30   14   32 1     
   31   15   16 1     
   32   16   20 1     
   33   16   17 1     
   34   17   33 1     
   35   18   19 1     
   36   18   34 1     
   37   18   35 1     
   38   19   36 1     
   39   19   37 1     
   40    3   39 1     
   41    3   40 1     
   42   11   41 1     
   43   11   42 1     
   44   15   43 1     
@<TRIPOS>SUBSTRUCTURE
      1 S1             1
@<TRIPOS>SET
LONE_PAIRS      STATIC     ATOMS    <user>   **** ""
5 39 40 41 42 43
DONOR_HYDROGENS      STATIC     ATOMS    <user>   **** ""
6 21 22 38 30 31 20
ATOM$BLUE        STATIC     ATOMS    COLORGROUP SYSTEM
5 39 40 41 42 43
ATOM$RED        STATIC     ATOMS    COLORGROUP SYSTEM
6 21 22 38 30 31 20
