AV-unprocessed.smi:303|AV-procd|sdf|2274|dock1
  -GOLD-   2262022163D 1   1.00000     0.00000
 Structure written by MMmdl.
 45 46  0  0  0  0  0  0  0  0  1 V2000
  151.2865  141.8830  157.8186 C   0  0  0  0  0  0  0  0  0  0  0  0
  150.8844  141.9069  156.3391 C   0  0  0  0  0  0  0  0  0  0  0  0
  150.2476  140.2673  155.7687 S   0  0  0  0  0  0  0  0  0  0  0  0
  150.9485  139.9094  154.5258 O   0  0  0  0  0  0  0  0  0  0  0  0
  150.2542  139.3330  156.9053 O   0  0  0  0  0  0  0  0  0  0  0  0
  148.5842  140.5768  155.3554 N   0  0  0  0  0  0  0  0  0  0  0  0
  148.2589  141.2979  154.1101 C   0  0  0  0  0  0  0  0  0  0  0  0
  147.7765  140.3332  153.0127 C   0  0  0  0  0  0  0  0  0  0  0  0
  146.5869  139.4858  153.4984 C   0  0  0  0  0  0  0  0  0  0  0  0
  146.1233  138.5012  152.4183 C   0  0  0  0  0  0  0  0  0  0  0  0
  146.6759  138.4832  151.3177 O   0  0  0  0  0  0  0  0  0  0  0  0
  145.1231  137.6715  152.7562 N   0  0  0  0  0  0  0  0  0  0  0  0
  144.5915  136.5972  151.9207 C   0  0  0  0  0  0  0  0  0  0  0  0
  145.6947  135.8962  151.1033 C   0  0  0  0  0  0  0  0  0  0  0  0
  145.3644  134.4578  150.7419 C   0  0  0  0  0  0  0  0  0  0  0  0
  146.3274  133.4361  150.8906 C   0  0  0  0  0  0  0  0  0  0  0  0
  145.9827  132.1276  150.5014 C   0  0  0  0  0  0  0  0  0  0  0  0
  144.6936  131.8907  149.9867 C   0  0  0  0  0  0  0  0  0  0  0  0
  143.8024  132.9776  149.8852 C   0  0  0  0  0  0  0  0  0  0  0  0
  144.1235  134.2365  150.2532 N   0  0  0  0  0  0  0  0  0  0  0  0
  146.9927  138.7348  154.7796 C   0  0  0  0  0  0  0  0  0  0  0  0
  147.5077  139.6997  155.8617 C   0  0  0  0  0  0  0  0  0  0  0  0
  151.6345  142.8643  158.1408 H   0  0  0  0  0  0  0  0  0  0  0  0
  152.0934  141.1716  157.9959 H   0  0  0  0  0  0  0  0  0  0  0  0
  150.4478  141.6019  158.4546 H   0  0  0  0  0  0  0  0  0  0  0  0
  150.1416  142.6747  156.1389 H   0  0  0  0  0  0  0  0  0  0  0  0
  151.7597  142.1456  155.7351 H   0  0  0  0  0  0  0  0  0  0  0  0
  147.4776  142.0272  154.3270 H   0  0  0  0  0  0  0  0  0  0  0  0
  149.1230  141.8652  153.7651 H   0  0  0  0  0  0  0  0  0  0  0  0
  147.4909  140.9061  152.1296 H   0  0  0  0  0  0  0  0  0  0  0  0
  148.5989  139.6885  152.7030 H   0  0  0  0  0  0  0  0  0  0  0  0
  145.7605  140.1578  153.7375 H   0  0  0  0  0  0  0  0  0  0  0  0
  144.7275  137.7636  153.6806 H   0  0  0  0  0  0  0  0  0  0  0  0
  144.1062  135.8714  152.5733 H   0  0  0  0  0  0  0  0  0  0  0  0
  143.8129  136.9732  151.2549 H   0  0  0  0  0  0  0  0  0  0  0  0
  145.8859  136.4582  150.1882 H   0  0  0  0  0  0  0  0  0  0  0  0
  146.6299  135.9108  151.6647 H   0  0  0  0  0  0  0  0  0  0  0  0
  147.3121  133.6510  151.2787 H   0  0  0  0  0  0  0  0  0  0  0  0
  146.6953  131.3213  150.5926 H   0  0  0  0  0  0  0  0  0  0  0  0
  144.3943  130.9002  149.6775 H   0  0  0  0  0  0  0  0  0  0  0  0
  142.8055  132.8325  149.4962 H   0  0  0  0  0  0  0  0  0  0  0  0
  146.1363  138.1852  155.1723 H   0  0  0  0  0  0  0  0  0  0  0  0
  147.7505  137.9832  154.5609 H   0  0  0  0  0  0  0  0  0  0  0  0
  147.8451  139.1426  156.7348 H   0  0  0  0  0  0  0  0  0  0  0  0
  146.6865  140.3311  156.2022 H   0  0  0  0  0  0  0  0  0  0  0  0
  1  2  1  0  0  0  0
  1 23  1  0  0  0  0
  1 24  1  0  0  0  0
  1 25  1  0  0  0  0
  2  3  1  0  0  0  0
  2 26  1  0  0  0  0
  2 27  1  0  0  0  0
  3  4  2  0  0  0  0
  3  5  2  0  0  0  0
  3  6  1  0  0  0  0
  6 22  1  0  0  0  0
  6  7  1  0  0  0  0
  7  8  1  0  0  0  0
  7 28  1  0  0  0  0
  7 29  1  0  0  0  0
  8  9  1  0  0  0  0
  8 30  1  0  0  0  0
  8 31  1  0  0  0  0
  9 10  1  0  0  0  0
  9 21  1  0  0  0  0
  9 32  1  0  0  0  0
 10 11  2  0  0  0  0
 10 12  1  0  0  0  0
 12 13  1  0  0  0  0
 12 33  1  0  0  0  0
 13 14  1  0  0  0  0
 13 34  1  0  0  0  0
 13 35  1  0  0  0  0
 14 15  1  0  0  0  0
 14 36  1  0  0  0  0
 14 37  1  0  0  0  0
 15 20  1  0  0  0  0
 15 16  2  0  0  0  0
 16 17  1  0  0  0  0
 16 38  1  0  0  0  0
 17 18  2  0  0  0  0
 17 39  1  0  0  0  0
 18 19  1  0  0  0  0
 18 40  1  0  0  0  0
 19 20  2  0  0  0  0
 19 41  1  0  0  0  0
 21 22  1  0  0  0  0
 21 42  1  0  0  0  0
 21 43  1  0  0  0  0
 22 44  1  0  0  0  0
 22 45  1  0  0  0  0
M  END
> <s_m_source_file>
AV-unprocessed.smi

> <i_m_source_file_index>
303

> <i_lp_mmshare_version>
43012

> <i_f3d_flags>
0

> <s_epik_input>
W0NIM11bQ0gyXVMoPU8pKD1PKU4xW0NIMl1bQ0gyXVtDSF0oW0NIMl1bQ0gyXTEpQyg9TylbTkhdW0NIMl1bQ0gyXWMyW2NIXVtjSF1bY0hdW2NIXW4y

> <s_epik_cmdline>
J2VwaWtfcHl0aG9uJywgJy1waCcsICc3LjAnLCAnLXRuJywgJzgnLCAnLW1hJywgJzIwMCcsICctbWV0YWxfYmluZGluZycsICctaW1hZScsICc8aW5maWxlLm1hZT4nLCAnLW9tYWUnLCAnPG91dGZpbGUubWFlPic=

> <r_epik_Ionization_Penalty>
0.0277532

> <r_epik_Ionization_Penalty_Charging>
0

> <r_epik_Ionization_Penalty_Neutral>
0.0277532

> <r_epik_State_Penalty>
0.022734

> <r_epik_Charging_Adjusted_Penalty>
0.022734

> <i_epik_Tot_Q>
0

> <i_epik_Tot_abs_Q>
0

> <r_epik_Metal_State_Penalty>
0.021713

> <b_epik_Metal_Only>
0

> <s_lp_Force_Field>
OPLS_2005

> <r_lp_Energy>
1.72058

> <b_lp_Chiralities_Consistent>
1

> <s_lp_Variant>
AV-unprocessed.smi:303-1

> <Gold.Version>
5.8.1

> <Gold.Id.Protein>
6NUR|6NUR_protein|mol2

> <Gold.PLP.Fitness>
43.4248

> <Gold.PLP.PLP>
-35.6427

> <Gold.PLP.part.hbond>
-2.9079

> <Gold.PLP.part.metal>
0.0000

> <Gold.PLP.part.buried>
1.2261

> <Gold.PLP.part.nonpolar>
-35.1879

> <Gold.PLP.part.repulsive>
0.9455

> <Gold.PLP.ligand.clash>
0.0000

> <Gold.PLP.ligand.torsion>
1.6378

> <Gold.PLP.Chemscore.Hbond>
2.0000

> <Gold.PLP.Chemscore.CHOScore>
0.9449

> <Gold.PLP.Chemscore.Metal>
0.0000

> <Gold.Chemscore.Hbonds>
donor molecule, donor type, donor heavy atom, donor atom, acceptor molecule, acceptor atom, score
      P1  H  7954  7966       L1    11  0.71
      P1  H  7989  7998       L1     4  1.00
      L1  C    19    41       P1 10186  0.94

> <Gold.PLP.Chemscore.Internal.Correction>
2.2229

> <Gold.Rescore>
     Score         DG    S(hbond)    S(metal)    S(lipo)     H(rot)  DE(clash)    DE(int)     intcor
     13.78     -18.88       1.93        0.00      95.66       1.66       2.12       2.98       ----

> <Gold.Chemscore.Fitness>
13.7816

> <Gold.Chemscore.DG>
-18.8827

> <Gold.Chemscore.ZeroCoef>
-5.4800

> <Gold.Chemscore.Hbond>
1.9313

> <Gold.Chemscore.Metal>
0.0000

> <Gold.Chemscore.Lipo>
95.6611

> <Gold.Chemscore.Internal_Hbond>
0.0000

> <Gold.Chemscore.DEClash>
2.1248

> <Gold.Chemscore.DEInternal>
2.9763

> <Gold.Chemscore.Rot>
1.6563

> <Gold.Chemscore.Internal.Correction>
   9.000000E+99

> <Gold.Chemscore.Hbonds>
donor molecule, donor type, donor heavy atom, donor atom, acceptor molecule, acceptor atom, score
      P1  H  7954  7966       L1    11  0.70
      P1  H  7989  7998       L1     4  0.96

> <Gold.Chemscore.Hbond.Weighted>
-6.4504

> <Gold.Chemscore.Metal.Weighted>
-0.0000

> <Gold.Chemscore.Lipo.Weighted>
-11.1923

> <Gold.Chemscore.Internal_Hbond.Weighted>
0.0000

> <Gold.Chemscore.DEClash.Weighted>
2.1248

> <Gold.Chemscore.DEInternal.Weighted>
2.9763

> <Gold.Chemscore.Rot.Weighted>
4.2401

> <Gold.Chemscore.Internal.Correction.Weighted>
   9.000000E+99

> <Gold.Protein.RotatedTorsions>
[ 6907 6896 6895 6894 ] final  -56.39 input  -60.11 | X-H torsion
[ 7974 7965 7964 7962 ] final -138.18 input  175.53 | X-H torsion
[ 8008 7997 7996 7995 ] final  -30.09 input   59.86 | X-H torsion
[ 10167 10162 10161 10158 ] final    2.82 input  -65.29 | X-H torsion
[ 10718 10713 10712 10709 ] final  -59.74 input   66.30 | X-H torsion
[ 10763 10752 10751 10750 ] final -174.17 input  -60.55 | X-H torsion
[ 11005 11000 10999 10996 ] final -118.90 input  -57.11 | X-H torsion

> <Gold.Protein.ActiveResidues>
 VAL166  LYS551  ARG553  GLY616  TRP617  ASP618  TYR619  PRO620  LYS621  CYS622 
 ASP623  PHE694  ASN695  SER759  ASP760  ASP761  ALA762  ILE779  LEU786  VAL792 
 PHE793  MET794  SER795  GLU796  ALA797  LYS798  CYS799  TRP800  GLU811  SER814 

> <Gold.Protein.RotatedAtoms>
  150.8172  134.7360  159.6739 H   0  0  0  0  0  0  0  0  0  0  0  0  # atno 6907 bound_to 6896
  152.4290  134.5811  159.9958 H   0  0  0  0  0  0  0  0  0  0  0  0  # atno 6908 bound_to 6896
  151.6005  133.3319  159.3082 H   0  0  0  0  0  0  0  0  0  0  0  0  # atno 6909 bound_to 6896
  144.8780  140.6465  143.5224 H   0  0  0  0  0  0  0  0  0  0  0  0  # atno 7974 bound_to 7965
  154.4264  140.1800  156.1352 H   0  0  0  0  0  0  0  0  0  0  0  0  # atno 8008 bound_to 7997
  156.0036  140.3357  155.6845 H   0  0  0  0  0  0  0  0  0  0  0  0  # atno 8009 bound_to 7997
  155.6208  140.0659  157.2669 H   0  0  0  0  0  0  0  0  0  0  0  0  # atno 8010 bound_to 7997
  140.6616  143.7288  150.7750 H   0  0  0  0  0  0  0  0  0  0  0  0  # atno 10167 bound_to 10162
  156.1040  130.4182  150.0757 H   0  0  0  0  0  0  0  0  0  0  0  0  # atno 10718 bound_to 10713
  154.5993  135.2853  155.0552 H   0  0  0  0  0  0  0  0  0  0  0  0  # atno 10763 bound_to 10752
  154.1823  135.6454  153.5041 H   0  0  0  0  0  0  0  0  0  0  0  0  # atno 10764 bound_to 10752
  153.0151  135.5426  154.6707 H   0  0  0  0  0  0  0  0  0  0  0  0  # atno 10765 bound_to 10752
  141.0253  134.0063  157.3223 H   0  0  0  0  0  0  0  0  0  0  0  0  # atno 11005 bound_to 11000
  145.4007  139.1598  143.4179 LP  0  0  0  0  0  0  0  0  0  0  0  0  # atno 17320 bound_to 7965
  146.2975  140.4103  142.8716 LP  0  0  0  0  0  0  0  0  0  0  0  0  # atno 17321 bound_to 7965
  140.0958  143.4835  152.2453 LP  0  0  0  0  0  0  0  0  0  0  0  0  # atno 17342 bound_to 10162
  139.5852  144.7528  151.3538 LP  0  0  0  0  0  0  0  0  0  0  0  0  # atno 17343 bound_to 10162
  156.8738  130.9533  151.3606 LP  0  0  0  0  0  0  0  0  0  0  0  0  # atno 17370 bound_to 10713
  157.6214  130.8658  149.9115 LP  0  0  0  0  0  0  0  0  0  0  0  0  # atno 17371 bound_to 10713
  139.9172  135.0198  156.7926 LP  0  0  0  0  0  0  0  0  0  0  0  0  # atno 17394 bound_to 11000
  140.6502  133.9738  155.7751 LP  0  0  0  0  0  0  0  0  0  0  0  0  # atno 17395 bound_to 11000

$$$$
