#       Name:                AV-unprocessed.smi:3154
#       Creating user name   scv26
#       Creation time:       Fri Mar 27 17:43:39 2020


#       File generated by GOLD software.
#

@<TRIPOS>MOLECULE
AV-unprocessed.smi:3154
    38    39     1
SMALL
NO_CHARGES


@<TRIPOS>ATOM
      1 ****        -1.6254  -2.3789  -1.2317 C.3            1 S1                 0.0000
      2 ****        -1.2138  -1.0838  -0.5111 C.3            1 S1                 0.0000
      3 ****        -1.7168  -1.0357   0.9505 C.3            1 S1                 0.0000
      4 ****        -3.1545  -1.2051   1.0612 N.pl3          1 S1                 0.0000
      5 ****        -3.8564  -2.2445   1.6352 C.2            1 S1                 0.0000
      6 ****        -5.1849  -1.9556   1.5083 C.2            1 S1                 0.0000
      7 ****        -5.1958  -0.6986   0.8415 C.2            1 S1                 0.0000
      8 ****        -3.9786  -0.2505   0.5785 N.2            1 S1                 0.0000
      9 ****         0.2570  -0.9356  -0.5758 N.4            1 S1                 1.0000
     10 ****         0.7722   0.4268  -0.3142 C.3            1 S1                 0.0000
     11 ****         2.2852   0.5234  -0.5205 C.2            1 S1                 0.0000
     12 ****         2.9407  -0.4684  -0.8429 O.2            1 S1                 0.0000
     13 ****         2.8252   1.7357  -0.3280 N.am           1 S1                 0.0000
     14 ****         4.2086   2.0588  -0.4666 C.3            1 S1                 0.0000
     15 ****         4.7839   3.1015   0.4675 C.3            1 S1                 0.0000
     16 ****         4.5597   3.4383  -0.9809 C.3            1 S1                 0.0000
     17 ****        -2.7095  -2.4776  -1.2937 H              1 S1                 0.0000
     18 ****        -1.2403  -3.2594  -0.7162 H              1 S1                 0.0000
     19 ****        -1.2436  -2.3974  -2.2530 H              1 S1                 0.0000
     20 ****        -1.6540  -0.2530  -1.0648 H              1 S1                 0.0000
     21 ****        -1.2337  -1.8166   1.5399 H              1 S1                 0.0000
     22 ****        -1.4603  -0.0871   1.4222 H              1 S1                 0.0000
     23 ****        -3.3593  -3.0945   2.0791 H              1 S1                 0.0000
     24 ****        -6.0220  -2.5500   1.8435 H              1 S1                 0.0000
     25 ****        -6.0458  -0.1021   0.5446 H              1 S1                 0.0000
     26 ****         0.6860  -1.5815   0.0714 H              1 S1                 0.0000
     27 ****         0.2814   1.1366  -0.9815 H              1 S1                 0.0000
     28 ****         0.5424   0.7241   0.7089 H              1 S1                 0.0000
     29 ****         2.2105   2.4920  -0.0634 H              1 S1                 0.0000
     30 ****         4.8837   1.2558  -0.7595 H              1 S1                 0.0000
     31 ****         4.1167   3.5566   1.1974 H              1 S1                 0.0000
     32 ****         5.8119   2.9667   0.7980 H              1 S1                 0.0000
     33 ****         5.4378   3.5268  -1.6178 H              1 S1                 0.0000
     34 ****         3.7436   4.1189  -1.2169 H              1 S1                 0.0000
     35 ****         0.5493  -1.1853  -1.5099 H              1 S1                 0.0000
     36 ****        -3.7258   0.6037   0.1241 LP             1 S1                 0.0000
     37 ****         2.4844  -1.3488  -0.9726 LP             1 S1                 0.0000
     38 ****         3.9291  -0.3932  -0.9749 LP             1 S1                 0.0000
@<TRIPOS>BOND
    1    1    2 1     
    2    1   17 1     
    3    1   18 1     
    4    1   19 1     
    5    2    3 1     
    6    2    9 1     
    7    2   20 1     
    8    3    4 1     
    9    3   21 1     
   10    3   22 1     
   11    4    8 1     
   12    4    5 1     
   13    5    6 2     
   14    5   23 1     
   15    6    7 1     
   16    6   24 1     
   17    7    8 2     
   18    7   25 1     
   19    9   10 1     
   20    9   26 1     
   21    9   35 1     
   22   10   11 1     
   23   10   27 1     
   24   10   28 1     
   25   11   12 2     
   26   11   13 am    
   27   13   14 1     
   28   13   29 1     
   29   14   16 1     
   30   14   15 1     
   31   14   30 1     
   32   15   16 1     
   33   15   31 1     
   34   15   32 1     
   35   16   33 1     
   36   16   34 1     
   37    8   36 1     
   38   12   37 1     
   39   12   38 1     
@<TRIPOS>SUBSTRUCTURE
      1 S1             1
@<TRIPOS>SET
LONE_PAIRS      STATIC     ATOMS    <user>   **** ""
3 36 37 38
DONOR_HYDROGENS      STATIC     ATOMS    <user>   **** ""
3 26 35 29
ATOM$BLUE        STATIC     ATOMS    COLORGROUP SYSTEM
3 36 37 38
ATOM$RED        STATIC     ATOMS    COLORGROUP SYSTEM
3 26 35 29
