AV-unprocessed.smi:2340|AV-procd|sdf|9345|dock7
  -GOLD-   2272012563D 1   1.00000     0.00000
 Structure written by MMmdl.
 40 41  0  0  0  0  0  0  0  0  1 V2000
  145.3963  131.9194  149.1000 C   0  0  0  0  0  0  0  0  0  0  0  0
  145.2449  132.6005  150.4236 C   0  0  0  0  0  0  0  0  0  0  0  0
  144.1862  133.3674  150.8416 C   0  0  0  0  0  0  0  0  0  0  0  0
  144.4172  133.9652  152.4617 S   0  0  0  0  0  0  0  0  0  0  0  0
  145.9696  133.1368  152.5149 C   0  0  0  0  0  0  0  0  0  0  0  0
  146.8758  133.1721  153.7052 C   0  0  1  0  0  0  0  0  0  0  0  0
  148.3369  132.8907  153.3129 C   0  0  0  0  0  0  0  0  0  0  0  0
  146.6776  134.4625  154.5303 C   0  0  0  0  0  0  0  0  0  0  0  0
  147.6598  135.4942  154.2126 N   0  0  0  0  0  0  0  0  0  0  0  0
  148.0246  136.4870  155.0351 C   0  0  0  0  0  0  0  0  0  0  0  0
  147.5582  136.6557  156.1618 O   0  0  0  0  0  0  0  0  0  0  0  0
  148.9666  137.2652  154.4856 N   0  0  0  0  0  0  0  0  0  0  0  0
  149.5971  138.4065  155.1412 C   0  0  2  0  0  0  0  0  0  0  0  0
  148.7027  139.6290  155.1176 C   0  0  0  0  0  0  0  0  0  0  0  0
  149.7087  140.7671  155.2607 C   0  0  0  0  0  0  0  0  0  0  0  0
  150.9266  140.2965  154.6911 O   0  0  0  0  0  0  0  0  0  0  0  0
  150.8222  138.9127  154.3701 C   0  0  1  0  0  0  0  0  0  0  0  0
  152.1317  138.1902  154.7096 C   0  0  0  0  0  0  0  0  0  0  0  0
  146.2529  132.4815  151.3844 N   0  0  0  0  0  0  0  0  0  0  0  0
  144.5654  132.1532  148.4337 H   0  0  0  0  0  0  0  0  0  0  0  0
  145.4291  130.8361  149.2173 H   0  0  0  0  0  0  0  0  0  0  0  0
  146.3152  132.2272  148.6005 H   0  0  0  0  0  0  0  0  0  0  0  0
  143.2871  133.6156  150.2974 H   0  0  0  0  0  0  0  0  0  0  0  0
  146.5664  132.3397  154.3388 H   0  0  0  0  0  0  0  0  0  0  0  0
  148.4204  131.9475  152.7724 H   0  0  0  0  0  0  0  0  0  0  0  0
  148.9826  132.8203  154.1883 H   0  0  0  0  0  0  0  0  0  0  0  0
  148.7320  133.6782  152.6706 H   0  0  0  0  0  0  0  0  0  0  0  0
  145.6863  134.8761  154.3423 H   0  0  0  0  0  0  0  0  0  0  0  0
  146.7190  134.2381  155.5977 H   0  0  0  0  0  0  0  0  0  0  0  0
  148.1003  135.4395  153.3059 H   0  0  0  0  0  0  0  0  0  0  0  0
  149.2846  137.0424  153.5538 H   0  0  0  0  0  0  0  0  0  0  0  0
  149.8619  138.1810  156.1765 H   0  0  0  0  0  0  0  0  0  0  0  0
  148.1909  139.7119  154.1573 H   0  0  0  0  0  0  0  0  0  0  0  0
  147.9491  139.6256  155.9056 H   0  0  0  0  0  0  0  0  0  0  0  0
  149.3700  141.6830  154.7762 H   0  0  0  0  0  0  0  0  0  0  0  0
  149.8844  140.9876  156.3143 H   0  0  0  0  0  0  0  0  0  0  0  0
  150.6349  138.8476  153.2968 H   0  0  0  0  0  0  0  0  0  0  0  0
  152.0776  137.1336  154.4476 H   0  0  0  0  0  0  0  0  0  0  0  0
  152.3580  138.2611  155.7738 H   0  0  0  0  0  0  0  0  0  0  0  0
  152.9677  138.6245  154.1612 H   0  0  0  0  0  0  0  0  0  0  0  0
  1  2  1  0  0  0  0
  1 20  1  0  0  0  0
  1 21  1  0  0  0  0
  1 22  1  0  0  0  0
  2 19  1  0  0  0  0
  2  3  2  0  0  0  0
  3  4  1  0  0  0  0
  3 23  1  0  0  0  0
  4  5  1  0  0  0  0
  5  6  1  0  0  0  0
  5 19  2  0  0  0  0
  6  7  1  0  0  0  0
  6  8  1  0  0  0  0
  6 24  1  0  0  0  0
  7 25  1  0  0  0  0
  7 26  1  0  0  0  0
  7 27  1  0  0  0  0
  8  9  1  0  0  0  0
  8 28  1  0  0  0  0
  8 29  1  0  0  0  0
  9 10  1  0  0  0  0
  9 30  1  0  0  0  0
 10 11  2  0  0  0  0
 10 12  1  0  0  0  0
 12 13  1  0  0  0  0
 12 31  1  0  0  0  0
 13 17  1  0  0  0  0
 13 14  1  0  0  0  0
 13 32  1  0  0  0  0
 14 15  1  0  0  0  0
 14 33  1  0  0  0  0
 14 34  1  0  0  0  0
 15 16  1  0  0  0  0
 15 35  1  0  0  0  0
 15 36  1  0  0  0  0
 16 17  1  0  0  0  0
 17 18  1  0  0  0  0
 17 37  1  0  0  0  0
 18 38  1  0  0  0  0
 18 39  1  0  0  0  0
 18 40  1  0  0  0  0
M  END
> <s_m_source_file>
AV-unprocessed.smi

> <i_m_source_file_index>
2340

> <i_lp_mmshare_version>
43012

> <i_f3d_flags>
0

> <s_epik_input>
W0NIM11jMVtjSF1zYyhuMSlbQ0BIXShbQ0gzXSlbQ0gyXVtOSF1DKD1PKVtOSF1bQ0BASF0yW0NIMl1bQ0gyXU9bQ0BIXTJbQ0gzXQ==

> <s_epik_cmdline>
J2VwaWtfcHl0aG9uJywgJy1waCcsICc3LjAnLCAnLXRuJywgJzgnLCAnLW1hJywgJzIwMCcsICctbWV0YWxfYmluZGluZycsICctaW1hZScsICc8aW5maWxlLm1hZT4nLCAnLW9tYWUnLCAnPG91dGZpbGUubWFlPic=

> <r_epik_Ionization_Penalty>
0.00156622

> <r_epik_Ionization_Penalty_Charging>
0

> <r_epik_Ionization_Penalty_Neutral>
0.00156622

> <r_epik_State_Penalty>
0.00101902

> <r_epik_Charging_Adjusted_Penalty>
0.00101902

> <i_epik_Tot_Q>
0

> <i_epik_Tot_abs_Q>
0

> <r_epik_Metal_State_Penalty>
-0

> <b_epik_Metal_Only>
0

> <s_lp_Force_Field>
OPLS_2005

> <r_lp_Energy>
4.85076

> <b_lp_Chiralities_Consistent>
1

> <s_lp_Variant>
AV-unprocessed.smi:2340-2

> <Gold.Version>
5.8.1

> <Gold.Id.Protein>
6NUR|6NUR_protein|mol2

> <Gold.PLP.Fitness>
39.1794

> <Gold.PLP.PLP>
-30.0696

> <Gold.PLP.part.hbond>
-2.8929

> <Gold.PLP.part.metal>
0.0000

> <Gold.PLP.part.buried>
-3.9980

> <Gold.PLP.part.nonpolar>
-22.9844

> <Gold.PLP.part.repulsive>
0.2417

> <Gold.PLP.ligand.clash>
0.0000

> <Gold.PLP.ligand.torsion>
1.4980

> <Gold.PLP.Chemscore.Hbond>
2.9913

> <Gold.PLP.Chemscore.CHOScore>
1.0000

> <Gold.PLP.Chemscore.Metal>
0.0000

> <Gold.Chemscore.Hbonds>
donor molecule, donor type, donor heavy atom, donor atom, acceptor molecule, acceptor atom, score
      L1  H     9    30       P1  7948  1.00
      L1  H    12    31       P1  7948  1.00
      P1  H  7989  7998       L1    16  0.93
      L1  C     3    23       P1 10186  1.00

> <Gold.PLP.Chemscore.Internal.Correction>
0.1321

> <Gold.Rescore>
     Score         DG    S(hbond)    S(metal)    S(lipo)     H(rot)  DE(clash)    DE(int)     intcor
     18.79     -20.23       2.69        0.00      82.84       1.53       0.01       1.43       ----

> <Gold.Chemscore.Fitness>
18.7927

> <Gold.Chemscore.DG>
-20.2328

> <Gold.Chemscore.ZeroCoef>
-5.4800

> <Gold.Chemscore.Hbond>
2.6899

> <Gold.Chemscore.Metal>
0.0000

> <Gold.Chemscore.Lipo>
82.8351

> <Gold.Chemscore.Internal_Hbond>
0.0000

> <Gold.Chemscore.DEClash>
0.0121

> <Gold.Chemscore.DEInternal>
1.4280

> <Gold.Chemscore.Rot>
1.5325

> <Gold.Chemscore.Internal.Correction>
   9.000000E+99

> <Gold.Chemscore.Hbonds>
donor molecule, donor type, donor heavy atom, donor atom, acceptor molecule, acceptor atom, score
      L1  H     9    30       P1  7948  0.96
      L1  H    12    31       P1  7948  0.93
      P1  H  7989  7998       L1    16  0.35

> <Gold.Chemscore.Hbond.Weighted>
-8.9844

> <Gold.Chemscore.Metal.Weighted>
-0.0000

> <Gold.Chemscore.Lipo.Weighted>
-9.6917

> <Gold.Chemscore.Internal_Hbond.Weighted>
0.0000

> <Gold.Chemscore.DEClash.Weighted>
0.0121

> <Gold.Chemscore.DEInternal.Weighted>
1.4280

> <Gold.Chemscore.Rot.Weighted>
3.9233

> <Gold.Chemscore.Internal.Correction.Weighted>
   9.000000E+99

> <Gold.Protein.RotatedTorsions>
[ 6907 6896 6895 6894 ] final  -18.40 input  -60.11 | X-H torsion
[ 7974 7965 7964 7962 ] final -138.52 input  175.53 | X-H torsion
[ 8008 7997 7996 7995 ] final  123.97 input   59.86 | X-H torsion
[ 10167 10162 10161 10158 ] final   48.17 input  -65.29 | X-H torsion
[ 10718 10713 10712 10709 ] final -154.82 input   66.30 | X-H torsion
[ 10763 10752 10751 10750 ] final -116.27 input  -60.55 | X-H torsion
[ 11005 11000 10999 10996 ] final   57.42 input  -57.11 | X-H torsion

> <Gold.Protein.ActiveResidues>
 VAL166  LYS551  ARG553  GLY616  TRP617  ASP618  TYR619  PRO620  LYS621  CYS622 
 ASP623  PHE694  ASN695  SER759  ASP760  ASP761  ALA762  ILE779  LEU786  VAL792 
 PHE793  MET794  SER795  GLU796  ALA797  LYS798  CYS799  TRP800  GLU811  SER814 

> <Gold.Protein.RotatedAtoms>
  151.2788  135.0707  159.9161 H   0  0  0  0  0  0  0  0  0  0  0  0  # atno 6907 bound_to 6896
  152.5338  134.0053  159.7923 H   0  0  0  0  0  0  0  0  0  0  0  0  # atno 6908 bound_to 6896
  151.0303  133.5746  159.2692 H   0  0  0  0  0  0  0  0  0  0  0  0  # atno 6909 bound_to 6896
  144.8751  140.6425  143.5242 H   0  0  0  0  0  0  0  0  0  0  0  0  # atno 7974 bound_to 7965
  156.2785  140.2750  156.1713 H   0  0  0  0  0  0  0  0  0  0  0  0  # atno 8008 bound_to 7997
  155.0652  140.0387  157.2608 H   0  0  0  0  0  0  0  0  0  0  0  0  # atno 8009 bound_to 7997
  154.7085  140.2663  155.6657 H   0  0  0  0  0  0  0  0  0  0  0  0  # atno 8010 bound_to 7997
  140.2961  144.2989  150.6229 H   0  0  0  0  0  0  0  0  0  0  0  0  # atno 10167 bound_to 10162
  156.5045  130.8406  151.2622 H   0  0  0  0  0  0  0  0  0  0  0  0  # atno 10718 bound_to 10713
  154.8513  135.4351  154.1794 H   0  0  0  0  0  0  0  0  0  0  0  0  # atno 10763 bound_to 10752
  153.2888  135.6960  153.7319 H   0  0  0  0  0  0  0  0  0  0  0  0  # atno 10764 bound_to 10752
  153.6494  135.3454  155.3070 H   0  0  0  0  0  0  0  0  0  0  0  0  # atno 10765 bound_to 10752
  140.0454  134.5813  155.9329 H   0  0  0  0  0  0  0  0  0  0  0  0  # atno 11005 bound_to 11000
  145.4057  139.1589  143.4153 LP  0  0  0  0  0  0  0  0  0  0  0  0  # atno 17320 bound_to 7965
  146.2957  140.4157  142.8722 LP  0  0  0  0  0  0  0  0  0  0  0  0  # atno 17321 bound_to 7965
  140.5691  143.2183  151.7631 LP  0  0  0  0  0  0  0  0  0  0  0  0  # atno 17342 bound_to 10162
  139.4926  144.4242  151.9944 LP  0  0  0  0  0  0  0  0  0  0  0  0  # atno 17343 bound_to 10162
  157.7459  130.9970  150.2802 LP  0  0  0  0  0  0  0  0  0  0  0  0  # atno 17370 bound_to 10713
  156.3301  130.3799  149.7499 LP  0  0  0  0  0  0  0  0  0  0  0  0  # atno 17371 bound_to 10713
  141.1904  133.6568  156.5411 LP  0  0  0  0  0  0  0  0  0  0  0  0  # atno 17394 bound_to 11000
  140.4002  134.7363  157.4775 LP  0  0  0  0  0  0  0  0  0  0  0  0  # atno 17395 bound_to 11000

$$$$
