AV-unprocessed.smi:2772|AV-procd|sdf|10664|dock1
  -GOLD-   2272015113D 1   1.00000     0.00000
 Structure written by MMmdl.
 55 57  0  0  0  0  0  0  0  0  3 V2000
  153.2095  143.1375  160.5975 C   0  0  0  0  0  0  0  0  0  0  0  0
  152.3189  142.8983  159.3963 C   0  0  0  0  0  0  0  0  0  0  0  0
  152.3026  143.8048  158.3167 C   0  0  0  0  0  0  0  0  0  0  0  0
  151.4536  143.5377  157.2253 C   0  0  0  0  0  0  0  0  0  0  0  0
  150.6437  142.3765  157.2565 C   0  0  0  0  0  0  0  0  0  0  0  0
  149.7592  141.9855  156.2145 N   0  0  0  0  0  0  0  0  0  0  0  0
  149.3786  140.7474  155.8559 C   0  0  0  0  0  0  0  0  0  0  0  0
  149.7654  139.7017  156.3772 O   0  0  0  0  0  0  0  0  0  0  0  0
  148.5221  140.7830  154.8246 N   0  0  0  0  0  0  0  0  0  0  0  0
  147.9203  139.6115  154.1942 C   0  0  2  0  0  0  0  0  0  0  0  0
  147.3757  139.9529  152.7987 C   0  0  0  0  0  0  0  0  0  0  0  0
  146.6726  138.7387  152.1725 C   0  0  0  0  0  0  0  0  0  0  0  0
  145.5582  138.2379  153.0284 N   0  3  1  0  0  0  0  0  0  0  0  0
  144.7593  137.1678  152.3433 C   0  0  2  0  0  0  0  0  0  0  0  0
  143.8689  136.4128  153.3594 C   0  0  0  0  0  0  0  0  0  0  0  0
  143.0334  135.3078  152.6906 C   0  0  0  0  0  0  0  0  0  0  0  0
  143.9003  134.3407  151.9775 N   0  3  1  0  0  0  0  0  0  0  0  0
  143.1370  133.2041  151.4177 C   0  0  0  0  0  0  0  0  0  0  0  0
  144.7426  135.0115  150.9594 C   0  0  0  0  0  0  0  0  0  0  0  0
  145.6113  136.1128  151.5922 C   0  0  0  0  0  0  0  0  0  0  0  0
  146.0606  137.8910  154.3905 C   0  0  0  0  0  0  0  0  0  0  0  0
  146.7709  139.0808  155.0602 C   0  0  0  0  0  0  0  0  0  0  0  0
  150.7499  141.5325  158.3825 C   0  0  0  0  0  0  0  0  0  0  0  0
  151.5607  141.7815  159.4328 N   0  0  0  0  0  0  0  0  0  0  0  0
  153.9550  143.9047  160.3871 H   0  0  0  0  0  0  0  0  0  0  0  0
  153.7347  142.2230  160.8753 H   0  0  0  0  0  0  0  0  0  0  0  0
  152.6130  143.4642  161.4497 H   0  0  0  0  0  0  0  0  0  0  0  0
  152.9290  144.6846  158.3187 H   0  0  0  0  0  0  0  0  0  0  0  0
  151.4530  144.2185  156.3889 H   0  0  0  0  0  0  0  0  0  0  0  0
  149.4124  142.7400  155.6404 H   0  0  0  0  0  0  0  0  0  0  0  0
  148.2627  141.6860  154.4550 H   0  0  0  0  0  0  0  0  0  0  0  0
  148.6753  138.8274  154.1044 H   0  0  0  0  0  0  0  0  0  0  0  0
  146.6766  140.7883  152.8623 H   0  0  0  0  0  0  0  0  0  0  0  0
  148.1872  140.2784  152.1466 H   0  0  0  0  0  0  0  0  0  0  0  0
  146.3106  139.0295  151.1882 H   0  0  0  0  0  0  0  0  0  0  0  0
  147.3951  137.9366  152.0116 H   0  0  0  0  0  0  0  0  0  0  0  0
  144.1197  137.6520  151.6029 H   0  0  0  0  0  0  0  0  0  0  0  0
  144.4934  135.9724  154.1383 H   0  0  0  0  0  0  0  0  0  0  0  0
  143.1836  137.0891  153.8678 H   0  0  0  0  0  0  0  0  0  0  0  0
  142.4511  134.7834  153.4493 H   0  0  0  0  0  0  0  0  0  0  0  0
  142.3201  135.7470  151.9909 H   0  0  0  0  0  0  0  0  0  0  0  0
  142.4273  133.5428  150.6617 H   0  0  0  0  0  0  0  0  0  0  0  0
  142.5816  132.6887  152.2023 H   0  0  0  0  0  0  0  0  0  0  0  0
  143.8083  132.4792  150.9561 H   0  0  0  0  0  0  0  0  0  0  0  0
  145.3855  134.2745  150.4762 H   0  0  0  0  0  0  0  0  0  0  0  0
  144.1069  135.4360  150.1802 H   0  0  0  0  0  0  0  0  0  0  0  0
  146.1832  136.5772  150.7884 H   0  0  0  0  0  0  0  0  0  0  0  0
  146.3313  135.6582  152.2743 H   0  0  0  0  0  0  0  0  0  0  0  0
  145.2392  137.6086  155.0475 H   0  0  0  0  0  0  0  0  0  0  0  0
  146.7344  137.0351  154.3259 H   0  0  0  0  0  0  0  0  0  0  0  0
  147.1497  138.7788  156.0375 H   0  0  0  0  0  0  0  0  0  0  0  0
  146.0469  139.8766  155.2431 H   0  0  0  0  0  0  0  0  0  0  0  0
  150.1617  140.6287  158.4467 H   0  0  0  0  0  0  0  0  0  0  0  0
  144.9258  139.0138  153.1643 H   0  0  0  0  0  0  0  0  0  0  0  0
  144.5288  133.9497  152.6651 H   0  0  0  0  0  0  0  0  0  0  0  0
  1  2  1  0  0  0  0
  1 25  1  0  0  0  0
  1 26  1  0  0  0  0
  1 27  1  0  0  0  0
  2 24  1  0  0  0  0
  2  3  2  0  0  0  0
  3  4  1  0  0  0  0
  3 28  1  0  0  0  0
  4  5  2  0  0  0  0
  4 29  1  0  0  0  0
  5  6  1  0  0  0  0
  5 23  1  0  0  0  0
  6  7  1  0  0  0  0
  6 30  1  0  0  0  0
  7  8  2  0  0  0  0
  7  9  1  0  0  0  0
  9 10  1  0  0  0  0
  9 31  1  0  0  0  0
 10 22  1  0  0  0  0
 10 11  1  0  0  0  0
 10 32  1  0  0  0  0
 11 12  1  0  0  0  0
 11 33  1  0  0  0  0
 11 34  1  0  0  0  0
 12 13  1  0  0  0  0
 12 35  1  0  0  0  0
 12 36  1  0  0  0  0
 13 14  1  0  0  0  0
 13 21  1  0  0  0  0
 13 54  1  0  0  0  0
 14 20  1  0  0  0  0
 14 15  1  0  0  0  0
 14 37  1  0  0  0  0
 15 16  1  0  0  0  0
 15 38  1  0  0  0  0
 15 39  1  0  0  0  0
 16 17  1  0  0  0  0
 16 40  1  0  0  0  0
 16 41  1  0  0  0  0
 17 18  1  0  0  0  0
 17 19  1  0  0  0  0
 17 55  1  0  0  0  0
 18 42  1  0  0  0  0
 18 43  1  0  0  0  0
 18 44  1  0  0  0  0
 19 20  1  0  0  0  0
 19 45  1  0  0  0  0
 19 46  1  0  0  0  0
 20 47  1  0  0  0  0
 20 48  1  0  0  0  0
 21 22  1  0  0  0  0
 21 49  1  0  0  0  0
 21 50  1  0  0  0  0
 22 51  1  0  0  0  0
 22 52  1  0  0  0  0
 23 24  2  0  0  0  0
 23 53  1  0  0  0  0
M  CHG  1  13   1
M  CHG  1  17   1
M  END
> <s_m_source_file>
AV-unprocessed.smi

> <i_m_source_file_index>
2772

> <i_lp_mmshare_version>
43012

> <i_f3d_flags>
0

> <s_epik_input>
W0NIM11jMVtjSF1bY0hdYyhbY0hdbjEpW05IXUMoPU8pW05IXVtDSF0yW0NIMl1bQ0gyXU4oW0NIMl1bQ0gyXTIpW0NIXTNbQ0gyXVtDSDJdTihbQ0gzXSlbQ0gyXVtDSDJdMw==

> <s_epik_cmdline>
J2VwaWtfcHl0aG9uJywgJy1waCcsICc3LjAnLCAnLXRuJywgJzgnLCAnLW1hJywgJzIwMCcsICctbWV0YWxfYmluZGluZycsICctaW1hZScsICc8aW5maWxlLm1hZT4nLCAnLW9tYWUnLCAnPG91dGZpbGUubWFlPic=

> <r_epik_Ionization_Penalty>
0.196786

> <r_epik_Ionization_Penalty_Charging>
0.180787

> <r_epik_Ionization_Penalty_Neutral>
0.0159988

> <r_epik_State_Penalty>
0.163322

> <r_epik_Charging_Adjusted_Penalty>
0.344109

> <i_epik_Tot_Q>
2

> <i_epik_Tot_abs_Q>
2

> <r_epik_Metal_State_Penalty>
0.163596

> <b_epik_Metal_Only>
0

> <s_lp_Force_Field>
OPLS_2005

> <r_lp_Energy>
43.2769

> <b_lp_Chiralities_Consistent>
1

> <s_lp_Variant>
AV-unprocessed.smi:2772-1

> <Gold.Version>
5.8.1

> <Gold.Id.Protein>
6NUR|6NUR_protein|mol2

> <Gold.PLP.Fitness>
47.0269

> <Gold.PLP.PLP>
-39.8109

> <Gold.PLP.part.hbond>
-2.3597

> <Gold.PLP.part.metal>
0.0000

> <Gold.PLP.part.buried>
-1.0370

> <Gold.PLP.part.nonpolar>
-37.2070

> <Gold.PLP.part.repulsive>
0.1552

> <Gold.PLP.ligand.clash>
0.0000

> <Gold.PLP.ligand.torsion>
0.8021

> <Gold.PLP.Chemscore.Hbond>
2.9280

> <Gold.PLP.Chemscore.CHOScore>
0.0000

> <Gold.PLP.Chemscore.Metal>
0.0000

> <Gold.Chemscore.Hbonds>
donor molecule, donor type, donor heavy atom, donor atom, acceptor molecule, acceptor atom, score
      L1  H     6    30       P1  8028  0.84
      L1  H    13    54       P1 10175  1.98

> <Gold.PLP.Chemscore.Internal.Correction>
0.0362

> <Gold.Rescore>
     Score         DG    S(hbond)    S(metal)    S(lipo)     H(rot)  DE(clash)    DE(int)     intcor
     18.74     -22.44       1.87        0.00     117.99       1.21       1.79       1.90       ----

> <Gold.Chemscore.Fitness>
18.7389

> <Gold.Chemscore.DG>
-22.4357

> <Gold.Chemscore.ZeroCoef>
-5.4800

> <Gold.Chemscore.Hbond>
1.8702

> <Gold.Chemscore.Metal>
0.0000

> <Gold.Chemscore.Lipo>
117.9906

> <Gold.Chemscore.Internal_Hbond>
0.0000

> <Gold.Chemscore.DEClash>
1.7941

> <Gold.Chemscore.DEInternal>
1.9028

> <Gold.Chemscore.Rot>
1.2092

> <Gold.Chemscore.Internal.Correction>
   9.000000E+99

> <Gold.Chemscore.Hbonds>
donor molecule, donor type, donor heavy atom, donor atom, acceptor molecule, acceptor atom, score
      L1  H     6    30       P1  8028  0.79
      L1  H    13    54       P1 10175  0.89

> <Gold.Chemscore.Hbond.Weighted>
-6.2463

> <Gold.Chemscore.Metal.Weighted>
-0.0000

> <Gold.Chemscore.Lipo.Weighted>
-13.8049

> <Gold.Chemscore.Internal_Hbond.Weighted>
0.0000

> <Gold.Chemscore.DEClash.Weighted>
1.7941

> <Gold.Chemscore.DEInternal.Weighted>
1.9028

> <Gold.Chemscore.Rot.Weighted>
3.0955

> <Gold.Chemscore.Internal.Correction.Weighted>
   9.000000E+99

> <Gold.Protein.RotatedTorsions>
[ 6907 6896 6895 6894 ] final   48.15 input  -60.11 | X-H torsion
[ 7974 7965 7964 7962 ] final  117.65 input  175.53 | X-H torsion
[ 8008 7997 7996 7995 ] final  101.40 input   59.86 | X-H torsion
[ 10167 10162 10161 10158 ] final   19.09 input  -65.29 | X-H torsion
[ 10718 10713 10712 10709 ] final  176.26 input   66.30 | X-H torsion
[ 10763 10752 10751 10750 ] final  -32.74 input  -60.55 | X-H torsion
[ 11005 11000 10999 10996 ] final   79.78 input  -57.11 | X-H torsion

> <Gold.Protein.ActiveResidues>
 VAL166  LYS551  ARG553  GLY616  TRP617  ASP618  TYR619  PRO620  LYS621  CYS622 
 ASP623  PHE694  ASN695  SER759  ASP760  ASP761  ALA762  ILE779  LEU786  VAL792 
 PHE793  MET794  SER795  GLU796  ALA797  LYS798  CYS799  TRP800  GLU811  SER814 

> <Gold.Protein.RotatedAtoms>
  152.2763  134.7878  160.0404 H   0  0  0  0  0  0  0  0  0  0  0  0  # atno 6907 bound_to 6896
  151.8473  133.3428  159.3670 H   0  0  0  0  0  0  0  0  0  0  0  0  # atno 6908 bound_to 6896
  150.7171  134.5261  159.5722 H   0  0  0  0  0  0  0  0  0  0  0  0  # atno 6909 bound_to 6896
  145.1648  139.3134  143.4498 H   0  0  0  0  0  0  0  0  0  0  0  0  # atno 7974 bound_to 7965
  156.1295  140.3198  155.8328 H   0  0  0  0  0  0  0  0  0  0  0  0  # atno 8008 bound_to 7997
  155.4358  140.0522  157.3032 H   0  0  0  0  0  0  0  0  0  0  0  0  # atno 8009 bound_to 7997
  154.4888  140.2084  155.9607 H   0  0  0  0  0  0  0  0  0  0  0  0  # atno 8010 bound_to 7997
  140.5605  143.9346  150.6639 H   0  0  0  0  0  0  0  0  0  0  0  0  # atno 10167 bound_to 10162
  156.9228  130.9946  151.3001 H   0  0  0  0  0  0  0  0  0  0  0  0  # atno 10718 bound_to 10713
  153.8188  135.6876  153.4830 H   0  0  0  0  0  0  0  0  0  0  0  0  # atno 10763 bound_to 10752
  153.1582  135.4590  154.9733 H   0  0  0  0  0  0  0  0  0  0  0  0  # atno 10764 bound_to 10752
  154.7936  135.3311  154.7662 H   0  0  0  0  0  0  0  0  0  0  0  0  # atno 10765 bound_to 10752
  139.9159  134.7869  156.1823 H   0  0  0  0  0  0  0  0  0  0  0  0  # atno 11005 bound_to 11000
  146.3477  140.1772  142.8589 LP  0  0  0  0  0  0  0  0  0  0  0  0  # atno 17320 bound_to 7965
  145.0294  140.8858  143.5119 LP  0  0  0  0  0  0  0  0  0  0  0  0  # atno 17321 bound_to 7965
  140.2795  143.3399  152.1164 LP  0  0  0  0  0  0  0  0  0  0  0  0  # atno 17342 bound_to 10162
  139.5068  144.6820  151.5985 LP  0  0  0  0  0  0  0  0  0  0  0  0  # atno 17343 bound_to 10162
  157.5897  130.8435  149.8641 LP  0  0  0  0  0  0  0  0  0  0  0  0  # atno 17370 bound_to 10713
  156.0483  130.3723  150.1263 LP  0  0  0  0  0  0  0  0  0  0  0  0  # atno 17371 bound_to 10713
  141.0634  133.6830  156.1997 LP  0  0  0  0  0  0  0  0  0  0  0  0  # atno 17394 bound_to 11000
  140.6624  134.4954  157.5584 LP  0  0  0  0  0  0  0  0  0  0  0  0  # atno 17395 bound_to 11000

$$$$
