#       Name:                AV-unprocessed.smi:3125
#       Creating user name   scv26
#       Creation time:       Fri Mar 27 17:29:10 2020


#       File generated by GOLD software.
#

@<TRIPOS>MOLECULE
AV-unprocessed.smi:3125
    29    30     1
SMALL
NO_CHARGES


@<TRIPOS>ATOM
      1 ****        -1.6857   2.4249   0.6868 C.3            1 S1                 0.0000
      2 ****        -0.2759   2.3666   0.3508 N.pl3          1 S1                 0.0000
      3 ****         0.5798   3.4574   0.2680 C.2            1 S1                 0.0000
      4 ****         1.8144   2.9664  -0.0790 C.2            1 S1                 0.0000
      5 ****         1.7377   1.5852  -0.2137 N.2            1 S1                 0.0000
      6 ****         0.4710   1.2818   0.0591 C.2            1 S1                 0.0000
      7 ****        -0.0690  -0.1212   0.0254 C.3            1 S1                 0.0000
      8 ****        -0.0507  -0.7092  -1.3989 C.3            1 S1                 0.0000
      9 ****        -0.5829  -2.1505  -1.3954 C.3            1 S1                 0.0000
     10 ****         0.1891  -3.0179  -0.3875 C.3            1 S1                 0.0000
     11 ****         0.1334  -2.4209   0.9646 N.4            1 S1                 1.0000
     12 ****         0.6766  -1.0453   1.0107 C.3            1 S1                 0.0000
     13 ****        -1.9945   3.4597   0.8386 H              1 S1                 0.0000
     14 ****        -1.8702   1.8652   1.6040 H              1 S1                 0.0000
     15 ****        -2.2772   1.9982  -0.1237 H              1 S1                 0.0000
     16 ****         0.2481   4.4682   0.4561 H              1 S1                 0.0000
     17 ****         2.7421   3.4951  -0.2409 H              1 S1                 0.0000
     18 ****        -1.1103  -0.0962   0.3461 H              1 S1                 0.0000
     19 ****        -0.6506  -0.0926  -2.0692 H              1 S1                 0.0000
     20 ****         0.9663  -0.7004  -1.7938 H              1 S1                 0.0000
     21 ****        -1.6441  -2.1498  -1.1425 H              1 S1                 0.0000
     22 ****        -0.5037  -2.5797  -2.3947 H              1 S1                 0.0000
     23 ****        -0.2324  -4.0227  -0.3518 H              1 S1                 0.0000
     24 ****         1.2315  -3.1196  -0.6933 H              1 S1                 0.0000
     25 ****        -0.8304  -2.3966   1.2657 H              1 S1                 0.0000
     26 ****         1.7418  -1.0797   0.7767 H              1 S1                 0.0000
     27 ****         0.5865  -0.6653   2.0287 H              1 S1                 0.0000
     28 ****         0.6591  -3.0023   1.6018 H              1 S1                 0.0000
     29 ****         2.4744   0.9561  -0.4617 LP             1 S1                 0.0000
@<TRIPOS>BOND
    1    1    2 1     
    2    1   13 1     
    3    1   14 1     
    4    1   15 1     
    5    2    6 1     
    6    2    3 1     
    7    3    4 2     
    8    3   16 1     
    9    4    5 1     
   10    4   17 1     
   11    5    6 2     
   12    6    7 1     
   13    7   12 1     
   14    7    8 1     
   15    7   18 1     
   16    8    9 1     
   17    8   19 1     
   18    8   20 1     
   19    9   10 1     
   20    9   21 1     
   21    9   22 1     
   22   10   11 1     
   23   10   23 1     
   24   10   24 1     
   25   11   12 1     
   26   11   25 1     
   27   11   28 1     
   28   12   26 1     
   29   12   27 1     
   30    5   29 1     
@<TRIPOS>SUBSTRUCTURE
      1 S1             1
@<TRIPOS>SET
LONE_PAIRS      STATIC     ATOMS    <user>   **** ""
1 29
DONOR_HYDROGENS      STATIC     ATOMS    <user>   **** ""
2 25 28
ATOM$BLUE        STATIC     ATOMS    COLORGROUP SYSTEM
1 29
ATOM$RED        STATIC     ATOMS    COLORGROUP SYSTEM
2 25 28
