AV-unprocessed.smi:1088|AV-procd|sdf|4731|dock7
  -GOLD-   22720 3263D 1   1.00000     0.00000
 Structure written by MMmdl.
 48 49  0  0  0  0  0  0  0  0  2 V2000
  149.7313  132.4576  154.8349 C   0  0  0  0  0  0  0  0  0  0  0  0
  149.9897  133.6855  155.4930 O   0  0  0  0  0  0  0  0  0  0  0  0
  149.4362  134.7965  154.8077 C   0  0  0  0  0  0  0  0  0  0  0  0
  147.9258  134.5762  154.6417 C   0  0  0  0  0  0  0  0  0  0  0  0
  147.5421  134.3558  153.2260 N   0  3  1  0  0  0  0  0  0  0  0  0
  147.5885  132.9481  152.7776 C   0  0  0  0  0  0  0  0  0  0  0  0
  146.6494  132.8847  151.5802 C   0  0  0  0  0  0  0  0  0  0  0  0
  145.5309  133.8413  151.9758 C   0  0  0  0  0  0  0  0  0  0  0  0
  146.2115  134.9044  152.8619 C   0  0  2  0  0  0  0  0  0  0  0  0
  146.3721  136.2762  152.1726 C   0  0  0  0  0  0  0  0  0  0  0  0
  146.5402  137.3613  153.1326 N   0  0  0  0  0  0  0  0  0  0  0  0
  146.9625  138.5969  152.8266 C   0  0  0  0  0  0  0  0  0  0  0  0
  147.2125  138.9585  151.6760 O   0  0  0  0  0  0  0  0  0  0  0  0
  147.1161  139.5726  154.0000 C   0  0  0  0  0  0  0  0  0  0  0  0
  148.4991  139.6493  154.4868 N   0  0  0  0  0  0  0  0  0  0  0  0
  149.3940  138.6409  154.1782 C   0  0  0  0  0  0  0  0  0  0  0  0
  150.6806  138.6353  154.5902 C   0  0  0  0  0  0  0  0  0  0  0  0
  151.2101  139.7202  155.4080 C   0  0  0  0  0  0  0  0  0  0  0  0
  152.3810  139.7642  155.7871 O   0  0  0  0  0  0  0  0  0  0  0  0
  150.2696  140.7304  155.7225 N   0  0  0  0  0  0  0  0  0  0  0  0
  150.7041  141.8593  156.5192 C   0  0  0  0  0  0  0  0  0  0  0  0
  148.9300  140.7387  155.2749 C   0  0  0  0  0  0  0  0  0  0  0  0
  148.1551  141.6580  155.5526 O   0  0  0  0  0  0  0  0  0  0  0  0
  150.1738  131.6385  155.4019 H   0  0  0  0  0  0  0  0  0  0  0  0
  150.1661  132.4477  153.8345 H   0  0  0  0  0  0  0  0  0  0  0  0
  148.6599  132.2702  154.7536 H   0  0  0  0  0  0  0  0  0  0  0  0
  149.6421  135.7243  155.3431 H   0  0  0  0  0  0  0  0  0  0  0  0
  149.8997  134.8836  153.8237 H   0  0  0  0  0  0  0  0  0  0  0  0
  147.5996  133.7276  155.2448 H   0  0  0  0  0  0  0  0  0  0  0  0
  147.3981  135.4512  155.0249 H   0  0  0  0  0  0  0  0  0  0  0  0
  148.6026  132.6372  152.5245 H   0  0  0  0  0  0  0  0  0  0  0  0
  147.2186  132.2921  153.5676 H   0  0  0  0  0  0  0  0  0  0  0  0
  147.1576  133.2557  150.6892 H   0  0  0  0  0  0  0  0  0  0  0  0
  146.2930  131.8756  151.3717 H   0  0  0  0  0  0  0  0  0  0  0  0
  145.0176  134.2538  151.1067 H   0  0  0  0  0  0  0  0  0  0  0  0
  144.7861  133.3033  152.5640 H   0  0  0  0  0  0  0  0  0  0  0  0
  145.6112  135.0224  153.7663 H   0  0  0  0  0  0  0  0  0  0  0  0
  147.2227  136.2623  151.4887 H   0  0  0  0  0  0  0  0  0  0  0  0
  145.4929  136.4940  151.5652 H   0  0  0  0  0  0  0  0  0  0  0  0
  146.3472  137.1513  154.1016 H   0  0  0  0  0  0  0  0  0  0  0  0
  146.7775  140.5558  153.6708 H   0  0  0  0  0  0  0  0  0  0  0  0
  146.4507  139.2887  154.8177 H   0  0  0  0  0  0  0  0  0  0  0  0
  149.0498  137.8121  153.5768 H   0  0  0  0  0  0  0  0  0  0  0  0
  151.3279  137.8170  154.3103 H   0  0  0  0  0  0  0  0  0  0  0  0
  149.9182  142.0996  157.2373 H   0  0  0  0  0  0  0  0  0  0  0  0
  150.8805  142.6848  155.8283 H   0  0  0  0  0  0  0  0  0  0  0  0
  151.6084  141.6115  157.0749 H   0  0  0  0  0  0  0  0  0  0  0  0
  148.2086  134.8567  152.6556 H   0  0  0  0  0  0  0  0  0  0  0  0
  1  2  1  0  0  0  0
  1 24  1  0  0  0  0
  1 25  1  0  0  0  0
  1 26  1  0  0  0  0
  2  3  1  0  0  0  0
  3  4  1  0  0  0  0
  3 27  1  0  0  0  0
  3 28  1  0  0  0  0
  4  5  1  0  0  0  0
  4 29  1  0  0  0  0
  4 30  1  0  0  0  0
  5  9  1  0  0  0  0
  5  6  1  0  0  0  0
  5 48  1  0  0  0  0
  6  7  1  0  0  0  0
  6 31  1  0  0  0  0
  6 32  1  0  0  0  0
  7  8  1  0  0  0  0
  7 33  1  0  0  0  0
  7 34  1  0  0  0  0
  8  9  1  0  0  0  0
  8 35  1  0  0  0  0
  8 36  1  0  0  0  0
  9 10  1  0  0  0  0
  9 37  1  0  0  0  0
 10 11  1  0  0  0  0
 10 38  1  0  0  0  0
 10 39  1  0  0  0  0
 11 12  1  0  0  0  0
 11 40  1  0  0  0  0
 12 13  2  0  0  0  0
 12 14  1  0  0  0  0
 14 15  1  0  0  0  0
 14 41  1  0  0  0  0
 14 42  1  0  0  0  0
 15 22  1  0  0  0  0
 15 16  1  0  0  0  0
 16 17  2  0  0  0  0
 16 43  1  0  0  0  0
 17 18  1  0  0  0  0
 17 44  1  0  0  0  0
 18 19  2  0  0  0  0
 18 20  1  0  0  0  0
 20 21  1  0  0  0  0
 20 22  1  0  0  0  0
 21 45  1  0  0  0  0
 21 46  1  0  0  0  0
 21 47  1  0  0  0  0
 22 23  2  0  0  0  0
M  CHG  1   5   1
M  END
> <s_m_source_file>
AV-unprocessed.smi

> <i_m_source_file_index>
1088

> <i_lp_mmshare_version>
43012

> <i_f3d_flags>
0

> <s_epik_input>
W0NIM11PW0NIMl1bQ0gyXU4xW0NIMl1bQ0gyXVtDSDJdW0NASF0xW0NIMl1bTkhdQyg9TylbQ0gyXW4yW2NIXVtjSF1jKD1PKW4oW0NIM10pYzI9Tw==

> <s_epik_cmdline>
J2VwaWtfcHl0aG9uJywgJy1waCcsICc3LjAnLCAnLXRuJywgJzgnLCAnLW1hJywgJzIwMCcsICctbWV0YWxfYmluZGluZycsICctaW1hZScsICc8aW5maWxlLm1hZT4nLCAnLW9tYWUnLCAnPG91dGZpbGUubWFlPic=

> <r_lp_tautomer_probability>
1

> <r_epik_Ionization_Penalty>
0.0127388

> <r_epik_Ionization_Penalty_Charging>
0.0127387

> <r_epik_Ionization_Penalty_Neutral>
8.26414e-08

> <r_epik_State_Penalty>
0.00987716

> <r_epik_Charging_Adjusted_Penalty>
0.0226159

> <i_epik_Tot_Q>
1

> <i_epik_Tot_abs_Q>
1

> <r_epik_Metal_State_Penalty>
0.00987836

> <b_epik_Metal_Only>
0

> <s_lp_Force_Field>
OPLS_2005

> <r_lp_Energy>
36.9775

> <b_lp_Chiralities_Consistent>
1

> <s_lp_Variant>
AV-unprocessed.smi:1088-4

> <Gold.Version>
5.8.1

> <Gold.Id.Protein>
6NUR|6NUR_protein|mol2

> <Gold.PLP.Fitness>
43.5714

> <Gold.PLP.PLP>
-33.6848

> <Gold.PLP.part.hbond>
-3.9959

> <Gold.PLP.part.metal>
0.0000

> <Gold.PLP.part.buried>
1.3285

> <Gold.PLP.part.nonpolar>
-33.8049

> <Gold.PLP.part.repulsive>
3.5209

> <Gold.PLP.ligand.clash>
0.0000

> <Gold.PLP.ligand.torsion>
1.6499

> <Gold.PLP.Chemscore.Hbond>
3.3770

> <Gold.PLP.Chemscore.CHOScore>
1.0000

> <Gold.PLP.Chemscore.Metal>
0.0000

> <Gold.Chemscore.Hbonds>
donor molecule, donor type, donor heavy atom, donor atom, acceptor molecule, acceptor atom, score
      L1  H     5    48       P1  7948  2.00
      P1  H  7954  7966       L1    13  0.33
      P1  H  7997  8008       L1    19  0.88
      L1  C    16    43       P1  7948  1.00

> <Gold.PLP.Chemscore.Internal.Correction>
0.0555

> <Gold.Rescore>
     Score         DG    S(hbond)    S(metal)    S(lipo)     H(rot)  DE(clash)    DE(int)     intcor
     10.29     -15.01       2.56        0.00      64.65       2.57       3.17       1.55       ----

> <Gold.Chemscore.Fitness>
10.2907

> <Gold.Chemscore.DG>
-15.0083

> <Gold.Chemscore.ZeroCoef>
-5.4800

> <Gold.Chemscore.Hbond>
2.5573

> <Gold.Chemscore.Metal>
0.0000

> <Gold.Chemscore.Lipo>
64.6499

> <Gold.Chemscore.Internal_Hbond>
0.0000

> <Gold.Chemscore.DEClash>
3.1657

> <Gold.Chemscore.DEInternal>
1.5519

> <Gold.Chemscore.Rot>
2.5692

> <Gold.Chemscore.Internal.Correction>
   9.000000E+99

> <Gold.Chemscore.Hbonds>
donor molecule, donor type, donor heavy atom, donor atom, acceptor molecule, acceptor atom, score
      L1  H     5    48       P1  7948  0.65
      P1  H  7954  7966       L1    13  0.33
      P1  H  7997  8008       L1    19  0.85

> <Gold.Chemscore.Hbond.Weighted>
-8.5414

> <Gold.Chemscore.Metal.Weighted>
-0.0000

> <Gold.Chemscore.Lipo.Weighted>
-7.5640

> <Gold.Chemscore.Internal_Hbond.Weighted>
0.0000

> <Gold.Chemscore.DEClash.Weighted>
3.1657

> <Gold.Chemscore.DEInternal.Weighted>
1.5519

> <Gold.Chemscore.Rot.Weighted>
6.5772

> <Gold.Chemscore.Internal.Correction.Weighted>
   9.000000E+99

> <Gold.Protein.RotatedTorsions>
[ 6907 6896 6895 6894 ] final  142.59 input  -60.11 | X-H torsion
[ 7974 7965 7964 7962 ] final -131.47 input  175.53 | X-H torsion
[ 8008 7997 7996 7995 ] final  -20.68 input   59.86 | X-H torsion
[ 10167 10162 10161 10158 ] final  107.39 input  -65.29 | X-H torsion
[ 10718 10713 10712 10709 ] final   33.14 input   66.30 | X-H torsion
[ 10763 10752 10751 10750 ] final   20.86 input  -60.55 | X-H torsion
[ 11005 11000 10999 10996 ] final -137.32 input  -57.11 | X-H torsion

> <Gold.Protein.ActiveResidues>
 VAL166  LYS551  ARG553  GLY616  TRP617  ASP618  TYR619  PRO620  LYS621  CYS622 
 ASP623  PHE694  ASN695  SER759  ASP760  ASP761  ALA762  ILE779  LEU786  VAL792 
 PHE793  MET794  SER795  GLU796  ALA797  LYS798  CYS799  TRP800  GLU811  SER814 

> <Gold.Protein.RotatedAtoms>
  152.2168  133.4953  159.5140 H   0  0  0  0  0  0  0  0  0  0  0  0  # atno 6907 bound_to 6896
  150.7003  134.1395  159.4108 H   0  0  0  0  0  0  0  0  0  0  0  0  # atno 6908 bound_to 6896
  151.9315  135.0254  160.0580 H   0  0  0  0  0  0  0  0  0  0  0  0  # atno 6909 bound_to 6896
  144.9376  140.7202  143.4866 H   0  0  0  0  0  0  0  0  0  0  0  0  # atno 7974 bound_to 7965
  154.4754  140.2055  155.9891 H   0  0  0  0  0  0  0  0  0  0  0  0  # atno 8008 bound_to 7997
  156.1080  140.3233  155.8003 H   0  0  0  0  0  0  0  0  0  0  0  0  # atno 8009 bound_to 7997
  155.4684  140.0529  157.2973 H   0  0  0  0  0  0  0  0  0  0  0  0  # atno 8010 bound_to 7997
  139.6931  144.7105  151.1314 H   0  0  0  0  0  0  0  0  0  0  0  0  # atno 10167 bound_to 10162
  157.2941  130.7317  149.6628 H   0  0  0  0  0  0  0  0  0  0  0  0  # atno 10718 bound_to 10713
  153.1042  135.6680  153.9616 H   0  0  0  0  0  0  0  0  0  0  0  0  # atno 10763 bound_to 10752
  153.9178  135.3018  155.3449 H   0  0  0  0  0  0  0  0  0  0  0  0  # atno 10764 bound_to 10752
  154.7464  135.5056  153.9287 H   0  0  0  0  0  0  0  0  0  0  0  0  # atno 10765 bound_to 10752
  140.8722  134.2036  157.4643 H   0  0  0  0  0  0  0  0  0  0  0  0  # atno 11005 bound_to 11000
  145.3041  139.1840  143.4674 LP  0  0  0  0  0  0  0  0  0  0  0  0  # atno 17320 bound_to 7965
  146.3273  140.3037  142.8622 LP  0  0  0  0  0  0  0  0  0  0  0  0  # atno 17321 bound_to 7965
  140.7688  143.5531  150.9183 LP  0  0  0  0  0  0  0  0  0  0  0  0  # atno 17342 bound_to 10162
  139.9209  143.6607  152.3097 LP  0  0  0  0  0  0  0  0  0  0  0  0  # atno 17343 bound_to 10162
  155.9668  130.4300  150.4856 LP  0  0  0  0  0  0  0  0  0  0  0  0  # atno 17370 bound_to 10713
  157.2824  131.0609  151.2188 LP  0  0  0  0  0  0  0  0  0  0  0  0  # atno 17371 bound_to 10713
  139.8713  134.9779  156.4979 LP  0  0  0  0  0  0  0  0  0  0  0  0  # atno 17394 bound_to 11000
  140.8559  133.8096  155.9216 LP  0  0  0  0  0  0  0  0  0  0  0  0  # atno 17395 bound_to 11000

$$$$
