#       Name:                AV-unprocessed.smi:99
#       Creating user name   scv26
#       Creation time:       Thu Mar 26 17:31:52 2020


#       File generated by GOLD software.
#

@<TRIPOS>MOLECULE
AV-unprocessed.smi:99
    65    68     1
SMALL
NO_CHARGES


@<TRIPOS>ATOM
      1 ****        -2.9429   1.0701  -0.0747 O.2            1 S1                 0.0000
      2 ****        -2.1551   1.9333  -0.4668 C.2            1 S1                 0.0000
      3 ****        -0.8491   1.7007  -0.6990 O.3            1 S1                 0.0000
      4 ****        -0.3065   0.4137  -0.4588 C.3            1 S1                 0.0000
      5 ****         1.2135   0.4544  -0.6969 C.3            1 S1                 0.0000
      6 ****         1.8460   1.2157   0.3327 O.3            1 S1                 0.0000
      7 ****         2.3954   0.3897   1.3245 C.3            1 S1                 0.0000
      8 ****         1.7993   0.7434   2.6733 N.am           1 S1                 0.0000
      9 ****         0.6601   1.5287   2.8068 C.2            1 S1                 0.0000
     10 ****         0.1220   1.8508   4.0068 C.2            1 S1                 0.0000
     11 ****         0.7331   1.3778   5.2444 C.2            1 S1                 0.0000
     12 ****         0.3186   1.6174   6.3764 O.2            1 S1                 0.0000
     13 ****         1.8780   0.5966   5.0644 N.am           1 S1                 0.0000
     14 ****         2.4414   0.2579   3.8333 C.2            1 S1                 0.0000
     15 ****         3.4545  -0.4392   3.7876 O.2            1 S1                 0.0000
     16 ****         2.1409  -1.0761   0.9054 C.3            1 S1                 0.0000
     17 ****         1.0201  -1.6564   1.5557 O.3            1 S1                 0.0000
     18 ****         1.9081  -0.9022  -0.5886 C.3            1 S1                 0.0000
     19 ****         1.2038  -1.9766  -1.2023 O.3            1 S1                 0.0000
     20 ****         1.8460  -3.0970  -1.5938 C.2            1 S1                 0.0000
     21 ****         3.0580  -3.2740  -1.4565 O.2            1 S1                 0.0000
     22 ****         0.9294  -4.1022  -2.2045 C.ar           1 S1                 0.0000
     23 ****         1.4590  -5.3220  -2.6863 C.ar           1 S1                 0.0000
     24 ****         0.6161  -6.2910  -3.2647 C.ar           1 S1                 0.0000
     25 ****        -0.7668  -6.0526  -3.3669 C.ar           1 S1                 0.0000
     26 ****        -1.3060  -4.8432  -2.8911 C.ar           1 S1                 0.0000
     27 ****        -0.4647  -3.8723  -2.3139 C.ar           1 S1                 0.0000
     28 ****        -2.5488   3.3462  -0.7357 C.ar           1 S1                 0.0000
     29 ****        -3.9056   3.7244  -0.6056 C.ar           1 S1                 0.0000
     30 ****        -4.3068   5.0519  -0.8519 C.ar           1 S1                 0.0000
     31 ****        -3.3558   6.0175  -1.2299 C.ar           1 S1                 0.0000
     32 ****        -2.0027   5.6543  -1.3609 C.ar           1 S1                 0.0000
     33 ****        -1.5996   4.3271  -1.1156 C.ar           1 S1                 0.0000
     34 ****         2.3350   0.2480   5.8945 H              1 S1                 0.0000
     35 ****        -0.5398   0.0898   0.5553 H              1 S1                 0.0000
     36 ****        -0.7748  -0.2947  -1.1433 H              1 S1                 0.0000
     37 ****         1.4150   0.9015  -1.6709 H              1 S1                 0.0000
     38 ****         3.4572   0.6340   1.3987 H              1 S1                 0.0000
     39 ****         0.1613   1.9157   1.9323 H              1 S1                 0.0000
     40 ****        -0.7661   2.4645   4.0514 H              1 S1                 0.0000
     41 ****         3.0224  -1.6825   1.1154 H              1 S1                 0.0000
     42 ****         0.9074  -2.5369   1.2315 H              1 S1                 0.0000
     43 ****         2.8813  -0.7905  -1.0702 H              1 S1                 0.0000
     44 ****         2.5176  -5.5281  -2.6177 H              1 S1                 0.0000
     45 ****         1.0317  -7.2188  -3.6295 H              1 S1                 0.0000
     46 ****        -1.4129  -6.7964  -3.8092 H              1 S1                 0.0000
     47 ****        -2.3676  -4.6588  -2.9678 H              1 S1                 0.0000
     48 ****        -0.9124  -2.9557  -1.9583 H              1 S1                 0.0000
     49 ****        -4.6539   3.0001  -0.3170 H              1 S1                 0.0000
     50 ****        -5.3461   5.3284  -0.7510 H              1 S1                 0.0000
     51 ****        -3.6637   7.0351  -1.4192 H              1 S1                 0.0000
     52 ****        -1.2715   6.3948  -1.6503 H              1 S1                 0.0000
     53 ****        -0.5527   4.0828  -1.2228 H              1 S1                 0.0000
     54 ****        -2.6219   0.1371   0.0882 LP             1 S1                 0.0000
     55 ****        -3.9030   1.3028   0.0805 LP             1 S1                 0.0000
     56 ****         1.1682   1.8195   0.7524 LP             1 S1                 0.0000
     57 ****         2.5764   1.7654  -0.0727 LP             1 S1                 0.0000
     58 ****        -0.5003   2.1778   6.5009 LP             1 S1                 0.0000
     59 ****         0.8002   1.2520   7.1730 LP             1 S1                 0.0000
     60 ****         3.8545  -0.6826   2.9040 LP             1 S1                 0.0000
     61 ****         3.8778  -0.7622   4.6341 LP             1 S1                 0.0000
     62 ****         0.2006  -1.1176   1.3603 LP             1 S1                 0.0000
     63 ****         1.1771  -1.6781   2.5431 LP             1 S1                 0.0000
     64 ****         3.6223  -2.5644  -1.0344 LP             1 S1                 0.0000
     65 ****         3.4771  -4.1271  -1.7671 LP             1 S1                 0.0000
@<TRIPOS>BOND
    1    1    2 2     
    2    2    3 1     
    3    2   28 1     
    4    3    4 1     
    5    4    5 1     
    6    4   35 1     
    7    4   36 1     
    8    5   18 1     
    9    5    6 1     
   10    5   37 1     
   11    6    7 1     
   12    7    8 1     
   13    7   16 1     
   14    7   38 1     
   15    8   14 1     
   16    8    9 1     
   17    9   10 2     
   18    9   39 1     
   19   10   11 1     
   20   10   40 1     
   21   11   12 2     
   22   11   13 1     
   23   13   34 1     
   24   13   14 1     
   25   14   15 2     
   26   16   17 1     
   27   16   18 1     
   28   16   41 1     
   29   17   42 1     
   30   18   19 1     
   31   18   43 1     
   32   19   20 1     
   33   20   21 2     
   34   20   22 1     
   35   22   27 ar    
   36   22   23 ar    
   37   23   24 ar    
   38   23   44 1     
   39   24   25 ar    
   40   24   45 1     
   41   25   26 ar    
   42   25   46 1     
   43   26   27 ar    
   44   26   47 1     
   45   27   48 1     
   46   28   33 ar    
   47   28   29 ar    
   48   29   30 ar    
   49   29   49 1     
   50   30   31 ar    
   51   30   50 1     
   52   31   32 ar    
   53   31   51 1     
   54   32   33 ar    
   55   32   52 1     
   56   33   53 1     
   57    1   54 1     
   58    1   55 1     
   59    6   56 1     
   60    6   57 1     
   61   12   58 1     
   62   12   59 1     
   63   15   60 1     
   64   15   61 1     
   65   17   62 1     
   66   17   63 1     
   67   21   64 1     
   68   21   65 1     
@<TRIPOS>SUBSTRUCTURE
      1 S1             1
@<TRIPOS>SET
LONE_PAIRS      STATIC     ATOMS    <user>   **** ""
12 54 55 56 57 58 59 60 61 62 63 64 65
DONOR_HYDROGENS      STATIC     ATOMS    <user>   **** ""
2 34 42
ATOM$BLUE        STATIC     ATOMS    COLORGROUP SYSTEM
12 54 55 56 57 58 59 60 61 62 63 64 65
ATOM$RED        STATIC     ATOMS    COLORGROUP SYSTEM
2 34 42
