AV-unprocessed.smi:1319|AV-procd|sdf|5458|dock2
  -GOLD-   22720 5 23D 1   1.00000     0.00000
 Structure written by MMmdl.
 28 29  0  0  0  0  0  0  0  0  1 V2000
  150.9716  137.3656  157.5060 N   0  0  0  0  0  0  0  0  0  0  0  0
  150.7490  138.3327  156.5560 C   0  0  0  0  0  0  0  0  0  0  0  0
  150.3401  137.9011  155.3562 N   0  0  0  0  0  0  0  0  0  0  0  0
  150.1443  138.9020  154.4885 C   0  0  0  0  0  0  0  0  0  0  0  0
  149.7228  138.5427  153.2312 N   0  0  0  0  0  0  0  0  0  0  0  0
  150.3104  140.2117  154.7041 N   0  0  0  0  0  0  0  0  0  0  0  0
  150.7213  140.4669  155.9514 C   0  0  0  0  0  0  0  0  0  0  0  0
  150.9695  142.1771  156.3512 S   0  0  0  0  0  0  0  0  0  0  0  0
  151.4818  142.0006  158.0813 C   0  0  0  0  0  0  0  0  0  0  0  0
  151.2598  143.2952  158.8733 C   0  0  2  0  0  0  0  0  0  0  0  0
  151.9688  144.5134  158.2859 C   0  0  0  0  0  0  0  0  0  0  0  0
  152.1377  145.4350  159.4840 C   0  0  0  0  0  0  0  0  0  0  0  0
  151.9015  144.5251  160.6939 C   0  0  0  0  0  0  0  0  0  0  0  0
  151.8359  143.2073  160.1666 O   0  0  0  0  0  0  0  0  0  0  0  0
  150.9646  139.5965  156.9376 N   0  0  0  0  0  0  0  0  0  0  0  0
  151.2803  137.6209  158.4327 H   0  0  0  0  0  0  0  0  0  0  0  0
  150.8089  136.3924  157.2920 H   0  0  0  0  0  0  0  0  0  0  0  0
  149.5763  137.5709  152.9999 H   0  0  0  0  0  0  0  0  0  0  0  0
  149.5240  139.2489  152.5376 H   0  0  0  0  0  0  0  0  0  0  0  0
  150.9290  141.1764  158.5336 H   0  0  0  0  0  0  0  0  0  0  0  0
  152.5375  141.7284  158.1009 H   0  0  0  0  0  0  0  0  0  0  0  0
  150.1924  143.5015  158.9723 H   0  0  0  0  0  0  0  0  0  0  0  0
  152.9502  144.2303  157.9030 H   0  0  0  0  0  0  0  0  0  0  0  0
  151.4094  144.9733  157.4707 H   0  0  0  0  0  0  0  0  0  0  0  0
  153.1337  145.8791  159.4983 H   0  0  0  0  0  0  0  0  0  0  0  0
  151.4088  146.2461  159.4680 H   0  0  0  0  0  0  0  0  0  0  0  0
  152.6915  144.6077  161.4408 H   0  0  0  0  0  0  0  0  0  0  0  0
  150.9525  144.7666  161.1748 H   0  0  0  0  0  0  0  0  0  0  0  0
  1  2  1  0  0  0  0
  1 16  1  0  0  0  0
  1 17  1  0  0  0  0
  2 15  1  0  0  0  0
  2  3  2  0  0  0  0
  3  4  1  0  0  0  0
  4  5  1  0  0  0  0
  4  6  2  0  0  0  0
  5 18  1  0  0  0  0
  5 19  1  0  0  0  0
  6  7  1  0  0  0  0
  7  8  1  0  0  0  0
  7 15  2  0  0  0  0
  8  9  1  0  0  0  0
  9 10  1  0  0  0  0
  9 20  1  0  0  0  0
  9 21  1  0  0  0  0
 10 14  1  0  0  0  0
 10 11  1  0  0  0  0
 10 22  1  0  0  0  0
 11 12  1  0  0  0  0
 11 23  1  0  0  0  0
 11 24  1  0  0  0  0
 12 13  1  0  0  0  0
 12 25  1  0  0  0  0
 12 26  1  0  0  0  0
 13 14  1  0  0  0  0
 13 27  1  0  0  0  0
 13 28  1  0  0  0  0
M  END
> <s_m_source_file>
AV-unprocessed.smi

> <i_m_source_file_index>
1319

> <i_lp_mmshare_version>
43012

> <i_f3d_flags>
0

> <s_epik_input>
W05IMl1jMW5jKFtOSDJdKW5jKG4xKVNbQ0gyXVtDQEBIXTJbQ0gyXVtDSDJdW0NIMl1PMg==

> <s_epik_cmdline>
J2VwaWtfcHl0aG9uJywgJy1waCcsICc3LjAnLCAnLXRuJywgJzgnLCAnLW1hJywgJzIwMCcsICctbWV0YWxfYmluZGluZycsICctaW1hZScsICc8aW5maWxlLm1hZT4nLCAnLW9tYWUnLCAnPG91dGZpbGUubWFlPic=

> <r_lp_tautomer_probability>
1

> <r_epik_Ionization_Penalty>
0.000877611

> <r_epik_Ionization_Penalty_Charging>
0

> <r_epik_Ionization_Penalty_Neutral>
0.000877611

> <r_epik_State_Penalty>
-0

> <r_epik_Charging_Adjusted_Penalty>
0

> <i_epik_Tot_Q>
0

> <i_epik_Tot_abs_Q>
0

> <r_epik_Metal_State_Penalty>
-0

> <b_epik_Metal_Only>
0

> <s_lp_Force_Field>
OPLS_2005

> <r_lp_Energy>
8.74089

> <b_lp_Chiralities_Consistent>
1

> <s_lp_Variant>
AV-unprocessed.smi:1319-1

> <Gold.Version>
5.8.1

> <Gold.Id.Protein>
6NUR|6NUR_protein|mol2

> <Gold.PLP.Fitness>
38.9632

> <Gold.PLP.PLP>
-30.2178

> <Gold.PLP.part.hbond>
-3.0000

> <Gold.PLP.part.metal>
0.0000

> <Gold.PLP.part.buried>
-4.7906

> <Gold.PLP.part.nonpolar>
-21.7666

> <Gold.PLP.part.repulsive>
0.3670

> <Gold.PLP.ligand.clash>
0.0000

> <Gold.PLP.ligand.torsion>
0.1314

> <Gold.PLP.Chemscore.Hbond>
3.0000

> <Gold.PLP.Chemscore.CHOScore>
0.0000

> <Gold.PLP.Chemscore.Metal>
0.0000

> <Gold.Chemscore.Hbonds>
donor molecule, donor type, donor heavy atom, donor atom, acceptor molecule, acceptor atom, score
      L1  H     5    18       P1  7948  1.00
      L1  H     5    19       P1  7957  1.00
      P1  H  7989  7998       L1     6  1.00

> <Gold.PLP.Chemscore.Internal.Correction>
0.0082

> <Gold.Rescore>
     Score         DG    S(hbond)    S(metal)    S(lipo)     H(rot)  DE(clash)    DE(int)     intcor
     16.74     -16.93       2.68        0.00      64.33       1.96       0.02       0.17       ----

> <Gold.Chemscore.Fitness>
16.7422

> <Gold.Chemscore.DG>
-16.9253

> <Gold.Chemscore.ZeroCoef>
-5.4800

> <Gold.Chemscore.Hbond>
2.6770

> <Gold.Chemscore.Metal>
0.0000

> <Gold.Chemscore.Lipo>
64.3295

> <Gold.Chemscore.Internal_Hbond>
0.0000

> <Gold.Chemscore.DEClash>
0.0163

> <Gold.Chemscore.DEInternal>
0.1668

> <Gold.Chemscore.Rot>
1.9619

> <Gold.Chemscore.Internal.Correction>
   9.000000E+99

> <Gold.Chemscore.Hbonds>
donor molecule, donor type, donor heavy atom, donor atom, acceptor molecule, acceptor atom, score
      L1  H     5    18       P1  7948  0.71
      L1  H     5    19       P1  7957  0.95
      P1  H  7989  7998       L1     6  0.45

> <Gold.Chemscore.Hbond.Weighted>
-8.9411

> <Gold.Chemscore.Metal.Weighted>
-0.0000

> <Gold.Chemscore.Lipo.Weighted>
-7.5266

> <Gold.Chemscore.Internal_Hbond.Weighted>
0.0000

> <Gold.Chemscore.DEClash.Weighted>
0.0163

> <Gold.Chemscore.DEInternal.Weighted>
0.1668

> <Gold.Chemscore.Rot.Weighted>
5.0224

> <Gold.Chemscore.Internal.Correction.Weighted>
   9.000000E+99

> <Gold.Protein.RotatedTorsions>
[ 6907 6896 6895 6894 ] final -132.62 input  -60.11 | X-H torsion
[ 7974 7965 7964 7962 ] final -165.59 input  175.53 | X-H torsion
[ 8008 7997 7996 7995 ] final  -62.57 input   59.86 | X-H torsion
[ 10167 10162 10161 10158 ] final   -0.74 input  -65.29 | X-H torsion
[ 10718 10713 10712 10709 ] final -111.20 input   66.30 | X-H torsion
[ 10763 10752 10751 10750 ] final -116.67 input  -60.55 | X-H torsion
[ 11005 11000 10999 10996 ] final -127.57 input  -57.11 | X-H torsion

> <Gold.Protein.ActiveResidues>
 VAL166  LYS551  ARG553  GLY616  TRP617  ASP618  TYR619  PRO620  LYS621  CYS622 
 ASP623  PHE694  ASN695  SER759  ASP760  ASP761  ALA762  ILE779  LEU786  VAL792 
 PHE793  MET794  SER795  GLU796  ALA797  LYS798  CYS799  TRP800  GLU811  SER814 

> <Gold.Protein.RotatedAtoms>
  150.9645  133.6409  159.2748 H   0  0  0  0  0  0  0  0  0  0  0  0  # atno 6907 bound_to 6896
  151.3720  135.0923  159.9478 H   0  0  0  0  0  0  0  0  0  0  0  0  # atno 6908 bound_to 6896
  152.5160  133.9197  159.7583 H   0  0  0  0  0  0  0  0  0  0  0  0  # atno 6909 bound_to 6896
  144.7266  140.2791  143.6238 H   0  0  0  0  0  0  0  0  0  0  0  0  # atno 7974 bound_to 7965
  154.4507  140.0993  156.6607 H   0  0  0  0  0  0  0  0  0  0  0  0  # atno 8008 bound_to 7997
  155.5296  140.3481  155.4405 H   0  0  0  0  0  0  0  0  0  0  0  0  # atno 8009 bound_to 7997
  156.0673  140.1341  156.9859 H   0  0  0  0  0  0  0  0  0  0  0  0  # atno 8010 bound_to 7997
  140.6780  143.6859  150.8067 H   0  0  0  0  0  0  0  0  0  0  0  0  # atno 10167 bound_to 10162
  156.0633  130.5855  150.8341 H   0  0  0  0  0  0  0  0  0  0  0  0  # atno 10718 bound_to 10713
  154.8528  135.4337  154.1858 H   0  0  0  0  0  0  0  0  0  0  0  0  # atno 10763 bound_to 10752
  153.2938  135.6963  153.7274 H   0  0  0  0  0  0  0  0  0  0  0  0  # atno 10764 bound_to 10752
  153.6431  135.3464  155.3052 H   0  0  0  0  0  0  0  0  0  0  0  0  # atno 10765 bound_to 10752
  140.9588  134.0965  157.3989 H   0  0  0  0  0  0  0  0  0  0  0  0  # atno 11005 bound_to 11000
  145.7967  139.1948  143.2072 LP  0  0  0  0  0  0  0  0  0  0  0  0  # atno 17320 bound_to 7965
  146.0711  140.7868  142.9687 LP  0  0  0  0  0  0  0  0  0  0  0  0  # atno 17321 bound_to 7965
  140.0555  143.5207  152.2653 LP  0  0  0  0  0  0  0  0  0  0  0  0  # atno 17342 bound_to 10162
  139.6084  144.7602  151.3008 LP  0  0  0  0  0  0  0  0  0  0  0  0  # atno 17343 bound_to 10162
  157.5658  131.0946  150.9492 LP  0  0  0  0  0  0  0  0  0  0  0  0  # atno 17370 bound_to 10713
  156.9719  130.5494  149.5291 LP  0  0  0  0  0  0  0  0  0  0  0  0  # atno 17371 bound_to 10713
  139.8871  135.0087  156.6540 LP  0  0  0  0  0  0  0  0  0  0  0  0  # atno 17394 bound_to 11000
  140.7497  133.8908  155.8338 LP  0  0  0  0  0  0  0  0  0  0  0  0  # atno 17395 bound_to 11000

$$$$
