AV-unprocessed.smi:1951|AV-procd|sdf|7882|dock3
  -GOLD-   2272010 33D 1   1.00000     0.00000
 Structure written by MMmdl.
 46 47  0  0  0  0  0  0  0  0  2 V2000
  151.7179  138.2625  154.4591 C   0  0  0  0  0  0  0  0  0  0  0  0
  150.3769  138.2749  153.9816 O   0  0  0  0  0  0  0  0  0  0  0  0
  149.6404  139.4367  154.1145 C   0  0  0  0  0  0  0  0  0  0  0  0
  150.2071  140.4906  154.7540 N   0  0  0  0  0  0  0  0  0  0  0  0
  149.4882  141.6243  154.8868 C   0  0  0  0  0  0  0  0  0  0  0  0
  148.1759  141.7658  154.3998 C   0  0  0  0  0  0  0  0  0  0  0  0
  147.5864  140.6747  153.7351 C   0  0  0  0  0  0  0  0  0  0  0  0
  148.3337  139.4830  153.5747 C   0  0  0  0  0  0  0  0  0  0  0  0
  147.8235  138.3177  152.9392 N   0  0  0  0  0  0  0  0  0  0  0  0
  146.5448  138.0155  152.6588 C   0  0  0  0  0  0  0  0  0  0  0  0
  145.5718  138.7248  152.9149 O   0  0  0  0  0  0  0  0  0  0  0  0
  146.4514  136.8367  152.0271 N   0  0  0  0  0  0  0  0  0  0  0  0
  145.2083  136.2426  151.5487 C   0  0  0  0  0  0  0  0  0  0  0  0
  144.5618  135.3519  152.6274 C   0  0  0  0  0  0  0  0  0  0  0  0
  144.5119  133.9224  152.2299 N   0  3  2  0  0  0  0  0  0  0  0  0
  145.8591  133.2956  152.2272 C   0  0  0  0  0  0  0  0  0  0  0  0
  145.7726  131.7847  151.9464 C   0  0  0  0  0  0  0  0  0  0  0  0
  145.0350  131.4789  150.6306 C   0  0  2  0  0  0  0  0  0  0  0  0
  145.8792  131.8055  149.3858 C   0  0  0  0  0  0  0  0  0  0  0  0
  143.6723  132.1948  150.6324 C   0  0  0  0  0  0  0  0  0  0  0  0
  143.8027  133.6973  150.9422 C   0  0  0  0  0  0  0  0  0  0  0  0
  152.1552  137.2804  154.2800 H   0  0  0  0  0  0  0  0  0  0  0  0
  151.7607  138.4529  155.5325 H   0  0  0  0  0  0  0  0  0  0  0  0
  152.3337  138.9983  153.9391 H   0  0  0  0  0  0  0  0  0  0  0  0
  149.9719  142.4407  155.4026 H   0  0  0  0  0  0  0  0  0  0  0  0
  147.6322  142.6886  154.5377 H   0  0  0  0  0  0  0  0  0  0  0  0
  146.5730  140.7661  153.3762 H   0  0  0  0  0  0  0  0  0  0  0  0
  148.5218  137.6805  152.5843 H   0  0  0  0  0  0  0  0  0  0  0  0
  147.3015  136.3191  151.8564 H   0  0  0  0  0  0  0  0  0  0  0  0
  144.5289  137.0512  151.2781 H   0  0  0  0  0  0  0  0  0  0  0  0
  145.4070  135.6851  150.6328 H   0  0  0  0  0  0  0  0  0  0  0  0
  145.0825  135.4470  153.5814 H   0  0  0  0  0  0  0  0  0  0  0  0
  143.5465  135.7144  152.7954 H   0  0  0  0  0  0  0  0  0  0  0  0
  146.4916  133.7882  151.4875 H   0  0  0  0  0  0  0  0  0  0  0  0
  146.3362  133.4466  153.1963 H   0  0  0  0  0  0  0  0  0  0  0  0
  146.7720  131.3484  151.9298 H   0  0  0  0  0  0  0  0  0  0  0  0
  145.2469  131.3016  152.7712 H   0  0  0  0  0  0  0  0  0  0  0  0
  144.8438  130.4053  150.6004 H   0  0  0  0  0  0  0  0  0  0  0  0
  146.1271  132.8646  149.3212 H   0  0  0  0  0  0  0  0  0  0  0  0
  145.3485  131.5360  148.4722 H   0  0  0  0  0  0  0  0  0  0  0  0
  146.8164  131.2483  149.3934 H   0  0  0  0  0  0  0  0  0  0  0  0
  143.1689  132.0510  149.6756 H   0  0  0  0  0  0  0  0  0  0  0  0
  143.0289  131.7348  151.3837 H   0  0  0  0  0  0  0  0  0  0  0  0
  142.8045  134.1316  150.9802 H   0  0  0  0  0  0  0  0  0  0  0  0
  144.3321  134.2080  150.1366 H   0  0  0  0  0  0  0  0  0  0  0  0
  143.9830  133.4447  152.9457 H   0  0  0  0  0  0  0  0  0  0  0  0
  1  2  1  0  0  0  0
  1 22  1  0  0  0  0
  1 23  1  0  0  0  0
  1 24  1  0  0  0  0
  2  3  1  0  0  0  0
  3  8  1  0  0  0  0
  3  4  2  0  0  0  0
  4  5  1  0  0  0  0
  5  6  2  0  0  0  0
  5 25  1  0  0  0  0
  6  7  1  0  0  0  0
  6 26  1  0  0  0  0
  7  8  2  0  0  0  0
  7 27  1  0  0  0  0
  8  9  1  0  0  0  0
  9 10  1  0  0  0  0
  9 28  1  0  0  0  0
 10 11  2  0  0  0  0
 10 12  1  0  0  0  0
 12 13  1  0  0  0  0
 12 29  1  0  0  0  0
 13 14  1  0  0  0  0
 13 30  1  0  0  0  0
 13 31  1  0  0  0  0
 14 15  1  0  0  0  0
 14 32  1  0  0  0  0
 14 33  1  0  0  0  0
 15 21  1  0  0  0  0
 15 16  1  0  0  0  0
 15 46  1  0  0  0  0
 16 17  1  0  0  0  0
 16 34  1  0  0  0  0
 16 35  1  0  0  0  0
 17 18  1  0  0  0  0
 17 36  1  0  0  0  0
 17 37  1  0  0  0  0
 18 19  1  0  0  0  0
 18 20  1  0  0  0  0
 18 38  1  0  0  0  0
 19 39  1  0  0  0  0
 19 40  1  0  0  0  0
 19 41  1  0  0  0  0
 20 21  1  0  0  0  0
 20 42  1  0  0  0  0
 20 43  1  0  0  0  0
 21 44  1  0  0  0  0
 21 45  1  0  0  0  0
M  CHG  1  15   1
M  END
> <s_m_source_file>
AV-unprocessed.smi

> <i_m_source_file_index>
1951

> <i_lp_mmshare_version>
43012

> <i_f3d_flags>
0

> <s_epik_input>
W0NIM11PYzFuW2NIXVtjSF1bY0hdYzFbTkhdQyg9TylbTkhdW0NIMl1bQ0gyXU4yW0NIMl1bQ0gyXVtDSF0oW0NIM10pW0NIMl1bQ0gyXTI=

> <s_epik_cmdline>
J2VwaWtfcHl0aG9uJywgJy1waCcsICc3LjAnLCAnLXRuJywgJzgnLCAnLW1hJywgJzIwMCcsICctbWV0YWxfYmluZGluZycsICctaW1hZScsICc8aW5maWxlLm1hZT4nLCAnLW9tYWUnLCAnPG91dGZpbGUubWFlPic=

> <r_lp_tautomer_probability>
1

> <r_epik_Ionization_Penalty>
0.00147101

> <r_epik_Ionization_Penalty_Charging>
0.00139388

> <r_epik_Ionization_Penalty_Neutral>
7.71355e-05

> <r_epik_State_Penalty>
0.000929204

> <r_epik_Charging_Adjusted_Penalty>
0.00232308

> <i_epik_Tot_Q>
1

> <i_epik_Tot_abs_Q>
1

> <r_epik_Metal_State_Penalty>
-0

> <b_epik_Metal_Only>
0

> <s_lp_Force_Field>
OPLS_2005

> <r_lp_Energy>
21.3579

> <b_lp_Chiralities_Consistent>
1

> <s_lp_Variant>
AV-unprocessed.smi:1951-2

> <Gold.Version>
5.8.1

> <Gold.Id.Protein>
6NUR|6NUR_protein|mol2

> <Gold.PLP.Fitness>
46.3950

> <Gold.PLP.PLP>
-36.4157

> <Gold.PLP.part.hbond>
-3.9806

> <Gold.PLP.part.metal>
0.0000

> <Gold.PLP.part.buried>
-1.0863

> <Gold.PLP.part.nonpolar>
-36.2793

> <Gold.PLP.part.repulsive>
3.8882

> <Gold.PLP.ligand.clash>
0.0000

> <Gold.PLP.ligand.torsion>
0.6639

> <Gold.PLP.Chemscore.Hbond>
2.9120

> <Gold.PLP.Chemscore.CHOScore>
0.8467

> <Gold.PLP.Chemscore.Metal>
0.0000

> <Gold.Chemscore.Hbonds>
donor molecule, donor type, donor heavy atom, donor atom, acceptor molecule, acceptor atom, score
      L1  H     9    28       P1  7948  1.00
      L1  H    12    29       P1  7948  1.00
      P1  H  7989  7998       L1     4  0.91
      L1  C     5    25       P1  8028  0.84

> <Gold.PLP.Chemscore.Internal.Correction>
0.0310

> <Gold.Rescore>
     Score         DG    S(hbond)    S(metal)    S(lipo)     H(rot)  DE(clash)    DE(int)     intcor
     15.57     -19.38       2.04        0.00      98.16       1.71       1.93       1.88       ----

> <Gold.Chemscore.Fitness>
15.5727

> <Gold.Chemscore.DG>
-19.3825

> <Gold.Chemscore.ZeroCoef>
-5.4800

> <Gold.Chemscore.Hbond>
2.0352

> <Gold.Chemscore.Metal>
0.0000

> <Gold.Chemscore.Lipo>
98.1572

> <Gold.Chemscore.Internal_Hbond>
0.0000

> <Gold.Chemscore.DEClash>
1.9283

> <Gold.Chemscore.DEInternal>
1.8815

> <Gold.Chemscore.Rot>
1.7107

> <Gold.Chemscore.Internal.Correction>
   9.000000E+99

> <Gold.Chemscore.Hbonds>
donor molecule, donor type, donor heavy atom, donor atom, acceptor molecule, acceptor atom, score
      L1  H     9    28       P1  7948  0.96
      L1  H    12    29       P1  7948  0.95
      P1  H  7989  7998       L1     4  0.11

> <Gold.Chemscore.Hbond.Weighted>
-6.7975

> <Gold.Chemscore.Metal.Weighted>
-0.0000

> <Gold.Chemscore.Lipo.Weighted>
-11.4844

> <Gold.Chemscore.Internal_Hbond.Weighted>
0.0000

> <Gold.Chemscore.DEClash.Weighted>
1.9283

> <Gold.Chemscore.DEInternal.Weighted>
1.8815

> <Gold.Chemscore.Rot.Weighted>
4.3794

> <Gold.Chemscore.Internal.Correction.Weighted>
   9.000000E+99

> <Gold.Protein.RotatedTorsions>
[ 6907 6896 6895 6894 ] final -137.13 input  -60.11 | X-H torsion
[ 7974 7965 7964 7962 ] final  146.32 input  175.53 | X-H torsion
[ 8008 7997 7996 7995 ] final  154.85 input   59.86 | X-H torsion
[ 10167 10162 10161 10158 ] final  106.17 input  -65.29 | X-H torsion
[ 10718 10713 10712 10709 ] final   43.40 input   66.30 | X-H torsion
[ 10763 10752 10751 10750 ] final   23.81 input  -60.55 | X-H torsion
[ 11005 11000 10999 10996 ] final  -36.45 input  -57.11 | X-H torsion

> <Gold.Protein.ActiveResidues>
 VAL166  LYS551  ARG553  GLY616  TRP617  ASP618  TYR619  PRO620  LYS621  CYS622 
 ASP623  PHE694  ASN695  SER759  ASP760  ASP761  ALA762  ILE779  LEU786  VAL792 
 PHE793  MET794  SER795  GLU796  ALA797  LYS798  CYS799  TRP800  GLU811  SER814 

> <Gold.Protein.RotatedAtoms>
  151.0186  133.5897  159.2673 H   0  0  0  0  0  0  0  0  0  0  0  0  # atno 6907 bound_to 6896
  151.3022  135.0771  159.9252 H   0  0  0  0  0  0  0  0  0  0  0  0  # atno 6908 bound_to 6896
  152.5317  133.9866  159.7885 H   0  0  0  0  0  0  0  0  0  0  0  0  # atno 6909 bound_to 6896
  144.8680  139.5891  143.5900 H   0  0  0  0  0  0  0  0  0  0  0  0  # atno 7974 bound_to 7965
  156.2509  140.1955  156.6710 H   0  0  0  0  0  0  0  0  0  0  0  0  # atno 8008 bound_to 7997
  154.6393  140.0585  156.9852 H   0  0  0  0  0  0  0  0  0  0  0  0  # atno 8009 bound_to 7997
  155.1588  140.3258  155.4418 H   0  0  0  0  0  0  0  0  0  0  0  0  # atno 8010 bound_to 7997
  139.7031  144.7091  151.1152 H   0  0  0  0  0  0  0  0  0  0  0  0  # atno 10167 bound_to 10162
  157.4155  130.7939  149.7468 H   0  0  0  0  0  0  0  0  0  0  0  0  # atno 10718 bound_to 10713
  153.0810  135.6619  154.0045 H   0  0  0  0  0  0  0  0  0  0  0  0  # atno 10763 bound_to 10752
  153.9666  135.2968  155.3431 H   0  0  0  0  0  0  0  0  0  0  0  0  # atno 10764 bound_to 10752
  154.7210  135.5165  153.8883 H   0  0  0  0  0  0  0  0  0  0  0  0  # atno 10765 bound_to 10752
  140.9876  133.7022  156.1792 H   0  0  0  0  0  0  0  0  0  0  0  0  # atno 11005 bound_to 11000
  146.2910  139.7139  142.9161 LP  0  0  0  0  0  0  0  0  0  0  0  0  # atno 17320 bound_to 7965
  145.4184  141.0404  143.2978 LP  0  0  0  0  0  0  0  0  0  0  0  0  # atno 17321 bound_to 7965
  140.7715  143.5396  150.9328 LP  0  0  0  0  0  0  0  0  0  0  0  0  # atno 17342 bound_to 10162
  139.9078  143.6757  152.3120 LP  0  0  0  0  0  0  0  0  0  0  0  0  # atno 17343 bound_to 10162
  155.9864  130.3975  150.3215 LP  0  0  0  0  0  0  0  0  0  0  0  0  # atno 17370 bound_to 10713
  157.1358  131.0283  151.2949 LP  0  0  0  0  0  0  0  0  0  0  0  0  # atno 17371 bound_to 10713
  140.7091  134.4481  157.5582 LP  0  0  0  0  0  0  0  0  0  0  0  0  # atno 17394 bound_to 11000
  139.8977  134.8630  156.2032 LP  0  0  0  0  0  0  0  0  0  0  0  0  # atno 17395 bound_to 11000

$$$$
