AV-unprocessed.smi:1425|AV-procd|sdf|5804|dock6
  -GOLD-   22720 5453D 1   1.00000     0.00000
 Structure written by MMmdl.
 36 37  0  0  0  0  0  0  0  0  1 V2000
  147.5157  132.8533  152.5550 C   0  0  0  0  0  0  0  0  0  0  0  0
  146.2042  132.7994  151.7884 C   0  0  0  0  0  0  0  0  0  0  0  0
  145.6097  131.5470  151.5249 C   0  0  0  0  0  0  0  0  0  0  0  0
  144.3976  131.4988  150.8155 C   0  0  0  0  0  0  0  0  0  0  0  0
  143.8276  132.7132  150.3966 C   0  0  0  0  0  0  0  0  0  0  0  0
  144.3888  133.9144  150.6441 N   0  0  0  0  0  0  0  0  0  0  0  0
  145.5591  133.9785  151.3279 C   0  0  0  0  0  0  0  0  0  0  0  0
  146.2129  135.2086  151.6204 N   0  0  0  0  0  0  0  0  0  0  0  0
  145.6648  136.4116  151.8670 C   0  0  0  0  0  0  0  0  0  0  0  0
  144.4577  136.6498  151.9151 O   0  0  0  0  0  0  0  0  0  0  0  0
  146.6116  137.3408  152.0637 N   0  0  0  0  0  0  0  0  0  0  0  0
  146.3707  138.7526  152.3475 C   0  0  0  0  0  0  0  0  0  0  0  0
  147.6530  139.4731  152.8051 C   0  0  1  0  0  0  0  0  0  0  0  0
  147.3863  140.9340  153.2173 C   0  0  0  0  0  0  0  0  0  0  0  0
  148.6425  141.4897  153.8952 C   0  0  0  0  0  0  0  0  0  0  0  0
  149.3809  140.0766  154.7957 S   0  0  0  0  0  0  0  0  0  0  0  0
  150.7879  139.9348  154.3913 O   0  0  0  0  0  0  0  0  0  0  0  0
  149.0047  140.1495  156.2156 O   0  0  0  0  0  0  0  0  0  0  0  0
  148.3717  138.7828  153.9780 C   0  0  0  0  0  0  0  0  0  0  0  0
  147.8564  131.8548  152.8303 H   0  0  0  0  0  0  0  0  0  0  0  0
  147.3988  133.4318  153.4719 H   0  0  0  0  0  0  0  0  0  0  0  0
  148.2940  133.3171  151.9483 H   0  0  0  0  0  0  0  0  0  0  0  0
  146.0752  130.6318  151.8605 H   0  0  0  0  0  0  0  0  0  0  0  0
  143.9179  130.5561  150.5978 H   0  0  0  0  0  0  0  0  0  0  0  0
  142.8975  132.7211  149.8481 H   0  0  0  0  0  0  0  0  0  0  0  0
  147.2210  135.1681  151.6286 H   0  0  0  0  0  0  0  0  0  0  0  0
  147.5768  137.0508  152.0072 H   0  0  0  0  0  0  0  0  0  0  0  0
  146.0019  139.2125  151.4302 H   0  0  0  0  0  0  0  0  0  0  0  0
  145.5769  138.8755  153.0865 H   0  0  0  0  0  0  0  0  0  0  0  0
  148.3495  139.5005  151.9659 H   0  0  0  0  0  0  0  0  0  0  0  0
  147.0910  141.5472  152.3654 H   0  0  0  0  0  0  0  0  0  0  0  0
  146.5610  140.9607  153.9300 H   0  0  0  0  0  0  0  0  0  0  0  0
  149.3645  141.8314  153.1531 H   0  0  0  0  0  0  0  0  0  0  0  0
  148.4322  142.3090  154.5826 H   0  0  0  0  0  0  0  0  0  0  0  0
  147.6558  138.4093  154.7110 H   0  0  0  0  0  0  0  0  0  0  0  0
  149.0063  137.9544  153.6627 H   0  0  0  0  0  0  0  0  0  0  0  0
  1  2  1  0  0  0  0
  1 20  1  0  0  0  0
  1 21  1  0  0  0  0
  1 22  1  0  0  0  0
  2  7  1  0  0  0  0
  2  3  2  0  0  0  0
  3  4  1  0  0  0  0
  3 23  1  0  0  0  0
  4  5  2  0  0  0  0
  4 24  1  0  0  0  0
  5  6  1  0  0  0  0
  5 25  1  0  0  0  0
  6  7  2  0  0  0  0
  7  8  1  0  0  0  0
  8  9  1  0  0  0  0
  8 26  1  0  0  0  0
  9 10  2  0  0  0  0
  9 11  1  0  0  0  0
 11 12  1  0  0  0  0
 11 27  1  0  0  0  0
 12 13  1  0  0  0  0
 12 28  1  0  0  0  0
 12 29  1  0  0  0  0
 13 19  1  0  0  0  0
 13 14  1  0  0  0  0
 13 30  1  0  0  0  0
 14 15  1  0  0  0  0
 14 31  1  0  0  0  0
 14 32  1  0  0  0  0
 15 16  1  0  0  0  0
 15 33  1  0  0  0  0
 15 34  1  0  0  0  0
 16 17  2  0  0  0  0
 16 18  2  0  0  0  0
 16 19  1  0  0  0  0
 19 35  1  0  0  0  0
 19 36  1  0  0  0  0
M  END
> <s_m_source_file>
AV-unprocessed.smi

> <i_m_source_file_index>
1425

> <i_lp_mmshare_version>
43012

> <i_f3d_flags>
0

> <s_epik_input>
W0NIM11jMVtjSF1bY0hdW2NIXW5jMVtOSF1DKD1PKVtOSF1bQ0gyXVtDQEBIXShbQ0gyXTIpW0NIMl1bQ0gyXVMyKD1PKT1P

> <s_epik_cmdline>
J2VwaWtfcHl0aG9uJywgJy1waCcsICc3LjAnLCAnLXRuJywgJzgnLCAnLW1hJywgJzIwMCcsICctbWV0YWxfYmluZGluZycsICctaW1hZScsICc8aW5maWxlLm1hZT4nLCAnLW9tYWUnLCAnPG91dGZpbGUubWFlPic=

> <r_lp_tautomer_probability>
1

> <r_epik_Ionization_Penalty>
5.46275e-05

> <r_epik_Ionization_Penalty_Charging>
0

> <r_epik_Ionization_Penalty_Neutral>
5.46275e-05

> <r_epik_State_Penalty>
-0

> <r_epik_Charging_Adjusted_Penalty>
0

> <i_epik_Tot_Q>
0

> <i_epik_Tot_abs_Q>
0

> <r_epik_Metal_State_Penalty>
-0

> <b_epik_Metal_Only>
0

> <s_lp_Force_Field>
OPLS_2005

> <r_lp_Energy>
7.35863

> <b_lp_Chiralities_Consistent>
1

> <s_lp_Variant>
AV-unprocessed.smi:1425-2

> <Gold.Version>
5.8.1

> <Gold.Id.Protein>
6NUR|6NUR_protein|mol2

> <Gold.PLP.Fitness>
45.3229

> <Gold.PLP.PLP>
-34.0863

> <Gold.PLP.part.hbond>
-3.0000

> <Gold.PLP.part.metal>
0.0000

> <Gold.PLP.part.buried>
-2.0472

> <Gold.PLP.part.nonpolar>
-30.1695

> <Gold.PLP.part.repulsive>
0.8564

> <Gold.PLP.ligand.clash>
0.0000

> <Gold.PLP.ligand.torsion>
0.3004

> <Gold.PLP.Chemscore.Hbond>
2.9440

> <Gold.PLP.Chemscore.CHOScore>
1.0000

> <Gold.PLP.Chemscore.Metal>
0.0000

> <Gold.Chemscore.Hbonds>
donor molecule, donor type, donor heavy atom, donor atom, acceptor molecule, acceptor atom, score
      L1  H     8    26       P1  7948  0.94
      L1  H    11    27       P1  7948  1.00
      P1  H  7989  7998       L1    17  1.00
      L1  C     5    25       P1 10186  0.93

> <Gold.PLP.Chemscore.Internal.Correction>
0.0054

> <Gold.Rescore>
     Score         DG    S(hbond)    S(metal)    S(lipo)     H(rot)  DE(clash)    DE(int)     intcor
     19.07     -20.54       2.90        0.00      74.37       1.29       0.40       1.08       ----

> <Gold.Chemscore.Fitness>
19.0653

> <Gold.Chemscore.DG>
-20.5414

> <Gold.Chemscore.ZeroCoef>
-5.4800

> <Gold.Chemscore.Hbond>
2.8959

> <Gold.Chemscore.Metal>
0.0000

> <Gold.Chemscore.Lipo>
74.3702

> <Gold.Chemscore.Internal_Hbond>
0.0000

> <Gold.Chemscore.DEClash>
0.4004

> <Gold.Chemscore.DEInternal>
1.0757

> <Gold.Chemscore.Rot>
1.2939

> <Gold.Chemscore.Internal.Correction>
   9.000000E+99

> <Gold.Chemscore.Hbonds>
donor molecule, donor type, donor heavy atom, donor atom, acceptor molecule, acceptor atom, score
      L1  H     8    26       P1  7948  0.81
      L1  H    11    27       P1  7948  0.98
      P1  H  7989  7998       L1    17  0.94

> <Gold.Chemscore.Hbond.Weighted>
-9.6723

> <Gold.Chemscore.Metal.Weighted>
-0.0000

> <Gold.Chemscore.Lipo.Weighted>
-8.7013

> <Gold.Chemscore.Internal_Hbond.Weighted>
0.0000

> <Gold.Chemscore.DEClash.Weighted>
0.4004

> <Gold.Chemscore.DEInternal.Weighted>
1.0757

> <Gold.Chemscore.Rot.Weighted>
3.3123

> <Gold.Chemscore.Internal.Correction.Weighted>
   9.000000E+99

> <Gold.Protein.RotatedTorsions>
[ 6907 6896 6895 6894 ] final  -22.46 input  -60.11 | X-H torsion
[ 7974 7965 7964 7962 ] final   17.83 input  175.53 | X-H torsion
[ 8008 7997 7996 7995 ] final   -0.42 input   59.86 | X-H torsion
[ 10167 10162 10161 10158 ] final   69.30 input  -65.29 | X-H torsion
[ 10718 10713 10712 10709 ] final   57.27 input   66.30 | X-H torsion
[ 10763 10752 10751 10750 ] final  172.84 input  -60.55 | X-H torsion
[ 11005 11000 10999 10996 ] final  176.48 input  -57.11 | X-H torsion

> <Gold.Protein.ActiveResidues>
 VAL166  LYS551  ARG553  GLY616  TRP617  ASP618  TYR619  PRO620  LYS621  CYS622 
 ASP623  PHE694  ASN695  SER759  ASP760  ASP761  ALA762  ILE779  LEU786  VAL792 
 PHE793  MET794  SER795  GLU796  ALA797  LYS798  CYS799  TRP800  GLU811  SER814 

> <Gold.Protein.RotatedAtoms>
  151.2183  135.0508  159.8938 H   0  0  0  0  0  0  0  0  0  0  0  0  # atno 6907 bound_to 6896
  152.5418  134.0669  159.8187 H   0  0  0  0  0  0  0  0  0  0  0  0  # atno 6908 bound_to 6896
  151.0832  133.5326  159.2651 H   0  0  0  0  0  0  0  0  0  0  0  0  # atno 6909 bound_to 6896
  146.2205  139.8545  142.8616 H   0  0  0  0  0  0  0  0  0  0  0  0  # atno 7974 bound_to 7965
  154.6583  140.2584  155.7137 H   0  0  0  0  0  0  0  0  0  0  0  0  # atno 8008 bound_to 7997
  156.2607  140.2854  156.0966 H   0  0  0  0  0  0  0  0  0  0  0  0  # atno 8009 bound_to 7997
  155.1347  140.0379  157.2774 H   0  0  0  0  0  0  0  0  0  0  0  0  # atno 8010 bound_to 7997
  140.0693  144.5166  150.7238 H   0  0  0  0  0  0  0  0  0  0  0  0  # atno 10167 bound_to 10162
  157.5501  130.8759  149.8950 H   0  0  0  0  0  0  0  0  0  0  0  0  # atno 10718 bound_to 10713
  154.4317  135.2760  155.1907 H   0  0  0  0  0  0  0  0  0  0  0  0  # atno 10763 bound_to 10752
  154.3811  135.6087  153.5795 H   0  0  0  0  0  0  0  0  0  0  0  0  # atno 10764 bound_to 10752
  152.9836  135.5880  154.4630 H   0  0  0  0  0  0  0  0  0  0  0  0  # atno 10765 bound_to 10752
  140.3736  134.7008  157.4407 H   0  0  0  0  0  0  0  0  0  0  0  0  # atno 11005 bound_to 11000
  145.2767  141.0126  143.3741 LP  0  0  0  0  0  0  0  0  0  0  0  0  # atno 17320 bound_to 7965
  144.9181  139.4445  143.6554 LP  0  0  0  0  0  0  0  0  0  0  0  0  # atno 17321 bound_to 7965
  140.7133  143.2523  151.4513 LP  0  0  0  0  0  0  0  0  0  0  0  0  # atno 17342 bound_to 10162
  139.5845  144.1634  152.2012 LP  0  0  0  0  0  0  0  0  0  0  0  0  # atno 17343 bound_to 10162
  156.0569  130.3707  150.1070 LP  0  0  0  0  0  0  0  0  0  0  0  0  # atno 17370 bound_to 10713
  156.9244  130.9693  151.3543 LP  0  0  0  0  0  0  0  0  0  0  0  0  # atno 17371 bound_to 10713
  140.0533  134.6100  155.8836 LP  0  0  0  0  0  0  0  0  0  0  0  0  # atno 17394 bound_to 11000
  141.1946  133.6584  156.5605 LP  0  0  0  0  0  0  0  0  0  0  0  0  # atno 17395 bound_to 11000

$$$$
