AV-unprocessed.smi:1764|AV-procd|sdf|7132|dock3
  -GOLD-   22720 8363D 1   1.00000     0.00000
 Structure written by MMmdl.
 31 32  0  0  0  0  0  0  0  0  1 V2000
  144.5725  136.8740  152.2861 O   0  0  0  0  0  0  0  0  0  0  0  0
  145.7723  136.6741  152.0945 C   0  0  0  0  0  0  0  0  0  0  0  0
  146.7248  137.5814  152.3553 N   0  0  0  0  0  0  0  0  0  0  0  0
  146.4862  138.9212  152.8810 C   0  0  0  0  0  0  0  0  0  0  0  0
  147.8050  139.6658  153.1461 C   0  0  2  0  0  0  0  0  0  0  0  0
  148.7348  138.9442  154.1208 C   0  0  0  0  0  0  0  0  0  0  0  0
  149.5618  140.0656  154.7321 C   0  0  0  0  0  0  0  0  0  0  0  0
  148.8279  141.3429  154.3152 C   0  0  0  0  0  0  0  0  0  0  0  0
  147.5776  140.8991  153.8095 O   0  0  0  0  0  0  0  0  0  0  0  0
  146.3030  135.5399  151.6040 N   0  0  0  0  0  0  0  0  0  0  0  0
  145.6302  134.3478  151.2237 C   0  0  0  0  0  0  0  0  0  0  0  0
  146.4744  133.2739  150.8605 C   0  0  0  0  0  0  0  0  0  0  0  0
  145.9054  132.0463  150.4695 C   0  0  0  0  0  0  0  0  0  0  0  0
  144.5047  131.9234  150.4524 C   0  0  0  0  0  0  0  0  0  0  0  0
  143.7365  133.0406  150.8289 C   0  0  0  0  0  0  0  0  0  0  0  0
  144.2800  134.2180  151.2037 N   0  0  0  0  0  0  0  0  0  0  0  0
  147.6849  137.3314  152.1697 H   0  0  0  0  0  0  0  0  0  0  0  0
  145.8441  139.4956  152.2108 H   0  0  0  0  0  0  0  0  0  0  0  0
  145.9361  138.8134  153.8160 H   0  0  0  0  0  0  0  0  0  0  0  0
  148.3308  139.8570  152.2085 H   0  0  0  0  0  0  0  0  0  0  0  0
  148.1544  138.4540  154.9039 H   0  0  0  0  0  0  0  0  0  0  0  0
  149.3453  138.1847  153.6315 H   0  0  0  0  0  0  0  0  0  0  0  0
  149.6051  139.9652  155.8172 H   0  0  0  0  0  0  0  0  0  0  0  0
  150.5846  140.0662  154.3536 H   0  0  0  0  0  0  0  0  0  0  0  0
  148.6932  142.0394  155.1431 H   0  0  0  0  0  0  0  0  0  0  0  0
  149.3727  141.8567  153.5218 H   0  0  0  0  0  0  0  0  0  0  0  0
  147.3060  135.5258  151.4940 H   0  0  0  0  0  0  0  0  0  0  0  0
  147.5489  133.3852  150.8799 H   0  0  0  0  0  0  0  0  0  0  0  0
  146.5334  131.2140  150.1881 H   0  0  0  0  0  0  0  0  0  0  0  0
  144.0312  130.9982  150.1589 H   0  0  0  0  0  0  0  0  0  0  0  0
  142.6577  132.9883  150.8299 H   0  0  0  0  0  0  0  0  0  0  0  0
  1  2  2  0  0  0  0
  2  3  1  0  0  0  0
  2 10  1  0  0  0  0
  3  4  1  0  0  0  0
  3 17  1  0  0  0  0
  4  5  1  0  0  0  0
  4 18  1  0  0  0  0
  4 19  1  0  0  0  0
  5  9  1  0  0  0  0
  5  6  1  0  0  0  0
  5 20  1  0  0  0  0
  6  7  1  0  0  0  0
  6 21  1  0  0  0  0
  6 22  1  0  0  0  0
  7  8  1  0  0  0  0
  7 23  1  0  0  0  0
  7 24  1  0  0  0  0
  8  9  1  0  0  0  0
  8 25  1  0  0  0  0
  8 26  1  0  0  0  0
 10 11  1  0  0  0  0
 10 27  1  0  0  0  0
 11 16  1  0  0  0  0
 11 12  2  0  0  0  0
 12 13  1  0  0  0  0
 12 28  1  0  0  0  0
 13 14  2  0  0  0  0
 13 29  1  0  0  0  0
 14 15  1  0  0  0  0
 14 30  1  0  0  0  0
 15 16  2  0  0  0  0
 15 31  1  0  0  0  0
M  END
> <s_m_source_file>
AV-unprocessed.smi

> <i_m_source_file_index>
1764

> <i_lp_mmshare_version>
43012

> <i_f3d_flags>
0

> <s_epik_input>
bjFbY0hdW2NIXVtjSF1bY0hdYzFbTkhdQyg9TylbTkhdW0NIMl1bQ0BASF0yW0NIMl1bQ0gyXVtDSDJdTzI=

> <s_epik_cmdline>
J2VwaWtfcHl0aG9uJywgJy1waCcsICc3LjAnLCAnLXRuJywgJzgnLCAnLW1hJywgJzIwMCcsICctbWV0YWxfYmluZGluZycsICctaW1hZScsICc8aW5maWxlLm1hZT4nLCAnLW9tYWUnLCAnPG91dGZpbGUubWFlPic=

> <r_lp_tautomer_probability>
1

> <r_epik_Ionization_Penalty>
4.47751e-05

> <r_epik_Ionization_Penalty_Charging>
0

> <r_epik_Ionization_Penalty_Neutral>
4.47751e-05

> <r_epik_State_Penalty>
-0

> <r_epik_Charging_Adjusted_Penalty>
0

> <i_epik_Tot_Q>
0

> <i_epik_Tot_abs_Q>
0

> <r_epik_Metal_State_Penalty>
-0

> <b_epik_Metal_Only>
0

> <s_lp_Force_Field>
OPLS_2005

> <r_lp_Energy>
19.1165

> <b_lp_Chiralities_Consistent>
1

> <s_lp_Variant>
AV-unprocessed.smi:1764-1

> <Gold.Version>
5.8.1

> <Gold.Id.Protein>
6NUR|6NUR_protein|mol2

> <Gold.PLP.Fitness>
37.3285

> <Gold.PLP.PLP>
-28.4518

> <Gold.PLP.part.hbond>
-2.0000

> <Gold.PLP.part.metal>
0.0000

> <Gold.PLP.part.buried>
-1.0820

> <Gold.PLP.part.nonpolar>
-26.3957

> <Gold.PLP.part.repulsive>
0.8579

> <Gold.PLP.ligand.clash>
0.0000

> <Gold.PLP.ligand.torsion>
0.0283

> <Gold.PLP.Chemscore.Hbond>
2.0000

> <Gold.PLP.Chemscore.CHOScore>
0.9742

> <Gold.PLP.Chemscore.Metal>
0.0000

> <Gold.Chemscore.Hbonds>
donor molecule, donor type, donor heavy atom, donor atom, acceptor molecule, acceptor atom, score
      L1  H     3    17       P1  7948  1.00
      L1  H    10    27       P1  7948  1.00
      L1  C    15    31       P1 10186  0.98

> <Gold.PLP.Chemscore.Internal.Correction>
0.0108

> <Gold.Rescore>
     Score         DG    S(hbond)    S(metal)    S(lipo)     H(rot)  DE(clash)    DE(int)     intcor
     14.80     -16.61       1.95        0.00      67.21       1.27       0.50       1.31       ----

> <Gold.Chemscore.Fitness>
14.7972

> <Gold.Chemscore.DG>
-16.6105

> <Gold.Chemscore.ZeroCoef>
-5.4800

> <Gold.Chemscore.Hbond>
1.9498

> <Gold.Chemscore.Metal>
0.0000

> <Gold.Chemscore.Lipo>
67.2115

> <Gold.Chemscore.Internal_Hbond>
0.0000

> <Gold.Chemscore.DEClash>
0.5022

> <Gold.Chemscore.DEInternal>
1.3112

> <Gold.Chemscore.Rot>
1.2678

> <Gold.Chemscore.Internal.Correction>
   9.000000E+99

> <Gold.Chemscore.Hbonds>
donor molecule, donor type, donor heavy atom, donor atom, acceptor molecule, acceptor atom, score
      L1  H     3    17       P1  7948  0.98
      L1  H    10    27       P1  7948  0.93

> <Gold.Chemscore.Hbond.Weighted>
-6.5122

> <Gold.Chemscore.Metal.Weighted>
-0.0000

> <Gold.Chemscore.Lipo.Weighted>
-7.8637

> <Gold.Chemscore.Internal_Hbond.Weighted>
0.0000

> <Gold.Chemscore.DEClash.Weighted>
0.5022

> <Gold.Chemscore.DEInternal.Weighted>
1.3112

> <Gold.Chemscore.Rot.Weighted>
3.2455

> <Gold.Chemscore.Internal.Correction.Weighted>
   9.000000E+99

> <Gold.Protein.RotatedTorsions>
[ 6907 6896 6895 6894 ] final   55.95 input  -60.11 | X-H torsion
[ 7974 7965 7964 7962 ] final   30.61 input  175.53 | X-H torsion
[ 8008 7997 7996 7995 ] final  148.43 input   59.86 | X-H torsion
[ 10167 10162 10161 10158 ] final -142.13 input  -65.29 | X-H torsion
[ 10718 10713 10712 10709 ] final -165.90 input   66.30 | X-H torsion
[ 10763 10752 10751 10750 ] final -110.39 input  -60.55 | X-H torsion
[ 11005 11000 10999 10996 ] final  -35.06 input  -57.11 | X-H torsion

> <Gold.Protein.ActiveResidues>
 VAL166  LYS551  ARG553  GLY616  TRP617  ASP618  TYR619  PRO620  LYS621  CYS622 
 ASP623  PHE694  ASN695  SER759  ASP760  ASP761  ALA762  ILE779  LEU786  VAL792 
 PHE793  MET794  SER795  GLU796  ALA797  LYS798  CYS799  TRP800  GLU811  SER814 

> <Gold.Protein.RotatedAtoms>
  152.3589  134.6900  160.0213 H   0  0  0  0  0  0  0  0  0  0  0  0  # atno 6907 bound_to 6896
  151.7230  133.3309  159.3328 H   0  0  0  0  0  0  0  0  0  0  0  0  # atno 6908 bound_to 6896
  150.7591  134.6365  159.6259 H   0  0  0  0  0  0  0  0  0  0  0  0  # atno 6909 bound_to 6896
  146.1601  139.6766  142.9039 H   0  0  0  0  0  0  0  0  0  0  0  0  # atno 7974 bound_to 7965
  156.2791  140.2129  156.5698 H   0  0  0  0  0  0  0  0  0  0  0  0  # atno 8008 bound_to 7997
  154.7145  140.0509  157.0604 H   0  0  0  0  0  0  0  0  0  0  0  0  # atno 8009 bound_to 7997
  155.0561  140.3161  155.4679 H   0  0  0  0  0  0  0  0  0  0  0  0  # atno 8010 bound_to 7997
  139.8118  143.7692  152.2663 H   0  0  0  0  0  0  0  0  0  0  0  0  # atno 10167 bound_to 10162
  156.6600  130.9042  151.3027 H   0  0  0  0  0  0  0  0  0  0  0  0  # atno 10718 bound_to 10713
  154.8245  135.4566  154.0877 H   0  0  0  0  0  0  0  0  0  0  0  0  # atno 10763 bound_to 10752
  153.2203  135.6893  153.8014 H   0  0  0  0  0  0  0  0  0  0  0  0  # atno 10764 bound_to 10752
  153.7434  135.3309  155.3285 H   0  0  0  0  0  0  0  0  0  0  0  0  # atno 10765 bound_to 10752
  140.9766  133.7079  156.1613 H   0  0  0  0  0  0  0  0  0  0  0  0  # atno 11005 bound_to 11000
  145.4609  141.0433  143.2752 LP  0  0  0  0  0  0  0  0  0  0  0  0  # atno 17320 bound_to 7965
  144.8016  139.6131  143.7069 LP  0  0  0  0  0  0  0  0  0  0  0  0  # atno 17321 bound_to 7965
  139.7843  144.7433  151.0043 LP  0  0  0  0  0  0  0  0  0  0  0  0  # atno 17342 bound_to 10162
  140.7817  143.4508  151.0415 LP  0  0  0  0  0  0  0  0  0  0  0  0  # atno 17343 bound_to 10162
  157.7112  130.9443  150.1098 LP  0  0  0  0  0  0  0  0  0  0  0  0  # atno 17370 bound_to 10713
  156.2018  130.3661  149.8779 LP  0  0  0  0  0  0  0  0  0  0  0  0  # atno 17371 bound_to 10713
  140.7249  134.4318  157.5571 LP  0  0  0  0  0  0  0  0  0  0  0  0  # atno 17394 bound_to 11000
  139.8933  134.8734  156.2229 LP  0  0  0  0  0  0  0  0  0  0  0  0  # atno 17395 bound_to 11000

$$$$
