AV-unprocessed.smi:2090|AV-procd|sdf|8537|dock5
  -GOLD-   2272011253D 1   1.00000     0.00000
 Structure written by MMmdl.
 41 42  0  0  0  0  0  0  0  0  3 V2000
  147.2956  135.5397  162.6062 C   0  0  0  0  0  0  0  0  0  0  0  0
  147.7140  135.9400  161.2330 C   0  0  0  0  0  0  0  0  0  0  0  0
  148.2807  135.2523  160.1973 C   0  0  0  0  0  0  0  0  0  0  0  0
  148.4146  136.2432  159.1884 C   0  0  0  0  0  0  0  0  0  0  0  0
  148.9751  135.9183  157.9248 N   0  0  0  0  0  0  0  0  0  0  0  0
  149.3277  134.7120  157.4443 C   0  0  0  0  0  0  0  0  0  0  0  0
  149.1732  133.6953  158.1317 O   0  0  0  0  0  0  0  0  0  0  0  0
  149.8434  134.7885  156.1858 N   0  5  0  0  0  0  0  0  0  0  0  0
  149.0787  135.1455  154.9920 C   0  0  0  0  0  0  0  0  0  0  0  0
  148.5721  133.8741  154.2804 C   0  0  0  0  0  0  0  0  0  0  0  0
  147.7256  134.2003  153.1022 N   0  3  2  0  0  0  0  0  0  0  0  0
  146.4634  134.9075  153.4561 C   0  0  0  0  0  0  0  0  0  0  0  0
  145.7070  135.3580  152.1939 C   0  0  0  0  0  0  0  0  0  0  0  0
  145.4187  134.1852  151.2389 C   0  0  2  0  0  0  0  0  0  0  0  0
  144.2966  133.2639  151.7488 C   0  0  0  0  0  0  0  0  0  0  0  0
  146.7265  133.4260  150.9494 C   0  0  0  0  0  0  0  0  0  0  0  0
  147.4640  133.0199  152.2381 C   0  0  0  0  0  0  0  0  0  0  0  0
  147.9677  137.4292  159.5746 N   0  0  0  0  0  0  0  0  0  0  0  0
  147.5178  137.2411  160.8868 O   0  0  0  0  0  0  0  0  0  0  0  0
  147.0305  134.4828  162.6382 H   0  0  0  0  0  0  0  0  0  0  0  0
  146.4289  136.1144  162.9330 H   0  0  0  0  0  0  0  0  0  0  0  0
  148.1028  135.7082  163.3193 H   0  0  0  0  0  0  0  0  0  0  0  0
  148.5557  134.2085  160.1681 H   0  0  0  0  0  0  0  0  0  0  0  0
  149.1271  136.6982  157.3026 H   0  0  0  0  0  0  0  0  0  0  0  0
  148.2301  135.7894  155.2265 H   0  0  0  0  0  0  0  0  0  0  0  0
  149.6886  135.7175  154.2925 H   0  0  0  0  0  0  0  0  0  0  0  0
  149.4421  133.2958  153.9648 H   0  0  0  0  0  0  0  0  0  0  0  0
  148.0191  133.2300  154.9663 H   0  0  0  0  0  0  0  0  0  0  0  0
  145.8356  134.2554  154.0647 H   0  0  0  0  0  0  0  0  0  0  0  0
  146.6835  135.7825  154.0683 H   0  0  0  0  0  0  0  0  0  0  0  0
  144.7782  135.8574  152.4726 H   0  0  0  0  0  0  0  0  0  0  0  0
  146.3062  136.1052  151.6716 H   0  0  0  0  0  0  0  0  0  0  0  0
  145.0665  134.6063  150.2963 H   0  0  0  0  0  0  0  0  0  0  0  0
  144.5518  132.7879  152.6954 H   0  0  0  0  0  0  0  0  0  0  0  0
  144.0848  132.4724  151.0294 H   0  0  0  0  0  0  0  0  0  0  0  0
  143.3724  133.8224  151.8999 H   0  0  0  0  0  0  0  0  0  0  0  0
  146.5254  132.5448  150.3391 H   0  0  0  0  0  0  0  0  0  0  0  0
  147.3833  134.0617  150.3535 H   0  0  0  0  0  0  0  0  0  0  0  0
  148.4095  132.5482  151.9682 H   0  0  0  0  0  0  0  0  0  0  0  0
  146.8898  132.2778  152.7944 H   0  0  0  0  0  0  0  0  0  0  0  0
  148.2733  134.8387  152.5432 H   0  0  0  0  0  0  0  0  0  0  0  0
  1  2  1  0  0  0  0
  1 20  1  0  0  0  0
  1 21  1  0  0  0  0
  1 22  1  0  0  0  0
  2 19  1  0  0  0  0
  2  3  2  0  0  0  0
  3  4  1  0  0  0  0
  3 23  1  0  0  0  0
  4  5  1  0  0  0  0
  4 18  2  0  0  0  0
  5  6  1  0  0  0  0
  5 24  1  0  0  0  0
  6  7  2  0  0  0  0
  6  8  1  0  0  0  0
  8  9  1  0  0  0  0
  9 10  1  0  0  0  0
  9 25  1  0  0  0  0
  9 26  1  0  0  0  0
 10 11  1  0  0  0  0
 10 27  1  0  0  0  0
 10 28  1  0  0  0  0
 11 17  1  0  0  0  0
 11 12  1  0  0  0  0
 11 41  1  0  0  0  0
 12 13  1  0  0  0  0
 12 29  1  0  0  0  0
 12 30  1  0  0  0  0
 13 14  1  0  0  0  0
 13 31  1  0  0  0  0
 13 32  1  0  0  0  0
 14 15  1  0  0  0  0
 14 16  1  0  0  0  0
 14 33  1  0  0  0  0
 15 34  1  0  0  0  0
 15 35  1  0  0  0  0
 15 36  1  0  0  0  0
 16 17  1  0  0  0  0
 16 37  1  0  0  0  0
 16 38  1  0  0  0  0
 17 39  1  0  0  0  0
 17 40  1  0  0  0  0
 18 19  1  0  0  0  0
M  CHG  1   8  -1
M  CHG  1  11   1
M  END
> <s_m_source_file>
AV-unprocessed.smi

> <i_m_source_file_index>
2090

> <i_lp_mmshare_version>
43012

> <i_f3d_flags>
0

> <s_epik_input>
W0NIM11jMVtjSF1jKG5vMSlbTkhdQyg9TylbTkhdW0NIMl1bQ0gyXU4yW0NIMl1bQ0gyXVtDSF0oW0NIM10pW0NIMl1bQ0gyXTI=

> <s_epik_cmdline>
J2VwaWtfcHl0aG9uJywgJy1waCcsICc3LjAnLCAnLXRuJywgJzgnLCAnLW1hJywgJzIwMCcsICctbWV0YWxfYmluZGluZycsICctaW1hZScsICc8aW5maWxlLm1hZT4nLCAnLW9tYWUnLCAnPG91dGZpbGUubWFlPic=

> <r_epik_Ionization_Penalty>
6.7721

> <r_epik_Ionization_Penalty_Charging>
6.7721

> <r_epik_Ionization_Penalty_Neutral>
5.78572e-06

> <r_epik_State_Penalty>
6.79704

> <r_epik_Charging_Adjusted_Penalty>
13.5691

> <i_epik_Tot_Q>
0

> <i_epik_Tot_abs_Q>
2

> <r_epik_Metal_State_Penalty>
2.73105

> <b_epik_Metal_Only>
1

> <s_lp_Force_Field>
OPLS_2005

> <r_lp_Energy>
13.6419

> <b_lp_Chiralities_Consistent>
1

> <s_lp_Variant>
AV-unprocessed.smi:2090-6

> <Gold.Version>
5.8.1

> <Gold.Id.Protein>
6NUR|6NUR_protein|mol2

> <Gold.PLP.Fitness>
41.5296

> <Gold.PLP.PLP>
-30.8636

> <Gold.PLP.part.hbond>
-5.2186

> <Gold.PLP.part.metal>
0.0000

> <Gold.PLP.part.buried>
-2.9168

> <Gold.PLP.part.nonpolar>
-22.8342

> <Gold.PLP.part.repulsive>
0.0869

> <Gold.PLP.ligand.clash>
0.4957

> <Gold.PLP.ligand.torsion>
0.8790

> <Gold.PLP.Chemscore.Hbond>
4.2872

> <Gold.PLP.Chemscore.CHOScore>
0.0000

> <Gold.PLP.Chemscore.Metal>
0.0000

> <Gold.Chemscore.Hbonds>
donor molecule, donor type, donor heavy atom, donor atom, acceptor molecule, acceptor atom, score
      L1  H    11    41       P1  7948  2.00
      P1  H  6896  6907       L1     7  1.00
      P1  H  6931  6943       L1    19  0.68
      P1  H  6934  6947       L1    19  0.35

> <Gold.PLP.Chemscore.Internal.Correction>
0.0581

> <Gold.Rescore>
     Score         DG    S(hbond)    S(metal)    S(lipo)     H(rot)  DE(clash)    DE(int)     intcor
     12.77     -15.07       1.95        0.00      60.10       1.54       0.03       2.26       ----

> <Gold.Chemscore.Fitness>
12.7690

> <Gold.Chemscore.DG>
-15.0654

> <Gold.Chemscore.ZeroCoef>
-5.4800

> <Gold.Chemscore.Hbond>
1.9455

> <Gold.Chemscore.Metal>
0.0000

> <Gold.Chemscore.Lipo>
60.1024

> <Gold.Chemscore.Internal_Hbond>
0.0000

> <Gold.Chemscore.DEClash>
0.0340

> <Gold.Chemscore.DEInternal>
2.2623

> <Gold.Chemscore.Rot>
1.5409

> <Gold.Chemscore.Internal.Correction>
   9.000000E+99

> <Gold.Chemscore.Hbonds>
donor molecule, donor type, donor heavy atom, donor atom, acceptor molecule, acceptor atom, score
      L1  H    11    41       P1  7948  0.50
      P1  H  6896  6907       L1     7  0.29
      P1  H  6931  6943       L1    19  0.07
      P1  H  6934  6947       L1    19  0.01

> <Gold.Chemscore.Hbond.Weighted>
-6.4980

> <Gold.Chemscore.Metal.Weighted>
-0.0000

> <Gold.Chemscore.Lipo.Weighted>
-7.0320

> <Gold.Chemscore.Internal_Hbond.Weighted>
0.0000

> <Gold.Chemscore.DEClash.Weighted>
0.0340

> <Gold.Chemscore.DEInternal.Weighted>
2.2623

> <Gold.Chemscore.Rot.Weighted>
3.9446

> <Gold.Chemscore.Internal.Correction.Weighted>
   9.000000E+99

> <Gold.Protein.RotatedTorsions>
[ 6907 6896 6895 6894 ] final -121.82 input  -60.11 | X-H torsion
[ 7974 7965 7964 7962 ] final  146.56 input  175.53 | X-H torsion
[ 8008 7997 7996 7995 ] final   85.37 input   59.86 | X-H torsion
[ 10167 10162 10161 10158 ] final   15.97 input  -65.29 | X-H torsion
[ 10718 10713 10712 10709 ] final  147.02 input   66.30 | X-H torsion
[ 10763 10752 10751 10750 ] final -119.81 input  -60.55 | X-H torsion
[ 11005 11000 10999 10996 ] final   66.62 input  -57.11 | X-H torsion

> <Gold.Protein.ActiveResidues>
 VAL166  LYS551  ARG553  GLY616  TRP617  ASP618  TYR619  PRO620  LYS621  CYS622 
 ASP623  PHE694  ASN695  SER759  ASP760  ASP761  ALA762  ILE779  LEU786  VAL792 
 PHE793  MET794  SER795  GLU796  ALA797  LYS798  CYS799  TRP800  GLU811  SER814 

> <Gold.Protein.RotatedAtoms>
  150.8518  133.7775  159.3022 H   0  0  0  0  0  0  0  0  0  0  0  0  # atno 6907 bound_to 6896
  151.5445  135.1066  159.9944 H   0  0  0  0  0  0  0  0  0  0  0  0  # atno 6908 bound_to 6896
  152.4559  133.7678  159.6838 H   0  0  0  0  0  0  0  0  0  0  0  0  # atno 6909 bound_to 6896
  144.8661  139.5920  143.5908 H   0  0  0  0  0  0  0  0  0  0  0  0  # atno 7974 bound_to 7965
  155.9492  140.3402  155.6393 H   0  0  0  0  0  0  0  0  0  0  0  0  # atno 8008 bound_to 7997
  155.6942  140.0752  157.2454 H   0  0  0  0  0  0  0  0  0  0  0  0  # atno 8009 bound_to 7997
  154.4118  140.1652  156.2107 H   0  0  0  0  0  0  0  0  0  0  0  0  # atno 8010 bound_to 7997
  140.5830  143.8944  150.6806 H   0  0  0  0  0  0  0  0  0  0  0  0  # atno 10167 bound_to 10162
  157.3261  131.0912  151.1201 H   0  0  0  0  0  0  0  0  0  0  0  0  # atno 10718 bound_to 10713
  154.8627  135.4225  154.2359 H   0  0  0  0  0  0  0  0  0  0  0  0  # atno 10763 bound_to 10752
  153.3334  135.6989  153.6934 H   0  0  0  0  0  0  0  0  0  0  0  0  # atno 10764 bound_to 10752
  153.5941  135.3549  155.2895 H   0  0  0  0  0  0  0  0  0  0  0  0  # atno 10765 bound_to 10752
  139.9821  134.6728  156.0244 H   0  0  0  0  0  0  0  0  0  0  0  0  # atno 11005 bound_to 11000
  146.2897  139.7103  142.9170 LP  0  0  0  0  0  0  0  0  0  0  0  0  # atno 17320 bound_to 7965
  145.4218  141.0407  143.2959 LP  0  0  0  0  0  0  0  0  0  0  0  0  # atno 17321 bound_to 7965
  140.2448  143.3637  152.1456 LP  0  0  0  0  0  0  0  0  0  0  0  0  # atno 17342 bound_to 10162
  139.5181  144.7001  151.5518 LP  0  0  0  0  0  0  0  0  0  0  0  0  # atno 17343 bound_to 10162
  157.2467  130.6595  149.5913 LP  0  0  0  0  0  0  0  0  0  0  0  0  # atno 17370 bound_to 10713
  155.9690  130.4551  150.5875 LP  0  0  0  0  0  0  0  0  0  0  0  0  # atno 17371 bound_to 10713
  141.1491  133.6551  156.3958 LP  0  0  0  0  0  0  0  0  0  0  0  0  # atno 17394 bound_to 11000
  140.5076  134.6426  157.5272 LP  0  0  0  0  0  0  0  0  0  0  0  0  # atno 17395 bound_to 11000

$$$$
