AV-unprocessed.smi:2083|AV-procd|sdf|8511|dock1
  -GOLD-   2272011223D 1   1.00000     0.00000
 Structure written by MMmdl.
 44 45  0  0  0  0  0  0  0  0  3 V2000
  151.0861  140.4978  156.8003 C   0  0  0  0  0  0  0  0  0  0  0  0
  150.7202  139.3459  155.9285 C   0  0  0  0  0  0  0  0  0  0  0  0
  150.4427  138.0338  156.1896 C   0  0  0  0  0  0  0  0  0  0  0  0
  150.1735  137.4998  154.9010 C   0  0  0  0  0  0  0  0  0  0  0  0
  149.8340  136.1302  154.7430 N   0  0  0  0  0  0  0  0  0  0  0  0
  150.0705  135.1002  155.5761 C   0  0  0  0  0  0  0  0  0  0  0  0
  150.6546  135.2861  156.6506 O   0  0  0  0  0  0  0  0  0  0  0  0
  149.6012  133.9227  155.0805 N   0  5  0  0  0  0  0  0  0  0  0  0
  148.3647  133.7797  154.3140 C   0  0  0  0  0  0  0  0  0  0  0  0
  148.2702  132.3473  153.6959 C   0  0  1  0  0  0  0  0  0  0  0  0
  148.1549  131.2265  154.7567 C   0  0  0  0  0  0  0  0  0  0  0  0
  147.2143  132.1631  152.6418 N   0  3  1  0  0  0  0  0  0  0  0  0
  145.8621  131.7184  153.0939 C   0  0  0  0  0  0  0  0  0  0  0  0
  145.0270  131.2286  151.9011 C   0  0  0  0  0  0  0  0  0  0  0  0
  144.9256  132.3129  150.8181 C   0  0  0  0  0  0  0  0  0  0  0  0
  146.3182  132.8173  150.3933 C   0  0  2  0  0  0  0  0  0  0  0  0
  147.0781  131.8030  149.5204 C   0  0  0  0  0  0  0  0  0  0  0  0
  147.1361  133.2533  151.6265 C   0  0  0  0  0  0  0  0  0  0  0  0
  150.2789  138.4057  153.9401 N   0  0  0  0  0  0  0  0  0  0  0  0
  150.6305  139.5929  154.5934 O   0  0  0  0  0  0  0  0  0  0  0  0
  150.9141  140.2616  157.8505 H   0  0  0  0  0  0  0  0  0  0  0  0
  150.4918  141.3769  156.5505 H   0  0  0  0  0  0  0  0  0  0  0  0
  152.1385  140.7539  156.6793 H   0  0  0  0  0  0  0  0  0  0  0  0
  150.4331  137.5373  157.1485 H   0  0  0  0  0  0  0  0  0  0  0  0
  149.3541  135.8972  153.8865 H   0  0  0  0  0  0  0  0  0  0  0  0
  147.4780  133.9607  154.9226 H   0  0  0  0  0  0  0  0  0  0  0  0
  148.3234  134.5141  153.5091 H   0  0  0  0  0  0  0  0  0  0  0  0
  149.2167  132.1615  153.1851 H   0  0  0  0  0  0  0  0  0  0  0  0
  149.0241  131.1943  155.4162 H   0  0  0  0  0  0  0  0  0  0  0  0
  148.0958  130.2494  154.2762 H   0  0  0  0  0  0  0  0  0  0  0  0
  147.2723  131.3307  155.3892 H   0  0  0  0  0  0  0  0  0  0  0  0
  145.9460  130.9111  153.8205 H   0  0  0  0  0  0  0  0  0  0  0  0
  145.3387  132.5376  153.5891 H   0  0  0  0  0  0  0  0  0  0  0  0
  145.4720  130.3241  151.4852 H   0  0  0  0  0  0  0  0  0  0  0  0
  144.0285  130.9493  152.2388 H   0  0  0  0  0  0  0  0  0  0  0  0
  144.3744  131.9371  149.9553 H   0  0  0  0  0  0  0  0  0  0  0  0
  144.3459  133.1502  151.2089 H   0  0  0  0  0  0  0  0  0  0  0  0
  146.1670  133.7017  149.7729 H   0  0  0  0  0  0  0  0  0  0  0  0
  147.3137  130.8897  150.0672 H   0  0  0  0  0  0  0  0  0  0  0  0
  148.0184  132.2237  149.1630 H   0  0  0  0  0  0  0  0  0  0  0  0
  146.4922  131.5234  148.6444 H   0  0  0  0  0  0  0  0  0  0  0  0
  146.6747  134.1359  152.0715 H   0  0  0  0  0  0  0  0  0  0  0  0
  148.1373  133.5504  151.3118 H   0  0  0  0  0  0  0  0  0  0  0  0
  147.5656  131.3772  152.1146 H   0  0  0  0  0  0  0  0  0  0  0  0
  1  2  1  0  0  0  0
  1 21  1  0  0  0  0
  1 22  1  0  0  0  0
  1 23  1  0  0  0  0
  2 20  1  0  0  0  0
  2  3  2  0  0  0  0
  3  4  1  0  0  0  0
  3 24  1  0  0  0  0
  4  5  1  0  0  0  0
  4 19  2  0  0  0  0
  5  6  1  0  0  0  0
  5 25  1  0  0  0  0
  6  7  2  0  0  0  0
  6  8  1  0  0  0  0
  8  9  1  0  0  0  0
  9 10  1  0  0  0  0
  9 26  1  0  0  0  0
  9 27  1  0  0  0  0
 10 11  1  0  0  0  0
 10 12  1  0  0  0  0
 10 28  1  0  0  0  0
 11 29  1  0  0  0  0
 11 30  1  0  0  0  0
 11 31  1  0  0  0  0
 12 18  1  0  0  0  0
 12 13  1  0  0  0  0
 12 44  1  0  0  0  0
 13 14  1  0  0  0  0
 13 32  1  0  0  0  0
 13 33  1  0  0  0  0
 14 15  1  0  0  0  0
 14 34  1  0  0  0  0
 14 35  1  0  0  0  0
 15 16  1  0  0  0  0
 15 36  1  0  0  0  0
 15 37  1  0  0  0  0
 16 17  1  0  0  0  0
 16 18  1  0  0  0  0
 16 38  1  0  0  0  0
 17 39  1  0  0  0  0
 17 40  1  0  0  0  0
 17 41  1  0  0  0  0
 18 42  1  0  0  0  0
 18 43  1  0  0  0  0
 19 20  1  0  0  0  0
M  CHG  1   8  -1
M  CHG  1  12   1
M  END
> <s_m_source_file>
AV-unprocessed.smi

> <i_m_source_file_index>
2083

> <i_lp_mmshare_version>
43012

> <i_f3d_flags>
0

> <s_epik_input>
W0NIM11jMVtjSF1jKG5vMSlbTkhdQyg9TylbTkhdW0NIMl1bQ0BIXShbQ0gzXSlOMltDSDJdW0NIMl1bQ0gyXVtDQEBIXShbQ0gzXSlbQ0gyXTI=

> <s_epik_cmdline>
J2VwaWtfcHl0aG9uJywgJy1waCcsICc3LjAnLCAnLXRuJywgJzgnLCAnLW1hJywgJzIwMCcsICctbWV0YWxfYmluZGluZycsICctaW1hZScsICc8aW5maWxlLm1hZT4nLCAnLW9tYWUnLCAnPG91dGZpbGUubWFlPic=

> <r_epik_Ionization_Penalty>
6.76934

> <r_epik_Ionization_Penalty_Charging>
6.76934

> <r_epik_Ionization_Penalty_Neutral>
5.77849e-06

> <r_epik_State_Penalty>
6.79457

> <r_epik_Charging_Adjusted_Penalty>
13.5639

> <i_epik_Tot_Q>
0

> <i_epik_Tot_abs_Q>
2

> <r_epik_Metal_State_Penalty>
2.72837

> <b_epik_Metal_Only>
1

> <s_lp_Force_Field>
OPLS_2005

> <r_lp_Energy>
23.3528

> <b_lp_Chiralities_Consistent>
1

> <s_lp_Variant>
AV-unprocessed.smi:2083-22

> <Gold.Version>
5.8.1

> <Gold.Id.Protein>
6NUR|6NUR_protein|mol2

> <Gold.PLP.Fitness>
42.2254

> <Gold.PLP.PLP>
-31.5467

> <Gold.PLP.part.hbond>
-4.8571

> <Gold.PLP.part.metal>
0.0000

> <Gold.PLP.part.buried>
0.3882

> <Gold.PLP.part.nonpolar>
-26.9928

> <Gold.PLP.part.repulsive>
0.6312

> <Gold.PLP.ligand.clash>
0.0000

> <Gold.PLP.ligand.torsion>
0.8184

> <Gold.PLP.Chemscore.Hbond>
3.9920

> <Gold.PLP.Chemscore.CHOScore>
0.0000

> <Gold.PLP.Chemscore.Metal>
0.0000

> <Gold.Chemscore.Hbonds>
donor molecule, donor type, donor heavy atom, donor atom, acceptor molecule, acceptor atom, score
      L1  H     5    25       P1  7948  0.93
      L1  H    12    44       P1 10747  0.12
      P1  H  7989  7998       L1    20  1.00

> <Gold.PLP.Chemscore.Internal.Correction>
0.3395

> <Gold.Rescore>
     Score         DG    S(hbond)    S(metal)    S(lipo)     H(rot)  DE(clash)    DE(int)     intcor
     14.68     -18.21       2.21        0.00      79.08       1.52       1.62       1.91       ----

> <Gold.Chemscore.Fitness>
14.6790

> <Gold.Chemscore.DG>
-18.2128

> <Gold.Chemscore.ZeroCoef>
-5.4800

> <Gold.Chemscore.Hbond>
2.2065

> <Gold.Chemscore.Metal>
0.0000

> <Gold.Chemscore.Lipo>
79.0754

> <Gold.Chemscore.Internal_Hbond>
0.0000

> <Gold.Chemscore.DEClash>
1.6243

> <Gold.Chemscore.DEInternal>
1.9095

> <Gold.Chemscore.Rot>
1.5190

> <Gold.Chemscore.Internal.Correction>
   9.000000E+99

> <Gold.Chemscore.Hbonds>
donor molecule, donor type, donor heavy atom, donor atom, acceptor molecule, acceptor atom, score
      L1  H     5    25       P1  7948  0.59
      L1  H    12    44       P1 10747  0.13
      P1  H  7989  7998       L1    20  0.87

> <Gold.Chemscore.Hbond.Weighted>
-7.3696

> <Gold.Chemscore.Metal.Weighted>
-0.0000

> <Gold.Chemscore.Lipo.Weighted>
-9.2518

> <Gold.Chemscore.Internal_Hbond.Weighted>
0.0000

> <Gold.Chemscore.DEClash.Weighted>
1.6243

> <Gold.Chemscore.DEInternal.Weighted>
1.9095

> <Gold.Chemscore.Rot.Weighted>
3.8886

> <Gold.Chemscore.Internal.Correction.Weighted>
   9.000000E+99

> <Gold.Protein.RotatedTorsions>
[ 6907 6896 6895 6894 ] final  145.40 input  -60.11 | X-H torsion
[ 7974 7965 7964 7962 ] final   88.28 input  175.53 | X-H torsion
[ 8008 7997 7996 7995 ] final  109.70 input   59.86 | X-H torsion
[ 10167 10162 10161 10158 ] final -115.51 input  -65.29 | X-H torsion
[ 10718 10713 10712 10709 ] final -112.79 input   66.30 | X-H torsion
[ 10763 10752 10751 10750 ] final   91.80 input  -60.55 | X-H torsion
[ 11005 11000 10999 10996 ] final  -11.44 input  -57.11 | X-H torsion

> <Gold.Protein.ActiveResidues>
 VAL166  LYS551  ARG553  GLY616  TRP617  ASP618  TYR619  PRO620  LYS621  CYS622 
 ASP623  PHE694  ASN695  SER759  ASP760  ASP761  ALA762  ILE779  LEU786  VAL792 
 PHE793  MET794  SER795  GLU796  ALA797  LYS798  CYS799  TRP800  GLU811  SER814 

> <Gold.Protein.RotatedAtoms>
  152.1813  133.4709  159.4959 H   0  0  0  0  0  0  0  0  0  0  0  0  # atno 6907 bound_to 6896
  150.6935  134.1829  159.4264 H   0  0  0  0  0  0  0  0  0  0  0  0  # atno 6908 bound_to 6896
  151.9740  135.0062  160.0605 H   0  0  0  0  0  0  0  0  0  0  0  0  # atno 6909 bound_to 6896
  145.5477  139.2293  143.2530 H   0  0  0  0  0  0  0  0  0  0  0  0  # atno 7974 bound_to 7965
  156.1998  140.3053  155.9503 H   0  0  0  0  0  0  0  0  0  0  0  0  # atno 8008 bound_to 7997
  155.2980  140.0445  157.3044 H   0  0  0  0  0  0  0  0  0  0  0  0  # atno 8009 bound_to 7997
  154.5556  140.2305  155.8424 H   0  0  0  0  0  0  0  0  0  0  0  0  # atno 8010 bound_to 7997
  140.0893  143.4714  152.1879 H   0  0  0  0  0  0  0  0  0  0  0  0  # atno 10167 bound_to 10162
  156.0727  130.5938  150.8555 H   0  0  0  0  0  0  0  0  0  0  0  0  # atno 10718 bound_to 10713
  153.2122  135.4384  155.0393 H   0  0  0  0  0  0  0  0  0  0  0  0  # atno 10763 bound_to 10752
  154.8206  135.3336  154.7052 H   0  0  0  0  0  0  0  0  0  0  0  0  # atno 10764 bound_to 10752
  153.7489  135.6999  153.5006 H   0  0  0  0  0  0  0  0  0  0  0  0  # atno 10765 bound_to 10752
  140.7552  133.8559  155.9078 H   0  0  0  0  0  0  0  0  0  0  0  0  # atno 11005 bound_to 11000
  146.1938  140.6299  142.9133 LP  0  0  0  0  0  0  0  0  0  0  0  0  # atno 17320 bound_to 7965
  144.7545  140.5273  143.6779 LP  0  0  0  0  0  0  0  0  0  0  0  0  # atno 17321 bound_to 7965
  139.5734  144.7475  151.3830 LP  0  0  0  0  0  0  0  0  0  0  0  0  # atno 17342 bound_to 10162
  140.7037  143.7568  150.7445 LP  0  0  0  0  0  0  0  0  0  0  0  0  # atno 17343 bound_to 10162
  157.5806  131.0946  150.9277 LP  0  0  0  0  0  0  0  0  0  0  0  0  # atno 17370 bound_to 10713
  156.9473  130.5407  149.5281 LP  0  0  0  0  0  0  0  0  0  0  0  0  # atno 17371 bound_to 10713
  140.9714  134.1526  157.4573 LP  0  0  0  0  0  0  0  0  0  0  0  0  # atno 17394 bound_to 11000
  139.8780  134.9980  156.5875 LP  0  0  0  0  0  0  0  0  0  0  0  0  # atno 17395 bound_to 11000

$$$$
