AV-unprocessed.smi:3141|AV-procd|sdf|11966|dock1
  -GOLD-   2272017363D 1   1.00000     0.00000
 Structure written by MMmdl.
 35 37  0  0  0  0  0  0  0  0  1 V2000
  151.3097  141.6836  159.1367 O   0  0  0  0  0  0  0  0  0  0  0  0
  151.3688  142.4357  158.1636 C   0  0  0  0  0  0  0  0  0  0  0  0
  151.8173  143.6970  158.2114 N   0  0  0  0  0  0  0  0  0  0  0  0
  152.2949  144.3600  159.3811 C   0  0  0  0  0  0  0  0  0  0  0  0
  151.3904  144.3873  160.5945 C   0  0  0  0  0  0  0  0  0  0  0  0
  151.6023  145.6414  159.7923 C   0  0  0  0  0  0  0  0  0  0  0  0
  150.9864  142.0921  156.9259 N   0  0  0  0  0  0  0  0  0  0  0  0
  150.4328  140.7928  156.5543 C   0  0  2  0  0  0  0  0  0  0  0  0
  151.4242  139.6653  156.9001 C   0  0  0  0  0  0  0  0  0  0  0  0
  151.9359  139.1204  155.5651 C   0  0  0  0  0  0  0  0  0  0  0  0
  150.7733  139.3373  154.6023 C   0  0  0  0  0  0  0  0  0  0  0  0
  150.1959  140.6924  155.0280 C   0  0  1  0  0  0  0  0  0  0  0  0
  148.8043  140.8720  154.6443 N   0  0  0  0  0  0  0  0  0  0  0  0
  148.0803  140.0846  153.7580 C   0  0  0  0  0  0  0  0  0  0  0  0
  146.8158  140.6241  153.6912 C   0  0  0  0  0  0  0  0  0  0  0  0
  146.7369  141.7382  154.5229 N   0  0  0  0  0  0  0  0  0  0  0  0
  147.9507  141.8238  155.0511 C   0  0  0  0  0  0  0  0  0  0  0  0
  151.8239  144.2301  157.3543 H   0  0  0  0  0  0  0  0  0  0  0  0
  153.3641  144.3106  159.5823 H   0  0  0  0  0  0  0  0  0  0  0  0
  150.4200  143.9006  160.5183 H   0  0  0  0  0  0  0  0  0  0  0  0
  151.8628  144.3318  161.5733 H   0  0  0  0  0  0  0  0  0  0  0  0
  152.2162  146.4230  160.2354 H   0  0  0  0  0  0  0  0  0  0  0  0
  150.7723  145.9918  159.1816 H   0  0  0  0  0  0  0  0  0  0  0  0
  151.0729  142.7785  156.1907 H   0  0  0  0  0  0  0  0  0  0  0  0
  149.5122  140.6215  157.1156 H   0  0  0  0  0  0  0  0  0  0  0  0
  152.2402  139.9876  157.5485 H   0  0  0  0  0  0  0  0  0  0  0  0
  150.8927  138.8726  157.4285 H   0  0  0  0  0  0  0  0  0  0  0  0
  152.7982  139.7018  155.2361 H   0  0  0  0  0  0  0  0  0  0  0  0
  152.2416  138.0758  155.6273 H   0  0  0  0  0  0  0  0  0  0  0  0
  151.0868  139.3258  153.5579 H   0  0  0  0  0  0  0  0  0  0  0  0
  150.0411  138.5403  154.7386 H   0  0  0  0  0  0  0  0  0  0  0  0
  150.7822  141.4633  154.5237 H   0  0  0  0  0  0  0  0  0  0  0  0
  148.5137  139.2310  153.2582 H   0  0  0  0  0  0  0  0  0  0  0  0
  145.9642  140.2991  153.1120 H   0  0  0  0  0  0  0  0  0  0  0  0
  148.2263  142.5998  155.7502 H   0  0  0  0  0  0  0  0  0  0  0  0
  1  2  2  0  0  0  0
  2  3  1  0  0  0  0
  2  7  1  0  0  0  0
  3  4  1  0  0  0  0
  3 18  1  0  0  0  0
  4  6  1  0  0  0  0
  4  5  1  0  0  0  0
  4 19  1  0  0  0  0
  5  6  1  0  0  0  0
  5 20  1  0  0  0  0
  5 21  1  0  0  0  0
  6 22  1  0  0  0  0
  6 23  1  0  0  0  0
  7  8  1  0  0  0  0
  7 24  1  0  0  0  0
  8 12  1  0  0  0  0
  8  9  1  0  0  0  0
  8 25  1  0  0  0  0
  9 10  1  0  0  0  0
  9 26  1  0  0  0  0
  9 27  1  0  0  0  0
 10 11  1  0  0  0  0
 10 28  1  0  0  0  0
 10 29  1  0  0  0  0
 11 12  1  0  0  0  0
 11 30  1  0  0  0  0
 11 31  1  0  0  0  0
 12 13  1  0  0  0  0
 12 32  1  0  0  0  0
 13 17  1  0  0  0  0
 13 14  1  0  0  0  0
 14 15  2  0  0  0  0
 14 33  1  0  0  0  0
 15 16  1  0  0  0  0
 15 34  1  0  0  0  0
 16 17  2  0  0  0  0
 17 35  1  0  0  0  0
M  END
> <s_m_source_file>
AV-unprocessed.smi

> <i_m_source_file_index>
3141

> <i_lp_mmshare_version>
43012

> <i_f3d_flags>
0

> <s_epik_input>
W0NIMl0xW0NIMl1bQ0hdMVtOSF1DKD1PKVtOSF1bQ0BASF0yW0NIMl1bQ0gyXVtDSDJdW0NASF0ybjNbY0hdW2NIXW5bY0hdMw==

> <s_epik_cmdline>
J2VwaWtfcHl0aG9uJywgJy1waCcsICc3LjAnLCAnLXRuJywgJzgnLCAnLW1hJywgJzIwMCcsICctbWV0YWxfYmluZGluZycsICctaW1hZScsICc8aW5maWxlLm1hZT4nLCAnLW9tYWUnLCAnPG91dGZpbGUubWFlPic=

> <r_lp_tautomer_probability>
1

> <r_epik_Ionization_Penalty>
0.728419

> <r_epik_Ionization_Penalty_Charging>
0.728357

> <r_epik_Ionization_Penalty_Neutral>
6.27871e-05

> <r_epik_State_Penalty>
0.753408

> <r_epik_Charging_Adjusted_Penalty>
1.48176

> <i_epik_Tot_Q>
0

> <i_epik_Tot_abs_Q>
0

> <r_epik_Metal_State_Penalty>
0.332413

> <b_epik_Metal_Only>
0

> <s_lp_Force_Field>
OPLS_2005

> <r_lp_Energy>
34.1677

> <b_lp_Chiralities_Consistent>
1

> <s_lp_Variant>
AV-unprocessed.smi:3141-5

> <Gold.Version>
5.8.1

> <Gold.Id.Protein>
6NUR|6NUR_protein|mol2

> <Gold.PLP.Fitness>
41.4978

> <Gold.PLP.PLP>
-34.3883

> <Gold.PLP.part.hbond>
0.0000

> <Gold.PLP.part.metal>
0.0000

> <Gold.PLP.part.buried>
-0.8086

> <Gold.PLP.part.nonpolar>
-33.6572

> <Gold.PLP.part.repulsive>
0.2008

> <Gold.PLP.ligand.clash>
0.0000

> <Gold.PLP.ligand.torsion>
0.3268

> <Gold.PLP.Chemscore.Hbond>
0.0000

> <Gold.PLP.Chemscore.CHOScore>
2.5739

> <Gold.PLP.Chemscore.Metal>
0.0000

> <Gold.Chemscore.Hbonds>
donor molecule, donor type, donor heavy atom, donor atom, acceptor molecule, acceptor atom, score
      L1  C    14    33       P1  7957  0.57
      L1  C    15    34       P1 10175  1.00
      L1  C    17    35       P1  8028  1.00

> <Gold.PLP.Chemscore.Internal.Correction>
0.0414

> <Gold.Rescore>
     Score         DG    S(hbond)    S(metal)    S(lipo)     H(rot)  DE(clash)    DE(int)     intcor
     10.87     -11.44       0.00        0.00      85.26       1.57       0.29       0.27       ----

> <Gold.Chemscore.Fitness>
10.8706

> <Gold.Chemscore.DG>
-11.4354

> <Gold.Chemscore.ZeroCoef>
-5.4800

> <Gold.Chemscore.Hbond>
0.0000

> <Gold.Chemscore.Metal>
0.0000

> <Gold.Chemscore.Lipo>
85.2646

> <Gold.Chemscore.Internal_Hbond>
0.0000

> <Gold.Chemscore.DEClash>
0.2932

> <Gold.Chemscore.DEInternal>
0.2716

> <Gold.Chemscore.Rot>
1.5705

> <Gold.Chemscore.Internal.Correction>
   9.000000E+99

> <Gold.Chemscore.Hbond.Weighted>
-0.0000

> <Gold.Chemscore.Metal.Weighted>
-0.0000

> <Gold.Chemscore.Lipo.Weighted>
-9.9760

> <Gold.Chemscore.Internal_Hbond.Weighted>
0.0000

> <Gold.Chemscore.DEClash.Weighted>
0.2932

> <Gold.Chemscore.DEInternal.Weighted>
0.2716

> <Gold.Chemscore.Rot.Weighted>
4.0206

> <Gold.Chemscore.Internal.Correction.Weighted>
   9.000000E+99

> <Gold.Protein.RotatedTorsions>
[ 6907 6896 6895 6894 ] final  -25.74 input  -60.11 | X-H torsion
[ 7974 7965 7964 7962 ] final -107.21 input  175.53 | X-H torsion
[ 8008 7997 7996 7995 ] final  -66.96 input   59.86 | X-H torsion
[ 10167 10162 10161 10158 ] final -147.75 input  -65.29 | X-H torsion
[ 10718 10713 10712 10709 ] final  162.99 input   66.30 | X-H torsion
[ 10763 10752 10751 10750 ] final  178.76 input  -60.55 | X-H torsion
[ 11005 11000 10999 10996 ] final  -32.01 input  -57.11 | X-H torsion

> <Gold.Protein.ActiveResidues>
 VAL166  LYS551  ARG553  GLY616  TRP617  ASP618  TYR619  PRO620  LYS621  CYS622 
 ASP623  PHE694  ASN695  SER759  ASP760  ASP761  ALA762  ILE779  LEU786  VAL792 
 PHE793  MET794  SER795  GLU796  ALA797  LYS798  CYS799  TRP800  GLU811  SER814 

> <Gold.Protein.RotatedAtoms>
  151.1709  135.0317  159.8750 H   0  0  0  0  0  0  0  0  0  0  0  0  # atno 6907 bound_to 6896
  152.5449  134.1172  159.8393 H   0  0  0  0  0  0  0  0  0  0  0  0  # atno 6908 bound_to 6896
  151.1277  133.5012  159.2632 H   0  0  0  0  0  0  0  0  0  0  0  0  # atno 6909 bound_to 6896
  145.2081  140.9085  143.3330 H   0  0  0  0  0  0  0  0  0  0  0  0  # atno 7974 bound_to 7965
  154.4768  140.0902  156.7282 H   0  0  0  0  0  0  0  0  0  0  0  0  # atno 8008 bound_to 7997
  155.4575  140.3460  155.4290 H   0  0  0  0  0  0  0  0  0  0  0  0  # atno 8009 bound_to 7997
  156.1129  140.1453  156.9301 H   0  0  0  0  0  0  0  0  0  0  0  0  # atno 8010 bound_to 7997
  139.7594  143.8400  152.2604 H   0  0  0  0  0  0  0  0  0  0  0  0  # atno 10167 bound_to 10162
  157.1148  131.0477  151.2441 H   0  0  0  0  0  0  0  0  0  0  0  0  # atno 10718 bound_to 10713
  154.5118  135.2789  155.1336 H   0  0  0  0  0  0  0  0  0  0  0  0  # atno 10763 bound_to 10752
  154.2928  135.6263  153.5396 H   0  0  0  0  0  0  0  0  0  0  0  0  # atno 10764 bound_to 10752
  152.9920  135.5678  154.5585 H   0  0  0  0  0  0  0  0  0  0  0  0  # atno 10765 bound_to 10752
  140.9516  133.7217  156.1229 H   0  0  0  0  0  0  0  0  0  0  0  0  # atno 11005 bound_to 11000
  144.9882  139.3715  143.6228 LP  0  0  0  0  0  0  0  0  0  0  0  0  # atno 17320 bound_to 7965
  146.3403  139.9053  142.8788 LP  0  0  0  0  0  0  0  0  0  0  0  0  # atno 17321 bound_to 7965
  139.8401  144.7214  150.9341 LP  0  0  0  0  0  0  0  0  0  0  0  0  # atno 17342 bound_to 10162
  140.7806  143.3991  151.1180 LP  0  0  0  0  0  0  0  0  0  0  0  0  # atno 17343 bound_to 10162
  157.4528  130.7608  149.7166 LP  0  0  0  0  0  0  0  0  0  0  0  0  # atno 17370 bound_to 10713
  155.9842  130.3994  150.3324 LP  0  0  0  0  0  0  0  0  0  0  0  0  # atno 17371 bound_to 10713
  140.7594  134.3956  157.5528 LP  0  0  0  0  0  0  0  0  0  0  0  0  # atno 17394 bound_to 11000
  139.8849  134.8952  156.2674 LP  0  0  0  0  0  0  0  0  0  0  0  0  # atno 17395 bound_to 11000

$$$$
