AV-unprocessed.smi:2520|AV-procd|sdf|9914|dock6
  -GOLD-   2272013553D 1   1.00000     0.00000
 Structure written by MMmdl.
 41 44  0  0  0  0  0  0  0  0  1 V2000
  147.0185  141.6582  158.9214 O   0  0  0  0  0  0  0  0  0  0  0  0
  147.4677  142.6934  158.4334 C   0  0  0  0  0  0  0  0  0  0  0  0
  146.6785  143.7721  158.2423 N   0  0  0  0  0  0  0  0  0  0  0  0
  145.2945  143.9877  158.5094 C   0  0  0  0  0  0  0  0  0  0  0  0
  144.8196  145.2717  158.1663 C   0  0  0  0  0  0  0  0  0  0  0  0
  143.4651  145.5687  158.3948 C   0  0  0  0  0  0  0  0  0  0  0  0
  142.6695  144.5544  158.9534 C   0  0  0  0  0  0  0  0  0  0  0  0
  143.1627  143.3368  159.2650 N   0  0  0  0  0  0  0  0  0  0  0  0
  144.4526  143.0630  159.0434 N   0  0  0  0  0  0  0  0  0  0  0  0
  148.7516  142.8246  158.0666 N   0  0  0  0  0  0  0  0  0  0  0  0
  149.7865  141.8140  158.2445 C   0  0  1  0  0  0  0  0  0  0  0  0
  150.1720  141.1454  156.9250 C   0  0  2  0  0  0  0  0  0  0  0  0
  150.0074  139.7780  156.3645 C   0  0  0  0  0  0  0  0  0  0  0  0
  151.4565  139.5827  155.8454 C   0  0  0  0  0  0  0  0  0  0  0  0
  152.2269  140.6785  156.3957 O   0  0  0  0  0  0  0  0  0  0  0  0
  151.5333  141.0233  157.5781 C   0  0  1  0  0  0  0  0  0  0  0  0
  151.2535  142.3932  158.2298 C   0  0  0  0  0  0  0  0  0  0  0  0
  151.9049  142.6552  159.5951 C   0  0  0  0  0  0  0  0  0  0  0  0
  152.5834  144.0267  159.5582 C   0  0  0  0  0  0  0  0  0  0  0  0
  151.9007  144.7681  158.4179 C   0  0  0  0  0  0  0  0  0  0  0  0
  151.5716  143.6654  157.4170 C   0  0  0  0  0  0  0  0  0  0  0  0
  147.1439  144.5549  157.8067 H   0  0  0  0  0  0  0  0  0  0  0  0
  145.4762  146.0153  157.7384 H   0  0  0  0  0  0  0  0  0  0  0  0
  143.0523  146.5362  158.1515 H   0  0  0  0  0  0  0  0  0  0  0  0
  141.6212  144.7203  159.1538 H   0  0  0  0  0  0  0  0  0  0  0  0
  149.0401  143.7065  157.6667 H   0  0  0  0  0  0  0  0  0  0  0  0
  149.5866  141.1033  159.0518 H   0  0  0  0  0  0  0  0  0  0  0  0
  150.1629  141.8761  156.1102 H   0  0  0  0  0  0  0  0  0  0  0  0
  149.7471  139.0502  157.1343 H   0  0  0  0  0  0  0  0  0  0  0  0
  149.2664  139.7340  155.5661 H   0  0  0  0  0  0  0  0  0  0  0  0
  151.8629  138.6267  156.1776 H   0  0  0  0  0  0  0  0  0  0  0  0
  151.5072  139.6130  154.7567 H   0  0  0  0  0  0  0  0  0  0  0  0
  151.6019  140.2170  158.3174 H   0  0  0  0  0  0  0  0  0  0  0  0
  151.1492  142.6477  160.3806 H   0  0  0  0  0  0  0  0  0  0  0  0
  152.6268  141.8812  159.8580 H   0  0  0  0  0  0  0  0  0  0  0  0
  152.5104  144.5579  160.5077 H   0  0  0  0  0  0  0  0  0  0  0  0
  153.6421  143.9028  159.3271 H   0  0  0  0  0  0  0  0  0  0  0  0
  150.9779  145.2257  158.7773 H   0  0  0  0  0  0  0  0  0  0  0  0
  152.5227  145.5553  157.9916 H   0  0  0  0  0  0  0  0  0  0  0  0
  152.4406  143.4890  156.7819 H   0  0  0  0  0  0  0  0  0  0  0  0
  150.7633  143.9777  156.7557 H   0  0  0  0  0  0  0  0  0  0  0  0
  1  2  2  0  0  0  0
  2  3  1  0  0  0  0
  2 10  1  0  0  0  0
  3  4  1  0  0  0  0
  3 22  1  0  0  0  0
  4  9  1  0  0  0  0
  4  5  2  0  0  0  0
  5  6  1  0  0  0  0
  5 23  1  0  0  0  0
  6  7  2  0  0  0  0
  6 24  1  0  0  0  0
  7  8  1  0  0  0  0
  7 25  1  0  0  0  0
  8  9  2  0  0  0  0
 10 11  1  0  0  0  0
 10 26  1  0  0  0  0
 11 17  1  0  0  0  0
 11 12  1  0  0  0  0
 11 27  1  0  0  0  0
 12 16  1  0  0  0  0
 12 13  1  0  0  0  0
 12 28  1  0  0  0  0
 13 14  1  0  0  0  0
 13 29  1  0  0  0  0
 13 30  1  0  0  0  0
 14 15  1  0  0  0  0
 14 31  1  0  0  0  0
 14 32  1  0  0  0  0
 15 16  1  0  0  0  0
 16 17  1  0  0  0  0
 16 33  1  0  0  0  0
 17 21  1  0  0  0  0
 17 18  1  0  0  0  0
 18 19  1  0  0  0  0
 18 34  1  0  0  0  0
 18 35  1  0  0  0  0
 19 20  1  0  0  0  0
 19 36  1  0  0  0  0
 19 37  1  0  0  0  0
 20 21  1  0  0  0  0
 20 38  1  0  0  0  0
 20 39  1  0  0  0  0
 21 40  1  0  0  0  0
 21 41  1  0  0  0  0
M  END
> <s_m_source_file>
AV-unprocessed.smi

> <i_m_source_file_index>
2520

> <i_lp_mmshare_version>
43012

> <i_f3d_flags>
0

> <s_epik_input>
bjFuW2NIXVtjSF1bY0hdYzFbTkhdQyg9TylbTkhdW0NAQEhdMltDQEBIXShbQ0gyXVtDSDJdTzMpW0NASF0zQzI0W0NIMl1bQ0gyXVtDSDJdW0NIMl00

> <s_epik_cmdline>
J2VwaWtfcHl0aG9uJywgJy1waCcsICc3LjAnLCAnLXRuJywgJzgnLCAnLW1hJywgJzIwMCcsICctbWV0YWxfYmluZGluZycsICctaW1hZScsICc8aW5maWxlLm1hZT4nLCAnLW9tYWUnLCAnPG91dGZpbGUubWFlPic=

> <r_lp_tautomer_probability>
1

> <r_epik_Ionization_Penalty>
0.00552561

> <r_epik_Ionization_Penalty_Charging>
0

> <r_epik_Ionization_Penalty_Neutral>
0.00552561

> <r_epik_State_Penalty>
-0

> <r_epik_Charging_Adjusted_Penalty>
0

> <i_epik_Tot_Q>
0

> <i_epik_Tot_abs_Q>
0

> <r_epik_Metal_State_Penalty>
-0

> <b_epik_Metal_Only>
0

> <s_lp_Force_Field>
OPLS_2005

> <r_lp_Energy>
83.483

> <b_lp_Chiralities_Consistent>
1

> <s_lp_Variant>
AV-unprocessed.smi:2520-8

> <Gold.Version>
5.8.1

> <Gold.Id.Protein>
6NUR|6NUR_protein|mol2

> <Gold.PLP.Fitness>
36.7677

> <Gold.PLP.PLP>
-29.6909

> <Gold.PLP.part.hbond>
-4.0188

> <Gold.PLP.part.metal>
0.0000

> <Gold.PLP.part.buried>
0.6142

> <Gold.PLP.part.nonpolar>
-26.3355

> <Gold.PLP.part.repulsive>
0.1461

> <Gold.PLP.ligand.clash>
0.0000

> <Gold.PLP.ligand.torsion>
0.2298

> <Gold.PLP.Chemscore.Hbond>
2.4181

> <Gold.PLP.Chemscore.CHOScore>
0.0000

> <Gold.PLP.Chemscore.Metal>
0.0000

> <Gold.Chemscore.Hbonds>
donor molecule, donor type, donor heavy atom, donor atom, acceptor molecule, acceptor atom, score
      L1  H     3    22       P1  8029  1.00
      L1  H    10    26       P1  8028  0.30
      P1  H  6934  6946       L1     1  0.53
      P1  H  7997  8009       L1    15  0.59

> <Gold.PLP.Chemscore.Internal.Correction>
0.2821

> <Gold.Rescore>
     Score         DG    S(hbond)    S(metal)    S(lipo)     H(rot)  DE(clash)    DE(int)     intcor
     16.12     -17.77       1.34        0.00      88.58       1.00       0.20       1.45       ----

> <Gold.Chemscore.Fitness>
16.1212

> <Gold.Chemscore.DG>
-17.7700

> <Gold.Chemscore.ZeroCoef>
-5.4800

> <Gold.Chemscore.Hbond>
1.3431

> <Gold.Chemscore.Metal>
0.0000

> <Gold.Chemscore.Lipo>
88.5824

> <Gold.Chemscore.Internal_Hbond>
0.0000

> <Gold.Chemscore.DEClash>
0.2022

> <Gold.Chemscore.DEInternal>
1.4466

> <Gold.Chemscore.Rot>
1.0000

> <Gold.Chemscore.Internal.Correction>
   9.000000E+99

> <Gold.Chemscore.Hbonds>
donor molecule, donor type, donor heavy atom, donor atom, acceptor molecule, acceptor atom, score
      L1  H     3    22       P1  8029  0.25
      L1  H    10    26       P1  8028  0.04
      P1  H  6934  6946       L1     1  0.52
      P1  H  7997  8009       L1    15  0.40

> <Gold.Chemscore.Hbond.Weighted>
-4.4859

> <Gold.Chemscore.Metal.Weighted>
-0.0000

> <Gold.Chemscore.Lipo.Weighted>
-10.3641

> <Gold.Chemscore.Internal_Hbond.Weighted>
0.0000

> <Gold.Chemscore.DEClash.Weighted>
0.2022

> <Gold.Chemscore.DEInternal.Weighted>
1.4466

> <Gold.Chemscore.Rot.Weighted>
2.5600

> <Gold.Chemscore.Internal.Correction.Weighted>
   9.000000E+99

> <Gold.Protein.RotatedTorsions>
[ 6907 6896 6895 6894 ] final  179.98 input  -60.11 | X-H torsion
[ 7974 7965 7964 7962 ] final  -86.58 input  175.53 | X-H torsion
[ 8008 7997 7996 7995 ] final -163.39 input   59.86 | X-H torsion
[ 10167 10162 10161 10158 ] final  111.45 input  -65.29 | X-H torsion
[ 10718 10713 10712 10709 ] final  -97.58 input   66.30 | X-H torsion
[ 10763 10752 10751 10750 ] final  -55.78 input  -60.55 | X-H torsion
[ 11005 11000 10999 10996 ] final -156.33 input  -57.11 | X-H torsion

> <Gold.Protein.ActiveResidues>
 VAL166  LYS551  ARG553  GLY616  TRP617  ASP618  TYR619  PRO620  LYS621  CYS622 
 ASP623  PHE694  ASN695  SER759  ASP760  ASP761  ALA762  ILE779  LEU786  VAL792 
 PHE793  MET794  SER795  GLU796  ALA797  LYS798  CYS799  TRP800  GLU811  SER814 

> <Gold.Protein.RotatedAtoms>
  151.6629  133.3316  159.3177 H   0  0  0  0  0  0  0  0  0  0  0  0  # atno 6907 bound_to 6896
  150.7905  134.6928  159.6516 H   0  0  0  0  0  0  0  0  0  0  0  0  # atno 6908 bound_to 6896
  152.3983  134.6332  160.0132 H   0  0  0  0  0  0  0  0  0  0  0  0  # atno 6909 bound_to 6896
  145.4779  140.9558  143.1880 H   0  0  0  0  0  0  0  0  0  0  0  0  # atno 7974 bound_to 7965
  155.8205  140.0919  157.1851 H   0  0  0  0  0  0  0  0  0  0  0  0  # atno 8008 bound_to 7997
  154.3979  140.1437  156.3554 H   0  0  0  0  0  0  0  0  0  0  0  0  # atno 8009 bound_to 7997
  155.8271  140.3444  155.5552 H   0  0  0  0  0  0  0  0  0  0  0  0  # atno 8010 bound_to 7997
  139.6611  144.7128  151.1864 H   0  0  0  0  0  0  0  0  0  0  0  0  # atno 10167 bound_to 10162
  156.0087  130.5200  150.6395 H   0  0  0  0  0  0  0  0  0  0  0  0  # atno 10718 bound_to 10713
  154.1963  135.6418  153.5074 H   0  0  0  0  0  0  0  0  0  0  0  0  # atno 10763 bound_to 10752
  153.0023  135.5440  154.6362 H   0  0  0  0  0  0  0  0  0  0  0  0  # atno 10764 bound_to 10752
  154.5764  135.2921  155.0749 H   0  0  0  0  0  0  0  0  0  0  0  0  # atno 10765 bound_to 10752
  140.6768  134.4188  157.5229 H   0  0  0  0  0  0  0  0  0  0  0  0  # atno 11005 bound_to 11000
  144.7906  139.6336  143.7115 LP  0  0  0  0  0  0  0  0  0  0  0  0  # atno 17320 bound_to 7965
  146.2358  139.5903  142.9524 LP  0  0  0  0  0  0  0  0  0  0  0  0  # atno 17321 bound_to 7965
  140.7580  143.5993  150.8716 LP  0  0  0  0  0  0  0  0  0  0  0  0  # atno 17342 bound_to 10162
  139.9651  143.6120  152.2991 LP  0  0  0  0  0  0  0  0  0  0  0  0  # atno 17343 bound_to 10162
  157.4178  131.0832  151.1160 LP  0  0  0  0  0  0  0  0  0  0  0  0  # atno 17370 bound_to 10713
  157.1772  130.6293  149.5660 LP  0  0  0  0  0  0  0  0  0  0  0  0  # atno 17371 bound_to 10713
  139.8964  134.8660  156.2088 LP  0  0  0  0  0  0  0  0  0  0  0  0  # atno 17394 bound_to 11000
  141.0349  133.6968  156.1495 LP  0  0  0  0  0  0  0  0  0  0  0  0  # atno 17395 bound_to 11000

$$$$
