#       Name:                AV-unprocessed.smi:2928
#       Creating user name   scv26
#       Creation time:       Fri Mar 27 16:13:04 2020


#       File generated by GOLD software.
#

@<TRIPOS>MOLECULE
AV-unprocessed.smi:2928
    59    62     1
SMALL
NO_CHARGES


@<TRIPOS>ATOM
      1 ****        -3.2026  -3.1944  -0.3459 C.3            1 S1                 0.0000
      2 ****        -3.9815  -1.9526  -0.1252 N.4            1 S1                 1.0000
      3 ****        -3.7107  -0.8656  -1.0971 C.3            1 S1                 0.0000
      4 ****        -4.8648   0.1621  -1.0324 C.3            1 S1                 0.0000
      5 ****        -5.1484   0.6917   0.3880 C.3            1 S1                 0.0000
      6 ****        -5.0974  -0.4228   1.4535 C.3            1 S1                 0.0000
      7 ****        -3.9331  -1.4227   1.2592 C.3            1 S1                 0.0000
      8 ****        -2.5296  -0.8597   1.5975 C.3            1 S1                 0.0000
      9 ****        -1.9734   0.1469   0.5645 C.3            1 S1                 0.0000
     10 ****        -0.5283   0.2700   0.7458 N.am           1 S1                 0.0000
     11 ****         0.2108   1.3241   0.3698 C.2            1 S1                 0.0000
     12 ****        -0.2525   2.3152  -0.1941 O.2            1 S1                 0.0000
     13 ****         1.5084   1.1443   0.6676 N.am           1 S1                 0.0000
     14 ****         2.5908   2.0302   0.4032 C.ar           1 S1                 0.0000
     15 ****         2.4268   3.4353   0.5095 C.ar           1 S1                 0.0000
     16 ****         3.5296   4.2883   0.3164 C.ar           1 S1                 0.0000
     17 ****         4.7854   3.7234   0.0364 C.ar           1 S1                 0.0000
     18 ****         4.9119   2.3829  -0.0464 N.pl3          1 S1                 1.0000
     19 ****         3.8858   1.5100   0.1138 C.ar           1 S1                 0.0000
     20 ****         4.1648   0.1305  -0.0171 N.3            1 S1                 0.0000
     21 ****         5.5421  -0.3377  -0.1207 C.3            1 S1                 0.0000
     22 ****         5.4337  -1.7802  -0.6071 C.3            1 S1                 0.0000
     23 ****         4.2224  -1.7247  -1.5330 C.3            1 S1                 0.0000
     24 ****         3.3104  -0.6822  -0.8777 C.3            1 S1                 0.0000
     25 ****        -2.2963  -0.2669  -0.8929 C.3            1 S1                 0.0000
     26 ****        -2.1324  -3.0423  -0.2089 H              1 S1                 0.0000
     27 ****        -3.3630  -3.5681  -1.3576 H              1 S1                 0.0000
     28 ****        -3.5240  -3.9725   0.3467 H              1 S1                 0.0000
     29 ****        -3.7396  -1.2985  -2.0981 H              1 S1                 0.0000
     30 ****        -4.6737   0.9943  -1.7106 H              1 S1                 0.0000
     31 ****        -5.7709  -0.3200  -1.4018 H              1 S1                 0.0000
     32 ****        -4.4561   1.4905   0.6396 H              1 S1                 0.0000
     33 ****        -6.1294   1.1674   0.4077 H              1 S1                 0.0000
     34 ****        -5.0623   0.0150   2.4516 H              1 S1                 0.0000
     35 ****        -6.0342  -0.9797   1.4064 H              1 S1                 0.0000
     36 ****        -4.1227  -2.2531   1.9410 H              1 S1                 0.0000
     37 ****        -2.5409  -0.4031   2.5880 H              1 S1                 0.0000
     38 ****        -1.8404  -1.7013   1.6789 H              1 S1                 0.0000
     39 ****        -2.4073   1.1229   0.7682 H              1 S1                 0.0000
     40 ****        -0.0604  -0.4997   1.2019 H              1 S1                 0.0000
     41 ****         1.7636   0.2391   1.0348 H              1 S1                 0.0000
     42 ****         1.4718   3.8724   0.7599 H              1 S1                 0.0000
     43 ****         3.4148   5.3596   0.3954 H              1 S1                 0.0000
     44 ****         5.6875   4.2975  -0.1192 H              1 S1                 0.0000
     45 ****         6.0943   0.2544  -0.8520 H              1 S1                 0.0000
     46 ****         6.0579  -0.2720   0.8379 H              1 S1                 0.0000
     47 ****         6.3382  -2.1307  -1.1051 H              1 S1                 0.0000
     48 ****         5.2291  -2.4440   0.2341 H              1 S1                 0.0000
     49 ****         4.5318  -1.3744  -2.5186 H              1 S1                 0.0000
     50 ****         3.7370  -2.6929  -1.6583 H              1 S1                 0.0000
     51 ****         2.5610  -1.1785  -0.2607 H              1 S1                 0.0000
     52 ****         2.7918  -0.0829  -1.6276 H              1 S1                 0.0000
     53 ****        -1.5655  -1.0084  -1.2187 H              1 S1                 0.0000
     54 ****        -2.1557   0.5842  -1.5602 H              1 S1                 0.0000
     55 ****        -4.9428  -2.2225  -0.2797 H              1 S1                 0.0000
     56 ****         5.8365   2.0035  -0.2504 H              1 S1                 0.0000
     57 ****        -1.2307   2.3642  -0.3955 LP             1 S1                 0.0000
     58 ****         0.3494   3.0714  -0.4508 LP             1 S1                 0.0000
     59 ****         3.8946  -0.0336   0.9316 LP             1 S1                 0.0000
@<TRIPOS>BOND
    1    1    2 1     
    2    1   26 1     
    3    1   27 1     
    4    1   28 1     
    5    2    7 1     
    6    2    3 1     
    7    2   55 1     
    8    3   25 1     
    9    3    4 1     
   10    3   29 1     
   11    4    5 1     
   12    4   30 1     
   13    4   31 1     
   14    5    6 1     
   15    5   32 1     
   16    5   33 1     
   17    6    7 1     
   18    6   34 1     
   19    6   35 1     
   20    7    8 1     
   21    7   36 1     
   22    8    9 1     
   23    8   37 1     
   24    8   38 1     
   25    9   10 1     
   26    9   25 1     
   27    9   39 1     
   28   10   11 am    
   29   10   40 1     
   30   11   12 2     
   31   11   13 am    
   32   13   14 1     
   33   13   41 1     
   34   14   19 ar    
   35   14   15 ar    
   36   15   16 ar    
   37   15   42 1     
   38   16   17 ar    
   39   16   43 1     
   40   17   18 ar    
   41   17   44 1     
   42   18   19 ar    
   43   18   56 1     
   44   19   20 1     
   45   20   24 1     
   46   20   21 1     
   47   21   22 1     
   48   21   45 1     
   49   21   46 1     
   50   22   23 1     
   51   22   47 1     
   52   22   48 1     
   53   23   24 1     
   54   23   49 1     
   55   23   50 1     
   56   24   51 1     
   57   24   52 1     
   58   25   53 1     
   59   25   54 1     
   60   12   57 1     
   61   12   58 1     
   62   20   59 1     
@<TRIPOS>SUBSTRUCTURE
      1 S1             1
@<TRIPOS>SET
LONE_PAIRS      STATIC     ATOMS    <user>   **** ""
3 57 58 59
DONOR_HYDROGENS      STATIC     ATOMS    <user>   **** ""
4 55 40 41 56
ATOM$BLUE        STATIC     ATOMS    COLORGROUP SYSTEM
3 57 58 59
ATOM$RED        STATIC     ATOMS    COLORGROUP SYSTEM
4 55 40 41 56
