AV-unprocessed.smi:143|AV-procd|sdf|1193|dock7
  -GOLD-   2262018353D 1   1.00000     0.00000
 Structure written by MMmdl.
 38 40  0  0  0  0  0  0  0  0  1 V2000
  154.2836  138.9244  162.2742 O   0  0  0  0  0  0  0  0  0  0  0  0
  154.0235  137.8257  161.7794 C   0  0  0  0  0  0  0  0  0  0  0  0
  153.8312  137.6917  160.2536 C   0  0  0  0  0  0  0  0  0  0  0  0
  152.9272  138.6935  159.6989 N   0  0  0  0  0  0  0  0  0  0  0  0
  151.6746  138.2509  159.2039 C   0  0  0  0  0  0  0  0  0  0  0  0
  151.3435  137.0641  159.2271 O   0  0  0  0  0  0  0  0  0  0  0  0
  150.8176  139.3126  158.6881 C   0  0  0  0  0  0  0  0  0  0  0  0
  149.6014  139.0091  158.2041 F   0  0  0  0  0  0  0  0  0  0  0  0
  151.2239  140.6006  158.6928 C   0  0  0  0  0  0  0  0  0  0  0  0
  152.4589  141.0038  159.1669 N   0  0  0  0  0  0  0  0  0  0  0  0
  152.7992  142.4764  159.1779 C   0  0  2  0  0  0  0  0  0  0  0  0
  153.0220  143.0488  160.5908 C   0  0  0  0  0  0  0  0  0  0  0  0
  151.9894  144.1610  160.6737 C   0  0  0  0  0  0  0  0  0  0  0  0
  151.6946  144.4604  159.2081 C   0  0  0  0  0  0  0  0  0  0  0  0
  151.7459  143.1811  158.5965 O   0  0  0  0  0  0  0  0  0  0  0  0
  153.3417  140.0477  159.7209 C   0  0  0  0  0  0  0  0  0  0  0  0
  154.4203  140.3852  160.2121 O   0  0  0  0  0  0  0  0  0  0  0  0
  153.8717  136.5894  162.6013 C   0  0  0  0  0  0  0  0  0  0  0  0
  153.5473  136.7060  163.9735 C   0  0  0  0  0  0  0  0  0  0  0  0
  153.3994  135.5587  164.7769 C   0  0  0  0  0  0  0  0  0  0  0  0
  153.5789  134.2797  164.2192 C   0  0  0  0  0  0  0  0  0  0  0  0
  153.3809  132.7289  165.3044 Br  0  0  0  0  0  0  0  0  0  0  0  0
  153.9060  134.1500  162.8569 C   0  0  0  0  0  0  0  0  0  0  0  0
  154.0524  135.2966  162.0518 C   0  0  0  0  0  0  0  0  0  0  0  0
  154.7842  137.7722  159.7288 H   0  0  0  0  0  0  0  0  0  0  0  0
  153.4372  136.7082  159.9925 H   0  0  0  0  0  0  0  0  0  0  0  0
  150.5448  141.3453  158.3038 H   0  0  0  0  0  0  0  0  0  0  0  0
  153.6888  142.5848  158.5557 H   0  0  0  0  0  0  0  0  0  0  0  0
  152.9044  142.2976  161.3723 H   0  0  0  0  0  0  0  0  0  0  0  0
  154.0348  143.4490  160.6467 H   0  0  0  0  0  0  0  0  0  0  0  0
  151.0871  143.8002  161.1684 H   0  0  0  0  0  0  0  0  0  0  0  0
  152.3473  145.0339  161.2200 H   0  0  0  0  0  0  0  0  0  0  0  0
  150.7262  144.9388  159.0611 H   0  0  0  0  0  0  0  0  0  0  0  0
  152.4664  145.1014  158.7789 H   0  0  0  0  0  0  0  0  0  0  0  0
  153.4044  137.6772  164.4254 H   0  0  0  0  0  0  0  0  0  0  0  0
  153.1482  135.6619  165.8223 H   0  0  0  0  0  0  0  0  0  0  0  0
  154.0459  133.1693  162.4268 H   0  0  0  0  0  0  0  0  0  0  0  0
  154.3067  135.1560  161.0121 H   0  0  0  0  0  0  0  0  0  0  0  0
  1  2  2  0  0  0  0
  2  3  1  0  0  0  0
  2 18  1  0  0  0  0
  3  4  1  0  0  0  0
  3 25  1  0  0  0  0
  3 26  1  0  0  0  0
  4 16  1  0  0  0  0
  4  5  1  0  0  0  0
  5  6  2  0  0  0  0
  5  7  1  0  0  0  0
  7  8  1  0  0  0  0
  7  9  2  0  0  0  0
  9 10  1  0  0  0  0
  9 27  1  0  0  0  0
 10 11  1  0  0  0  0
 10 16  1  0  0  0  0
 11 15  1  0  0  0  0
 11 12  1  0  0  0  0
 11 28  1  0  0  0  0
 12 13  1  0  0  0  0
 12 29  1  0  0  0  0
 12 30  1  0  0  0  0
 13 14  1  0  0  0  0
 13 31  1  0  0  0  0
 13 32  1  0  0  0  0
 14 15  1  0  0  0  0
 14 33  1  0  0  0  0
 14 34  1  0  0  0  0
 16 17  2  0  0  0  0
 18 24  1  0  0  0  0
 18 19  2  0  0  0  0
 19 20  1  0  0  0  0
 19 35  1  0  0  0  0
 20 21  2  0  0  0  0
 20 36  1  0  0  0  0
 21 22  1  0  0  0  0
 21 23  1  0  0  0  0
 23 24  2  0  0  0  0
 23 37  1  0  0  0  0
 24 38  1  0  0  0  0
M  END
> <s_m_source_file>
AV-unprocessed.smi

> <i_m_source_file_index>
143

> <i_lp_mmshare_version>
43012

> <i_f3d_flags>
0

> <s_epik_input>
W2NIXTFbY0hdYyhCcilbY0hdW2NIXWMxQyg9TylbQ0gyXW4yYyg9TyljKEYpW2NIXW4oYzI9TylbQ0BASF0zW0NIMl1bQ0gyXVtDSDJdTzM=

> <s_epik_cmdline>
J2VwaWtfcHl0aG9uJywgJy1waCcsICc3LjAnLCAnLXRuJywgJzgnLCAnLW1hJywgJzIwMCcsICctbWV0YWxfYmluZGluZycsICctaW1hZScsICc8aW5maWxlLm1hZT4nLCAnLW9tYWUnLCAnPG91dGZpbGUubWFlPic=

> <r_lp_tautomer_probability>
1

> <r_epik_Ionization_Penalty>
4.7008e-09

> <r_epik_Ionization_Penalty_Charging>
4.69459e-09

> <r_epik_Ionization_Penalty_Neutral>
6.21034e-12

> <r_epik_State_Penalty>
-0

> <r_epik_Charging_Adjusted_Penalty>
4.69459e-09

> <i_epik_Tot_Q>
0

> <i_epik_Tot_abs_Q>
0

> <r_epik_Metal_State_Penalty>
-0

> <b_epik_Metal_Only>
0

> <s_epik_Chemistry_Notes>
This compound contains an acetal/aminal-like group ( X-CH(R)-Y where X, Y are N, S, or O) that may be acid/base labile, releasing an aldehyde.

> <s_lp_Force_Field>
OPLS_2005

> <r_lp_Energy>
36.1645

> <b_lp_Chiralities_Consistent>
1

> <s_lp_Variant>
AV-unprocessed.smi:143-1

> <Gold.Version>
5.8.1

> <Gold.Id.Protein>
6NUR|6NUR_protein|mol2

> <Gold.PLP.Fitness>
51.6932

> <Gold.PLP.PLP>
-49.4920

> <Gold.PLP.part.hbond>
-1.0000

> <Gold.PLP.part.metal>
0.0000

> <Gold.PLP.part.buried>
-4.9858

> <Gold.PLP.part.nonpolar>
-43.8146

> <Gold.PLP.part.repulsive>
0.0388

> <Gold.PLP.ligand.clash>
0.0000

> <Gold.PLP.ligand.torsion>
0.4146

> <Gold.PLP.Chemscore.Hbond>
1.0000

> <Gold.PLP.Chemscore.CHOScore>
0.0000

> <Gold.PLP.Chemscore.Metal>
0.0000

> <Gold.Chemscore.Hbonds>
donor molecule, donor type, donor heavy atom, donor atom, acceptor molecule, acceptor atom, score
      P1  H  6896  6909       L1     6  0.91

> <Gold.PLP.Chemscore.Internal.Correction>
0.0304

> <Gold.Rescore>
     Score         DG    S(hbond)    S(metal)    S(lipo)     H(rot)  DE(clash)    DE(int)     intcor
     13.63     -17.03       1.00        0.00     104.68       1.58       0.02       3.37       ----

> <Gold.Chemscore.Fitness>
13.6319

> <Gold.Chemscore.DG>
-17.0250

> <Gold.Chemscore.ZeroCoef>
-5.4800

> <Gold.Chemscore.Hbond>
0.9981

> <Gold.Chemscore.Metal>
0.0000

> <Gold.Chemscore.Lipo>
104.6778

> <Gold.Chemscore.Internal_Hbond>
0.0000

> <Gold.Chemscore.DEClash>
0.0234

> <Gold.Chemscore.DEInternal>
3.3697

> <Gold.Chemscore.Rot>
1.5765

> <Gold.Chemscore.Internal.Correction>
   9.000000E+99

> <Gold.Chemscore.Hbonds>
donor molecule, donor type, donor heavy atom, donor atom, acceptor molecule, acceptor atom, score
      P1  H  6896  6909       L1     6  0.85

> <Gold.Chemscore.Hbond.Weighted>
-3.3336

> <Gold.Chemscore.Metal.Weighted>
-0.0000

> <Gold.Chemscore.Lipo.Weighted>
-12.2473

> <Gold.Chemscore.Internal_Hbond.Weighted>
0.0000

> <Gold.Chemscore.DEClash.Weighted>
0.0234

> <Gold.Chemscore.DEInternal.Weighted>
3.3697

> <Gold.Chemscore.Rot.Weighted>
4.0359

> <Gold.Chemscore.Internal.Correction.Weighted>
   9.000000E+99

> <Gold.Protein.RotatedTorsions>
[ 6907 6896 6895 6894 ] final  123.64 input  -60.11 | X-H torsion
[ 7974 7965 7964 7962 ] final   65.61 input  175.53 | X-H torsion
[ 8008 7997 7996 7995 ] final -121.29 input   59.86 | X-H torsion
[ 10167 10162 10161 10158 ] final   54.38 input  -65.29 | X-H torsion
[ 10718 10713 10712 10709 ] final   16.15 input   66.30 | X-H torsion
[ 10763 10752 10751 10750 ] final   25.69 input  -60.55 | X-H torsion
[ 11005 11000 10999 10996 ] final  107.62 input  -57.11 | X-H torsion

> <Gold.Protein.ActiveResidues>
 VAL166  LYS551  ARG553  GLY616  TRP617  ASP618  TYR619  PRO620  LYS621  CYS622 
 ASP623  PHE694  ASN695  SER759  ASP760  ASP761  ALA762  ILE779  LEU786  VAL792 
 PHE793  MET794  SER795  GLU796  ALA797  LYS798  CYS799  TRP800  GLU811  SER814 

> <Gold.Protein.RotatedAtoms>
  152.4144  133.7015  159.6426 H   0  0  0  0  0  0  0  0  0  0  0  0  # atno 6907 bound_to 6896
  150.8022  133.8566  159.3229 H   0  0  0  0  0  0  0  0  0  0  0  0  # atno 6908 bound_to 6896
  151.6299  135.1026  160.0171 H   0  0  0  0  0  0  0  0  0  0  0  0  # atno 6909 bound_to 6896
  145.8365  139.3170  143.0957 H   0  0  0  0  0  0  0  0  0  0  0  0  # atno 7974 bound_to 7965
  155.1456  140.0403  157.2809 H   0  0  0  0  0  0  0  0  0  0  0  0  # atno 8008 bound_to 7997
  154.6441  140.2554  155.7262 H   0  0  0  0  0  0  0  0  0  0  0  0  # atno 8009 bound_to 7997
  156.2546  140.2849  156.0847 H   0  0  0  0  0  0  0  0  0  0  0  0  # atno 8010 bound_to 7997
  140.2307  144.3689  150.6415 H   0  0  0  0  0  0  0  0  0  0  0  0  # atno 10167 bound_to 10162
  157.0637  130.6319  149.5791 H   0  0  0  0  0  0  0  0  0  0  0  0  # atno 10718 bound_to 10713
  153.0674  135.6577  154.0324 H   0  0  0  0  0  0  0  0  0  0  0  0  # atno 10763 bound_to 10752
  153.9978  135.2940  155.3407 H   0  0  0  0  0  0  0  0  0  0  0  0  # atno 10764 bound_to 10752
  154.7036  135.5234  153.8632 H   0  0  0  0  0  0  0  0  0  0  0  0  # atno 10765 bound_to 10752
  139.8831  134.9406  156.5848 H   0  0  0  0  0  0  0  0  0  0  0  0  # atno 11005 bound_to 11000
  145.9513  140.8906  143.0257 LP  0  0  0  0  0  0  0  0  0  0  0  0  # atno 17320 bound_to 7965
  144.6736  140.1684  143.7416 LP  0  0  0  0  0  0  0  0  0  0  0  0  # atno 17321 bound_to 7965
  140.6187  143.2174  151.6739 LP  0  0  0  0  0  0  0  0  0  0  0  0  # atno 17342 bound_to 10162
  139.5111  144.3521  152.0642 LP  0  0  0  0  0  0  0  0  0  0  0  0  # atno 17343 bound_to 10162
  155.9971  130.5041  150.7520 LP  0  0  0  0  0  0  0  0  0  0  0  0  # atno 17370 bound_to 10713
  157.4934  131.0913  151.0400 LP  0  0  0  0  0  0  0  0  0  0  0  0  # atno 17371 bound_to 10713
  140.8000  133.8513  155.8718 LP  0  0  0  0  0  0  0  0  0  0  0  0  # atno 17394 bound_to 11000
  140.9601  134.1666  157.4660 LP  0  0  0  0  0  0  0  0  0  0  0  0  # atno 17395 bound_to 11000

$$$$
