#       Name:                AV-unprocessed.smi:3322
#       Creating user name   scv26
#       Creation time:       Fri Mar 27 19:11:40 2020


#       File generated by GOLD software.
#

@<TRIPOS>MOLECULE
AV-unprocessed.smi:3322
    44    45     1
SMALL
NO_CHARGES


@<TRIPOS>ATOM
      1 ****        -0.6744  -0.7162  -2.6677 C.3            1 S1                 0.0000
      2 ****        -0.2461  -0.1806  -1.2910 C.3            1 S1                 0.0000
      3 ****         1.2218  -0.3315  -1.1475 N.4            1 S1                 1.0000
      4 ****         1.8398   0.5036  -0.0955 C.3            1 S1                 0.0000
      5 ****         3.3535   0.2602  -0.0195 C.3            1 S1                 0.0000
      6 ****         3.9718   1.0530   1.0253 N.pl3          1 S1                 0.0000
      7 ****         4.4891   0.6308   2.2320 C.2            1 S1                 0.0000
      8 ****         4.9651   1.7356   2.8780 C.2            1 S1                 0.0000
      9 ****         4.6928   2.8000   1.9737 C.2            1 S1                 0.0000
     10 ****         4.0991   2.3878   0.8649 N.2            1 S1                 0.0000
     11 ****        -1.0122  -0.9159  -0.1690 C.2            1 S1                 0.0000
     12 ****        -0.4514  -1.8610   0.3894 O.2            1 S1                 0.0000
     13 ****        -2.2660  -0.5254   0.1732 N.am           1 S1                 0.0000
     14 ****        -3.0716   0.5176  -0.4735 C.3            1 S1                 0.0000
     15 ****        -4.3343  -0.1337  -1.0676 C.3            1 S1                 0.0000
     16 ****        -5.0606  -0.8055  -0.0426 O.3            1 S1                 0.0000
     17 ****        -4.2954  -1.8141   0.6102 C.3            1 S1                 0.0000
     18 ****        -3.0398  -1.1806   1.2341 C.3            1 S1                 0.0000
     19 ****        -1.7444  -0.5947  -2.8362 H              1 S1                 0.0000
     20 ****        -0.4431  -1.7772  -2.7727 H              1 S1                 0.0000
     21 ****        -0.1600  -0.1859  -3.4695 H              1 S1                 0.0000
     22 ****        -0.4466   0.8894  -1.2472 H              1 S1                 0.0000
     23 ****         1.4244  -1.3033  -0.9596 H              1 S1                 0.0000
     24 ****         1.6394   1.5541  -0.3112 H              1 S1                 0.0000
     25 ****         1.3837   0.2804   0.8697 H              1 S1                 0.0000
     26 ****         3.5591  -0.7930   0.1770 H              1 S1                 0.0000
     27 ****         3.8312   0.5055  -0.9693 H              1 S1                 0.0000
     28 ****         4.4753  -0.4077   2.5288 H              1 S1                 0.0000
     29 ****         5.4373   1.7773   3.8483 H              1 S1                 0.0000
     30 ****         4.9076   3.8522   2.0888 H              1 S1                 0.0000
     31 ****        -3.3513   1.2657   0.2699 H              1 S1                 0.0000
     32 ****        -2.5548   1.0601  -1.2610 H              1 S1                 0.0000
     33 ****        -4.9763   0.6261  -1.5134 H              1 S1                 0.0000
     34 ****        -4.0737  -0.8367  -1.8602 H              1 S1                 0.0000
     35 ****        -4.9087  -2.2778   1.3833 H              1 S1                 0.0000
     36 ****        -4.0264  -2.5984  -0.0993 H              1 S1                 0.0000
     37 ****        -2.4745  -1.9438   1.7702 H              1 S1                 0.0000
     38 ****        -3.3265  -0.4395   1.9818 H              1 S1                 0.0000
     39 ****         1.6490  -0.0771  -2.0265 H              1 S1                 0.0000
     40 ****         3.8097   2.9408   0.0836 LP             1 S1                 0.0000
     41 ****         0.4709  -2.1298   0.1120 LP             1 S1                 0.0000
     42 ****        -0.9189  -2.3589   1.1199 LP             1 S1                 0.0000
     43 ****        -5.8679  -1.2317  -0.4507 LP             1 S1                 0.0000
     44 ****        -5.3478  -0.1320   0.6386 LP             1 S1                 0.0000
@<TRIPOS>BOND
    1    1    2 1     
    2    1   19 1     
    3    1   20 1     
    4    1   21 1     
    5    2    3 1     
    6    2   11 1     
    7    2   22 1     
    8    3    4 1     
    9    3   23 1     
   10    3   39 1     
   11    4    5 1     
   12    4   24 1     
   13    4   25 1     
   14    5    6 1     
   15    5   26 1     
   16    5   27 1     
   17    6   10 1     
   18    6    7 1     
   19    7    8 2     
   20    7   28 1     
   21    8    9 1     
   22    8   29 1     
   23    9   10 2     
   24    9   30 1     
   25   11   12 2     
   26   11   13 am    
   27   13   18 1     
   28   13   14 1     
   29   14   15 1     
   30   14   31 1     
   31   14   32 1     
   32   15   16 1     
   33   15   33 1     
   34   15   34 1     
   35   16   17 1     
   36   17   18 1     
   37   17   35 1     
   38   17   36 1     
   39   18   37 1     
   40   18   38 1     
   41   10   40 1     
   42   12   41 1     
   43   12   42 1     
   44   16   43 1     
   45   16   44 1     
@<TRIPOS>SUBSTRUCTURE
      1 S1             1
@<TRIPOS>SET
LONE_PAIRS      STATIC     ATOMS    <user>   **** ""
5 40 41 42 43 44
DONOR_HYDROGENS      STATIC     ATOMS    <user>   **** ""
2 23 39
ATOM$BLUE        STATIC     ATOMS    COLORGROUP SYSTEM
5 40 41 42 43 44
ATOM$RED        STATIC     ATOMS    COLORGROUP SYSTEM
2 23 39
