AV-unprocessed.smi:2726|AV-procd|sdf|10520|dock7
  -GOLD-   2272014563D 1   1.00000     0.00000
 Structure written by MMmdl.
 42 43  0  0  0  0  0  0  0  0  2 V2000
  140.2215  138.6943  157.0066 C   0  0  0  0  0  0  0  0  0  0  0  0
  140.3868  139.3876  155.6426 C   0  0  0  0  0  0  0  0  0  0  0  0
  139.1265  139.1222  154.7922 C   0  0  0  0  0  0  0  0  0  0  0  0
  140.5804  140.9020  155.8697 C   0  0  0  0  0  0  0  0  0  0  0  0
  141.5731  138.8010  155.0067 N   0  0  0  0  0  0  0  0  0  0  0  0
  141.7972  137.5157  154.6836 C   0  0  0  0  0  0  0  0  0  0  0  0
  140.9927  136.6053  154.8786 O   0  0  0  0  0  0  0  0  0  0  0  0
  143.0183  137.3619  154.1426 N   0  0  0  0  0  0  0  0  0  0  0  0
  143.6298  136.1691  153.6707 C   0  0  0  0  0  0  0  0  0  0  0  0
  144.6628  136.2913  152.7168 C   0  0  0  0  0  0  0  0  0  0  0  0
  145.2885  135.1339  152.2099 C   0  0  0  0  0  0  0  0  0  0  0  0
  144.8616  133.8622  152.6582 C   0  0  0  0  0  0  0  0  0  0  0  0
  145.4170  132.6518  152.2207 N   0  0  0  0  0  0  0  0  0  0  0  0
  145.9939  131.8231  153.2662 C   0  0  0  0  0  0  0  0  0  0  0  0
  146.1449  130.4310  152.6477 C   0  0  0  0  0  0  0  0  0  0  0  0
  145.1490  130.4076  151.4820 C   0  0  0  0  0  0  0  0  0  0  0  0
  144.4991  131.7940  151.4903 C   0  0  0  0  0  0  0  0  0  0  0  0
  143.8611  133.7865  153.5623 N   0  3  0  0  0  0  0  0  0  0  0  0
  143.2374  134.8695  154.0745 C   0  0  0  0  0  0  0  0  0  0  0  0
  139.3504  139.0737  157.5420 H   0  0  0  0  0  0  0  0  0  0  0  0
  141.0921  138.8544  157.6440 H   0  0  0  0  0  0  0  0  0  0  0  0
  140.0906  137.6174  156.8928 H   0  0  0  0  0  0  0  0  0  0  0  0
  138.9946  138.0568  154.5998 H   0  0  0  0  0  0  0  0  0  0  0  0
  139.1663  139.6288  153.8279 H   0  0  0  0  0  0  0  0  0  0  0  0
  138.2291  139.4759  155.3007 H   0  0  0  0  0  0  0  0  0  0  0  0
  139.7434  141.3254  156.4260 H   0  0  0  0  0  0  0  0  0  0  0  0
  140.6490  141.4534  154.9320 H   0  0  0  0  0  0  0  0  0  0  0  0
  141.4881  141.1056  156.4390 H   0  0  0  0  0  0  0  0  0  0  0  0
  142.3127  139.4547  154.7947 H   0  0  0  0  0  0  0  0  0  0  0  0
  143.5990  138.1871  154.1173 H   0  0  0  0  0  0  0  0  0  0  0  0
  144.9817  137.2663  152.3777 H   0  0  0  0  0  0  0  0  0  0  0  0
  146.0856  135.2285  151.4872 H   0  0  0  0  0  0  0  0  0  0  0  0
  146.9543  132.2205  153.5959 H   0  0  0  0  0  0  0  0  0  0  0  0
  145.3336  131.7781  154.1331 H   0  0  0  0  0  0  0  0  0  0  0  0
  147.1589  130.2915  152.2710 H   0  0  0  0  0  0  0  0  0  0  0  0
  145.9512  129.6437  153.3770 H   0  0  0  0  0  0  0  0  0  0  0  0
  145.6791  130.2417  150.5434 H   0  0  0  0  0  0  0  0  0  0  0  0
  144.4055  129.6170  151.5875 H   0  0  0  0  0  0  0  0  0  0  0  0
  143.5314  131.7523  151.9921 H   0  0  0  0  0  0  0  0  0  0  0  0
  144.3371  132.1663  150.4782 H   0  0  0  0  0  0  0  0  0  0  0  0
  142.4458  134.6473  154.7740 H   0  0  0  0  0  0  0  0  0  0  0  0
  143.5586  132.8630  153.8734 H   0  0  0  0  0  0  0  0  0  0  0  0
  1  2  1  0  0  0  0
  1 20  1  0  0  0  0
  1 21  1  0  0  0  0
  1 22  1  0  0  0  0
  2  3  1  0  0  0  0
  2  4  1  0  0  0  0
  2  5  1  0  0  0  0
  3 23  1  0  0  0  0
  3 24  1  0  0  0  0
  3 25  1  0  0  0  0
  4 26  1  0  0  0  0
  4 27  1  0  0  0  0
  4 28  1  0  0  0  0
  5  6  1  0  0  0  0
  5 29  1  0  0  0  0
  6  7  2  0  0  0  0
  6  8  1  0  0  0  0
  8  9  1  0  0  0  0
  8 30  1  0  0  0  0
  9 19  1  0  0  0  0
  9 10  2  0  0  0  0
 10 11  1  0  0  0  0
 10 31  1  0  0  0  0
 11 12  2  0  0  0  0
 11 32  1  0  0  0  0
 12 13  1  0  0  0  0
 12 18  1  0  0  0  0
 13 17  1  0  0  0  0
 13 14  1  0  0  0  0
 14 15  1  0  0  0  0
 14 33  1  0  0  0  0
 14 34  1  0  0  0  0
 15 16  1  0  0  0  0
 15 35  1  0  0  0  0
 15 36  1  0  0  0  0
 16 17  1  0  0  0  0
 16 37  1  0  0  0  0
 16 38  1  0  0  0  0
 17 39  1  0  0  0  0
 17 40  1  0  0  0  0
 18 19  2  0  0  0  0
 18 42  1  0  0  0  0
 19 41  1  0  0  0  0
M  CHG  1  18   1
M  END
> <s_m_source_file>
AV-unprocessed.smi

> <i_m_source_file_index>
2726

> <i_lp_mmshare_version>
43012

> <i_f3d_flags>
0

> <s_epik_input>
W0NIM11DKFtDSDNdKShbQ0gzXSlbTkhdQyg9TylbTkhdYzFbY0hdW2NIXWMobltjSF0xKU4yW0NIMl1bQ0gyXVtDSDJdW0NIMl0y

> <s_epik_cmdline>
J2VwaWtfcHl0aG9uJywgJy1waCcsICc3LjAnLCAnLXRuJywgJzgnLCAnLW1hJywgJzIwMCcsICctbWV0YWxfYmluZGluZycsICctaW1hZScsICc8aW5maWxlLm1hZT4nLCAnLW9tYWUnLCAnPG91dGZpbGUubWFlPic=

> <r_lp_tautomer_probability>
0.999994

> <r_epik_Ionization_Penalty>
1.07826

> <r_epik_Ionization_Penalty_Charging>
1.07824

> <r_epik_Ionization_Penalty_Neutral>
2.30307e-05

> <r_epik_State_Penalty>
1.13344

> <r_epik_Charging_Adjusted_Penalty>
2.21168

> <i_epik_Tot_Q>
1

> <i_epik_Tot_abs_Q>
1

> <r_epik_Metal_State_Penalty>
1.22394

> <b_epik_Metal_Only>
0

> <s_lp_Force_Field>
OPLS_2005

> <r_lp_Energy>
40.4449

> <b_lp_Chiralities_Consistent>
1

> <s_lp_Variant>
AV-unprocessed.smi:2726-2

> <Gold.Version>
5.8.1

> <Gold.Id.Protein>
6NUR|6NUR_protein|mol2

> <Gold.PLP.Fitness>
41.0502

> <Gold.PLP.PLP>
-29.9504

> <Gold.PLP.part.hbond>
-3.3082

> <Gold.PLP.part.metal>
0.0000

> <Gold.PLP.part.buried>
-4.9028

> <Gold.PLP.part.nonpolar>
-22.8845

> <Gold.PLP.part.repulsive>
0.2188

> <Gold.PLP.ligand.clash>
0.0000

> <Gold.PLP.ligand.torsion>
0.1270

> <Gold.PLP.Chemscore.Hbond>
3.7788

> <Gold.PLP.Chemscore.CHOScore>
0.0000

> <Gold.PLP.Chemscore.Metal>
0.0000

> <Gold.Chemscore.Hbonds>
donor molecule, donor type, donor heavy atom, donor atom, acceptor molecule, acceptor atom, score
      L1  H    18    42       P1 10957  2.00

> <Gold.PLP.Chemscore.Internal.Correction>
0.0175

> <Gold.Rescore>
     Score         DG    S(hbond)    S(metal)    S(lipo)     H(rot)  DE(clash)    DE(int)     intcor
     16.85     -18.18       2.66        0.00      58.59       1.18       0.00       1.33       ----

> <Gold.Chemscore.Fitness>
16.8462

> <Gold.Chemscore.DG>
-18.1833

> <Gold.Chemscore.ZeroCoef>
-5.4800

> <Gold.Chemscore.Hbond>
2.6577

> <Gold.Chemscore.Metal>
0.0000

> <Gold.Chemscore.Lipo>
58.5899

> <Gold.Chemscore.Internal_Hbond>
0.0000

> <Gold.Chemscore.DEClash>
0.0048

> <Gold.Chemscore.DEInternal>
1.3323

> <Gold.Chemscore.Rot>
1.1830

> <Gold.Chemscore.Internal.Correction>
   9.000000E+99

> <Gold.Chemscore.Hbonds>
donor molecule, donor type, donor heavy atom, donor atom, acceptor molecule, acceptor atom, score
      L1  H    18    42       P1 10957  0.95

> <Gold.Chemscore.Hbond.Weighted>
-8.8769

> <Gold.Chemscore.Metal.Weighted>
-0.0000

> <Gold.Chemscore.Lipo.Weighted>
-6.8550

> <Gold.Chemscore.Internal_Hbond.Weighted>
0.0000

> <Gold.Chemscore.DEClash.Weighted>
0.0048

> <Gold.Chemscore.DEInternal.Weighted>
1.3323

> <Gold.Chemscore.Rot.Weighted>
3.0285

> <Gold.Chemscore.Internal.Correction.Weighted>
   9.000000E+99

> <Gold.Protein.RotatedTorsions>
[ 6907 6896 6895 6894 ] final  -55.00 input  -60.11 | X-H torsion
[ 7974 7965 7964 7962 ] final  -80.05 input  175.53 | X-H torsion
[ 8008 7997 7996 7995 ] final -102.70 input   59.86 | X-H torsion
[ 10167 10162 10161 10158 ] final   81.39 input  -65.29 | X-H torsion
[ 10718 10713 10712 10709 ] final  -44.17 input   66.30 | X-H torsion
[ 10763 10752 10751 10750 ] final  -29.92 input  -60.55 | X-H torsion
[ 11005 11000 10999 10996 ] final -101.21 input  -57.11 | X-H torsion

> <Gold.Protein.ActiveResidues>
 VAL166  LYS551  ARG553  GLY616  TRP617  ASP618  TYR619  PRO620  LYS621  CYS622 
 ASP623  PHE694  ASN695  SER759  ASP760  ASP761  ALA762  ILE779  LEU786  VAL792 
 PHE793  MET794  SER795  GLU796  ALA797  LYS798  CYS799  TRP800  GLU811  SER814 

> <Gold.Protein.RotatedAtoms>
  150.8289  134.7533  159.6836 H   0  0  0  0  0  0  0  0  0  0  0  0  # atno 6907 bound_to 6896
  152.4396  134.5614  159.9905 H   0  0  0  0  0  0  0  0  0  0  0  0  # atno 6908 bound_to 6896
  151.5780  133.3344  159.3038 H   0  0  0  0  0  0  0  0  0  0  0  0  # atno 6909 bound_to 6896
  145.5651  140.9475  143.1426 H   0  0  0  0  0  0  0  0  0  0  0  0  # atno 7974 bound_to 7965
  154.8603  140.0427  157.1661 H   0  0  0  0  0  0  0  0  0  0  0  0  # atno 8008 bound_to 7997
  154.8847  140.2977  155.5384 H   0  0  0  0  0  0  0  0  0  0  0  0  # atno 8009 bound_to 7997
  156.2998  140.2404  156.3854 H   0  0  0  0  0  0  0  0  0  0  0  0  # atno 8010 bound_to 7997
  139.9398  144.6097  150.8263 H   0  0  0  0  0  0  0  0  0  0  0  0  # atno 10167 bound_to 10162
  156.2413  130.4180  149.8757 H   0  0  0  0  0  0  0  0  0  0  0  0  # atno 10718 bound_to 10713
  153.7726  135.6911  153.4903 H   0  0  0  0  0  0  0  0  0  0  0  0  # atno 10763 bound_to 10752
  153.1865  135.4487  155.0093 H   0  0  0  0  0  0  0  0  0  0  0  0  # atno 10764 bound_to 10752
  154.8112  135.3378  154.7234 H   0  0  0  0  0  0  0  0  0  0  0  0  # atno 10765 bound_to 10752
  141.1240  133.8460  157.1202 H   0  0  0  0  0  0  0  0  0  0  0  0  # atno 11005 bound_to 11000
  144.7464  139.7308  143.7290 LP  0  0  0  0  0  0  0  0  0  0  0  0  # atno 17320 bound_to 7965
  146.1824  139.5023  142.9858 LP  0  0  0  0  0  0  0  0  0  0  0  0  # atno 17321 bound_to 7965
  140.7614  143.3174  151.2702 LP  0  0  0  0  0  0  0  0  0  0  0  0  # atno 17342 bound_to 10162
  139.6714  144.0014  152.2755 LP  0  0  0  0  0  0  0  0  0  0  0  0  # atno 17343 bound_to 10162
  156.6338  130.8676  151.3500 LP  0  0  0  0  0  0  0  0  0  0  0  0  # atno 17370 bound_to 10713
  157.7176  130.9517  150.1315 LP  0  0  0  0  0  0  0  0  0  0  0  0  # atno 17371 bound_to 10713
  140.0221  134.9941  157.0613 LP  0  0  0  0  0  0  0  0  0  0  0  0  # atno 17394 bound_to 11000
  140.4422  134.1669  155.7174 LP  0  0  0  0  0  0  0  0  0  0  0  0  # atno 17395 bound_to 11000

$$$$
