AV-unprocessed.smi:2710|AV-procd|sdf|10466|dock5
  -GOLD-   2272014503D 1   1.00000     0.00000
 Structure written by MMmdl.
 53 54  0  0  0  0  0  0  0  0  2 V2000
  149.1946  142.7606  158.0000 C   0  0  0  0  0  0  0  0  0  0  0  0
  148.0143  141.9380  157.4569 C   0  0  0  0  0  0  0  0  0  0  0  0
  147.9759  141.8685  155.9669 N   0  3  2  0  0  0  0  0  0  0  0  0
  146.5881  141.6677  155.4600 C   0  0  0  0  0  0  0  0  0  0  0  0
  146.5169  141.7361  153.9274 C   0  0  0  0  0  0  0  0  0  0  0  0
  147.4558  140.7142  153.2691 C   0  0  2  0  0  0  0  0  0  0  0  0
  146.9986  139.3379  153.4629 N   0  0  0  0  0  0  0  0  0  0  0  0
  146.7259  138.4684  152.4793 C   0  0  0  0  0  0  0  0  0  0  0  0
  146.8171  138.7508  151.2857 O   0  0  0  0  0  0  0  0  0  0  0  0
  146.3488  137.2778  152.9762 N   0  0  0  0  0  0  0  0  0  0  0  0
  145.9724  136.0943  152.2833 C   0  0  0  0  0  0  0  0  0  0  0  0
  146.2635  134.7683  152.6874 C   0  0  0  0  0  0  0  0  0  0  0  0
  145.8639  133.7028  151.9614 N   0  0  0  0  0  0  0  0  0  0  0  0
  145.2046  133.9341  150.8191 C   0  0  0  0  0  0  0  0  0  0  0  0
  144.6301  132.7121  150.0807 C   0  0  0  0  0  0  0  0  0  0  0  0
  143.7472  133.1460  148.8869 C   0  0  0  0  0  0  0  0  0  0  0  0
  143.7932  131.8686  151.0599 C   0  0  0  0  0  0  0  0  0  0  0  0
  145.7604  131.8422  149.4817 C   0  0  0  0  0  0  0  0  0  0  0  0
  144.8431  135.1439  150.3725 N   0  0  0  0  0  0  0  0  0  0  0  0
  145.2371  136.2183  151.0871 C   0  0  0  0  0  0  0  0  0  0  0  0
  148.8718  140.9012  153.8308 C   0  0  0  0  0  0  0  0  0  0  0  0
  148.9243  140.8670  155.3766 C   0  0  1  0  0  0  0  0  0  0  0  0
  150.3874  141.0750  155.8204 C   0  0  0  0  0  0  0  0  0  0  0  0
  149.2706  142.6459  159.0815 H   0  0  0  0  0  0  0  0  0  0  0  0
  149.0848  143.8269  157.8058 H   0  0  0  0  0  0  0  0  0  0  0  0
  150.1397  142.4297  157.5686 H   0  0  0  0  0  0  0  0  0  0  0  0
  148.1307  140.9440  157.8821 H   0  0  0  0  0  0  0  0  0  0  0  0
  147.0694  142.3289  157.8368 H   0  0  0  0  0  0  0  0  0  0  0  0
  146.2061  140.7087  155.8137 H   0  0  0  0  0  0  0  0  0  0  0  0
  145.9196  142.4319  155.8521 H   0  0  0  0  0  0  0  0  0  0  0  0
  145.4896  141.5859  153.5936 H   0  0  0  0  0  0  0  0  0  0  0  0
  146.7931  142.7401  153.6026 H   0  0  0  0  0  0  0  0  0  0  0  0
  147.4904  140.9077  152.1951 H   0  0  0  0  0  0  0  0  0  0  0  0
  146.9023  139.0181  154.4155 H   0  0  0  0  0  0  0  0  0  0  0  0
  146.3308  137.2060  153.9829 H   0  0  0  0  0  0  0  0  0  0  0  0
  146.8074  134.5283  153.5864 H   0  0  0  0  0  0  0  0  0  0  0  0
  143.3788  132.2828  148.3313 H   0  0  0  0  0  0  0  0  0  0  0  0
  144.3036  133.7721  148.1882 H   0  0  0  0  0  0  0  0  0  0  0  0
  142.8707  133.7089  149.2096 H   0  0  0  0  0  0  0  0  0  0  0  0
  142.9650  132.4465  151.4714 H   0  0  0  0  0  0  0  0  0  0  0  0
  144.3979  131.5191  151.8975 H   0  0  0  0  0  0  0  0  0  0  0  0
  143.3711  130.9907  150.5696 H   0  0  0  0  0  0  0  0  0  0  0  0
  145.3577  130.9993  148.9190 H   0  0  0  0  0  0  0  0  0  0  0  0
  146.4068  131.4235  150.2539 H   0  0  0  0  0  0  0  0  0  0  0  0
  146.3885  132.4194  148.8020 H   0  0  0  0  0  0  0  0  0  0  0  0
  144.9555  137.1872  150.7010 H   0  0  0  0  0  0  0  0  0  0  0  0
  149.5312  140.1387  153.4133 H   0  0  0  0  0  0  0  0  0  0  0  0
  149.2639  141.8578  153.4820 H   0  0  0  0  0  0  0  0  0  0  0  0
  148.6131  139.8756  155.7101 H   0  0  0  0  0  0  0  0  0  0  0  0
  151.0626  140.4408  155.2449 H   0  0  0  0  0  0  0  0  0  0  0  0
  150.5471  140.8099  156.8649 H   0  0  0  0  0  0  0  0  0  0  0  0
  150.7064  142.1076  155.6745 H   0  0  0  0  0  0  0  0  0  0  0  0
  148.2791  142.7729  155.6340 H   0  0  0  0  0  0  0  0  0  0  0  0
  1  2  1  0  0  0  0
  1 24  1  0  0  0  0
  1 25  1  0  0  0  0
  1 26  1  0  0  0  0
  2  3  1  0  0  0  0
  2 27  1  0  0  0  0
  2 28  1  0  0  0  0
  3 22  1  0  0  0  0
  3  4  1  0  0  0  0
  3 53  1  0  0  0  0
  4  5  1  0  0  0  0
  4 29  1  0  0  0  0
  4 30  1  0  0  0  0
  5  6  1  0  0  0  0
  5 31  1  0  0  0  0
  5 32  1  0  0  0  0
  6  7  1  0  0  0  0
  6 21  1  0  0  0  0
  6 33  1  0  0  0  0
  7  8  1  0  0  0  0
  7 34  1  0  0  0  0
  8  9  2  0  0  0  0
  8 10  1  0  0  0  0
 10 11  1  0  0  0  0
 10 35  1  0  0  0  0
 11 20  1  0  0  0  0
 11 12  2  0  0  0  0
 12 13  1  0  0  0  0
 12 36  1  0  0  0  0
 13 14  2  0  0  0  0
 14 15  1  0  0  0  0
 14 19  1  0  0  0  0
 15 16  1  0  0  0  0
 15 17  1  0  0  0  0
 15 18  1  0  0  0  0
 16 37  1  0  0  0  0
 16 38  1  0  0  0  0
 16 39  1  0  0  0  0
 17 40  1  0  0  0  0
 17 41  1  0  0  0  0
 17 42  1  0  0  0  0
 18 43  1  0  0  0  0
 18 44  1  0  0  0  0
 18 45  1  0  0  0  0
 19 20  2  0  0  0  0
 20 46  1  0  0  0  0
 21 22  1  0  0  0  0
 21 47  1  0  0  0  0
 21 48  1  0  0  0  0
 22 23  1  0  0  0  0
 22 49  1  0  0  0  0
 23 50  1  0  0  0  0
 23 51  1  0  0  0  0
 23 52  1  0  0  0  0
M  CHG  1   3   1
M  END
> <s_m_source_file>
AV-unprocessed.smi

> <i_m_source_file_index>
2710

> <i_lp_mmshare_version>
43012

> <i_f3d_flags>
0

> <s_epik_input>
W0NIM11bQ0gyXU4xW0NIMl1bQ0gyXVtDQEhdKFtDSDJdW0NASF0xW0NIM10pW05IXUMoPU8pW05IXWMyW2NIXW5jKEMoW0NIM10pKFtDSDNdKVtDSDNdKW5bY0hdMg==

> <s_epik_cmdline>
J2VwaWtfcHl0aG9uJywgJy1waCcsICc3LjAnLCAnLXRuJywgJzgnLCAnLW1hJywgJzIwMCcsICctbWV0YWxfYmluZGluZycsICctaW1hZScsICc8aW5maWxlLm1hZT4nLCAnLW9tYWUnLCAnPG91dGZpbGUubWFlPic=

> <r_lp_tautomer_probability>
1

> <r_epik_Ionization_Penalty>
0.00396003

> <r_epik_Ionization_Penalty_Charging>
0.0039379

> <r_epik_Ionization_Penalty_Neutral>
2.21316e-05

> <r_epik_State_Penalty>
0.00281651

> <r_epik_Charging_Adjusted_Penalty>
0.00675441

> <i_epik_Tot_Q>
1

> <i_epik_Tot_abs_Q>
1

> <r_epik_Metal_State_Penalty>
-0

> <b_epik_Metal_Only>
0

> <s_lp_Force_Field>
OPLS_2005

> <r_lp_Energy>
19.072

> <b_lp_Chiralities_Consistent>
1

> <s_lp_Variant>
AV-unprocessed.smi:2710-3

> <Gold.Version>
5.8.1

> <Gold.Id.Protein>
6NUR|6NUR_protein|mol2

> <Gold.PLP.Fitness>
47.1402

> <Gold.PLP.PLP>
-36.5690

> <Gold.PLP.part.hbond>
-3.0000

> <Gold.PLP.part.metal>
0.0000

> <Gold.PLP.part.buried>
3.4004

> <Gold.PLP.part.nonpolar>
-38.9903

> <Gold.PLP.part.repulsive>
2.6641

> <Gold.PLP.ligand.clash>
0.0000

> <Gold.PLP.ligand.torsion>
0.6326

> <Gold.PLP.Chemscore.Hbond>
2.8938

> <Gold.PLP.Chemscore.CHOScore>
1.0000

> <Gold.PLP.Chemscore.Metal>
0.0000

> <Gold.Chemscore.Hbonds>
donor molecule, donor type, donor heavy atom, donor atom, acceptor molecule, acceptor atom, score
      L1  H     3    53       P1  8028  2.00
      P1  H  7954  7966       L1     9  0.76
      L1  C    20    46       P1 10171  0.87

> <Gold.PLP.Chemscore.Internal.Correction>
0.1552

> <Gold.Rescore>
     Score         DG    S(hbond)    S(metal)    S(lipo)     H(rot)  DE(clash)    DE(int)     intcor
     14.73     -19.79       1.82        0.00      98.89       1.31       3.28       1.78       ----

> <Gold.Chemscore.Fitness>
14.7305

> <Gold.Chemscore.DG>
-19.7916

> <Gold.Chemscore.ZeroCoef>
-5.4800

> <Gold.Chemscore.Hbond>
1.8235

> <Gold.Chemscore.Metal>
0.0000

> <Gold.Chemscore.Lipo>
98.8871

> <Gold.Chemscore.Internal_Hbond>
0.0000

> <Gold.Chemscore.DEClash>
3.2795

> <Gold.Chemscore.DEInternal>
1.7816

> <Gold.Chemscore.Rot>
1.3081

> <Gold.Chemscore.Internal.Correction>
   9.000000E+99

> <Gold.Chemscore.Hbonds>
donor molecule, donor type, donor heavy atom, donor atom, acceptor molecule, acceptor atom, score
      L1  H     3    53       P1  8028  0.91
      P1  H  7954  7966       L1     9  0.72

> <Gold.Chemscore.Hbond.Weighted>
-6.0906

> <Gold.Chemscore.Metal.Weighted>
-0.0000

> <Gold.Chemscore.Lipo.Weighted>
-11.5698

> <Gold.Chemscore.Internal_Hbond.Weighted>
0.0000

> <Gold.Chemscore.DEClash.Weighted>
3.2795

> <Gold.Chemscore.DEInternal.Weighted>
1.7816

> <Gold.Chemscore.Rot.Weighted>
3.3488

> <Gold.Chemscore.Internal.Correction.Weighted>
   9.000000E+99

> <Gold.Protein.RotatedTorsions>
[ 6907 6896 6895 6894 ] final   69.94 input  -60.11 | X-H torsion
[ 7974 7965 7964 7962 ] final  141.60 input  175.53 | X-H torsion
[ 8008 7997 7996 7995 ] final -164.25 input   59.86 | X-H torsion
[ 10167 10162 10161 10158 ] final  -55.23 input  -65.29 | X-H torsion
[ 10718 10713 10712 10709 ] final  139.81 input   66.30 | X-H torsion
[ 10763 10752 10751 10750 ] final  -68.07 input  -60.55 | X-H torsion
[ 11005 11000 10999 10996 ] final  -99.81 input  -57.11 | X-H torsion

> <Gold.Protein.ActiveResidues>
 VAL166  LYS551  ARG553  GLY616  TRP617  ASP618  TYR619  PRO620  LYS621  CYS622 
 ASP623  PHE694  ASN695  SER759  ASP760  ASP761  ALA762  ILE779  LEU786  VAL792 
 PHE793  MET794  SER795  GLU796  ALA797  LYS798  CYS799  TRP800  GLU811  SER814 

> <Gold.Protein.RotatedAtoms>
  152.4718  134.4942  159.9704 H   0  0  0  0  0  0  0  0  0  0  0  0  # atno 6907 bound_to 6896
  151.4967  133.3507  159.2870 H   0  0  0  0  0  0  0  0  0  0  0  0  # atno 6908 bound_to 6896
  150.8732  134.8138  159.7232 H   0  0  0  0  0  0  0  0  0  0  0  0  # atno 6909 bound_to 6896
  144.9082  139.5329  143.5721 H   0  0  0  0  0  0  0  0  0  0  0  0  # atno 7974 bound_to 7965
  155.8329  140.0936  157.1781 H   0  0  0  0  0  0  0  0  0  0  0  0  # atno 8008 bound_to 7997
  154.3980  140.1415  156.3697 H   0  0  0  0  0  0  0  0  0  0  0  0  # atno 8009 bound_to 7997
  155.8146  140.3448  155.5480 H   0  0  0  0  0  0  0  0  0  0  0  0  # atno 8010 bound_to 7997
  140.6386  143.2495  151.5050 H   0  0  0  0  0  0  0  0  0  0  0  0  # atno 10167 bound_to 10162
  157.4103  131.1027  151.0461 H   0  0  0  0  0  0  0  0  0  0  0  0  # atno 10718 bound_to 10713
  154.3837  135.6068  153.5805 H   0  0  0  0  0  0  0  0  0  0  0  0  # atno 10763 bound_to 10752
  152.9788  135.5867  154.4379 H   0  0  0  0  0  0  0  0  0  0  0  0  # atno 10764 bound_to 10752
  154.4153  135.2845  155.1989 H   0  0  0  0  0  0  0  0  0  0  0  0  # atno 10765 bound_to 10752
  141.1295  133.8350  157.1020 H   0  0  0  0  0  0  0  0  0  0  0  0  # atno 11005 bound_to 11000
  146.3145  139.7867  142.8994 LP  0  0  0  0  0  0  0  0  0  0  0  0  # atno 17320 bound_to 7965
  145.3500  141.0305  143.3344 LP  0  0  0  0  0  0  0  0  0  0  0  0  # atno 17321 bound_to 7965
  139.5596  144.2190  152.1669 LP  0  0  0  0  0  0  0  0  0  0  0  0  # atno 17342 bound_to 10162
  140.1454  144.5164  150.6719 LP  0  0  0  0  0  0  0  0  0  0  0  0  # atno 17343 bound_to 10162
  157.1428  130.6150  149.5560 LP  0  0  0  0  0  0  0  0  0  0  0  0  # atno 17370 bound_to 10713
  155.9848  130.4875  150.7003 LP  0  0  0  0  0  0  0  0  0  0  0  0  # atno 17371 bound_to 10713
  140.0327  134.9893  157.0812 LP  0  0  0  0  0  0  0  0  0  0  0  0  # atno 17394 bound_to 11000
  140.4259  134.1832  155.7166 LP  0  0  0  0  0  0  0  0  0  0  0  0  # atno 17395 bound_to 11000

$$$$
