#       Name:                AV-unprocessed.smi:1487
#       Creating user name   scv26
#       Creation time:       Fri Mar 27 06:11:30 2020


#       File generated by GOLD software.
#

@<TRIPOS>MOLECULE
AV-unprocessed.smi:1487
    53    55     1
SMALL
NO_CHARGES


@<TRIPOS>ATOM
      1 ****        -3.9821   3.6253   2.0522 C.3            1 S1                 0.0000
      2 ****        -3.4825   2.4475   1.2336 C.ar           1 S1                 0.0000
      3 ****        -3.4673   2.5474  -0.1760 C.ar           1 S1                 0.0000
      4 ****        -3.0101   1.4754  -0.9730 C.ar           1 S1                 0.0000
      5 ****        -2.9038   1.3591  -2.3484 N.2            1 S1                 0.0000
      6 ****        -2.4139   0.1296  -2.4771 C.2            1 S1                 0.0000
      7 ****        -2.1830  -0.5633  -1.3456 N.pl3          1 S1                 0.0000
      8 ****        -1.6517  -1.9101  -1.2415 C.3            1 S1                 0.0000
      9 ****        -0.1135  -1.9530  -1.3345 C.3            1 S1                 0.0000
     10 ****         0.2733  -3.3095  -1.2389 O.3            1 S1                 0.0000
     11 ****         0.5883  -1.1408  -0.2212 C.3            1 S1                 0.0000
     12 ****         2.0712  -1.1904  -0.3026 N.4            1 S1                 1.0000
     13 ****         2.7120  -0.8621   0.9980 C.3            1 S1                 0.0000
     14 ****         4.2353  -1.0647   0.9359 C.3            1 S1                 0.0000
     15 ****         4.8538  -0.2370  -0.1978 C.3            1 S1                 0.0000
     16 ****         4.1566  -0.5692  -1.5251 C.3            1 S1                 0.0000
     17 ****         4.6690   0.2639  -2.5431 O.3            1 S1                 0.0000
     18 ****         2.6336  -0.3705  -1.4098 C.3            1 S1                 0.0000
     19 ****        -2.5684   0.2897  -0.3165 C.ar           1 S1                 0.0000
     20 ****        -2.5799   0.1776   1.0852 C.ar           1 S1                 0.0000
     21 ****        -3.0364   1.2596   1.8667 C.ar           1 S1                 0.0000
     22 ****        -3.0415   1.1305   3.3796 C.3            1 S1                 0.0000
     23 ****        -4.2775   4.4582   1.4136 H              1 S1                 0.0000
     24 ****        -3.2029   3.9819   2.7260 H              1 S1                 0.0000
     25 ****        -4.8492   3.3367   2.6465 H              1 S1                 0.0000
     26 ****        -3.8078   3.4519  -0.6587 H              1 S1                 0.0000
     27 ****        -2.2073  -0.2915  -3.4503 H              1 S1                 0.0000
     28 ****        -1.9904  -2.3453  -0.3003 H              1 S1                 0.0000
     29 ****        -2.0951  -2.5115  -2.0367 H              1 S1                 0.0000
     30 ****         0.1768  -1.5877  -2.3189 H              1 S1                 0.0000
     31 ****         1.1767  -3.3916  -1.5029 H              1 S1                 0.0000
     32 ****         0.2755  -0.0963  -0.2423 H              1 S1                 0.0000
     33 ****         0.2636  -1.5351   0.7430 H              1 S1                 0.0000
     34 ****         2.4790   0.1687   1.2704 H              1 S1                 0.0000
     35 ****         2.3013  -1.4980   1.7833 H              1 S1                 0.0000
     36 ****         4.6877  -0.7875   1.8887 H              1 S1                 0.0000
     37 ****         4.4589  -2.1215   0.7835 H              1 S1                 0.0000
     38 ****         4.7478   0.8256   0.0261 H              1 S1                 0.0000
     39 ****         5.9237  -0.4374  -0.2678 H              1 S1                 0.0000
     40 ****         4.3697  -1.6037  -1.7980 H              1 S1                 0.0000
     41 ****         4.2957   0.0003  -3.3705 H              1 S1                 0.0000
     42 ****         2.1696  -0.6419  -2.3571 H              1 S1                 0.0000
     43 ****         2.4006   0.6812  -1.2343 H              1 S1                 0.0000
     44 ****        -2.2392  -0.7328   1.5556 H              1 S1                 0.0000
     45 ****        -2.6686   0.1566   3.6975 H              1 S1                 0.0000
     46 ****        -4.0532   1.2449   3.7694 H              1 S1                 0.0000
     47 ****        -2.4076   1.8946   3.8301 H              1 S1                 0.0000
     48 ****         2.3114  -2.1521  -0.4952 H              1 S1                 0.0000
     49 ****        -3.1346   2.0245  -3.0583 LP             1 S1                 0.0000
     50 ****        -0.3028  -3.8654  -1.8382 LP             1 S1                 0.0000
     51 ****         0.1705  -3.6216  -0.2944 LP             1 S1                 0.0000
     52 ****         5.6644   0.1753  -2.5803 LP             1 S1                 0.0000
     53 ****         4.4259   1.2150  -2.3528 LP             1 S1                 0.0000
@<TRIPOS>BOND
    1    1    2 1     
    2    1   23 1     
    3    1   24 1     
    4    1   25 1     
    5    2   21 ar    
    6    2    3 ar    
    7    3    4 ar    
    8    3   26 1     
    9    4   19 ar    
   10    4    5 1     
   11    5    6 2     
   12    6    7 1     
   13    6   27 1     
   14    7    8 1     
   15    7   19 1     
   16    8    9 1     
   17    8   28 1     
   18    8   29 1     
   19    9   10 1     
   20    9   11 1     
   21    9   30 1     
   22   10   31 1     
   23   11   12 1     
   24   11   32 1     
   25   11   33 1     
   26   12   18 1     
   27   12   13 1     
   28   12   48 1     
   29   13   14 1     
   30   13   34 1     
   31   13   35 1     
   32   14   15 1     
   33   14   36 1     
   34   14   37 1     
   35   15   16 1     
   36   15   38 1     
   37   15   39 1     
   38   16   17 1     
   39   16   18 1     
   40   16   40 1     
   41   17   41 1     
   42   18   42 1     
   43   18   43 1     
   44   19   20 ar    
   45   20   21 ar    
   46   20   44 1     
   47   21   22 1     
   48   22   45 1     
   49   22   46 1     
   50   22   47 1     
   51    5   49 1     
   52   10   50 1     
   53   10   51 1     
   54   17   52 1     
   55   17   53 1     
@<TRIPOS>SUBSTRUCTURE
      1 S1             1
@<TRIPOS>SET
LONE_PAIRS      STATIC     ATOMS    <user>   **** ""
5 49 50 51 52 53
DONOR_HYDROGENS      STATIC     ATOMS    <user>   **** ""
3 31 48 41
ATOM$BLUE        STATIC     ATOMS    COLORGROUP SYSTEM
5 49 50 51 52 53
ATOM$RED        STATIC     ATOMS    COLORGROUP SYSTEM
3 31 48 41
