AV-unprocessed.smi:2365|AV-procd|sdf|9421|dock6
  -GOLD-   2272013 53D 1   1.00000     0.00000
 Structure written by MMmdl.
 29 30  0  0  0  0  0  0  0  0  1 V2000
  150.3324  144.9950  159.9626 C   0  0  0  0  0  0  0  0  0  0  0  0
  151.4558  144.0023  160.2782 C   0  0  2  0  0  0  0  0  0  0  0  0
  152.7436  144.2494  159.5007 C   0  0  0  0  0  0  0  0  0  0  0  0
  153.4332  142.9046  159.6125 C   0  0  0  0  0  0  0  0  0  0  0  0
  152.2647  141.9045  159.6861 C   0  0  2  0  0  0  0  0  0  0  0  0
  152.0752  141.0712  158.4129 C   0  0  0  0  0  0  0  0  0  0  0  0
  152.8969  140.2022  158.1209 O   0  0  0  0  0  0  0  0  0  0  0  0
  150.9796  141.3589  157.6873 N   0  0  0  0  0  0  0  0  0  0  0  0
  150.5394  140.7614  156.4733 C   0  0  0  0  0  0  0  0  0  0  0  0
  151.3884  140.0105  155.6228 C   0  0  0  0  0  0  0  0  0  0  0  0
  150.9804  139.4594  154.4600 N   0  0  0  0  0  0  0  0  0  0  0  0
  149.6967  139.6417  154.0885 C   0  0  0  0  0  0  0  0  0  0  0  0
  148.7695  140.3832  154.8461 C   0  0  0  0  0  0  0  0  0  0  0  0
  147.1471  140.5711  154.2817 Cl  0  0  0  0  0  0  0  0  0  0  0  0
  149.2010  140.9595  156.0608 C   0  0  0  0  0  0  0  0  0  0  0  0
  148.1047  141.8866  157.0287 Cl  0  0  0  0  0  0  0  0  0  0  0  0
  151.0892  142.6899  159.8790 O   0  0  0  0  0  0  0  0  0  0  0  0
  150.6180  146.0103  160.2388 H   0  0  0  0  0  0  0  0  0  0  0  0
  149.4254  144.7423  160.5123 H   0  0  0  0  0  0  0  0  0  0  0  0
  150.0892  144.9916  158.8997 H   0  0  0  0  0  0  0  0  0  0  0  0
  151.6643  143.9958  161.3496 H   0  0  0  0  0  0  0  0  0  0  0  0
  152.5225  144.4685  158.4550 H   0  0  0  0  0  0  0  0  0  0  0  0
  153.3376  145.0692  159.9054 H   0  0  0  0  0  0  0  0  0  0  0  0
  154.1234  142.7269  158.7865 H   0  0  0  0  0  0  0  0  0  0  0  0
  154.0129  142.8594  160.5352 H   0  0  0  0  0  0  0  0  0  0  0  0
  152.3994  141.2487  160.5481 H   0  0  0  0  0  0  0  0  0  0  0  0
  150.3484  142.0356  158.0921 H   0  0  0  0  0  0  0  0  0  0  0  0
  152.4313  139.8551  155.8519 H   0  0  0  0  0  0  0  0  0  0  0  0
  149.4018  139.1871  153.1542 H   0  0  0  0  0  0  0  0  0  0  0  0
  1  2  1  0  0  0  0
  1 18  1  0  0  0  0
  1 19  1  0  0  0  0
  1 20  1  0  0  0  0
  2 17  1  0  0  0  0
  2  3  1  0  0  0  0
  2 21  1  0  0  0  0
  3  4  1  0  0  0  0
  3 22  1  0  0  0  0
  3 23  1  0  0  0  0
  4  5  1  0  0  0  0
  4 24  1  0  0  0  0
  4 25  1  0  0  0  0
  5  6  1  0  0  0  0
  5 17  1  0  0  0  0
  5 26  1  0  0  0  0
  6  7  2  0  0  0  0
  6  8  1  0  0  0  0
  8  9  1  0  0  0  0
  8 27  1  0  0  0  0
  9 15  1  0  0  0  0
  9 10  2  0  0  0  0
 10 11  1  0  0  0  0
 10 28  1  0  0  0  0
 11 12  2  0  0  0  0
 12 13  1  0  0  0  0
 12 29  1  0  0  0  0
 13 14  1  0  0  0  0
 13 15  2  0  0  0  0
 15 16  1  0  0  0  0
M  END
> <s_m_source_file>
AV-unprocessed.smi

> <i_m_source_file_index>
2365

> <i_lp_mmshare_version>
43012

> <i_f3d_flags>
0

> <s_epik_input>
W0NIM11bQ0BASF0xW0NIMl1bQ0gyXVtDQEhdKE8xKUMoPU8pW05IXWMyW2NIXW5bY0hdYyhDbCljMkNs

> <s_epik_cmdline>
J2VwaWtfcHl0aG9uJywgJy1waCcsICc3LjAnLCAnLXRuJywgJzgnLCAnLW1hJywgJzIwMCcsICctbWV0YWxfYmluZGluZycsICctaW1hZScsICc8aW5maWxlLm1hZT4nLCAnLW9tYWUnLCAnPG91dGZpbGUubWFlPic=

> <r_lp_tautomer_probability>
1

> <r_epik_Ionization_Penalty>
7.32461e-06

> <r_epik_Ionization_Penalty_Charging>
0

> <r_epik_Ionization_Penalty_Neutral>
7.32461e-06

> <r_epik_State_Penalty>
-0

> <r_epik_Charging_Adjusted_Penalty>
0

> <i_epik_Tot_Q>
0

> <i_epik_Tot_abs_Q>
0

> <r_epik_Metal_State_Penalty>
-0

> <b_epik_Metal_Only>
0

> <s_lp_Force_Field>
OPLS_2005

> <r_lp_Energy>
23.8837

> <b_lp_Chiralities_Consistent>
1

> <s_lp_Variant>
AV-unprocessed.smi:2365-3

> <Gold.Version>
5.8.1

> <Gold.Id.Protein>
6NUR|6NUR_protein|mol2

> <Gold.PLP.Fitness>
39.0667

> <Gold.PLP.PLP>
-32.1696

> <Gold.PLP.part.hbond>
-3.0000

> <Gold.PLP.part.metal>
0.0000

> <Gold.PLP.part.buried>
-0.6770

> <Gold.PLP.part.nonpolar>
-27.4157

> <Gold.PLP.part.repulsive>
0.1903

> <Gold.PLP.ligand.clash>
0.0000

> <Gold.PLP.ligand.torsion>
0.2308

> <Gold.PLP.Chemscore.Hbond>
1.4800

> <Gold.PLP.Chemscore.CHOScore>
0.9704

> <Gold.PLP.Chemscore.Metal>
0.0000

> <Gold.Chemscore.Hbonds>
donor molecule, donor type, donor heavy atom, donor atom, acceptor molecule, acceptor atom, score
      P1  H  7989  7998       L1    11  0.45
      P1  H  7997  8010       L1     7  0.96
      L1  C    12    29       P1  7957  0.95

> <Gold.PLP.Chemscore.Internal.Correction>
0.0077

> <Gold.Rescore>
     Score         DG    S(hbond)    S(metal)    S(lipo)     H(rot)  DE(clash)    DE(int)     intcor
     15.43     -17.00       0.94        0.00      93.51       1.00       0.13       1.44       ----

> <Gold.Chemscore.Fitness>
15.4273

> <Gold.Chemscore.DG>
-16.9976

> <Gold.Chemscore.ZeroCoef>
-5.4800

> <Gold.Chemscore.Hbond>
0.9393

> <Gold.Chemscore.Metal>
0.0000

> <Gold.Chemscore.Lipo>
93.5082

> <Gold.Chemscore.Internal_Hbond>
0.0000

> <Gold.Chemscore.DEClash>
0.1274

> <Gold.Chemscore.DEInternal>
1.4429

> <Gold.Chemscore.Rot>
1.0000

> <Gold.Chemscore.Internal.Correction>
   9.000000E+99

> <Gold.Chemscore.Hbonds>
donor molecule, donor type, donor heavy atom, donor atom, acceptor molecule, acceptor atom, score
      P1  H  7997  8010       L1     7  0.87

> <Gold.Chemscore.Hbond.Weighted>
-3.1371

> <Gold.Chemscore.Metal.Weighted>
-0.0000

> <Gold.Chemscore.Lipo.Weighted>
-10.9405

> <Gold.Chemscore.Internal_Hbond.Weighted>
0.0000

> <Gold.Chemscore.DEClash.Weighted>
0.1274

> <Gold.Chemscore.DEInternal.Weighted>
1.4429

> <Gold.Chemscore.Rot.Weighted>
2.5600

> <Gold.Chemscore.Internal.Correction.Weighted>
   9.000000E+99

> <Gold.Protein.RotatedTorsions>
[ 6907 6896 6895 6894 ] final   12.64 input  -60.11 | X-H torsion
[ 7974 7965 7964 7962 ] final -136.03 input  175.53 | X-H torsion
[ 8008 7997 7996 7995 ] final   36.05 input   59.86 | X-H torsion
[ 10167 10162 10161 10158 ] final   92.50 input  -65.29 | X-H torsion
[ 10718 10713 10712 10709 ] final  148.67 input   66.30 | X-H torsion
[ 10763 10752 10751 10750 ] final -163.37 input  -60.55 | X-H torsion
[ 11005 11000 10999 10996 ] final -168.01 input  -57.11 | X-H torsion

> <Gold.Protein.ActiveResidues>
 VAL166  LYS551  ARG553  GLY616  TRP617  ASP618  TYR619  PRO620  LYS621  CYS622 
 ASP623  PHE694  ASN695  SER759  ASP760  ASP761  ALA762  ILE779  LEU786  VAL792 
 PHE793  MET794  SER795  GLU796  ALA797  LYS798  CYS799  TRP800  GLU811  SER814 

> <Gold.Protein.RotatedAtoms>
  151.7736  135.0780  160.0363 H   0  0  0  0  0  0  0  0  0  0  0  0  # atno 6907 bound_to 6896
  152.3272  133.5913  159.5793 H   0  0  0  0  0  0  0  0  0  0  0  0  # atno 6908 bound_to 6896
  150.7402  133.9839  159.3627 H   0  0  0  0  0  0  0  0  0  0  0  0  # atno 6909 bound_to 6896
  144.8963  140.6710  143.5113 H   0  0  0  0  0  0  0  0  0  0  0  0  # atno 7974 bound_to 7965
  155.1810  140.3300  155.4375 H   0  0  0  0  0  0  0  0  0  0  0  0  # atno 8008 bound_to 7997
  156.2476  140.1927  156.6859 H   0  0  0  0  0  0  0  0  0  0  0  0  # atno 8009 bound_to 7997
  154.6271  140.0587  156.9673 H   0  0  0  0  0  0  0  0  0  0  0  0  # atno 8010 bound_to 7997
  139.8270  144.6705  150.9447 H   0  0  0  0  0  0  0  0  0  0  0  0  # atno 10167 bound_to 10162
  157.3057  131.0879  151.1356 H   0  0  0  0  0  0  0  0  0  0  0  0  # atno 10718 bound_to 10713
  154.7128  135.3010  154.9170 H   0  0  0  0  0  0  0  0  0  0  0  0  # atno 10763 bound_to 10752
  154.0066  135.6700  153.4766 H   0  0  0  0  0  0  0  0  0  0  0  0  # atno 10764 bound_to 10752
  153.0769  135.5030  154.8337 H   0  0  0  0  0  0  0  0  0  0  0  0  # atno 10765 bound_to 10752
  140.5468  134.5468  157.5113 H   0  0  0  0  0  0  0  0  0  0  0  0  # atno 11005 bound_to 11000
  145.3695  139.1662  143.4340 LP  0  0  0  0  0  0  0  0  0  0  0  0  # atno 17320 bound_to 7965
  146.3083  140.3765  142.8679 LP  0  0  0  0  0  0  0  0  0  0  0  0  # atno 17321 bound_to 7965
  140.7809  143.4037  151.1107 LP  0  0  0  0  0  0  0  0  0  0  0  0  # atno 17342 bound_to 10162
  139.7693  143.8518  152.3117 LP  0  0  0  0  0  0  0  0  0  0  0  0  # atno 17343 bound_to 10162
  157.2697  130.6698  149.6013 LP  0  0  0  0  0  0  0  0  0  0  0  0  # atno 17370 bound_to 10713
  155.9674  130.4483  150.5613 LP  0  0  0  0  0  0  0  0  0  0  0  0  # atno 17371 bound_to 10713
  139.9476  134.7675  156.0525 LP  0  0  0  0  0  0  0  0  0  0  0  0  # atno 17394 bound_to 11000
  141.1195  133.6617  156.3179 LP  0  0  0  0  0  0  0  0  0  0  0  0  # atno 17395 bound_to 11000

$$$$
