AV-unprocessed.smi:3030|AV-procd|sdf|11539|dock7
  -GOLD-   2272016483D 1   1.00000     0.00000
 Structure written by MMmdl.
 52 53  0  0  0  0  0  0  0  0  1 V2000
  152.5646  144.5659  161.4930 C   0  0  0  0  0  0  0  0  0  0  0  0
  153.4038  143.4362  162.1002 C   0  0  0  0  0  0  0  0  0  0  0  0
  153.6253  142.3572  161.1484 N   0  0  0  0  0  0  0  0  0  0  0  0
  154.5980  141.3877  161.3679 C   0  0  0  0  0  0  0  0  0  0  0  0
  154.8160  140.3387  160.5515 C   0  0  0  0  0  0  0  0  0  0  0  0
  153.9837  140.1781  159.3420 C   0  0  0  0  0  0  0  0  0  0  0  0
  154.1545  139.2309  158.5745 O   0  0  0  0  0  0  0  0  0  0  0  0
  152.9412  141.2126  159.1086 C   0  0  0  0  0  0  0  0  0  0  0  0
  152.1508  141.0476  157.9592 N   0  0  0  0  0  0  0  0  0  0  0  0
  150.9311  141.5432  157.6824 C   0  0  0  0  0  0  0  0  0  0  0  0
  150.2640  142.2736  158.4145 O   0  0  0  0  0  0  0  0  0  0  0  0
  150.5239  141.1496  156.4669 N   0  0  0  0  0  0  0  0  0  0  0  0
  149.2706  141.5338  155.8246 C   0  0  2  0  0  0  0  0  0  0  0  0
  148.0635  141.1640  156.7067 C   0  0  0  0  0  0  0  0  0  0  0  0
  146.7591  141.7547  156.1342 C   0  0  2  0  0  0  0  0  0  0  0  0
  145.5416  141.3559  156.9804 C   0  0  0  0  0  0  0  0  0  0  0  0
  146.5755  141.3617  154.6539 C   0  0  0  0  0  0  0  0  0  0  0  0
  147.8249  141.6927  153.8146 C   0  0  0  0  0  0  0  0  0  0  0  0
  149.1000  141.0062  154.3670 C   0  0  2  0  0  0  0  0  0  0  0  0
  149.0946  139.4478  154.1760 C   0  0  0  0  0  0  0  0  0  0  0  0
  147.9915  138.7199  154.9704 C   0  0  0  0  0  0  0  0  0  0  0  0
  150.4464  138.8054  154.5487 C   0  0  0  0  0  0  0  0  0  0  0  0
  152.8263  142.2165  160.0154 C   0  0  0  0  0  0  0  0  0  0  0  0
  152.4105  145.3657  162.2172 H   0  0  0  0  0  0  0  0  0  0  0  0
  151.5839  144.2044  161.1823 H   0  0  0  0  0  0  0  0  0  0  0  0
  153.0559  144.9963  160.6201 H   0  0  0  0  0  0  0  0  0  0  0  0
  154.3643  143.8290  162.4359 H   0  0  0  0  0  0  0  0  0  0  0  0
  152.9083  143.0417  162.9881 H   0  0  0  0  0  0  0  0  0  0  0  0
  155.1864  141.5412  162.2611 H   0  0  0  0  0  0  0  0  0  0  0  0
  155.5864  139.6111  160.7611 H   0  0  0  0  0  0  0  0  0  0  0  0
  152.5817  140.4918  157.2346 H   0  0  0  0  0  0  0  0  0  0  0  0
  151.1376  140.5516  155.9336 H   0  0  0  0  0  0  0  0  0  0  0  0
  149.2891  142.6250  155.7784 H   0  0  0  0  0  0  0  0  0  0  0  0
  147.9804  140.0811  156.8029 H   0  0  0  0  0  0  0  0  0  0  0  0
  148.2170  141.5467  157.7167 H   0  0  0  0  0  0  0  0  0  0  0  0
  146.8429  142.8418  156.1770 H   0  0  0  0  0  0  0  0  0  0  0  0
  145.3968  140.2750  156.9822 H   0  0  0  0  0  0  0  0  0  0  0  0
  144.6294  141.8137  156.5971 H   0  0  0  0  0  0  0  0  0  0  0  0
  145.6610  141.6774  158.0154 H   0  0  0  0  0  0  0  0  0  0  0  0
  146.3469  140.2987  154.5748 H   0  0  0  0  0  0  0  0  0  0  0  0
  145.7135  141.8862  154.2400 H   0  0  0  0  0  0  0  0  0  0  0  0
  147.6551  141.4503  152.7672 H   0  0  0  0  0  0  0  0  0  0  0  0
  147.9722  142.7736  153.8233 H   0  0  0  0  0  0  0  0  0  0  0  0
  149.9356  141.3888  153.7791 H   0  0  0  0  0  0  0  0  0  0  0  0
  148.9255  139.2202  153.1240 H   0  0  0  0  0  0  0  0  0  0  0  0
  147.9795  139.0325  156.0151 H   0  0  0  0  0  0  0  0  0  0  0  0
  148.1356  137.6392  154.9535 H   0  0  0  0  0  0  0  0  0  0  0  0
  147.0032  138.8908  154.5479 H   0  0  0  0  0  0  0  0  0  0  0  0
  150.7472  139.0740  155.5619 H   0  0  0  0  0  0  0  0  0  0  0  0
  151.2425  139.1010  153.8664 H   0  0  0  0  0  0  0  0  0  0  0  0
  150.3966  137.7173  154.4976 H   0  0  0  0  0  0  0  0  0  0  0  0
  152.0923  143.0020  159.9339 H   0  0  0  0  0  0  0  0  0  0  0  0
  1  2  1  0  0  0  0
  1 24  1  0  0  0  0
  1 25  1  0  0  0  0
  1 26  1  0  0  0  0
  2  3  1  0  0  0  0
  2 27  1  0  0  0  0
  2 28  1  0  0  0  0
  3 23  1  0  0  0  0
  3  4  1  0  0  0  0
  4  5  2  0  0  0  0
  4 29  1  0  0  0  0
  5  6  1  0  0  0  0
  5 30  1  0  0  0  0
  6  7  2  0  0  0  0
  6  8  1  0  0  0  0
  8  9  1  0  0  0  0
  8 23  2  0  0  0  0
  9 10  1  0  0  0  0
  9 31  1  0  0  0  0
 10 11  2  0  0  0  0
 10 12  1  0  0  0  0
 12 13  1  0  0  0  0
 12 32  1  0  0  0  0
 13 19  1  0  0  0  0
 13 14  1  0  0  0  0
 13 33  1  0  0  0  0
 14 15  1  0  0  0  0
 14 34  1  0  0  0  0
 14 35  1  0  0  0  0
 15 16  1  0  0  0  0
 15 17  1  0  0  0  0
 15 36  1  0  0  0  0
 16 37  1  0  0  0  0
 16 38  1  0  0  0  0
 16 39  1  0  0  0  0
 17 18  1  0  0  0  0
 17 40  1  0  0  0  0
 17 41  1  0  0  0  0
 18 19  1  0  0  0  0
 18 42  1  0  0  0  0
 18 43  1  0  0  0  0
 19 20  1  0  0  0  0
 19 44  1  0  0  0  0
 20 21  1  0  0  0  0
 20 22  1  0  0  0  0
 20 45  1  0  0  0  0
 21 46  1  0  0  0  0
 21 47  1  0  0  0  0
 21 48  1  0  0  0  0
 22 49  1  0  0  0  0
 22 50  1  0  0  0  0
 22 51  1  0  0  0  0
 23 52  1  0  0  0  0
M  END
> <s_m_source_file>
AV-unprocessed.smi

> <i_m_source_file_index>
3030

> <i_lp_mmshare_version>
43012

> <i_f3d_flags>
0

> <s_epik_input>
W0NIM11bQ0gyXW4xW2NIXVtjSF1jKD1PKWMoW2NIXTEpW05IXUMoPU8pW05IXVtDQEBIXTJbQ0gyXVtDQEBIXShbQ0gzXSlbQ0gyXVtDSDJdW0NASF0yW0NIXShbQ0gzXSlbQ0gzXQ==

> <s_epik_cmdline>
J2VwaWtfcHl0aG9uJywgJy1waCcsICc3LjAnLCAnLXRuJywgJzgnLCAnLW1hJywgJzIwMCcsICctbWV0YWxfYmluZGluZycsICctaW1hZScsICc8aW5maWxlLm1hZT4nLCAnLW9tYWUnLCAnPG91dGZpbGUubWFlPic=

> <r_lp_tautomer_probability>
1

> <r_epik_Ionization_Penalty>
0.00147933

> <r_epik_Ionization_Penalty_Charging>
0.00145753

> <r_epik_Ionization_Penalty_Neutral>
2.17987e-05

> <r_epik_State_Penalty>
0.00097457

> <r_epik_Charging_Adjusted_Penalty>
0.0024321

> <i_epik_Tot_Q>
0

> <i_epik_Tot_abs_Q>
0

> <r_epik_Metal_State_Penalty>
-0

> <b_epik_Metal_Only>
0

> <s_lp_Force_Field>
OPLS_2005

> <r_lp_Energy>
13.9811

> <b_lp_Chiralities_Consistent>
1

> <s_lp_Variant>
AV-unprocessed.smi:3030-7

> <Gold.Version>
5.8.1

> <Gold.Id.Protein>
6NUR|6NUR_protein|mol2

> <Gold.PLP.Fitness>
46.6860

> <Gold.PLP.PLP>
-44.3504

> <Gold.PLP.part.hbond>
-1.0000

> <Gold.PLP.part.metal>
0.0000

> <Gold.PLP.part.buried>
-4.3258

> <Gold.PLP.part.nonpolar>
-39.0873

> <Gold.PLP.part.repulsive>
0.1949

> <Gold.PLP.ligand.clash>
0.0355

> <Gold.PLP.ligand.torsion>
0.3613

> <Gold.PLP.Chemscore.Hbond>
1.0000

> <Gold.PLP.Chemscore.CHOScore>
0.0000

> <Gold.PLP.Chemscore.Metal>
0.0000

> <Gold.Chemscore.Hbonds>
donor molecule, donor type, donor heavy atom, donor atom, acceptor molecule, acceptor atom, score
      P1  H  7997  8009       L1     7  0.96

> <Gold.PLP.Chemscore.Internal.Correction>
0.0938

> <Gold.Rescore>
     Score         DG    S(hbond)    S(metal)    S(lipo)     H(rot)  DE(clash)    DE(int)     intcor
     11.68     -16.75       0.86        0.00      99.59       1.27       0.55       4.52       ----

> <Gold.Chemscore.Fitness>
11.6850

> <Gold.Chemscore.DG>
-16.7533

> <Gold.Chemscore.ZeroCoef>
-5.4800

> <Gold.Chemscore.Hbond>
0.8588

> <Gold.Chemscore.Metal>
0.0000

> <Gold.Chemscore.Lipo>
99.5912

> <Gold.Chemscore.Internal_Hbond>
0.0000

> <Gold.Chemscore.DEClash>
0.5460

> <Gold.Chemscore.DEInternal>
4.5223

> <Gold.Chemscore.Rot>
1.2685

> <Gold.Chemscore.Internal.Correction>
   9.000000E+99

> <Gold.Chemscore.Hbonds>
donor molecule, donor type, donor heavy atom, donor atom, acceptor molecule, acceptor atom, score
      P1  H  7997  8009       L1     7  0.37

> <Gold.Chemscore.Hbond.Weighted>
-2.8685

> <Gold.Chemscore.Metal.Weighted>
-0.0000

> <Gold.Chemscore.Lipo.Weighted>
-11.6522

> <Gold.Chemscore.Internal_Hbond.Weighted>
0.0000

> <Gold.Chemscore.DEClash.Weighted>
0.5460

> <Gold.Chemscore.DEInternal.Weighted>
4.5223

> <Gold.Chemscore.Rot.Weighted>
3.2474

> <Gold.Chemscore.Internal.Correction.Weighted>
   9.000000E+99

> <Gold.Protein.RotatedTorsions>
[ 6907 6896 6895 6894 ] final  -28.80 input  -60.11 | X-H torsion
[ 7974 7965 7964 7962 ] final -134.18 input  175.53 | X-H torsion
[ 8008 7997 7996 7995 ] final  156.52 input   59.86 | X-H torsion
[ 10167 10162 10161 10158 ] final  -64.16 input  -65.29 | X-H torsion
[ 10718 10713 10712 10709 ] final -172.99 input   66.30 | X-H torsion
[ 10763 10752 10751 10750 ] final  -79.39 input  -60.55 | X-H torsion
[ 11005 11000 10999 10996 ] final    4.10 input  -57.11 | X-H torsion

> <Gold.Protein.ActiveResidues>
 VAL166  LYS551  ARG553  GLY616  TRP617  ASP618  TYR619  PRO620  LYS621  CYS622 
 ASP623  PHE694  ASN695  SER759  ASP760  ASP761  ALA762  ILE779  LEU786  VAL792 
 PHE793  MET794  SER795  GLU796  ALA797  LYS798  CYS799  TRP800  GLU811  SER814 

> <Gold.Protein.RotatedAtoms>
  151.1279  135.0115  159.8568 H   0  0  0  0  0  0  0  0  0  0  0  0  # atno 6907 bound_to 6896
  152.5450  134.1644  159.8581 H   0  0  0  0  0  0  0  0  0  0  0  0  # atno 6908 bound_to 6896
  151.1709  133.4740  159.2627 H   0  0  0  0  0  0  0  0  0  0  0  0  # atno 6909 bound_to 6896
  144.9126  140.6914  143.5015 H   0  0  0  0  0  0  0  0  0  0  0  0  # atno 7974 bound_to 7965
  156.2417  140.1910  156.6968 H   0  0  0  0  0  0  0  0  0  0  0  0  # atno 8008 bound_to 7997
  154.6211  140.0608  156.9642 H   0  0  0  0  0  0  0  0  0  0  0  0  # atno 8009 bound_to 7997
  155.1861  140.3280  155.4369 H   0  0  0  0  0  0  0  0  0  0  0  0  # atno 8010 bound_to 7997
  140.5820  143.2328  151.6322 H   0  0  0  0  0  0  0  0  0  0  0  0  # atno 10167 bound_to 10162
  156.7638  130.9423  151.3118 H   0  0  0  0  0  0  0  0  0  0  0  0  # atno 10718 bound_to 10713
  154.5380  135.5697  153.6815 H   0  0  0  0  0  0  0  0  0  0  0  0  # atno 10763 bound_to 10752
  152.9956  135.6221  154.2539 H   0  0  0  0  0  0  0  0  0  0  0  0  # atno 10764 bound_to 10752
  154.2469  135.2860  155.2811 H   0  0  0  0  0  0  0  0  0  0  0  0  # atno 10765 bound_to 10752
  140.5857  133.9971  155.8066 H   0  0  0  0  0  0  0  0  0  0  0  0  # atno 11005 bound_to 11000
  145.3429  139.1727  143.4476 LP  0  0  0  0  0  0  0  0  0  0  0  0  # atno 17320 bound_to 7965
  146.3166  140.3472  142.8653 LP  0  0  0  0  0  0  0  0  0  0  0  0  # atno 17321 bound_to 7965
  139.5175  144.3312  152.0824 LP  0  0  0  0  0  0  0  0  0  0  0  0  # atno 17342 bound_to 10162
  140.2464  144.4215  150.6239 LP  0  0  0  0  0  0  0  0  0  0  0  0  # atno 17343 bound_to 10162
  157.6722  130.9062  150.0068 LP  0  0  0  0  0  0  0  0  0  0  0  0  # atno 17370 bound_to 10713
  156.1322  130.3643  149.9714 LP  0  0  0  0  0  0  0  0  0  0  0  0  # atno 17371 bound_to 10713
  141.0968  133.9831  157.3147 LP  0  0  0  0  0  0  0  0  0  0  0  0  # atno 17394 bound_to 11000
  139.9297  135.0200  156.8357 LP  0  0  0  0  0  0  0  0  0  0  0  0  # atno 17395 bound_to 11000

$$$$
