AV-unprocessed.smi:1697|AV-procd|sdf|6811|dock8
  -GOLD-   22720 7593D 1   1.00000     0.00000
 Structure written by MMmdl.
 53 55  0  0  0  0  0  0  0  0  1 V2000
  147.4289  136.3749  162.3511 C   0  0  0  0  0  0  0  0  0  0  0  0
  147.3720  136.1155  160.8440 C   0  0  0  0  0  0  0  0  0  0  0  0
  146.9043  137.2892  160.1958 O   0  0  0  0  0  0  0  0  0  0  0  0
  147.2634  137.3871  158.8230 C   0  0  0  0  0  0  0  0  0  0  0  0
  148.7343  137.8121  158.6490 C   0  0  0  0  0  0  0  0  0  0  0  0
  149.0427  138.0903  157.1681 C   0  0  0  0  0  0  0  0  0  0  0  0
  148.1693  139.1112  156.5880 N   0  0  0  0  0  0  0  0  0  0  0  0
  148.5514  139.3864  155.2011 C   0  0  0  0  0  0  0  0  0  0  0  0
  149.6764  140.4233  155.0124 C   0  0  2  0  0  0  0  0  0  0  0  0
  149.5292  140.9966  153.7290 O   0  0  0  0  0  0  0  0  0  0  0  0
  151.0838  139.8055  155.1311 C   0  0  0  0  0  0  0  0  0  0  0  0
  151.5671  139.8051  156.4995 N   0  0  0  0  0  0  0  0  0  0  0  0
  151.9733  138.7453  157.2248 C   0  0  0  0  0  0  0  0  0  0  0  0
  152.3858  138.9815  158.4671 N   0  0  0  0  0  0  0  0  0  0  0  0
  152.2233  140.3535  158.5596 C   0  0  0  0  0  0  0  0  0  0  0  0
  152.4811  141.2389  159.6292 C   0  0  0  0  0  0  0  0  0  0  0  0
  152.2353  142.6246  159.4981 C   0  0  0  0  0  0  0  0  0  0  0  0
  152.5258  143.5402  160.6741 C   0  0  0  0  0  0  0  0  0  0  0  0
  151.7224  143.1439  158.2820 C   0  0  0  0  0  0  0  0  0  0  0  0
  151.4459  144.6281  158.1192 C   0  0  0  0  0  0  0  0  0  0  0  0
  151.4627  142.2740  157.2027 C   0  0  0  0  0  0  0  0  0  0  0  0
  151.7112  140.8978  157.3459 C   0  0  0  0  0  0  0  0  0  0  0  0
  146.7697  138.6920  156.7117 C   0  0  0  0  0  0  0  0  0  0  0  0
  146.3551  138.4410  158.1711 C   0  0  0  0  0  0  0  0  0  0  0  0
  147.7788  135.4911  162.8847 H   0  0  0  0  0  0  0  0  0  0  0  0
  146.4444  136.6336  162.7414 H   0  0  0  0  0  0  0  0  0  0  0  0
  148.1082  137.1961  162.5817 H   0  0  0  0  0  0  0  0  0  0  0  0
  148.3630  135.8413  160.4829 H   0  0  0  0  0  0  0  0  0  0  0  0
  146.7022  135.2791  160.6398 H   0  0  0  0  0  0  0  0  0  0  0  0
  147.0921  136.4313  158.3241 H   0  0  0  0  0  0  0  0  0  0  0  0
  148.9321  138.7087  159.2381 H   0  0  0  0  0  0  0  0  0  0  0  0
  149.4078  137.0397  159.0189 H   0  0  0  0  0  0  0  0  0  0  0  0
  150.0830  138.4059  157.0817 H   0  0  0  0  0  0  0  0  0  0  0  0
  148.9551  137.1631  156.5996 H   0  0  0  0  0  0  0  0  0  0  0  0
  148.8748  138.4564  154.7311 H   0  0  0  0  0  0  0  0  0  0  0  0
  147.6692  139.7082  154.6450 H   0  0  0  0  0  0  0  0  0  0  0  0
  149.5671  141.2359  155.7297 H   0  0  0  0  0  0  0  0  0  0  0  0
  149.4758  140.2980  153.0947 H   0  0  0  0  0  0  0  0  0  0  0  0
  151.0764  138.7729  154.7797 H   0  0  0  0  0  0  0  0  0  0  0  0
  151.7964  140.3426  154.5033 H   0  0  0  0  0  0  0  0  0  0  0  0
  151.9708  137.7452  156.8160 H   0  0  0  0  0  0  0  0  0  0  0  0
  152.8706  140.8428  160.5554 H   0  0  0  0  0  0  0  0  0  0  0  0
  151.6058  144.0028  161.0317 H   0  0  0  0  0  0  0  0  0  0  0  0
  153.2209  144.3286  160.3847 H   0  0  0  0  0  0  0  0  0  0  0  0
  152.9702  142.9925  161.5055 H   0  0  0  0  0  0  0  0  0  0  0  0
  150.9988  144.8448  157.1486 H   0  0  0  0  0  0  0  0  0  0  0  0
  152.3714  145.1989  158.1974 H   0  0  0  0  0  0  0  0  0  0  0  0
  150.7567  144.9764  158.8887 H   0  0  0  0  0  0  0  0  0  0  0  0
  151.0746  142.6550  156.2695 H   0  0  0  0  0  0  0  0  0  0  0  0
  146.1088  139.4564  156.3063 H   0  0  0  0  0  0  0  0  0  0  0  0
  146.5988  137.7896  156.1227 H   0  0  0  0  0  0  0  0  0  0  0  0
  145.3149  138.1170  158.2135 H   0  0  0  0  0  0  0  0  0  0  0  0
  146.4122  139.3762  158.7299 H   0  0  0  0  0  0  0  0  0  0  0  0
  1  2  1  0  0  0  0
  1 25  1  0  0  0  0
  1 26  1  0  0  0  0
  1 27  1  0  0  0  0
  2  3  1  0  0  0  0
  2 28  1  0  0  0  0
  2 29  1  0  0  0  0
  3  4  1  0  0  0  0
  4 24  1  0  0  0  0
  4  5  1  0  0  0  0
  4 30  1  0  0  0  0
  5  6  1  0  0  0  0
  5 31  1  0  0  0  0
  5 32  1  0  0  0  0
  6  7  1  0  0  0  0
  6 33  1  0  0  0  0
  6 34  1  0  0  0  0
  7  8  1  0  0  0  0
  7 23  1  0  0  0  0
  8  9  1  0  0  0  0
  8 35  1  0  0  0  0
  8 36  1  0  0  0  0
  9 10  1  0  0  0  0
  9 11  1  0  0  0  0
  9 37  1  0  0  0  0
 10 38  1  0  0  0  0
 11 12  1  0  0  0  0
 11 39  1  0  0  0  0
 11 40  1  0  0  0  0
 12 22  1  0  0  0  0
 12 13  1  0  0  0  0
 13 14  2  0  0  0  0
 13 41  1  0  0  0  0
 14 15  1  0  0  0  0
 15 22  2  0  0  0  0
 15 16  1  0  0  0  0
 16 17  2  0  0  0  0
 16 42  1  0  0  0  0
 17 18  1  0  0  0  0
 17 19  1  0  0  0  0
 18 43  1  0  0  0  0
 18 44  1  0  0  0  0
 18 45  1  0  0  0  0
 19 20  1  0  0  0  0
 19 21  2  0  0  0  0
 20 46  1  0  0  0  0
 20 47  1  0  0  0  0
 20 48  1  0  0  0  0
 21 22  1  0  0  0  0
 21 49  1  0  0  0  0
 23 24  1  0  0  0  0
 23 50  1  0  0  0  0
 23 51  1  0  0  0  0
 24 52  1  0  0  0  0
 24 53  1  0  0  0  0
M  END
> <s_m_source_file>
AV-unprocessed.smi

> <i_m_source_file_index>
1697

> <i_lp_mmshare_version>
43012

> <i_f3d_flags>
0

> <s_epik_input>
W0NIM11bQ0gyXU9bQ0hdMVtDSDJdW0NIMl1OKFtDSDJdW0NIMl0xKVtDSDJdW0NASF0oW09IXSlbQ0gyXW4oW2NIXW4yKWMoYzIzKVtjSF1jKFtDSDNdKWMoW2NIXTMpW0NIM10=

> <s_epik_cmdline>
J2VwaWtfcHl0aG9uJywgJy1waCcsICc3LjAnLCAnLXRuJywgJzgnLCAnLW1hJywgJzIwMCcsICctbWV0YWxfYmluZGluZycsICctaW1hZScsICc8aW5maWxlLm1hZT4nLCAnLW9tYWUnLCAnPG91dGZpbGUubWFlPic=

> <r_epik_Ionization_Penalty>
1.9836

> <r_epik_Ionization_Penalty_Charging>
0

> <r_epik_Ionization_Penalty_Neutral>
1.9836

> <r_epik_State_Penalty>
2.07269

> <r_epik_Charging_Adjusted_Penalty>
2.07269

> <i_epik_Tot_Q>
0

> <i_epik_Tot_abs_Q>
0

> <r_epik_Metal_State_Penalty>
2.00215

> <b_epik_Metal_Only>
0

> <s_lp_Force_Field>
OPLS_2005

> <r_lp_Energy>
30.2153

> <b_lp_Chiralities_Consistent>
1

> <s_lp_Variant>
AV-unprocessed.smi:1697-9

> <Gold.Version>
5.8.1

> <Gold.Id.Protein>
6NUR|6NUR_protein|mol2

> <Gold.PLP.Fitness>
48.1340

> <Gold.PLP.PLP>
-42.9510

> <Gold.PLP.part.hbond>
-4.0000

> <Gold.PLP.part.metal>
0.0000

> <Gold.PLP.part.buried>
-4.3050

> <Gold.PLP.part.nonpolar>
-33.9025

> <Gold.PLP.part.repulsive>
0.0000

> <Gold.PLP.ligand.clash>
0.0000

> <Gold.PLP.ligand.torsion>
1.2048

> <Gold.PLP.Chemscore.Hbond>
2.4946

> <Gold.PLP.Chemscore.CHOScore>
0.0000

> <Gold.PLP.Chemscore.Metal>
0.0000

> <Gold.Chemscore.Hbonds>
donor molecule, donor type, donor heavy atom, donor atom, acceptor molecule, acceptor atom, score
      L1  H    10    38       P1  7957  0.78
      P1  H  6934  6947       L1     3  1.00
      P1  H  7989  7998       L1    10  0.05
      P1  H  8011  8017       L1    10  0.69

> <Gold.PLP.Chemscore.Internal.Correction>
0.1090

> <Gold.Rescore>
     Score         DG    S(hbond)    S(metal)    S(lipo)     H(rot)  DE(clash)    DE(int)     intcor
     16.00     -17.94       1.48        0.00     112.27       2.19       0.38       1.57       ----

> <Gold.Chemscore.Fitness>
15.9979

> <Gold.Chemscore.DG>
-17.9428

> <Gold.Chemscore.ZeroCoef>
-5.4800

> <Gold.Chemscore.Hbond>
1.4804

> <Gold.Chemscore.Metal>
0.0000

> <Gold.Chemscore.Lipo>
112.2695

> <Gold.Chemscore.Internal_Hbond>
0.0000

> <Gold.Chemscore.DEClash>
0.3786

> <Gold.Chemscore.DEInternal>
1.5662

> <Gold.Chemscore.Rot>
2.1943

> <Gold.Chemscore.Internal.Correction>
   9.000000E+99

> <Gold.Chemscore.Hbonds>
donor molecule, donor type, donor heavy atom, donor atom, acceptor molecule, acceptor atom, score
      L1  H    10    38       P1  7957  0.77
      P1  H  6934  6947       L1     3  0.49
      P1  H  8011  8017       L1    10  0.07

> <Gold.Chemscore.Hbond.Weighted>
-4.9446

> <Gold.Chemscore.Metal.Weighted>
-0.0000

> <Gold.Chemscore.Lipo.Weighted>
-13.1355

> <Gold.Chemscore.Internal_Hbond.Weighted>
0.0000

> <Gold.Chemscore.DEClash.Weighted>
0.3786

> <Gold.Chemscore.DEInternal.Weighted>
1.5662

> <Gold.Chemscore.Rot.Weighted>
5.6174

> <Gold.Chemscore.Internal.Correction.Weighted>
   9.000000E+99

> <Gold.Protein.RotatedTorsions>
[ 6907 6896 6895 6894 ] final    1.31 input  -60.11 | X-H torsion
[ 7974 7965 7964 7962 ] final -152.06 input  175.53 | X-H torsion
[ 8008 7997 7996 7995 ] final  133.16 input   59.86 | X-H torsion
[ 10167 10162 10161 10158 ] final  -77.68 input  -65.29 | X-H torsion
[ 10718 10713 10712 10709 ] final -123.06 input   66.30 | X-H torsion
[ 10763 10752 10751 10750 ] final   20.15 input  -60.55 | X-H torsion
[ 11005 11000 10999 10996 ] final  -82.32 input  -57.11 | X-H torsion

> <Gold.Protein.ActiveResidues>
 VAL166  LYS551  ARG553  GLY616  TRP617  ASP618  TYR619  PRO620  LYS621  CYS622 
 ASP623  PHE694  ASN695  SER759  ASP760  ASP761  ALA762  ILE779  LEU786  VAL792 
 PHE793  MET794  SER795  GLU796  ALA797  LYS798  CYS799  TRP800  GLU811  SER814 

> <Gold.Protein.RotatedAtoms>
  151.5906  135.1053  160.0037 H   0  0  0  0  0  0  0  0  0  0  0  0  # atno 6907 bound_to 6896
  152.4308  133.7271  159.6577 H   0  0  0  0  0  0  0  0  0  0  0  0  # atno 6908 bound_to 6896
  150.8201  133.8197  159.3165 H   0  0  0  0  0  0  0  0  0  0  0  0  # atno 6909 bound_to 6896
  144.7815  140.4713  143.5836 H   0  0  0  0  0  0  0  0  0  0  0  0  # atno 7974 bound_to 7965
  156.2990  140.2528  156.3208 H   0  0  0  0  0  0  0  0  0  0  0  0  # atno 8008 bound_to 7997
  154.9237  140.0400  157.2030 H   0  0  0  0  0  0  0  0  0  0  0  0  # atno 8009 bound_to 7997
  154.8286  140.2872  155.5742 H   0  0  0  0  0  0  0  0  0  0  0  0  # atno 8010 bound_to 7997
  140.4749  143.2417  151.8148 H   0  0  0  0  0  0  0  0  0  0  0  0  # atno 10167 bound_to 10162
  156.1470  130.6507  150.9858 H   0  0  0  0  0  0  0  0  0  0  0  0  # atno 10718 bound_to 10713
  153.1101  135.6694  153.9515 H   0  0  0  0  0  0  0  0  0  0  0  0  # atno 10763 bound_to 10752
  153.9061  135.3030  155.3450 H   0  0  0  0  0  0  0  0  0  0  0  0  # atno 10764 bound_to 10752
  154.7521  135.5029  153.9385 H   0  0  0  0  0  0  0  0  0  0  0  0  # atno 10765 bound_to 10752
  141.1663  133.7239  156.8554 H   0  0  0  0  0  0  0  0  0  0  0  0  # atno 11005 bound_to 11000
  145.6037  139.1506  143.3114 LP  0  0  0  0  0  0  0  0  0  0  0  0  # atno 17320 bound_to 7965
  146.2025  140.6157  142.9096 LP  0  0  0  0  0  0  0  0  0  0  0  0  # atno 17321 bound_to 7965
  139.4824  144.4845  151.9264 LP  0  0  0  0  0  0  0  0  0  0  0  0  # atno 17342 bound_to 10162
  140.3930  144.2590  150.5898 LP  0  0  0  0  0  0  0  0  0  0  0  0  # atno 17343 bound_to 10162
  157.6625  131.0878  150.7805 LP  0  0  0  0  0  0  0  0  0  0  0  0  # atno 17370 bound_to 10713
  156.7875  130.4879  149.5390 LP  0  0  0  0  0  0  0  0  0  0  0  0  # atno 17371 bound_to 10713
  140.1886  134.8982  157.3033 LP  0  0  0  0  0  0  0  0  0  0  0  0  # atno 17394 bound_to 11000
  140.2315  134.3903  155.7519 LP  0  0  0  0  0  0  0  0  0  0  0  0  # atno 17395 bound_to 11000

$$$$
