AV-unprocessed.smi:3156|AV-procd|sdf|12032|dock10
  -GOLD-   2272017453D 1   1.00000     0.00000
 Structure written by MMmdl.
 41 42  0  0  0  0  0  0  0  0  2 V2000
  147.9094  132.9313  152.9759 C   0  0  0  0  0  0  0  0  0  0  0  0
  146.8842  134.0711  153.1150 C   0  0  1  0  0  0  0  0  0  0  0  0
  147.5560  135.2394  153.7266 N   0  3  0  0  0  0  0  0  0  0  0  0
  148.4627  134.9213  154.8497 C   0  0  0  0  0  0  0  0  0  0  0  0
  149.2993  136.1427  155.2582 C   0  0  1  0  0  0  0  0  0  0  0  0
  150.7240  136.1082  154.6662 C   0  0  0  0  0  0  0  0  0  0  0  0
  151.4856  137.3921  155.0151 C   0  0  0  0  0  0  0  0  0  0  0  0
  150.6605  138.6127  154.5947 C   0  0  0  0  0  0  0  0  0  0  0  0
  149.2421  138.5249  155.1795 C   0  0  0  0  0  0  0  0  0  0  0  0
  148.6261  137.3042  154.7789 O   0  0  0  0  0  0  0  0  0  0  0  0
  146.2309  134.4654  151.7618 C   0  0  2  0  0  0  0  0  0  0  0  0
  145.4121  135.7681  151.8427 C   0  0  0  0  0  0  0  0  0  0  0  0
  145.4042  133.3942  151.2204 N   0  0  0  0  0  0  0  0  0  0  0  0
  145.7886  132.1219  150.8492 C   0  0  0  0  0  0  0  0  0  0  0  0
  144.6761  131.4765  150.3909 C   0  0  0  0  0  0  0  0  0  0  0  0
  143.6446  132.4477  150.5188 C   0  0  0  0  0  0  0  0  0  0  0  0
  144.0827  133.5938  151.0136 N   0  0  0  0  0  0  0  0  0  0  0  0
  147.4467  132.0080  152.6268 H   0  0  0  0  0  0  0  0  0  0  0  0
  148.3775  132.7088  153.9354 H   0  0  0  0  0  0  0  0  0  0  0  0
  148.7007  133.1939  152.2730 H   0  0  0  0  0  0  0  0  0  0  0  0
  146.1036  133.7166  153.7910 H   0  0  0  0  0  0  0  0  0  0  0  0
  148.1002  135.6999  153.0112 H   0  0  0  0  0  0  0  0  0  0  0  0
  147.8949  134.5519  155.7042 H   0  0  0  0  0  0  0  0  0  0  0  0
  149.1236  134.1127  154.5346 H   0  0  0  0  0  0  0  0  0  0  0  0
  149.3474  136.1920  156.3477 H   0  0  0  0  0  0  0  0  0  0  0  0
  151.2730  135.2419  155.0363 H   0  0  0  0  0  0  0  0  0  0  0  0
  150.6694  136.0021  153.5818 H   0  0  0  0  0  0  0  0  0  0  0  0
  151.6738  137.4283  156.0890 H   0  0  0  0  0  0  0  0  0  0  0  0
  152.4594  137.4033  154.5245 H   0  0  0  0  0  0  0  0  0  0  0  0
  151.1490  139.5305  154.9233 H   0  0  0  0  0  0  0  0  0  0  0  0
  150.6038  138.6611  153.5066 H   0  0  0  0  0  0  0  0  0  0  0  0
  149.2649  138.5937  156.2683 H   0  0  0  0  0  0  0  0  0  0  0  0
  148.6374  139.3585  154.8218 H   0  0  0  0  0  0  0  0  0  0  0  0
  147.0332  134.6308  151.0408 H   0  0  0  0  0  0  0  0  0  0  0  0
  146.0415  136.6228  152.0905 H   0  0  0  0  0  0  0  0  0  0  0  0
  144.6279  135.7017  152.5975 H   0  0  0  0  0  0  0  0  0  0  0  0
  144.9341  135.9884  150.8875 H   0  0  0  0  0  0  0  0  0  0  0  0
  146.8107  131.7847  150.9405 H   0  0  0  0  0  0  0  0  0  0  0  0
  144.6094  130.4649  150.0183 H   0  0  0  0  0  0  0  0  0  0  0  0
  142.5984  132.3558  150.2672 H   0  0  0  0  0  0  0  0  0  0  0  0
  146.8456  135.8799  154.0509 H   0  0  0  0  0  0  0  0  0  0  0  0
  1  2  1  0  0  0  0
  1 18  1  0  0  0  0
  1 19  1  0  0  0  0
  1 20  1  0  0  0  0
  2  3  1  0  0  0  0
  2 11  1  0  0  0  0
  2 21  1  0  0  0  0
  3  4  1  0  0  0  0
  3 22  1  0  0  0  0
  3 41  1  0  0  0  0
  4  5  1  0  0  0  0
  4 23  1  0  0  0  0
  4 24  1  0  0  0  0
  5 10  1  0  0  0  0
  5  6  1  0  0  0  0
  5 25  1  0  0  0  0
  6  7  1  0  0  0  0
  6 26  1  0  0  0  0
  6 27  1  0  0  0  0
  7  8  1  0  0  0  0
  7 28  1  0  0  0  0
  7 29  1  0  0  0  0
  8  9  1  0  0  0  0
  8 30  1  0  0  0  0
  8 31  1  0  0  0  0
  9 10  1  0  0  0  0
  9 32  1  0  0  0  0
  9 33  1  0  0  0  0
 11 12  1  0  0  0  0
 11 13  1  0  0  0  0
 11 34  1  0  0  0  0
 12 35  1  0  0  0  0
 12 36  1  0  0  0  0
 12 37  1  0  0  0  0
 13 17  1  0  0  0  0
 13 14  1  0  0  0  0
 14 15  2  0  0  0  0
 14 38  1  0  0  0  0
 15 16  1  0  0  0  0
 15 39  1  0  0  0  0
 16 17  2  0  0  0  0
 16 40  1  0  0  0  0
M  CHG  1   3   1
M  END
> <s_m_source_file>
AV-unprocessed.smi

> <i_m_source_file_index>
3156

> <i_lp_mmshare_version>
43012

> <i_f3d_flags>
0

> <s_epik_input>
bjFbY0hdW2NIXVtjSF1uMVtDQEBIXShbQ0gzXSlbQ0BIXShbQ0gzXSlbTkhdW0NIMl1bQ0BASF0yW0NIMl1bQ0gyXVtDSDJdW0NIMl1PMg==

> <s_epik_cmdline>
J2VwaWtfcHl0aG9uJywgJy1waCcsICc3LjAnLCAnLXRuJywgJzgnLCAnLW1hJywgJzIwMCcsICctbWV0YWxfYmluZGluZycsICctaW1hZScsICc8aW5maWxlLm1hZT4nLCAnLW9tYWUnLCAnPG91dGZpbGUubWFlPic=

> <r_lp_tautomer_probability>
1

> <r_epik_Ionization_Penalty>
0.00658015

> <r_epik_Ionization_Penalty_Charging>
0.00656881

> <r_epik_Ionization_Penalty_Neutral>
1.13431e-05

> <r_epik_State_Penalty>
0.0048654

> <r_epik_Charging_Adjusted_Penalty>
0.0114342

> <i_epik_Tot_Q>
1

> <i_epik_Tot_abs_Q>
1

> <r_epik_Metal_State_Penalty>
-0

> <b_epik_Metal_Only>
0

> <s_lp_Force_Field>
OPLS_2005

> <r_lp_Energy>
19.0125

> <b_lp_Chiralities_Consistent>
1

> <s_lp_Variant>
AV-unprocessed.smi:3156-4

> <Gold.Version>
5.8.1

> <Gold.Id.Protein>
6NUR|6NUR_protein|mol2

> <Gold.PLP.Fitness>
39.2249

> <Gold.PLP.PLP>
-28.6540

> <Gold.PLP.part.hbond>
-1.0000

> <Gold.PLP.part.metal>
0.0000

> <Gold.PLP.part.buried>
-2.9015

> <Gold.PLP.part.nonpolar>
-25.4873

> <Gold.PLP.part.repulsive>
0.3930

> <Gold.PLP.ligand.clash>
0.0000

> <Gold.PLP.ligand.torsion>
0.8484

> <Gold.PLP.Chemscore.Hbond>
2.0000

> <Gold.PLP.Chemscore.CHOScore>
2.0609

> <Gold.PLP.Chemscore.Metal>
0.0000

> <Gold.Chemscore.Hbonds>
donor molecule, donor type, donor heavy atom, donor atom, acceptor molecule, acceptor atom, score
      L1  H     3    22       P1  7948  1.92
      L1  C    14    38       P1 10747  1.00
      L1  C    16    40       P1 10186  0.53
      L1  C    16    40       P1 10952  0.42

> <Gold.PLP.Chemscore.Internal.Correction>
0.0850

> <Gold.Rescore>
     Score         DG    S(hbond)    S(metal)    S(lipo)     H(rot)  DE(clash)    DE(int)     intcor
     12.99     -13.93       0.99        0.00      78.89       1.59       0.03       0.92       ----

> <Gold.Chemscore.Fitness>
12.9920

> <Gold.Chemscore.DG>
-13.9346

> <Gold.Chemscore.ZeroCoef>
-5.4800

> <Gold.Chemscore.Hbond>
0.9893

> <Gold.Chemscore.Metal>
0.0000

> <Gold.Chemscore.Lipo>
78.8927

> <Gold.Chemscore.Internal_Hbond>
0.0000

> <Gold.Chemscore.DEClash>
0.0260

> <Gold.Chemscore.DEInternal>
0.9165

> <Gold.Chemscore.Rot>
1.5938

> <Gold.Chemscore.Internal.Correction>
   9.000000E+99

> <Gold.Chemscore.Hbonds>
donor molecule, donor type, donor heavy atom, donor atom, acceptor molecule, acceptor atom, score
      L1  H     3    22       P1  7948  0.91

> <Gold.Chemscore.Hbond.Weighted>
-3.3044

> <Gold.Chemscore.Metal.Weighted>
-0.0000

> <Gold.Chemscore.Lipo.Weighted>
-9.2304

> <Gold.Chemscore.Internal_Hbond.Weighted>
0.0000

> <Gold.Chemscore.DEClash.Weighted>
0.0260

> <Gold.Chemscore.DEInternal.Weighted>
0.9165

> <Gold.Chemscore.Rot.Weighted>
4.0802

> <Gold.Chemscore.Internal.Correction.Weighted>
   9.000000E+99

> <Gold.Protein.RotatedTorsions>
[ 6907 6896 6895 6894 ] final  -56.64 input  -60.11 | X-H torsion
[ 7974 7965 7964 7962 ] final  160.35 input  175.53 | X-H torsion
[ 8008 7997 7996 7995 ] final  -82.81 input   59.86 | X-H torsion
[ 10167 10162 10161 10158 ] final  173.52 input  -65.29 | X-H torsion
[ 10718 10713 10712 10709 ] final   36.31 input   66.30 | X-H torsion
[ 10763 10752 10751 10750 ] final  113.24 input  -60.55 | X-H torsion
[ 11005 11000 10999 10996 ] final  179.12 input  -57.11 | X-H torsion

> <Gold.Protein.ActiveResidues>
 VAL166  LYS551  ARG553  GLY616  TRP617  ASP618  TYR619  PRO620  LYS621  CYS622 
 ASP623  PHE694  ASN695  SER759  ASP760  ASP761  ALA762  ILE779  LEU786  VAL792 
 PHE793  MET794  SER795  GLU796  ALA797  LYS798  CYS799  TRP800  GLU811  SER814 

> <Gold.Protein.RotatedAtoms>
  150.8151  134.7328  159.6722 H   0  0  0  0  0  0  0  0  0  0  0  0  # atno 6907 bound_to 6896
  152.4270  134.5847  159.9967 H   0  0  0  0  0  0  0  0  0  0  0  0  # atno 6908 bound_to 6896
  151.6046  133.3316  159.3090 H   0  0  0  0  0  0  0  0  0  0  0  0  # atno 6909 bound_to 6896
  144.7742  139.7744  143.6285 H   0  0  0  0  0  0  0  0  0  0  0  0  # atno 7974 bound_to 7965
  154.6125  140.0628  156.9512 H   0  0  0  0  0  0  0  0  0  0  0  0  # atno 8008 bound_to 7997
  155.1949  140.3310  155.4334 H   0  0  0  0  0  0  0  0  0  0  0  0  # atno 8009 bound_to 7997
  156.2385  140.1874  156.7037 H   0  0  0  0  0  0  0  0  0  0  0  0  # atno 8010 bound_to 7997
  139.5111  144.3251  152.0165 H   0  0  0  0  0  0  0  0  0  0  0  0  # atno 10167 bound_to 10162
  157.3334  130.7509  149.6862 H   0  0  0  0  0  0  0  0  0  0  0  0  # atno 10718 bound_to 10713
  153.4896  135.3661  155.2485 H   0  0  0  0  0  0  0  0  0  0  0  0  # atno 10763 bound_to 10752
  154.8752  135.3974  154.3604 H   0  0  0  0  0  0  0  0  0  0  0  0  # atno 10764 bound_to 10752
  153.4222  135.7080  153.6352 H   0  0  0  0  0  0  0  0  0  0  0  0  # atno 10765 bound_to 10752
  140.4027  134.6763  157.4571 H   0  0  0  0  0  0  0  0  0  0  0  0  # atno 11005 bound_to 11000
  146.1909  139.5149  142.9805 LP  0  0  0  0  0  0  0  0  0  0  0  0  # atno 17320 bound_to 7965
  145.6236  141.0318  143.1901 LP  0  0  0  0  0  0  0  0  0  0  0  0  # atno 17321 bound_to 7965
  140.2692  144.3983  150.6157 LP  0  0  0  0  0  0  0  0  0  0  0  0  # atno 17342 bound_to 10162
  140.6101  143.2169  151.6903 LP  0  0  0  0  0  0  0  0  0  0  0  0  # atno 17343 bound_to 10162
  155.9698  130.4189  150.4348 LP  0  0  0  0  0  0  0  0  0  0  0  0  # atno 17370 bound_to 10713
  157.2383  131.0520  151.2451 LP  0  0  0  0  0  0  0  0  0  0  0  0  # atno 17371 bound_to 10713
  140.0324  134.6386  155.9088 LP  0  0  0  0  0  0  0  0  0  0  0  0  # atno 17394 bound_to 11000
  141.1851  133.6554  156.5183 LP  0  0  0  0  0  0  0  0  0  0  0  0  # atno 17395 bound_to 11000

$$$$
