AV-unprocessed.smi:627|AV-procd|sdf|3113|dock8
  -GOLD-   22720 0 33D 1   1.00000     0.00000
 Structure written by MMmdl.
 40 42  0  0  0  0  0  0  0  0  1 V2000
  154.2005  131.3408  156.6079 C   0  0  0  0  0  0  0  0  0  0  0  0
  152.5420  131.0913  157.3620 S   0  0  0  0  0  0  0  0  0  0  0  0
  152.4773  129.7095  157.8635 O   0  0  0  0  0  0  0  0  0  0  0  0
  152.2793  132.2101  158.2806 O   0  0  0  0  0  0  0  0  0  0  0  0
  151.4184  131.2408  155.9778 C   0  0  0  0  0  0  0  0  0  0  0  0
  151.3538  130.2294  154.9982 C   0  0  0  0  0  0  0  0  0  0  0  0
  150.4760  130.4124  153.9129 C   0  0  0  0  0  0  0  0  0  0  0  0
  149.7024  131.5973  153.8501 C   0  0  0  0  0  0  0  0  0  0  0  0
  148.7948  131.9008  152.8002 N   0  0  0  0  0  0  0  0  0  0  0  0
  147.8892  132.8924  152.7436 C   0  0  0  0  0  0  0  0  0  0  0  0
  147.6941  133.7267  153.6271 O   0  0  0  0  0  0  0  0  0  0  0  0
  147.2260  132.8753  151.5783 N   0  0  0  0  0  0  0  0  0  0  0  0
  146.1947  133.8251  151.1728 C   0  0  0  0  0  0  0  0  0  0  0  0
  145.2599  134.1576  152.3210 C   0  0  0  0  0  0  0  0  0  0  0  0
  143.8070  133.7452  152.2977 C   0  0  0  0  0  0  0  0  0  0  0  0
  144.1826  135.2046  152.1710 C   0  0  0  0  0  0  0  0  0  0  0  0
  145.4012  133.3420  149.9700 C   0  0  0  0  0  0  0  0  0  0  0  0
  144.9062  131.9182  149.8715 C   0  0  0  0  0  0  0  0  0  0  0  0
  146.0075  132.4010  148.9554 C   0  0  0  0  0  0  0  0  0  0  0  0
  149.8755  132.5544  154.8731 C   0  0  0  0  0  0  0  0  0  0  0  0
  150.7130  132.3902  155.9184 N   0  0  0  0  0  0  0  0  0  0  0  0
  154.9651  131.2658  157.3806 H   0  0  0  0  0  0  0  0  0  0  0  0
  154.2463  132.3273  156.1472 H   0  0  0  0  0  0  0  0  0  0  0  0
  154.3732  130.5778  155.8495 H   0  0  0  0  0  0  0  0  0  0  0  0
  151.9581  129.3373  155.0695 H   0  0  0  0  0  0  0  0  0  0  0  0
  150.4251  129.6531  153.1480 H   0  0  0  0  0  0  0  0  0  0  0  0
  148.8975  131.3447  151.9638 H   0  0  0  0  0  0  0  0  0  0  0  0
  147.4578  132.1517  150.9139 H   0  0  0  0  0  0  0  0  0  0  0  0
  146.6844  134.7588  150.8878 H   0  0  0  0  0  0  0  0  0  0  0  0
  145.7422  134.1176  153.2962 H   0  0  0  0  0  0  0  0  0  0  0  0
  143.4297  133.2492  151.4059 H   0  0  0  0  0  0  0  0  0  0  0  0
  143.3633  133.4184  153.2360 H   0  0  0  0  0  0  0  0  0  0  0  0
  143.9885  135.8508  153.0246 H   0  0  0  0  0  0  0  0  0  0  0  0
  144.0628  135.6716  151.1953 H   0  0  0  0  0  0  0  0  0  0  0  0
  144.7343  134.0995  149.5621 H   0  0  0  0  0  0  0  0  0  0  0  0
  145.1831  131.2256  150.6637 H   0  0  0  0  0  0  0  0  0  0  0  0
  143.9218  131.7591  149.4363 H   0  0  0  0  0  0  0  0  0  0  0  0
  145.7576  132.5620  147.9088 H   0  0  0  0  0  0  0  0  0  0  0  0
  147.0104  132.0225  149.1425 H   0  0  0  0  0  0  0  0  0  0  0  0
  149.3207  133.4812  154.8561 H   0  0  0  0  0  0  0  0  0  0  0  0
  1  2  1  0  0  0  0
  1 22  1  0  0  0  0
  1 23  1  0  0  0  0
  1 24  1  0  0  0  0
  2  3  2  0  0  0  0
  2  4  2  0  0  0  0
  2  5  1  0  0  0  0
  5 21  1  0  0  0  0
  5  6  2  0  0  0  0
  6  7  1  0  0  0  0
  6 25  1  0  0  0  0
  7  8  2  0  0  0  0
  7 26  1  0  0  0  0
  8  9  1  0  0  0  0
  8 20  1  0  0  0  0
  9 10  1  0  0  0  0
  9 27  1  0  0  0  0
 10 11  2  0  0  0  0
 10 12  1  0  0  0  0
 12 13  1  0  0  0  0
 12 28  1  0  0  0  0
 13 14  1  0  0  0  0
 13 17  1  0  0  0  0
 13 29  1  0  0  0  0
 14 16  1  0  0  0  0
 14 15  1  0  0  0  0
 14 30  1  0  0  0  0
 15 16  1  0  0  0  0
 15 31  1  0  0  0  0
 15 32  1  0  0  0  0
 16 33  1  0  0  0  0
 16 34  1  0  0  0  0
 17 19  1  0  0  0  0
 17 18  1  0  0  0  0
 17 35  1  0  0  0  0
 18 19  1  0  0  0  0
 18 36  1  0  0  0  0
 18 37  1  0  0  0  0
 19 38  1  0  0  0  0
 19 39  1  0  0  0  0
 20 21  2  0  0  0  0
 20 40  1  0  0  0  0
M  END
> <s_m_source_file>
AV-unprocessed.smi

> <i_m_source_file_index>
627

> <i_lp_mmshare_version>
43012

> <i_f3d_flags>
0

> <s_epik_input>
W0NIM11TKD1PKSg9TyljMVtjSF1bY0hdYyhbY0hdbjEpW05IXUMoPU8pW05IXVtDSF0oW0NIXTJbQ0gyXVtDSDJdMilbQ0hdM1tDSDJdW0NIMl0z

> <s_epik_cmdline>
J2VwaWtfcHl0aG9uJywgJy1waCcsICc3LjAnLCAnLXRuJywgJzgnLCAnLW1hJywgJzIwMCcsICctbWV0YWxfYmluZGluZycsICctaW1hZScsICc8aW5maWxlLm1hZT4nLCAnLW9tYWUnLCAnPG91dGZpbGUubWFlPic=

> <r_lp_tautomer_probability>
1

> <r_epik_Ionization_Penalty>
4.12334e-05

> <r_epik_Ionization_Penalty_Charging>
0

> <r_epik_Ionization_Penalty_Neutral>
4.12334e-05

> <r_epik_State_Penalty>
-0

> <r_epik_Charging_Adjusted_Penalty>
0

> <i_epik_Tot_Q>
0

> <i_epik_Tot_abs_Q>
0

> <r_epik_Metal_State_Penalty>
-0

> <b_epik_Metal_Only>
0

> <s_lp_Force_Field>
OPLS_2005

> <r_lp_Energy>
25.9195

> <b_lp_Chiralities_Consistent>
1

> <s_lp_Variant>
AV-unprocessed.smi:627-1

> <Gold.Version>
5.8.1

> <Gold.Id.Protein>
6NUR|6NUR_protein|mol2

> <Gold.PLP.Fitness>
41.3546

> <Gold.PLP.PLP>
-36.4005

> <Gold.PLP.part.hbond>
-2.9607

> <Gold.PLP.part.metal>
0.0000

> <Gold.PLP.part.buried>
-5.0962

> <Gold.PLP.part.nonpolar>
-28.0844

> <Gold.PLP.part.repulsive>
1.0755

> <Gold.PLP.ligand.clash>
0.0000

> <Gold.PLP.ligand.torsion>
2.5169

> <Gold.PLP.Chemscore.Hbond>
1.9458

> <Gold.PLP.Chemscore.CHOScore>
0.0000

> <Gold.PLP.Chemscore.Metal>
0.0000

> <Gold.Chemscore.Hbonds>
donor molecule, donor type, donor heavy atom, donor atom, acceptor molecule, acceptor atom, score
      L1  H     9    27       P1 10747  1.00
      L1  H    12    28       P1 10747  0.74
      P1  H  6896  6908       L1     4  1.00

> <Gold.PLP.Chemscore.Internal.Correction>
4.1504

> <Gold.Rescore>
     Score         DG    S(hbond)    S(metal)    S(lipo)     H(rot)  DE(clash)    DE(int)     intcor
     12.36     -17.31       1.86        0.00      78.58       1.40       0.09       4.86       ----

> <Gold.Chemscore.Fitness>
12.3599

> <Gold.Chemscore.DG>
-17.3105

> <Gold.Chemscore.ZeroCoef>
-5.4800

> <Gold.Chemscore.Hbond>
1.8593

> <Gold.Chemscore.Metal>
0.0000

> <Gold.Chemscore.Lipo>
78.5777

> <Gold.Chemscore.Internal_Hbond>
0.0000

> <Gold.Chemscore.DEClash>
0.0865

> <Gold.Chemscore.DEInternal>
4.8640

> <Gold.Chemscore.Rot>
1.3958

> <Gold.Chemscore.Internal.Correction>
   9.000000E+99

> <Gold.Chemscore.Hbonds>
donor molecule, donor type, donor heavy atom, donor atom, acceptor molecule, acceptor atom, score
      L1  H     9    27       P1 10747  0.82
      L1  H    12    28       P1 10747  0.71
      P1  H  6896  6908       L1     4  0.98

> <Gold.Chemscore.Hbond.Weighted>
-6.2102

> <Gold.Chemscore.Metal.Weighted>
-0.0000

> <Gold.Chemscore.Lipo.Weighted>
-9.1936

> <Gold.Chemscore.Internal_Hbond.Weighted>
0.0000

> <Gold.Chemscore.DEClash.Weighted>
0.0865

> <Gold.Chemscore.DEInternal.Weighted>
4.8640

> <Gold.Chemscore.Rot.Weighted>
3.5733

> <Gold.Chemscore.Internal.Correction.Weighted>
   9.000000E+99

> <Gold.Protein.RotatedTorsions>
[ 6907 6896 6895 6894 ] final   35.03 input  -60.11 | X-H torsion
[ 7974 7965 7964 7962 ] final -153.76 input  175.53 | X-H torsion
[ 8008 7997 7996 7995 ] final -108.81 input   59.86 | X-H torsion
[ 10167 10162 10161 10158 ] final  166.93 input  -65.29 | X-H torsion
[ 10718 10713 10712 10709 ] final -145.77 input   66.30 | X-H torsion
[ 10763 10752 10751 10750 ] final  -10.10 input  -60.55 | X-H torsion
[ 11005 11000 10999 10996 ] final  -57.35 input  -57.11 | X-H torsion

> <Gold.Protein.ActiveResidues>
 VAL166  LYS551  ARG553  GLY616  TRP617  ASP618  TYR619  PRO620  LYS621  CYS622 
 ASP623  PHE694  ASN695  SER759  ASP760  ASP761  ALA762  ILE779  LEU786  VAL792 
 PHE793  MET794  SER795  GLU796  ALA797  LYS798  CYS799  TRP800  GLU811  SER814 

> <Gold.Protein.RotatedAtoms>
  152.1105  134.9278  160.0566 H   0  0  0  0  0  0  0  0  0  0  0  0  # atno 6907 bound_to 6896
  152.0457  133.3992  159.4364 H   0  0  0  0  0  0  0  0  0  0  0  0  # atno 6908 bound_to 6896
  150.6843  134.3285  159.4860 H   0  0  0  0  0  0  0  0  0  0  0  0  # atno 6909 bound_to 6896
  144.7724  140.4481  143.5898 H   0  0  0  0  0  0  0  0  0  0  0  0  # atno 7974 bound_to 7965
  154.9498  140.0401  157.2138 H   0  0  0  0  0  0  0  0  0  0  0  0  # atno 8008 bound_to 7997
  154.7989  140.2848  155.5914 H   0  0  0  0  0  0  0  0  0  0  0  0  # atno 8009 bound_to 7997
  156.2959  140.2559  156.2853 H   0  0  0  0  0  0  0  0  0  0  0  0  # atno 8010 bound_to 7997
  139.4934  144.3976  151.9447 H   0  0  0  0  0  0  0  0  0  0  0  0  # atno 10167 bound_to 10162
  156.3866  130.7864  151.2062 H   0  0  0  0  0  0  0  0  0  0  0  0  # atno 10718 bound_to 10713
  153.4644  135.7016  153.6031 H   0  0  0  0  0  0  0  0  0  0  0  0  # atno 10763 bound_to 10752
  153.4312  135.3802  155.2171 H   0  0  0  0  0  0  0  0  0  0  0  0  # atno 10764 bound_to 10752
  154.8726  135.3951  154.4073 H   0  0  0  0  0  0  0  0  0  0  0  0  # atno 10765 bound_to 10752
  141.1160  133.6610  156.4756 H   0  0  0  0  0  0  0  0  0  0  0  0  # atno 11005 bound_to 11000
  145.6285  139.1533  143.2982 LP  0  0  0  0  0  0  0  0  0  0  0  0  # atno 17320 bound_to 7965
  146.1880  140.6391  142.9159 LP  0  0  0  0  0  0  0  0  0  0  0  0  # atno 17321 bound_to 7965
  140.3414  144.3198  150.5966 LP  0  0  0  0  0  0  0  0  0  0  0  0  # atno 17342 bound_to 10162
  140.5562  143.2198  151.7843 LP  0  0  0  0  0  0  0  0  0  0  0  0  # atno 17343 bound_to 10162
  157.7496  131.0328  150.4243 LP  0  0  0  0  0  0  0  0  0  0  0  0  # atno 17370 bound_to 10713
  156.4497  130.4009  149.6644 LP  0  0  0  0  0  0  0  0  0  0  0  0  # atno 17371 bound_to 10713
  140.4643  134.6812  157.5100 LP  0  0  0  0  0  0  0  0  0  0  0  0  # atno 17394 bound_to 11000
  140.0083  134.6729  155.9420 LP  0  0  0  0  0  0  0  0  0  0  0  0  # atno 17395 bound_to 11000

$$$$
