AV-unprocessed.smi:3311|AV-procd|sdf|12720|dock4
  -GOLD-   2272019 63D 1   1.00000     0.00000
 Structure written by MMmdl.
 44 45  0  0  0  0  0  0  0  0  2 V2000
  146.6846  138.9471  151.3650 C   0  0  0  0  0  0  0  0  0  0  0  0
  146.2129  138.1777  152.6122 C   0  0  1  0  0  0  0  0  0  0  0  0
  146.3512  136.7267  152.3583 N   0  3  0  0  0  0  0  0  0  0  0  0
  145.5677  136.2159  151.2124 C   0  0  0  0  0  0  0  0  0  0  0  0
  145.2299  134.7156  151.3544 C   0  0  0  0  0  0  0  0  0  0  0  0
  144.4705  134.5693  152.5418 O   0  0  0  0  0  0  0  0  0  0  0  0
  144.3491  134.2617  150.1662 C   0  0  0  0  0  0  0  0  0  0  0  0
  144.0485  132.7520  150.1816 C   0  0  0  0  0  0  0  0  0  0  0  0
  145.3412  131.9267  150.2413 C   0  0  0  0  0  0  0  0  0  0  0  0
  146.1963  132.3313  151.4503 C   0  0  0  0  0  0  0  0  0  0  0  0
  146.5044  133.8397  151.4439 C   0  0  0  0  0  0  0  0  0  0  0  0
  146.9782  138.5699  153.9030 C   0  0  2  0  0  0  0  0  0  0  0  0
  146.5211  137.7672  155.1355 C   0  0  0  0  0  0  0  0  0  0  0  0
  146.8814  139.9981  154.1778 N   0  0  0  0  0  0  0  0  0  0  0  0
  147.3222  141.0588  153.4109 C   0  0  0  0  0  0  0  0  0  0  0  0
  147.0200  142.2055  154.0875 C   0  0  0  0  0  0  0  0  0  0  0  0
  146.3905  141.7409  155.2754 C   0  0  0  0  0  0  0  0  0  0  0  0
  146.3118  140.4210  155.3277 N   0  0  0  0  0  0  0  0  0  0  0  0
  146.5045  140.0185  151.4558 H   0  0  0  0  0  0  0  0  0  0  0  0
  146.1545  138.6097  150.4738 H   0  0  0  0  0  0  0  0  0  0  0  0
  147.7514  138.8028  151.1913 H   0  0  0  0  0  0  0  0  0  0  0  0
  145.1576  138.4181  152.7539 H   0  0  0  0  0  0  0  0  0  0  0  0
  147.3257  136.5207  152.1928 H   0  0  0  0  0  0  0  0  0  0  0  0
  144.6481  136.7969  151.1251 H   0  0  0  0  0  0  0  0  0  0  0  0
  146.1363  136.3865  150.2971 H   0  0  0  0  0  0  0  0  0  0  0  0
  144.9502  134.0129  153.1373 H   0  0  0  0  0  0  0  0  0  0  0  0
  143.4124  134.8209  150.1530 H   0  0  0  0  0  0  0  0  0  0  0  0
  144.8558  134.5037  149.2308 H   0  0  0  0  0  0  0  0  0  0  0  0
  143.4167  132.5070  151.0362 H   0  0  0  0  0  0  0  0  0  0  0  0
  143.4778  132.4800  149.2932 H   0  0  0  0  0  0  0  0  0  0  0  0
  145.1020  130.8640  150.2939 H   0  0  0  0  0  0  0  0  0  0  0  0
  145.9117  132.0708  149.3229 H   0  0  0  0  0  0  0  0  0  0  0  0
  145.6776  132.0637  152.3715 H   0  0  0  0  0  0  0  0  0  0  0  0
  147.1278  131.7644  151.4488 H   0  0  0  0  0  0  0  0  0  0  0  0
  147.1502  134.0591  150.5925 H   0  0  0  0  0  0  0  0  0  0  0  0
  147.0824  134.0904  152.3342 H   0  0  0  0  0  0  0  0  0  0  0  0
  148.0344  138.3429  153.7445 H   0  0  0  0  0  0  0  0  0  0  0  0
  146.7035  136.7001  155.0081 H   0  0  0  0  0  0  0  0  0  0  0  0
  145.4561  137.8998  155.3290 H   0  0  0  0  0  0  0  0  0  0  0  0
  147.0627  138.0811  156.0287 H   0  0  0  0  0  0  0  0  0  0  0  0
  147.8094  140.9120  152.4580 H   0  0  0  0  0  0  0  0  0  0  0  0
  147.2190  143.2218  153.7810 H   0  0  0  0  0  0  0  0  0  0  0  0
  145.9921  142.3189  156.0963 H   0  0  0  0  0  0  0  0  0  0  0  0
  146.0575  136.2289  153.1871 H   0  0  0  0  0  0  0  0  0  0  0  0
  1  2  1  0  0  0  0
  1 19  1  0  0  0  0
  1 20  1  0  0  0  0
  1 21  1  0  0  0  0
  2  3  1  0  0  0  0
  2 12  1  0  0  0  0
  2 22  1  0  0  0  0
  3  4  1  0  0  0  0
  3 23  1  0  0  0  0
  3 44  1  0  0  0  0
  4  5  1  0  0  0  0
  4 24  1  0  0  0  0
  4 25  1  0  0  0  0
  5 11  1  0  0  0  0
  5  6  1  0  0  0  0
  5  7  1  0  0  0  0
  6 26  1  0  0  0  0
  7  8  1  0  0  0  0
  7 27  1  0  0  0  0
  7 28  1  0  0  0  0
  8  9  1  0  0  0  0
  8 29  1  0  0  0  0
  8 30  1  0  0  0  0
  9 10  1  0  0  0  0
  9 31  1  0  0  0  0
  9 32  1  0  0  0  0
 10 11  1  0  0  0  0
 10 33  1  0  0  0  0
 10 34  1  0  0  0  0
 11 35  1  0  0  0  0
 11 36  1  0  0  0  0
 12 13  1  0  0  0  0
 12 14  1  0  0  0  0
 12 37  1  0  0  0  0
 13 38  1  0  0  0  0
 13 39  1  0  0  0  0
 13 40  1  0  0  0  0
 14 18  1  0  0  0  0
 14 15  1  0  0  0  0
 15 16  2  0  0  0  0
 15 41  1  0  0  0  0
 16 17  1  0  0  0  0
 16 42  1  0  0  0  0
 17 18  2  0  0  0  0
 17 43  1  0  0  0  0
M  CHG  1   3   1
M  END
> <s_m_source_file>
AV-unprocessed.smi

> <i_m_source_file_index>
3311

> <i_lp_mmshare_version>
43012

> <i_f3d_flags>
0

> <s_epik_input>
bjFbY0hdW2NIXVtjSF1uMVtDQEBIXShbQ0gzXSlbQ0BIXShbQ0gzXSlbTkhdW0NIMl1DMihbT0hdKVtDSDJdW0NIMl1bQ0gyXVtDSDJdW0NIMl0y

> <s_epik_cmdline>
J2VwaWtfcHl0aG9uJywgJy1waCcsICc3LjAnLCAnLXRuJywgJzgnLCAnLW1hJywgJzIwMCcsICctbWV0YWxfYmluZGluZycsICctaW1hZScsICc8aW5maWxlLm1hZT4nLCAnLW9tYWUnLCAnPG91dGZpbGUubWFlPic=

> <r_lp_tautomer_probability>
1

> <r_epik_Ionization_Penalty>
0.0141403

> <r_epik_Ionization_Penalty_Charging>
0.0141276

> <r_epik_Ionization_Penalty_Neutral>
1.27139e-05

> <r_epik_State_Penalty>
0.0110334

> <r_epik_Charging_Adjusted_Penalty>
0.025161

> <i_epik_Tot_Q>
1

> <i_epik_Tot_abs_Q>
1

> <r_epik_Metal_State_Penalty>
0.0110573

> <b_epik_Metal_Only>
0

> <s_lp_Force_Field>
OPLS_2005

> <r_lp_Energy>
23.6471

> <b_lp_Chiralities_Consistent>
1

> <s_lp_Variant>
AV-unprocessed.smi:3311-2

> <Gold.Version>
5.8.1

> <Gold.Id.Protein>
6NUR|6NUR_protein|mol2

> <Gold.PLP.Fitness>
44.1815

> <Gold.PLP.PLP>
-35.5403

> <Gold.PLP.part.hbond>
-1.0000

> <Gold.PLP.part.metal>
0.0000

> <Gold.PLP.part.buried>
-2.6484

> <Gold.PLP.part.nonpolar>
-32.2973

> <Gold.PLP.part.repulsive>
0.0968

> <Gold.PLP.ligand.clash>
0.0000

> <Gold.PLP.ligand.torsion>
0.2127

> <Gold.PLP.Chemscore.Hbond>
2.0000

> <Gold.PLP.Chemscore.CHOScore>
1.0000

> <Gold.PLP.Chemscore.Metal>
0.0000

> <Gold.Chemscore.Hbonds>
donor molecule, donor type, donor heavy atom, donor atom, acceptor molecule, acceptor atom, score
      L1  H     3    23       P1  7948  2.00
      L1  C    15    41       P1  7957  1.00

> <Gold.PLP.Chemscore.Internal.Correction>
0.0667

> <Gold.Rescore>
     Score         DG    S(hbond)    S(metal)    S(lipo)     H(rot)  DE(clash)    DE(int)     intcor
     13.95     -14.33       1.00        0.00      94.01       2.14       0.10       0.28       ----

> <Gold.Chemscore.Fitness>
13.9514

> <Gold.Chemscore.DG>
-14.3283

> <Gold.Chemscore.ZeroCoef>
-5.4800

> <Gold.Chemscore.Hbond>
0.9983

> <Gold.Chemscore.Metal>
0.0000

> <Gold.Chemscore.Lipo>
94.0056

> <Gold.Chemscore.Internal_Hbond>
0.0000

> <Gold.Chemscore.DEClash>
0.0988

> <Gold.Chemscore.DEInternal>
0.2781

> <Gold.Chemscore.Rot>
2.1424

> <Gold.Chemscore.Internal.Correction>
   9.000000E+99

> <Gold.Chemscore.Hbonds>
donor molecule, donor type, donor heavy atom, donor atom, acceptor molecule, acceptor atom, score
      L1  H     3    23       P1  7948  1.00

> <Gold.Chemscore.Hbond.Weighted>
-3.3342

> <Gold.Chemscore.Metal.Weighted>
-0.0000

> <Gold.Chemscore.Lipo.Weighted>
-10.9987

> <Gold.Chemscore.Internal_Hbond.Weighted>
0.0000

> <Gold.Chemscore.DEClash.Weighted>
0.0988

> <Gold.Chemscore.DEInternal.Weighted>
0.2781

> <Gold.Chemscore.Rot.Weighted>
5.4846

> <Gold.Chemscore.Internal.Correction.Weighted>
   9.000000E+99

> <Gold.Protein.RotatedTorsions>
[ 6907 6896 6895 6894 ] final  119.25 input  -60.11 | X-H torsion
[ 7974 7965 7964 7962 ] final -119.94 input  175.53 | X-H torsion
[ 8008 7997 7996 7995 ] final   48.17 input   59.86 | X-H torsion
[ 10167 10162 10161 10158 ] final -113.02 input  -65.29 | X-H torsion
[ 10718 10713 10712 10709 ] final  -29.77 input   66.30 | X-H torsion
[ 10763 10752 10751 10750 ] final    5.13 input  -60.55 | X-H torsion
[ 11005 11000 10999 10996 ] final -105.16 input  -57.11 | X-H torsion

> <Gold.Protein.ActiveResidues>
 VAL166  LYS551  ARG553  GLY616  TRP617  ASP618  TYR619  PRO620  LYS621  CYS622 
 ASP623  PHE694  ASN695  SER759  ASP760  ASP761  ALA762  ILE779  LEU786  VAL792 
 PHE793  MET794  SER795  GLU796  ALA797  LYS798  CYS799  TRP800  GLU811  SER814 

> <Gold.Protein.RotatedAtoms>
  152.4485  133.7583  159.6732 H   0  0  0  0  0  0  0  0  0  0  0  0  # atno 6907 bound_to 6896
  150.8391  133.7955  159.3074 H   0  0  0  0  0  0  0  0  0  0  0  0  # atno 6908 bound_to 6896
  151.5585  135.1068  160.0019 H   0  0  0  0  0  0  0  0  0  0  0  0  # atno 6909 bound_to 6896
  145.0569  140.8261  143.4176 H   0  0  0  0  0  0  0  0  0  0  0  0  # atno 7974 bound_to 7965
  155.3811  140.3428  155.4247 H   0  0  0  0  0  0  0  0  0  0  0  0  # atno 8008 bound_to 7997
  156.1610  140.1600  156.8646 H   0  0  0  0  0  0  0  0  0  0  0  0  # atno 8009 bound_to 7997
  154.5139  140.0783  156.8026 H   0  0  0  0  0  0  0  0  0  0  0  0  # atno 8010 bound_to 7997
  140.1164  143.4482  152.1719 H   0  0  0  0  0  0  0  0  0  0  0  0  # atno 10167 bound_to 10162
  156.4083  130.4403  149.7271 H   0  0  0  0  0  0  0  0  0  0  0  0  # atno 10718 bound_to 10713
  153.2630  135.6925  153.7559 H   0  0  0  0  0  0  0  0  0  0  0  0  # atno 10763 bound_to 10752
  153.6611  135.3360  155.3128 H   0  0  0  0  0  0  0  0  0  0  0  0  # atno 10764 bound_to 10752
  154.8437  135.4477  154.1627 H   0  0  0  0  0  0  0  0  0  0  0  0  # atno 10765 bound_to 10752
  141.1067  133.8784  157.1700 H   0  0  0  0  0  0  0  0  0  0  0  0  # atno 11005 bound_to 11000
  145.1457  139.2545  143.5467 LP  0  0  0  0  0  0  0  0  0  0  0  0  # atno 17320 bound_to 7965
  146.3522  140.1147  142.8602 LP  0  0  0  0  0  0  0  0  0  0  0  0  # atno 17321 bound_to 7965
  139.5592  144.7394  151.4205 LP  0  0  0  0  0  0  0  0  0  0  0  0  # atno 17342 bound_to 10162
  140.6897  143.7891  150.7237 LP  0  0  0  0  0  0  0  0  0  0  0  0  # atno 17343 bound_to 10162
  156.4260  130.7792  151.2810 LP  0  0  0  0  0  0  0  0  0  0  0  0  # atno 17370 bound_to 10713
  157.7506  131.0168  150.3560 LP  0  0  0  0  0  0  0  0  0  0  0  0  # atno 17371 bound_to 10713
  139.9940  135.0054  157.0040 LP  0  0  0  0  0  0  0  0  0  0  0  0  # atno 17394 bound_to 11000
  140.4884  134.1218  155.7228 LP  0  0  0  0  0  0  0  0  0  0  0  0  # atno 17395 bound_to 11000

$$$$
