#       Name:                AV-unprocessed.smi:1793
#       Creating user name   scv26
#       Creation time:       Fri Mar 27 08:46:48 2020


#       File generated by GOLD software.
#

@<TRIPOS>MOLECULE
AV-unprocessed.smi:1793
    52    54     1
SMALL
NO_CHARGES


@<TRIPOS>ATOM
      1 ****        -3.0627  -1.0165  -1.2250 C.3            1 S1                 0.0000
      2 ****        -2.7934  -0.0671  -0.0431 C.3            1 S1                 0.0000
      3 ****        -1.3584   0.1764   0.0783 N.am           1 S1                 0.0000
      4 ****        -0.6528   1.0495  -0.6538 C.2            1 S1                 0.0000
      5 ****        -1.1431   1.7498  -1.5396 O.2            1 S1                 0.0000
      6 ****         0.6436   1.0370  -0.3030 N.am           1 S1                 0.0000
      7 ****         1.7238   1.7380  -0.9094 C.ar           1 S1                 0.0000
      8 ****         1.5522   3.0342  -1.4537 C.ar           1 S1                 0.0000
      9 ****         2.6636   3.7131  -1.9824 C.ar           1 S1                 0.0000
     10 ****         3.9152   3.0778  -1.9328 C.ar           1 S1                 0.0000
     11 ****         4.0982   1.8512  -1.4050 N.ar           1 S1                 0.0000
     12 ****         3.0334   1.1768  -0.9047 C.ar           1 S1                 0.0000
     13 ****         3.2845  -0.1118  -0.3793 N.3            1 S1                 0.0000
     14 ****         4.6502  -0.5492  -0.1109 C.3            1 S1                 0.0000
     15 ****         4.5517  -2.0613   0.0690 C.3            1 S1                 0.0000
     16 ****         3.4659  -2.4367  -0.9350 C.3            1 S1                 0.0000
     17 ****         2.5154  -1.2348  -0.9078 C.3            1 S1                 0.0000
     18 ****        -3.3217  -0.6326   1.2896 C.3            1 S1                 0.0000
     19 ****        -4.8340  -0.8536   1.3361 C.3            1 S1                 0.0000
     20 ****        -5.0984  -0.8410   2.8242 C.3            1 S1                 0.0000
     21 ****        -4.1301   0.2337   3.3113 C.3            1 S1                 0.0000
     22 ****        -3.0732   0.2817   2.3554 O.3            1 S1                 0.0000
     23 ****        -4.1305  -1.1828  -1.3660 H              1 S1                 0.0000
     24 ****        -2.5923  -1.9877  -1.0682 H              1 S1                 0.0000
     25 ****        -2.6765  -0.6075  -2.1591 H              1 S1                 0.0000
     26 ****        -3.2963   0.8828  -0.2348 H              1 S1                 0.0000
     27 ****        -0.8700  -0.3530   0.7856 H              1 S1                 0.0000
     28 ****         0.9091   0.3505   0.3879 H              1 S1                 0.0000
     29 ****         0.5923   3.5276  -1.4537 H              1 S1                 0.0000
     30 ****         2.5606   4.7023  -2.4034 H              1 S1                 0.0000
     31 ****         4.7948   3.5693  -2.3216 H              1 S1                 0.0000
     32 ****         5.3007  -0.3271  -0.9578 H              1 S1                 0.0000
     33 ****         5.0581  -0.0603   0.7742 H              1 S1                 0.0000
     34 ****         5.4974  -2.5736  -0.1096 H              1 S1                 0.0000
     35 ****         4.2215  -2.2972   1.0817 H              1 S1                 0.0000
     36 ****         3.9057  -2.5342  -1.9287 H              1 S1                 0.0000
     37 ****         2.9675  -3.3761  -0.6944 H              1 S1                 0.0000
     38 ****         1.6820  -1.4380  -0.2350 H              1 S1                 0.0000
     39 ****         2.1081  -1.0258  -1.8982 H              1 S1                 0.0000
     40 ****        -2.8162  -1.5698   1.5300 H              1 S1                 0.0000
     41 ****        -5.3598  -0.0268   0.8557 H              1 S1                 0.0000
     42 ****        -5.1454  -1.7831   0.8586 H              1 S1                 0.0000
     43 ****        -6.1373  -0.6250   3.0751 H              1 S1                 0.0000
     44 ****        -4.8354  -1.8072   3.2570 H              1 S1                 0.0000
     45 ****        -4.6185   1.2085   3.3357 H              1 S1                 0.0000
     46 ****        -3.7506   0.0208   4.3109 H              1 S1                 0.0000
     47 ****        -2.1194   1.6843  -1.7458 LP             1 S1                 0.0000
     48 ****        -0.5650   2.3841  -2.0530 LP             1 S1                 0.0000
     49 ****         5.0105   1.4423  -1.3826 LP             1 S1                 0.0000
     50 ****         2.9088   0.1437   0.5115 LP             1 S1                 0.0000
     51 ****        -3.0061   1.2082   1.9852 LP             1 S1                 0.0000
     52 ****        -2.2129   0.0387   2.8035 LP             1 S1                 0.0000
@<TRIPOS>BOND
    1    1    2 1     
    2    1   23 1     
    3    1   24 1     
    4    1   25 1     
    5    2    3 1     
    6    2   18 1     
    7    2   26 1     
    8    3    4 am    
    9    3   27 1     
   10    4    5 2     
   11    4    6 am    
   12    6    7 1     
   13    6   28 1     
   14    7   12 ar    
   15    7    8 ar    
   16    8    9 ar    
   17    8   29 1     
   18    9   10 ar    
   19    9   30 1     
   20   10   11 ar    
   21   10   31 1     
   22   11   12 ar    
   23   12   13 1     
   24   13   17 1     
   25   13   14 1     
   26   14   15 1     
   27   14   32 1     
   28   14   33 1     
   29   15   16 1     
   30   15   34 1     
   31   15   35 1     
   32   16   17 1     
   33   16   36 1     
   34   16   37 1     
   35   17   38 1     
   36   17   39 1     
   37   18   22 1     
   38   18   19 1     
   39   18   40 1     
   40   19   20 1     
   41   19   41 1     
   42   19   42 1     
   43   20   21 1     
   44   20   43 1     
   45   20   44 1     
   46   21   22 1     
   47   21   45 1     
   48   21   46 1     
   49    5   47 1     
   50    5   48 1     
   51   11   49 1     
   52   13   50 1     
   53   22   51 1     
   54   22   52 1     
@<TRIPOS>SUBSTRUCTURE
      1 S1             1
@<TRIPOS>SET
LONE_PAIRS      STATIC     ATOMS    <user>   **** ""
6 47 48 49 50 51 52
DONOR_HYDROGENS      STATIC     ATOMS    <user>   **** ""
2 27 28
ATOM$BLUE        STATIC     ATOMS    COLORGROUP SYSTEM
6 47 48 49 50 51 52
ATOM$RED        STATIC     ATOMS    COLORGROUP SYSTEM
2 27 28
