AV-unprocessed.smi:1750|AV-procd|sdf|7053|dock3
  -GOLD-   22720 8263D 1   1.00000     0.00000
 Structure written by MMmdl.
 36 37  0  0  0  0  0  0  0  0  1 V2000
  152.2557  142.8993  158.7781 C   0  0  0  0  0  0  0  0  0  0  0  0
  151.6305  141.7536  157.9748 C   0  0  0  0  0  0  0  0  0  0  0  0
  151.0057  142.2323  156.6568 C   0  0  0  0  0  0  0  0  0  0  0  0
  150.6168  141.1032  155.7614 C   0  0  0  0  0  0  0  0  0  0  0  0
  151.5041  140.2237  155.2798 N   0  0  0  0  0  0  0  0  0  0  0  0
  150.9125  139.2772  154.4552 N   0  0  0  0  0  0  0  0  0  0  0  0
  149.5943  139.4805  154.3257 C   0  0  0  0  0  0  0  0  0  0  0  0
  148.7428  138.6597  153.5394 N   0  0  0  0  0  0  0  0  0  0  0  0
  147.4083  138.7409  153.3959 C   0  0  0  0  0  0  0  0  0  0  0  0
  146.6797  139.5653  153.9494 O   0  0  0  0  0  0  0  0  0  0  0  0
  146.9512  137.8007  152.5586 N   0  0  0  0  0  0  0  0  0  0  0  0
  145.5516  137.6439  152.1878 C   0  0  0  0  0  0  0  0  0  0  0  0
  145.1670  136.1594  152.1340 C   0  0  1  0  0  0  0  0  0  0  0  0
  145.2485  135.5545  150.7340 C   0  0  0  0  0  0  0  0  0  0  0  0
  145.4292  134.0871  151.0478 C   0  0  0  0  0  0  0  0  0  0  0  0
  146.3415  134.1389  152.2702 C   0  0  0  0  0  0  0  0  0  0  0  0
  146.0620  135.3764  152.9209 O   0  0  0  0  0  0  0  0  0  0  0  0
  148.9645  140.8630  155.2052 S   0  0  0  0  0  0  0  0  0  0  0  0
  152.6965  142.5288  159.7038 H   0  0  0  0  0  0  0  0  0  0  0  0
  151.5087  143.6483  159.0422 H   0  0  0  0  0  0  0  0  0  0  0  0
  153.0429  143.3958  158.2101 H   0  0  0  0  0  0  0  0  0  0  0  0
  152.3930  141.0023  157.7663 H   0  0  0  0  0  0  0  0  0  0  0  0
  150.8705  141.2621  158.5836 H   0  0  0  0  0  0  0  0  0  0  0  0
  150.1220  142.8387  156.8595 H   0  0  0  0  0  0  0  0  0  0  0  0
  151.7067  142.8735  156.1213 H   0  0  0  0  0  0  0  0  0  0  0  0
  149.2055  137.9310  153.0162 H   0  0  0  0  0  0  0  0  0  0  0  0
  147.6107  137.1616  152.1392 H   0  0  0  0  0  0  0  0  0  0  0  0
  144.9285  138.1597  152.9202 H   0  0  0  0  0  0  0  0  0  0  0  0
  145.3731  138.1171  151.2210 H   0  0  0  0  0  0  0  0  0  0  0  0
  144.1585  136.0142  152.5254 H   0  0  0  0  0  0  0  0  0  0  0  0
  144.3639  135.7582  150.1300 H   0  0  0  0  0  0  0  0  0  0  0  0
  146.1221  135.9316  150.2001 H   0  0  0  0  0  0  0  0  0  0  0  0
  144.4697  133.6406  151.3126 H   0  0  0  0  0  0  0  0  0  0  0  0
  145.8556  133.5186  150.2209 H   0  0  0  0  0  0  0  0  0  0  0  0
  146.1840  133.2929  152.9394 H   0  0  0  0  0  0  0  0  0  0  0  0
  147.3884  134.1385  151.9652 H   0  0  0  0  0  0  0  0  0  0  0  0
  1  2  1  0  0  0  0
  1 19  1  0  0  0  0
  1 20  1  0  0  0  0
  1 21  1  0  0  0  0
  2  3  1  0  0  0  0
  2 22  1  0  0  0  0
  2 23  1  0  0  0  0
  3  4  1  0  0  0  0
  3 24  1  0  0  0  0
  3 25  1  0  0  0  0
  4 18  1  0  0  0  0
  4  5  2  0  0  0  0
  5  6  1  0  0  0  0
  6  7  2  0  0  0  0
  7  8  1  0  0  0  0
  7 18  1  0  0  0  0
  8  9  1  0  0  0  0
  8 26  1  0  0  0  0
  9 10  2  0  0  0  0
  9 11  1  0  0  0  0
 11 12  1  0  0  0  0
 11 27  1  0  0  0  0
 12 13  1  0  0  0  0
 12 28  1  0  0  0  0
 12 29  1  0  0  0  0
 13 17  1  0  0  0  0
 13 14  1  0  0  0  0
 13 30  1  0  0  0  0
 14 15  1  0  0  0  0
 14 31  1  0  0  0  0
 14 32  1  0  0  0  0
 15 16  1  0  0  0  0
 15 33  1  0  0  0  0
 15 34  1  0  0  0  0
 16 17  1  0  0  0  0
 16 35  1  0  0  0  0
 16 36  1  0  0  0  0
M  END
> <s_m_source_file>
AV-unprocessed.smi

> <i_m_source_file_index>
1750

> <i_lp_mmshare_version>
43012

> <i_f3d_flags>
0

> <s_epik_input>
W0NIM11bQ0gyXVtDSDJdYzFubmMoczEpW05IXUMoPU8pW05IXVtDSDJdW0NAQEhdMltDSDJdW0NIMl1bQ0gyXU8y

> <s_epik_cmdline>
J2VwaWtfcHl0aG9uJywgJy1waCcsICc3LjAnLCAnLXRuJywgJzgnLCAnLW1hJywgJzIwMCcsICctbWV0YWxfYmluZGluZycsICctaW1hZScsICc8aW5maWxlLm1hZT4nLCAnLW9tYWUnLCAnPG91dGZpbGUubWFlPic=

> <r_lp_tautomer_probability>
1

> <r_epik_Ionization_Penalty>
0.000503051

> <r_epik_Ionization_Penalty_Charging>
0

> <r_epik_Ionization_Penalty_Neutral>
0.000503051

> <r_epik_State_Penalty>
-0

> <r_epik_Charging_Adjusted_Penalty>
0

> <i_epik_Tot_Q>
0

> <i_epik_Tot_abs_Q>
0

> <r_epik_Metal_State_Penalty>
0.219912

> <b_epik_Metal_Only>
0

> <s_lp_Force_Field>
OPLS_2005

> <r_lp_Energy>
11.8885

> <b_lp_Chiralities_Consistent>
1

> <s_lp_Variant>
AV-unprocessed.smi:1750-2

> <Gold.Version>
5.8.1

> <Gold.Id.Protein>
6NUR|6NUR_protein|mol2

> <Gold.PLP.Fitness>
37.0798

> <Gold.PLP.PLP>
-32.6975

> <Gold.PLP.part.hbond>
-5.0000

> <Gold.PLP.part.metal>
0.0000

> <Gold.PLP.part.buried>
-3.8537

> <Gold.PLP.part.nonpolar>
-25.2639

> <Gold.PLP.part.repulsive>
0.5239

> <Gold.PLP.ligand.clash>
0.0000

> <Gold.PLP.ligand.torsion>
0.6714

> <Gold.PLP.Chemscore.Hbond>
1.9048

> <Gold.PLP.Chemscore.CHOScore>
0.0000

> <Gold.PLP.Chemscore.Metal>
0.0000

> <Gold.Chemscore.Hbonds>
donor molecule, donor type, donor heavy atom, donor atom, acceptor molecule, acceptor atom, score
      L1  H     8    26       P1  7948  0.92
      L1  H    11    27       P1  7948  1.00

> <Gold.PLP.Chemscore.Internal.Correction>
0.0107

> <Gold.Rescore>
     Score         DG    S(hbond)    S(metal)    S(lipo)     H(rot)  DE(clash)    DE(int)     intcor
     13.39     -15.44       1.90        0.00      66.53       1.63       0.12       1.92       ----

> <Gold.Chemscore.Fitness>
13.3906

> <Gold.Chemscore.DG>
-15.4362

> <Gold.Chemscore.ZeroCoef>
-5.4800

> <Gold.Chemscore.Hbond>
1.9007

> <Gold.Chemscore.Metal>
0.0000

> <Gold.Chemscore.Lipo>
66.5255

> <Gold.Chemscore.Internal_Hbond>
0.0000

> <Gold.Chemscore.DEClash>
0.1214

> <Gold.Chemscore.DEInternal>
1.9242

> <Gold.Chemscore.Rot>
1.6311

> <Gold.Chemscore.Internal.Correction>
   9.000000E+99

> <Gold.Chemscore.Hbonds>
donor molecule, donor type, donor heavy atom, donor atom, acceptor molecule, acceptor atom, score
      L1  H     8    26       P1  7948  0.83
      L1  H    11    27       P1  7948  0.99

> <Gold.Chemscore.Hbond.Weighted>
-6.3484

> <Gold.Chemscore.Metal.Weighted>
-0.0000

> <Gold.Chemscore.Lipo.Weighted>
-7.7835

> <Gold.Chemscore.Internal_Hbond.Weighted>
0.0000

> <Gold.Chemscore.DEClash.Weighted>
0.1214

> <Gold.Chemscore.DEInternal.Weighted>
1.9242

> <Gold.Chemscore.Rot.Weighted>
4.1757

> <Gold.Chemscore.Internal.Correction.Weighted>
   9.000000E+99

> <Gold.Protein.RotatedTorsions>
[ 6907 6896 6895 6894 ] final   -5.86 input  -60.11 | X-H torsion
[ 7974 7965 7964 7962 ] final  -30.00 input  175.53 | X-H torsion
[ 8008 7997 7996 7995 ] final   -4.78 input   59.86 | X-H torsion
[ 10167 10162 10161 10158 ] final    8.60 input  -65.29 | X-H torsion
[ 10718 10713 10712 10709 ] final -147.17 input   66.30 | X-H torsion
[ 10763 10752 10751 10750 ] final   -0.15 input  -60.55 | X-H torsion
[ 11005 11000 10999 10996 ] final   17.11 input  -57.11 | X-H torsion

> <Gold.Protein.ActiveResidues>
 VAL166  LYS551  ARG553  GLY616  TRP617  ASP618  TYR619  PRO620  LYS621  CYS622 
 ASP623  PHE694  ASN695  SER759  ASP760  ASP761  ALA762  ILE779  LEU786  VAL792 
 PHE793  MET794  SER795  GLU796  ALA797  LYS798  CYS799  TRP800  GLU811  SER814 

> <Gold.Protein.RotatedAtoms>
  151.4748  135.1048  159.9761 H   0  0  0  0  0  0  0  0  0  0  0  0  # atno 6907 bound_to 6896
  152.4802  133.8232  159.7075 H   0  0  0  0  0  0  0  0  0  0  0  0  # atno 6908 bound_to 6896
  150.8869  133.7235  159.2942 H   0  0  0  0  0  0  0  0  0  0  0  0  # atno 6909 bound_to 6896
  146.1175  140.5485  142.8750 H   0  0  0  0  0  0  0  0  0  0  0  0  # atno 7974 bound_to 7965
  154.6108  140.2475  155.7672 H   0  0  0  0  0  0  0  0  0  0  0  0  # atno 8008 bound_to 7997
  156.2369  140.2947  156.0287 H   0  0  0  0  0  0  0  0  0  0  0  0  # atno 8009 bound_to 7997
  155.2056  140.0395  157.2915 H   0  0  0  0  0  0  0  0  0  0  0  0  # atno 8010 bound_to 7997
  140.6305  143.8005  150.7289 H   0  0  0  0  0  0  0  0  0  0  0  0  # atno 10167 bound_to 10162
  156.4041  130.7948  151.2161 H   0  0  0  0  0  0  0  0  0  0  0  0  # atno 10718 bound_to 10713
  153.3282  135.6973  153.6971 H   0  0  0  0  0  0  0  0  0  0  0  0  # atno 10763 bound_to 10752
  153.5784  135.3502  155.2866 H   0  0  0  0  0  0  0  0  0  0  0  0  # atno 10764 bound_to 10752
  154.8612  135.4289  154.2464 H   0  0  0  0  0  0  0  0  0  0  0  0  # atno 10765 bound_to 10752
  140.4396  134.1335  155.7689 H   0  0  0  0  0  0  0  0  0  0  0  0  # atno 11005 bound_to 11000
  144.7566  140.5323  143.6764 LP  0  0  0  0  0  0  0  0  0  0  0  0  # atno 17320 bound_to 7965
  145.5536  139.1477  143.3380 LP  0  0  0  0  0  0  0  0  0  0  0  0  # atno 17321 bound_to 7965
  140.1615  143.4271  152.2063 LP  0  0  0  0  0  0  0  0  0  0  0  0  # atno 17342 bound_to 10162
  139.5519  144.7344  151.4408 LP  0  0  0  0  0  0  0  0  0  0  0  0  # atno 17343 bound_to 10162
  157.7505  131.0278  150.4020 LP  0  0  0  0  0  0  0  0  0  0  0  0  # atno 17370 bound_to 10713
  156.4305  130.3971  149.6763 LP  0  0  0  0  0  0  0  0  0  0  0  0  # atno 17371 bound_to 10713
  141.1711  133.8607  157.1568 LP  0  0  0  0  0  0  0  0  0  0  0  0  # atno 17394 bound_to 11000
  140.0078  135.0001  157.0331 LP  0  0  0  0  0  0  0  0  0  0  0  0  # atno 17395 bound_to 11000

$$$$
