AV-unprocessed.smi:2441|AV-procd|sdf|9619|dock3
  -GOLD-   2272013253D 1   1.00000     0.00000
 Structure written by MMmdl.
 40 41  0  0  0  0  0  0  0  0  1 V2000
  143.4810  136.5695  152.6447 C   0  0  0  0  0  0  0  0  0  0  0  0
  144.1878  135.3412  152.0445 C   0  0  2  0  0  0  0  0  0  0  0  0
  143.2250  134.1371  151.9950 C   0  0  0  0  0  0  0  0  0  0  0  0
  143.8944  132.8894  151.3997 C   0  0  0  0  0  0  0  0  0  0  0  0
  145.1671  132.5246  152.1751 C   0  0  0  0  0  0  0  0  0  0  0  0
  146.1436  133.7086  152.2130 C   0  0  0  0  0  0  0  0  0  0  0  0
  145.4871  134.9715  152.8044 C   0  0  1  0  0  0  0  0  0  0  0  0
  146.4505  136.0706  152.7497 N   0  0  0  0  0  0  0  0  0  0  0  0
  146.4081  137.1945  153.4800 C   0  0  0  0  0  0  0  0  0  0  0  0
  145.5209  137.4413  154.2964 O   0  0  0  0  0  0  0  0  0  0  0  0
  147.4643  137.9815  153.2034 N   0  0  0  0  0  0  0  0  0  0  0  0
  147.7902  139.2495  153.7157 C   0  0  0  0  0  0  0  0  0  0  0  0
  147.0511  140.3705  153.5215 C   0  0  0  0  0  0  0  0  0  0  0  0
  147.4662  141.6370  154.0739 C   0  0  0  0  0  0  0  0  0  0  0  0
  148.6076  141.6813  154.7744 C   0  0  0  0  0  0  0  0  0  0  0  0
  149.3962  140.5380  154.9789 N   0  0  0  0  0  0  0  0  0  0  0  0
  150.6161  140.7392  155.7658 C   0  0  0  0  0  0  0  0  0  0  0  0
  149.0495  139.3105  154.4846 C   0  0  0  0  0  0  0  0  0  0  0  0
  149.7534  138.3162  154.6764 O   0  0  0  0  0  0  0  0  0  0  0  0
  143.2181  136.4009  153.6893 H   0  0  0  0  0  0  0  0  0  0  0  0
  142.5620  136.7958  152.1036 H   0  0  0  0  0  0  0  0  0  0  0  0
  144.1092  137.4592  152.5996 H   0  0  0  0  0  0  0  0  0  0  0  0
  144.4561  135.5888  151.0161 H   0  0  0  0  0  0  0  0  0  0  0  0
  142.8680  133.9110  153.0007 H   0  0  0  0  0  0  0  0  0  0  0  0
  142.3427  134.3896  151.4060 H   0  0  0  0  0  0  0  0  0  0  0  0
  143.1974  132.0512  151.4138 H   0  0  0  0  0  0  0  0  0  0  0  0
  144.1414  133.0699  150.3527 H   0  0  0  0  0  0  0  0  0  0  0  0
  144.9071  132.2308  153.1928 H   0  0  0  0  0  0  0  0  0  0  0  0
  145.6478  131.6606  151.7158 H   0  0  0  0  0  0  0  0  0  0  0  0
  147.0237  133.4372  152.7975 H   0  0  0  0  0  0  0  0  0  0  0  0
  146.4971  133.9148  151.2015 H   0  0  0  0  0  0  0  0  0  0  0  0
  145.2224  134.7532  153.8410 H   0  0  0  0  0  0  0  0  0  0  0  0
  147.2198  135.9594  152.1057 H   0  0  0  0  0  0  0  0  0  0  0  0
  148.1465  137.6032  152.5621 H   0  0  0  0  0  0  0  0  0  0  0  0
  146.1447  140.3619  152.9382 H   0  0  0  0  0  0  0  0  0  0  0  0
  146.8713  142.5265  153.9266 H   0  0  0  0  0  0  0  0  0  0  0  0
  148.9912  142.5867  155.2230 H   0  0  0  0  0  0  0  0  0  0  0  0
  151.2592  139.8611  155.8309 H   0  0  0  0  0  0  0  0  0  0  0  0
  150.3563  141.0304  156.7842 H   0  0  0  0  0  0  0  0  0  0  0  0
  151.2141  141.5410  155.3309 H   0  0  0  0  0  0  0  0  0  0  0  0
  1  2  1  0  0  0  0
  1 20  1  0  0  0  0
  1 21  1  0  0  0  0
  1 22  1  0  0  0  0
  2  7  1  0  0  0  0
  2  3  1  0  0  0  0
  2 23  1  0  0  0  0
  3  4  1  0  0  0  0
  3 24  1  0  0  0  0
  3 25  1  0  0  0  0
  4  5  1  0  0  0  0
  4 26  1  0  0  0  0
  4 27  1  0  0  0  0
  5  6  1  0  0  0  0
  5 28  1  0  0  0  0
  5 29  1  0  0  0  0
  6  7  1  0  0  0  0
  6 30  1  0  0  0  0
  6 31  1  0  0  0  0
  7  8  1  0  0  0  0
  7 32  1  0  0  0  0
  8  9  1  0  0  0  0
  8 33  1  0  0  0  0
  9 10  2  0  0  0  0
  9 11  1  0  0  0  0
 11 12  1  0  0  0  0
 11 34  1  0  0  0  0
 12 18  1  0  0  0  0
 12 13  2  0  0  0  0
 13 14  1  0  0  0  0
 13 35  1  0  0  0  0
 14 15  2  0  0  0  0
 14 36  1  0  0  0  0
 15 16  1  0  0  0  0
 15 37  1  0  0  0  0
 16 17  1  0  0  0  0
 16 18  1  0  0  0  0
 17 38  1  0  0  0  0
 17 39  1  0  0  0  0
 17 40  1  0  0  0  0
 18 19  2  0  0  0  0
M  END
> <s_m_source_file>
AV-unprocessed.smi

> <i_m_source_file_index>
2441

> <i_lp_mmshare_version>
43012

> <i_f3d_flags>
0

> <s_epik_input>
W0NIM11bQ0BASF0xW0NIMl1bQ0gyXVtDSDJdW0NIMl1bQ0BIXTFbTkhdQyg9TylbTkhdYzJbY0hdW2NIXVtjSF1uKFtDSDNdKWMyPU8=

> <s_epik_cmdline>
J2VwaWtfcHl0aG9uJywgJy1waCcsICc3LjAnLCAnLXRuJywgJzgnLCAnLW1hJywgJzIwMCcsICctbWV0YWxfYmluZGluZycsICctaW1hZScsICc8aW5maWxlLm1hZT4nLCAnLW9tYWUnLCAnPG91dGZpbGUubWFlPic=

> <r_lp_tautomer_probability>
1

> <r_epik_Ionization_Penalty>
2.64999e-05

> <r_epik_Ionization_Penalty_Charging>
5.09663e-06

> <r_epik_Ionization_Penalty_Neutral>
2.14032e-05

> <r_epik_State_Penalty>
-0

> <r_epik_Charging_Adjusted_Penalty>
5.09663e-06

> <i_epik_Tot_Q>
0

> <i_epik_Tot_abs_Q>
0

> <r_epik_Metal_State_Penalty>
-0

> <b_epik_Metal_Only>
0

> <s_lp_Force_Field>
OPLS_2005

> <r_lp_Energy>
23.8871

> <b_lp_Chiralities_Consistent>
1

> <s_lp_Variant>
AV-unprocessed.smi:2441-1

> <Gold.Version>
5.8.1

> <Gold.Id.Protein>
6NUR|6NUR_protein|mol2

> <Gold.PLP.Fitness>
39.8037

> <Gold.PLP.PLP>
-32.9011

> <Gold.PLP.part.hbond>
-2.0000

> <Gold.PLP.part.metal>
0.0000

> <Gold.PLP.part.buried>
-2.4207

> <Gold.PLP.part.nonpolar>
-28.7607

> <Gold.PLP.part.repulsive>
0.3367

> <Gold.PLP.ligand.clash>
0.0000

> <Gold.PLP.ligand.torsion>
0.8587

> <Gold.PLP.Chemscore.Hbond>
1.8720

> <Gold.PLP.Chemscore.CHOScore>
1.0000

> <Gold.PLP.Chemscore.Metal>
0.0000

> <Gold.Chemscore.Hbonds>
donor molecule, donor type, donor heavy atom, donor atom, acceptor molecule, acceptor atom, score
      L1  H     8    33       P1  7948  0.93
      L1  H    11    34       P1  7948  1.00
      L1  C    15    37       P1  8028  1.00

> <Gold.PLP.Chemscore.Internal.Correction>
0.0040

> <Gold.Rescore>
     Score         DG    S(hbond)    S(metal)    S(lipo)     H(rot)  DE(clash)    DE(int)     intcor
     14.94     -16.95       1.88        0.00      66.31       1.00       0.00       2.01       ----

> <Gold.Chemscore.Fitness>
14.9375

> <Gold.Chemscore.DG>
-16.9500

> <Gold.Chemscore.ZeroCoef>
-5.4800

> <Gold.Chemscore.Hbond>
1.8778

> <Gold.Chemscore.Metal>
0.0000

> <Gold.Chemscore.Lipo>
66.3097

> <Gold.Chemscore.Internal_Hbond>
0.0000

> <Gold.Chemscore.DEClash>
0.0048

> <Gold.Chemscore.DEInternal>
2.0078

> <Gold.Chemscore.Rot>
1.0000

> <Gold.Chemscore.Internal.Correction>
   9.000000E+99

> <Gold.Chemscore.Hbonds>
donor molecule, donor type, donor heavy atom, donor atom, acceptor molecule, acceptor atom, score
      L1  H     8    33       P1  7948  0.90
      L1  H    11    34       P1  7948  0.95

> <Gold.Chemscore.Hbond.Weighted>
-6.2718

> <Gold.Chemscore.Metal.Weighted>
-0.0000

> <Gold.Chemscore.Lipo.Weighted>
-7.7582

> <Gold.Chemscore.Internal_Hbond.Weighted>
0.0000

> <Gold.Chemscore.DEClash.Weighted>
0.0048

> <Gold.Chemscore.DEInternal.Weighted>
2.0078

> <Gold.Chemscore.Rot.Weighted>
2.5600

> <Gold.Chemscore.Internal.Correction.Weighted>
   9.000000E+99

> <Gold.Protein.RotatedTorsions>
[ 6907 6896 6895 6894 ] final   96.03 input  -60.11 | X-H torsion
[ 7974 7965 7964 7962 ] final -121.40 input  175.53 | X-H torsion
[ 8008 7997 7996 7995 ] final   48.27 input   59.86 | X-H torsion
[ 10167 10162 10161 10158 ] final  -34.95 input  -65.29 | X-H torsion
[ 10718 10713 10712 10709 ] final   81.65 input   66.30 | X-H torsion
[ 10763 10752 10751 10750 ] final -101.10 input  -60.55 | X-H torsion
[ 11005 11000 10999 10996 ] final -173.37 input  -57.11 | X-H torsion

> <Gold.Protein.ActiveResidues>
 VAL166  LYS551  ARG553  GLY616  TRP617  ASP618  TYR619  PRO620  LYS621  CYS622 
 ASP623  PHE694  ASN695  SER759  ASP760  ASP761  ALA762  ILE779  LEU786  VAL792 
 PHE793  MET794  SER795  GLU796  ALA797  LYS798  CYS799  TRP800  GLU811  SER814 

> <Gold.Protein.RotatedAtoms>
  152.5439  134.0949  159.8292 H   0  0  0  0  0  0  0  0  0  0  0  0  # atno 6907 bound_to 6896
  151.1033  133.5219  159.2616 H   0  0  0  0  0  0  0  0  0  0  0  0  # atno 6908 bound_to 6896
  151.1966  135.0434  159.8909 H   0  0  0  0  0  0  0  0  0  0  0  0  # atno 6909 bound_to 6896
  145.0408  140.8143  143.4267 H   0  0  0  0  0  0  0  0  0  0  0  0  # atno 7974 bound_to 7965
  155.3829  140.3429  155.4247 H   0  0  0  0  0  0  0  0  0  0  0  0  # atno 8008 bound_to 7997
  156.1600  140.1598  156.8661 H   0  0  0  0  0  0  0  0  0  0  0  0  # atno 8009 bound_to 7997
  154.5131  140.0785  156.8010 H   0  0  0  0  0  0  0  0  0  0  0  0  # atno 8010 bound_to 7997
  140.7175  143.3512  151.2152 H   0  0  0  0  0  0  0  0  0  0  0  0  # atno 10167 bound_to 10162
  157.6838  131.0013  150.2258 H   0  0  0  0  0  0  0  0  0  0  0  0  # atno 10718 bound_to 10713
  154.7631  135.4910  153.9503 H   0  0  0  0  0  0  0  0  0  0  0  0  # atno 10763 bound_to 10752
  153.1275  135.6745  153.9240 H   0  0  0  0  0  0  0  0  0  0  0  0  # atno 10764 bound_to 10752
  153.8953  135.3116  155.3426 H   0  0  0  0  0  0  0  0  0  0  0  0  # atno 10765 bound_to 10752
  140.4865  134.6026  157.4939 H   0  0  0  0  0  0  0  0  0  0  0  0  # atno 11005 bound_to 11000
  145.1650  139.2436  143.5371 LP  0  0  0  0  0  0  0  0  0  0  0  0  # atno 17320 bound_to 7965
  146.3509  140.1387  142.8595 LP  0  0  0  0  0  0  0  0  0  0  0  0  # atno 17321 bound_to 7965
  139.7043  143.9481  152.2919 LP  0  0  0  0  0  0  0  0  0  0  0  0  # atno 17342 bound_to 10162
  139.9185  144.6814  150.8486 LP  0  0  0  0  0  0  0  0  0  0  0  0  # atno 17343 bound_to 10162
  156.2901  130.3744  149.7850 LP  0  0  0  0  0  0  0  0  0  0  0  0  # atno 17370 bound_to 10713
  156.5512  130.8343  151.3300 LP  0  0  0  0  0  0  0  0  0  0  0  0  # atno 17371 bound_to 10713
  139.9795  134.7160  155.9886 LP  0  0  0  0  0  0  0  0  0  0  0  0  # atno 17394 bound_to 11000
  141.1505  133.6549  156.4000 LP  0  0  0  0  0  0  0  0  0  0  0  0  # atno 17395 bound_to 11000

$$$$
