#       Name:                AV-unprocessed.smi:2742
#       Creating user name   scv26
#       Creation time:       Fri Mar 27 15:01:41 2020


#       File generated by GOLD software.
#

@<TRIPOS>MOLECULE
AV-unprocessed.smi:2742
    40    41     1
SMALL
NO_CHARGES


@<TRIPOS>ATOM
      1 ****        -4.6217   0.3762  -1.0928 C.3            1 S1                 0.0000
      2 ****        -4.0458  -0.9851  -2.1428 S.3            1 S1                 0.0000
      3 ****        -2.2744  -1.0011  -1.7390 C.3            1 S1                 0.0000
      4 ****        -1.4811  -1.7185  -2.8450 C.3            1 S1                 0.0000
      5 ****         0.0200  -1.7629  -2.5215 C.3            1 S1                 0.0000
      6 ****         0.2764  -2.4283  -1.1590 C.3            1 S1                 0.0000
      7 ****        -0.5182  -1.7509  -0.0222 C.3            1 S1                 0.0000
      8 ****         0.0148  -0.4228   0.2810 N.am           1 S1                 0.0000
      9 ****         1.0638  -0.1693   1.0771 C.2            1 S1                 0.0000
     10 ****         1.6933  -1.0475   1.6660 O.2            1 S1                 0.0000
     11 ****         1.3137   1.1501   1.1422 N.am           1 S1                 0.0000
     12 ****         2.3309   1.8419   1.8576 C.ar           1 S1                 0.0000
     13 ****         3.4755   1.2274   2.4224 C.ar           1 S1                 0.0000
     14 ****         4.4139   2.0359   3.0949 C.ar           1 S1                 0.0000
     15 ****         4.2863   3.3731   3.2263 N.ar           1 S1                 0.0000
     16 ****         3.2005   3.9574   2.6779 C.ar           1 S1                 0.0000
     17 ****         2.2029   3.2416   1.9860 C.ar           1 S1                 0.0000
     18 ****         1.1391   3.8926   1.4559 F              1 S1                 0.0000
     19 ****        -2.0183  -1.6627  -0.3685 C.3            1 S1                 0.0000
     20 ****        -5.6892   0.5364  -1.2436 H              1 S1                 0.0000
     21 ****        -4.0968   1.2985  -1.3421 H              1 S1                 0.0000
     22 ****        -4.4558   0.1526  -0.0395 H              1 S1                 0.0000
     23 ****        -1.9422   0.0372  -1.7049 H              1 S1                 0.0000
     24 ****        -1.8562  -2.7356  -2.9676 H              1 S1                 0.0000
     25 ****        -1.6347  -1.2155  -3.8004 H              1 S1                 0.0000
     26 ****         0.5518  -2.3050  -3.3039 H              1 S1                 0.0000
     27 ****         0.4248  -0.7501  -2.5207 H              1 S1                 0.0000
     28 ****        -0.0136  -3.4780  -1.2183 H              1 S1                 0.0000
     29 ****         1.3439  -2.4241  -0.9354 H              1 S1                 0.0000
     30 ****        -0.4257  -2.3651   0.8754 H              1 S1                 0.0000
     31 ****        -0.4460   0.3602  -0.1590 H              1 S1                 0.0000
     32 ****         0.6685   1.7447   0.6427 H              1 S1                 0.0000
     33 ****         3.6622   0.1680   2.3495 H              1 S1                 0.0000
     34 ****         5.2955   1.5947   3.5356 H              1 S1                 0.0000
     35 ****         3.1248   5.0286   2.7921 H              1 S1                 0.0000
     36 ****        -2.5450  -1.1261   0.4206 H              1 S1                 0.0000
     37 ****        -2.4369  -2.6702  -0.3772 H              1 S1                 0.0000
     38 ****         1.4296  -2.0065   1.5625 LP             1 S1                 0.0000
     39 ****         2.4685  -0.8021   2.2481 LP             1 S1                 0.0000
     40 ****         4.9730   3.9126   3.7135 LP             1 S1                 0.0000
@<TRIPOS>BOND
    1    1    2 1     
    2    1   20 1     
    3    1   21 1     
    4    1   22 1     
    5    2    3 1     
    6    3   19 1     
    7    3    4 1     
    8    3   23 1     
    9    4    5 1     
   10    4   24 1     
   11    4   25 1     
   12    5    6 1     
   13    5   26 1     
   14    5   27 1     
   15    6    7 1     
   16    6   28 1     
   17    6   29 1     
   18    7    8 1     
   19    7   19 1     
   20    7   30 1     
   21    8    9 am    
   22    8   31 1     
   23    9   10 2     
   24    9   11 am    
   25   11   12 1     
   26   11   32 1     
   27   12   17 ar    
   28   12   13 ar    
   29   13   14 ar    
   30   13   33 1     
   31   14   15 ar    
   32   14   34 1     
   33   15   16 ar    
   34   16   17 ar    
   35   16   35 1     
   36   17   18 1     
   37   19   36 1     
   38   19   37 1     
   39   10   38 1     
   40   10   39 1     
   41   15   40 1     
@<TRIPOS>SUBSTRUCTURE
      1 S1             1
@<TRIPOS>SET
LONE_PAIRS      STATIC     ATOMS    <user>   **** ""
3 38 39 40
DONOR_HYDROGENS      STATIC     ATOMS    <user>   **** ""
2 31 32
ATOM$BLUE        STATIC     ATOMS    COLORGROUP SYSTEM
3 38 39 40
ATOM$RED        STATIC     ATOMS    COLORGROUP SYSTEM
2 31 32
