AV-unprocessed.smi:290|AV-procd|sdf|2223|dock7
  -GOLD-   2262022 73D 1   1.00000     0.00000
 Structure written by MMmdl.
 59 62  0  0  0  0  0  0  0  0  2 V2000
  143.7002  133.1960  151.2215 C   0  0  0  0  0  0  0  0  0  0  0  0
  145.1462  132.7165  151.4175 C   0  0  2  0  0  0  0  0  0  0  0  0
  145.1730  131.4407  152.0517 O   0  0  0  0  0  0  0  0  0  0  0  0
  146.3169  131.3344  152.8946 C   0  0  0  0  0  0  0  0  0  0  0  0
  147.1346  132.5984  152.6448 C   0  0  0  0  0  0  0  0  0  0  0  0
  146.0669  133.6165  152.2638 C   0  0  1  0  0  0  0  0  0  0  0  0
  146.6580  134.6161  151.4549 O   0  0  0  0  0  0  0  0  0  0  0  0
  145.3623  134.2737  153.4826 C   0  0  0  0  0  0  0  0  0  0  0  0
  145.8557  135.6026  153.8066 N   0  0  0  0  0  0  0  0  0  0  0  0
  145.1948  136.7977  153.6263 C   0  0  0  0  0  0  0  0  0  0  0  0
  145.8548  137.8618  153.9965 N   0  0  0  0  0  0  0  0  0  0  0  0
  147.0672  137.3603  154.4517 C   0  0  0  0  0  0  0  0  0  0  0  0
  148.2383  137.9535  154.9889 C   0  0  0  0  0  0  0  0  0  0  0  0
  148.3370  139.2901  155.1606 N   0  0  0  0  0  0  0  0  0  0  0  0
  147.8982  140.0820  154.0227 C   0  0  0  0  0  0  0  0  0  0  0  0
  148.3924  141.5065  154.2983 C   0  0  0  0  0  0  0  0  0  0  0  0
  149.5484  141.3337  155.3087 C   0  0  1  0  0  0  0  0  0  0  0  0
  149.4097  142.1242  156.5718 N   0  3  2  0  0  0  0  0  0  0  0  0
  150.6443  142.2468  157.3895 C   0  0  0  0  0  0  0  0  0  0  0  0
  148.2358  141.7322  157.3936 C   0  0  0  0  0  0  0  0  0  0  0  0
  147.6423  142.9205  158.1699 C   0  0  0  0  0  0  0  0  0  0  0  0
  146.6013  142.4742  159.0129 O   0  0  0  0  0  0  0  0  0  0  0  0
  149.6493  139.8086  155.5216 C   0  0  1  0  0  0  0  0  0  0  0  0
  150.1720  139.3185  156.8874 C   0  0  0  0  0  0  0  0  0  0  0  0
  149.2660  137.1358  155.3382 N   0  0  0  0  0  0  0  0  0  0  0  0
  149.1520  135.8146  155.1694 C   0  0  0  0  0  0  0  0  0  0  0  0
  148.1205  135.1211  154.6816 N   0  0  0  0  0  0  0  0  0  0  0  0
  147.0882  135.9434  154.3353 C   0  0  0  0  0  0  0  0  0  0  0  0
  150.4778  141.6368  154.8273 H   0  0  0  0  0  0  0  0  0  0  0  0
  150.3522  139.4431  154.7707 H   0  0  0  0  0  0  0  0  0  0  0  0
  143.6743  134.1892  150.7729 H   0  0  0  0  0  0  0  0  0  0  0  0
  143.1561  133.2352  152.1651 H   0  0  0  0  0  0  0  0  0  0  0  0
  143.1574  132.5199  150.5610 H   0  0  0  0  0  0  0  0  0  0  0  0
  145.5999  132.5754  150.4344 H   0  0  0  0  0  0  0  0  0  0  0  0
  145.9838  131.2902  153.9321 H   0  0  0  0  0  0  0  0  0  0  0  0
  146.8833  130.4275  152.6828 H   0  0  0  0  0  0  0  0  0  0  0  0
  147.7568  132.8826  153.4923 H   0  0  0  0  0  0  0  0  0  0  0  0
  147.8041  132.4218  151.8011 H   0  0  0  0  0  0  0  0  0  0  0  0
  147.2915  135.0874  151.9745 H   0  0  0  0  0  0  0  0  0  0  0  0
  144.2902  134.3564  153.3015 H   0  0  0  0  0  0  0  0  0  0  0  0
  145.4715  133.6480  154.3692 H   0  0  0  0  0  0  0  0  0  0  0  0
  144.1970  136.8544  153.2157 H   0  0  0  0  0  0  0  0  0  0  0  0
  148.3386  139.7031  153.0991 H   0  0  0  0  0  0  0  0  0  0  0  0
  146.8134  140.0481  153.9166 H   0  0  0  0  0  0  0  0  0  0  0  0
  148.7321  141.9834  153.3784 H   0  0  0  0  0  0  0  0  0  0  0  0
  147.5778  142.1179  154.6808 H   0  0  0  0  0  0  0  0  0  0  0  0
  150.8300  141.3513  157.9825 H   0  0  0  0  0  0  0  0  0  0  0  0
  150.5427  143.0805  158.0846 H   0  0  0  0  0  0  0  0  0  0  0  0
  151.5267  142.4387  156.7806 H   0  0  0  0  0  0  0  0  0  0  0  0
  147.4783  141.2779  156.7534 H   0  0  0  0  0  0  0  0  0  0  0  0
  148.5229  140.9632  158.1130 H   0  0  0  0  0  0  0  0  0  0  0  0
  148.3921  143.4449  158.7610 H   0  0  0  0  0  0  0  0  0  0  0  0
  147.2269  143.6467  157.4708 H   0  0  0  0  0  0  0  0  0  0  0  0
  145.7992  142.9045  158.7568 H   0  0  0  0  0  0  0  0  0  0  0  0
  151.1294  139.7818  157.1264 H   0  0  0  0  0  0  0  0  0  0  0  0
  150.3286  138.2394  156.8798 H   0  0  0  0  0  0  0  0  0  0  0  0
  149.4802  139.5367  157.7001 H   0  0  0  0  0  0  0  0  0  0  0  0
  150.0090  135.2294  155.4693 H   0  0  0  0  0  0  0  0  0  0  0  0
  149.2066  143.0668  156.2696 H   0  0  0  0  0  0  0  0  0  0  0  0
  1  2  1  0  0  0  0
  1 31  1  0  0  0  0
  1 32  1  0  0  0  0
  1 33  1  0  0  0  0
  2  6  1  0  0  0  0
  2  3  1  0  0  0  0
  2 34  1  0  0  0  0
  3  4  1  0  0  0  0
  4  5  1  0  0  0  0
  4 35  1  0  0  0  0
  4 36  1  0  0  0  0
  5  6  1  0  0  0  0
  5 37  1  0  0  0  0
  5 38  1  0  0  0  0
  6  7  1  0  0  0  0
  6  8  1  0  0  0  0
  7 39  1  0  0  0  0
  8  9  1  0  0  0  0
  8 40  1  0  0  0  0
  8 41  1  0  0  0  0
  9 28  1  0  0  0  0
  9 10  1  0  0  0  0
 10 11  2  0  0  0  0
 10 42  1  0  0  0  0
 11 12  1  0  0  0  0
 12 28  2  0  0  0  0
 12 13  1  0  0  0  0
 13 14  1  0  0  0  0
 13 25  2  0  0  0  0
 14 23  1  0  0  0  0
 14 15  1  0  0  0  0
 15 16  1  0  0  0  0
 15 43  1  0  0  0  0
 15 44  1  0  0  0  0
 16 17  1  0  0  0  0
 16 45  1  0  0  0  0
 16 46  1  0  0  0  0
 17 29  1  0  0  0  0
 17 18  1  0  0  0  0
 17 23  1  0  0  0  0
 18 19  1  0  0  0  0
 18 20  1  0  0  0  0
 18 59  1  0  0  0  0
 19 47  1  0  0  0  0
 19 48  1  0  0  0  0
 19 49  1  0  0  0  0
 20 21  1  0  0  0  0
 20 50  1  0  0  0  0
 20 51  1  0  0  0  0
 21 22  1  0  0  0  0
 21 52  1  0  0  0  0
 21 53  1  0  0  0  0
 22 54  1  0  0  0  0
 23 30  1  0  0  0  0
 23 24  1  0  0  0  0
 24 55  1  0  0  0  0
 24 56  1  0  0  0  0
 24 57  1  0  0  0  0
 25 26  1  0  0  0  0
 26 27  2  0  0  0  0
 26 58  1  0  0  0  0
 27 28  1  0  0  0  0
M  CHG  1  18   1
M  END
> <s_m_source_file>
AV-unprocessed.smi

> <i_m_source_file_index>
290

> <i_lp_mmshare_version>
43012

> <i_f3d_flags>
0

> <s_epik_input>
W0NIMl0xW0NIMl1PW0NAQEhdKFtDSDNdKVtDQEBdMShbT0hdKVtDSDJdbihbY0hdbjIpYyhjMjMpbltjSF1uYzNONFtDSDJdW0NIMl1bQ0BIXShbQ0BIXTRbQ0gzXSlOKFtDSDNdKVtDSDJdW0NIMl1bT0hd

> <s_epik_cmdline>
J2VwaWtfcHl0aG9uJywgJy1waCcsICc3LjAnLCAnLXRuJywgJzgnLCAnLW1hJywgJzIwMCcsICctbWV0YWxfYmluZGluZycsICctaW1hZScsICc8aW5maWxlLm1hZT4nLCAnLW9tYWUnLCAnPG91dGZpbGUubWFlPic=

> <r_lp_tautomer_probability>
1

> <r_epik_Ionization_Penalty>
0.0036983

> <r_epik_Ionization_Penalty_Charging>
0.0032725

> <r_epik_Ionization_Penalty_Neutral>
0.000425798

> <r_epik_State_Penalty>
-0

> <r_epik_Charging_Adjusted_Penalty>
0.0032725

> <i_epik_Tot_Q>
1

> <i_epik_Tot_abs_Q>
1

> <r_epik_Metal_State_Penalty>
-0

> <b_epik_Metal_Only>
0

> <s_lp_Force_Field>
OPLS_2005

> <r_lp_Energy>
69.2508

> <b_lp_Chiralities_Consistent>
1

> <s_lp_Variant>
AV-unprocessed.smi:290-9

> <Gold.Version>
5.8.1

> <Gold.Id.Protein>
6NUR|6NUR_protein|mol2

> <Gold.PLP.Fitness>
38.3528

> <Gold.PLP.PLP>
-30.0023

> <Gold.PLP.part.hbond>
-3.0000

> <Gold.PLP.part.metal>
0.0000

> <Gold.PLP.part.buried>
-5.2580

> <Gold.PLP.part.nonpolar>
-23.8078

> <Gold.PLP.part.repulsive>
1.1839

> <Gold.PLP.ligand.clash>
0.0000

> <Gold.PLP.ligand.torsion>
1.5306

> <Gold.PLP.Chemscore.Hbond>
3.7524

> <Gold.PLP.Chemscore.CHOScore>
0.0000

> <Gold.PLP.Chemscore.Metal>
0.0000

> <Gold.Chemscore.Hbonds>
donor molecule, donor type, donor heavy atom, donor atom, acceptor molecule, acceptor atom, score
      L1  H     7    39       P1  7948  0.83
      L1  H    18    59       P1  8028  2.00
      P1  H  6934  6946       L1    22  0.17

> <Gold.PLP.Chemscore.Internal.Correction>
0.1543

> <Gold.Rescore>
     Score         DG    S(hbond)    S(metal)    S(lipo)     H(rot)  DE(clash)    DE(int)     intcor
      7.94     -12.89       2.57        0.00      70.13       3.67       0.13       4.83       ----

> <Gold.Chemscore.Fitness>
7.9350

> <Gold.Chemscore.DG>
-12.8902

> <Gold.Chemscore.ZeroCoef>
-5.4800

> <Gold.Chemscore.Hbond>
2.5715

> <Gold.Chemscore.Metal>
0.0000

> <Gold.Chemscore.Lipo>
70.1344

> <Gold.Chemscore.Internal_Hbond>
0.0000

> <Gold.Chemscore.DEClash>
0.1284

> <Gold.Chemscore.DEInternal>
4.8268

> <Gold.Chemscore.Rot>
3.6658

> <Gold.Chemscore.Internal.Correction>
   9.000000E+99

> <Gold.Chemscore.Hbonds>
donor molecule, donor type, donor heavy atom, donor atom, acceptor molecule, acceptor atom, score
      L1  H     7    39       P1  7948  0.78
      L1  H    18    59       P1  8028  1.00
      P1  H  6934  6946       L1    22  0.17

> <Gold.Chemscore.Hbond.Weighted>
-8.5889

> <Gold.Chemscore.Metal.Weighted>
-0.0000

> <Gold.Chemscore.Lipo.Weighted>
-8.2057

> <Gold.Chemscore.Internal_Hbond.Weighted>
0.0000

> <Gold.Chemscore.DEClash.Weighted>
0.1284

> <Gold.Chemscore.DEInternal.Weighted>
4.8268

> <Gold.Chemscore.Rot.Weighted>
9.3844

> <Gold.Chemscore.Internal.Correction.Weighted>
   9.000000E+99

> <Gold.Protein.RotatedTorsions>
[ 6907 6896 6895 6894 ] final   51.67 input  -60.11 | X-H torsion
[ 7974 7965 7964 7962 ] final -112.47 input  175.53 | X-H torsion
[ 8008 7997 7996 7995 ] final   50.17 input   59.86 | X-H torsion
[ 10167 10162 10161 10158 ] final  -87.02 input  -65.29 | X-H torsion
[ 10718 10713 10712 10709 ] final -130.51 input   66.30 | X-H torsion
[ 10763 10752 10751 10750 ] final  101.46 input  -60.55 | X-H torsion
[ 11005 11000 10999 10996 ] final   95.13 input  -57.11 | X-H torsion

> <Gold.Protein.ActiveResidues>
 VAL166  LYS551  ARG553  GLY616  TRP617  ASP618  TYR619  PRO620  LYS621  CYS622 
 ASP623  PHE694  ASN695  SER759  ASP760  ASP761  ALA762  ILE779  LEU786  VAL792 
 PHE793  MET794  SER795  GLU796  ALA797  LYS798  CYS799  TRP800  GLU811  SER814 

> <Gold.Protein.RotatedAtoms>
  152.3152  134.7449  160.0326 H   0  0  0  0  0  0  0  0  0  0  0  0  # atno 6907 bound_to 6896
  151.7916  133.3354  159.3509 H   0  0  0  0  0  0  0  0  0  0  0  0  # atno 6908 bound_to 6896
  150.7340  134.5768  159.5962 H   0  0  0  0  0  0  0  0  0  0  0  0  # atno 6909 bound_to 6896
  145.1436  140.8791  143.3687 H   0  0  0  0  0  0  0  0  0  0  0  0  # atno 7974 bound_to 7965
  155.4144  140.3443  155.4266 H   0  0  0  0  0  0  0  0  0  0  0  0  # atno 8008 bound_to 7997
  156.1430  140.1548  156.8923 H   0  0  0  0  0  0  0  0  0  0  0  0  # atno 8009 bound_to 7997
  154.4987  140.0821  156.7732 H   0  0  0  0  0  0  0  0  0  0  0  0  # atno 8010 bound_to 7997
  140.3885  143.2716  151.9295 H   0  0  0  0  0  0  0  0  0  0  0  0  # atno 10167 bound_to 10162
  156.2152  130.6944  151.0695 H   0  0  0  0  0  0  0  0  0  0  0  0  # atno 10718 bound_to 10713
  153.3270  135.4044  155.1464 H   0  0  0  0  0  0  0  0  0  0  0  0  # atno 10763 bound_to 10752
  154.8614  135.3601  154.5521 H   0  0  0  0  0  0  0  0  0  0  0  0  # atno 10764 bound_to 10752
  153.5957  135.7072  153.5464 H   0  0  0  0  0  0  0  0  0  0  0  0  # atno 10765 bound_to 10752
  139.8792  134.8883  156.3966 H   0  0  0  0  0  0  0  0  0  0  0  0  # atno 11005 bound_to 11000
  145.0506  139.3185  143.5931 LP  0  0  0  0  0  0  0  0  0  0  0  0  # atno 17320 bound_to 7965
  146.3502  139.9912  142.8685 LP  0  0  0  0  0  0  0  0  0  0  0  0  # atno 17321 bound_to 7965
  139.4790  144.5751  151.8025 LP  0  0  0  0  0  0  0  0  0  0  0  0  # atno 17342 bound_to 10162
  140.4864  144.1374  150.5942 LP  0  0  0  0  0  0  0  0  0  0  0  0  # atno 17343 bound_to 10162
  157.7059  131.0756  150.6667 LP  0  0  0  0  0  0  0  0  0  0  0  0  # atno 17370 bound_to 10713
  156.6728  130.4544  149.5652 LP  0  0  0  0  0  0  0  0  0  0  0  0  # atno 17371 bound_to 10713
  140.9296  133.7588  156.0008 LP  0  0  0  0  0  0  0  0  0  0  0  0  # atno 17394 bound_to 11000
  140.8346  134.3138  157.5336 LP  0  0  0  0  0  0  0  0  0  0  0  0  # atno 17395 bound_to 11000

$$$$
