AV-unprocessed.smi:415|AV-procd|sdf|2519|dock3
  -GOLD-   2262022473D 1   1.00000     0.00000
 Structure written by MMmdl.
 53 54  0  0  0  0  0  0  0  0  1 V2000
  145.1120  134.6533  154.6007 C   0  0  0  0  0  0  0  0  0  0  0  0
  145.6355  135.1482  155.8208 O   0  0  0  0  0  0  0  0  0  0  0  0
  146.0636  136.4958  155.7220 C   0  0  0  0  0  0  0  0  0  0  0  0
  147.2174  136.5745  154.7117 C   0  0  0  0  0  0  0  0  0  0  0  0
  147.6715  137.9331  154.4867 N   0  0  0  0  0  0  0  0  0  0  0  0
  146.8503  138.9363  153.9802 C   0  0  0  0  0  0  0  0  0  0  0  0
  145.5276  138.6553  153.6887 N   0  0  0  0  0  0  0  0  0  0  0  0
  147.3127  140.1902  153.7785 C   0  0  0  0  0  0  0  0  0  0  0  0
  148.6873  140.5608  154.0830 C   0  0  0  0  0  0  0  0  0  0  0  0
  149.1345  141.6906  153.8823 O   0  0  0  0  0  0  0  0  0  0  0  0
  149.4949  139.5350  154.6262 N   0  0  0  0  0  0  0  0  0  0  0  0
  150.9062  139.8472  154.9450 C   0  0  0  0  0  0  0  0  0  0  0  0
  151.1539  140.0866  156.4424 C   0  0  0  0  0  0  0  0  0  0  0  0
  151.4957  139.1649  157.1848 O   0  0  0  0  0  0  0  0  0  0  0  0
  150.9601  141.3426  156.8724 N   0  0  0  0  0  0  0  0  0  0  0  0
  151.1230  141.8016  158.2501 C   0  0  1  0  0  0  0  0  0  0  0  0
  152.5018  141.3682  158.7846 C   0  0  0  0  0  0  0  0  0  0  0  0
  152.6974  141.8075  160.2433 C   0  0  0  0  0  0  0  0  0  0  0  0
  152.4770  143.3188  160.4128 C   0  0  0  0  0  0  0  0  0  0  0  0
  151.0988  143.7517  159.8726 C   0  0  1  0  0  0  0  0  0  0  0  0
  150.8249  145.2423  160.1332 C   0  0  0  0  0  0  0  0  0  0  0  0
  150.9085  143.3342  158.3895 C   0  0  1  0  0  0  0  0  0  0  0  0
  151.7643  144.1598  157.4004 C   0  0  0  0  0  0  0  0  0  0  0  0
  149.0134  138.2235  154.8441 C   0  0  0  0  0  0  0  0  0  0  0  0
  149.7512  137.3615  155.3295 O   0  0  0  0  0  0  0  0  0  0  0  0
  144.7996  133.6171  154.7302 H   0  0  0  0  0  0  0  0  0  0  0  0
  145.8614  134.6815  153.8087 H   0  0  0  0  0  0  0  0  0  0  0  0
  144.2427  135.2295  154.2814 H   0  0  0  0  0  0  0  0  0  0  0  0
  145.2346  137.1252  155.3944 H   0  0  0  0  0  0  0  0  0  0  0  0
  146.3874  136.8577  156.6992 H   0  0  0  0  0  0  0  0  0  0  0  0
  148.0743  135.9705  155.0147 H   0  0  0  0  0  0  0  0  0  0  0  0
  146.9213  136.1746  153.7423 H   0  0  0  0  0  0  0  0  0  0  0  0
  145.1330  137.7369  153.8324 H   0  0  0  0  0  0  0  0  0  0  0  0
  144.8943  139.3658  153.3506 H   0  0  0  0  0  0  0  0  0  0  0  0
  146.6513  140.9463  153.3803 H   0  0  0  0  0  0  0  0  0  0  0  0
  151.5630  139.0462  154.6014 H   0  0  0  0  0  0  0  0  0  0  0  0
  151.2557  140.7243  154.3988 H   0  0  0  0  0  0  0  0  0  0  0  0
  150.6759  142.0352  156.1951 H   0  0  0  0  0  0  0  0  0  0  0  0
  150.3718  141.2966  158.8614 H   0  0  0  0  0  0  0  0  0  0  0  0
  152.6024  140.2842  158.7176 H   0  0  0  0  0  0  0  0  0  0  0  0
  153.2966  141.7867  158.1661 H   0  0  0  0  0  0  0  0  0  0  0  0
  151.9988  141.2653  160.8817 H   0  0  0  0  0  0  0  0  0  0  0  0
  153.6976  141.5369  160.5826 H   0  0  0  0  0  0  0  0  0  0  0  0
  152.5595  143.5775  161.4690 H   0  0  0  0  0  0  0  0  0  0  0  0
  153.2712  143.8661  159.9037 H   0  0  0  0  0  0  0  0  0  0  0  0
  150.3495  143.2057  160.4482 H   0  0  0  0  0  0  0  0  0  0  0  0
  151.5808  145.8812  159.6765 H   0  0  0  0  0  0  0  0  0  0  0  0
  150.8259  145.4555  161.2023 H   0  0  0  0  0  0  0  0  0  0  0  0
  149.8515  145.5378  159.7409 H   0  0  0  0  0  0  0  0  0  0  0  0
  149.8675  143.5372  158.1339 H   0  0  0  0  0  0  0  0  0  0  0  0
  152.8315  144.0412  157.5834 H   0  0  0  0  0  0  0  0  0  0  0  0
  151.5356  145.2228  157.4634 H   0  0  0  0  0  0  0  0  0  0  0  0
  151.5749  143.8684  156.3674 H   0  0  0  0  0  0  0  0  0  0  0  0
  1  2  1  0  0  0  0
  1 26  1  0  0  0  0
  1 27  1  0  0  0  0
  1 28  1  0  0  0  0
  2  3  1  0  0  0  0
  3  4  1  0  0  0  0
  3 29  1  0  0  0  0
  3 30  1  0  0  0  0
  4  5  1  0  0  0  0
  4 31  1  0  0  0  0
  4 32  1  0  0  0  0
  5 24  1  0  0  0  0
  5  6  1  0  0  0  0
  6  7  1  0  0  0  0
  6  8  2  0  0  0  0
  7 33  1  0  0  0  0
  7 34  1  0  0  0  0
  8  9  1  0  0  0  0
  8 35  1  0  0  0  0
  9 10  2  0  0  0  0
  9 11  1  0  0  0  0
 11 12  1  0  0  0  0
 11 24  1  0  0  0  0
 12 13  1  0  0  0  0
 12 36  1  0  0  0  0
 12 37  1  0  0  0  0
 13 14  2  0  0  0  0
 13 15  1  0  0  0  0
 15 16  1  0  0  0  0
 15 38  1  0  0  0  0
 16 22  1  0  0  0  0
 16 17  1  0  0  0  0
 16 39  1  0  0  0  0
 17 18  1  0  0  0  0
 17 40  1  0  0  0  0
 17 41  1  0  0  0  0
 18 19  1  0  0  0  0
 18 42  1  0  0  0  0
 18 43  1  0  0  0  0
 19 20  1  0  0  0  0
 19 44  1  0  0  0  0
 19 45  1  0  0  0  0
 20 21  1  0  0  0  0
 20 22  1  0  0  0  0
 20 46  1  0  0  0  0
 21 47  1  0  0  0  0
 21 48  1  0  0  0  0
 21 49  1  0  0  0  0
 22 23  1  0  0  0  0
 22 50  1  0  0  0  0
 23 51  1  0  0  0  0
 23 52  1  0  0  0  0
 23 53  1  0  0  0  0
 24 25  2  0  0  0  0
M  END
> <s_m_source_file>
AV-unprocessed.smi

> <i_m_source_file_index>
415

> <i_lp_mmshare_version>
43012

> <i_f3d_flags>
0

> <s_epik_input>
W0NIM11PW0NIMl1bQ0gyXW4xYyhbTkgyXSlbY0hdYyg9TyluKGMxPU8pW0NIMl1DKD1PKVtOSF1bQ0BASF0yW0NIMl1bQ0gyXVtDSDJdW0NAQEhdKFtDSDNdKVtDQEhdMltDSDNd

> <s_epik_cmdline>
J2VwaWtfcHl0aG9uJywgJy1waCcsICc3LjAnLCAnLXRuJywgJzgnLCAnLW1hJywgJzIwMCcsICctbWV0YWxfYmluZGluZycsICctaW1hZScsICc8aW5maWxlLm1hZT4nLCAnLW9tYWUnLCAnPG91dGZpbGUubWFlPic=

> <r_lp_tautomer_probability>
1

> <r_epik_Ionization_Penalty>
8.6647e-06

> <r_epik_Ionization_Penalty_Charging>
1.81162e-08

> <r_epik_Ionization_Penalty_Neutral>
8.64658e-06

> <r_epik_State_Penalty>
-0

> <r_epik_Charging_Adjusted_Penalty>
1.81162e-08

> <i_epik_Tot_Q>
0

> <i_epik_Tot_abs_Q>
0

> <r_epik_Metal_State_Penalty>
-0

> <b_epik_Metal_Only>
0

> <s_lp_Force_Field>
OPLS_2005

> <r_lp_Energy>
22.062

> <b_lp_Chiralities_Consistent>
1

> <s_lp_Variant>
AV-unprocessed.smi:415-2

> <Gold.Version>
5.8.1

> <Gold.Id.Protein>
6NUR|6NUR_protein|mol2

> <Gold.PLP.Fitness>
44.0981

> <Gold.PLP.PLP>
-40.5048

> <Gold.PLP.part.hbond>
-3.0000

> <Gold.PLP.part.metal>
0.0000

> <Gold.PLP.part.buried>
-2.9332

> <Gold.PLP.part.nonpolar>
-34.9424

> <Gold.PLP.part.repulsive>
0.4049

> <Gold.PLP.ligand.clash>
0.0000

> <Gold.PLP.ligand.torsion>
0.6803

> <Gold.PLP.Chemscore.Hbond>
1.6240

> <Gold.PLP.Chemscore.CHOScore>
0.0000

> <Gold.PLP.Chemscore.Metal>
0.0000

> <Gold.Chemscore.Hbonds>
donor molecule, donor type, donor heavy atom, donor atom, acceptor molecule, acceptor atom, score
      L1  H     7    34       P1 10175  1.00
      P1  H  8011  8017       L1    10  0.62

> <Gold.PLP.Chemscore.Internal.Correction>
0.0819

> <Gold.Rescore>
     Score         DG    S(hbond)    S(metal)    S(lipo)     H(rot)  DE(clash)    DE(int)     intcor
     14.22     -16.88       1.73        0.00      97.57       2.26       0.61       2.06       ----

> <Gold.Chemscore.Fitness>
14.2175

> <Gold.Chemscore.DG>
-16.8793

> <Gold.Chemscore.ZeroCoef>
-5.4800

> <Gold.Chemscore.Hbond>
1.7307

> <Gold.Chemscore.Metal>
0.0000

> <Gold.Chemscore.Lipo>
97.5714

> <Gold.Chemscore.Internal_Hbond>
0.0000

> <Gold.Chemscore.DEClash>
0.6059

> <Gold.Chemscore.DEInternal>
2.0559

> <Gold.Chemscore.Rot>
2.2645

> <Gold.Chemscore.Internal.Correction>
   9.000000E+99

> <Gold.Chemscore.Hbonds>
donor molecule, donor type, donor heavy atom, donor atom, acceptor molecule, acceptor atom, score
      L1  H     7    34       P1 10175  1.00
      P1  H  8011  8017       L1    10  0.62

> <Gold.Chemscore.Hbond.Weighted>
-5.7806

> <Gold.Chemscore.Metal.Weighted>
-0.0000

> <Gold.Chemscore.Lipo.Weighted>
-11.4159

> <Gold.Chemscore.Internal_Hbond.Weighted>
0.0000

> <Gold.Chemscore.DEClash.Weighted>
0.6059

> <Gold.Chemscore.DEInternal.Weighted>
2.0559

> <Gold.Chemscore.Rot.Weighted>
5.7972

> <Gold.Chemscore.Internal.Correction.Weighted>
   9.000000E+99

> <Gold.Protein.RotatedTorsions>
[ 6907 6896 6895 6894 ] final  -32.98 input  -60.11 | X-H torsion
[ 7974 7965 7964 7962 ] final  -14.78 input  175.53 | X-H torsion
[ 8008 7997 7996 7995 ] final  -58.08 input   59.86 | X-H torsion
[ 10167 10162 10161 10158 ] final  135.73 input  -65.29 | X-H torsion
[ 10718 10713 10712 10709 ] final  -30.25 input   66.30 | X-H torsion
[ 10763 10752 10751 10750 ] final  107.66 input  -60.55 | X-H torsion
[ 11005 11000 10999 10996 ] final   23.73 input  -57.11 | X-H torsion

> <Gold.Protein.ActiveResidues>
 VAL166  LYS551  ARG553  GLY616  TRP617  ASP618  TYR619  PRO620  LYS621  CYS622 
 ASP623  PHE694  ASN695  SER759  ASP760  ASP761  ALA762  ILE779  LEU786  VAL792 
 PHE793  MET794  SER795  GLU796  ALA797  LYS798  CYS799  TRP800  GLU811  SER814 

> <Gold.Protein.RotatedAtoms>
  151.0716  134.9802  159.8311 H   0  0  0  0  0  0  0  0  0  0  0  0  # atno 6907 bound_to 6896
  152.5409  134.2292  159.8828 H   0  0  0  0  0  0  0  0  0  0  0  0  # atno 6908 bound_to 6896
  151.2317  133.4403  159.2637 H   0  0  0  0  0  0  0  0  0  0  0  0  # atno 6909 bound_to 6896
  146.2060  140.3398  142.8407 H   0  0  0  0  0  0  0  0  0  0  0  0  # atno 7974 bound_to 7965
  154.4294  140.1092  156.5900 H   0  0  0  0  0  0  0  0  0  0  0  0  # atno 8008 bound_to 7997
  155.6022  140.3493  155.4578 H   0  0  0  0  0  0  0  0  0  0  0  0  # atno 8009 bound_to 7997
  156.0164  140.1230  157.0391 H   0  0  0  0  0  0  0  0  0  0  0  0  # atno 8010 bound_to 7997
  139.5206  144.6502  151.5325 H   0  0  0  0  0  0  0  0  0  0  0  0  # atno 10167 bound_to 10162
  156.4021  130.4392  149.7314 H   0  0  0  0  0  0  0  0  0  0  0  0  # atno 10718 bound_to 10713
  153.4098  135.3837  155.2043 H   0  0  0  0  0  0  0  0  0  0  0  0  # atno 10763 bound_to 10752
  154.8737  135.3791  154.4515 H   0  0  0  0  0  0  0  0  0  0  0  0  # atno 10764 bound_to 10752
  153.5022  135.7088  153.5888 H   0  0  0  0  0  0  0  0  0  0  0  0  # atno 10765 bound_to 10752
  140.3664  134.2069  155.7669 H   0  0  0  0  0  0  0  0  0  0  0  0  # atno 11005 bound_to 11000
  144.8793  140.7379  143.5996 LP  0  0  0  0  0  0  0  0  0  0  0  0  # atno 17320 bound_to 7965
  145.3318  139.1757  143.4533 LP  0  0  0  0  0  0  0  0  0  0  0  0  # atno 17321 bound_to 7965
  140.6303  143.9089  150.6600 LP  0  0  0  0  0  0  0  0  0  0  0  0  # atno 17342 bound_to 10162
  140.2391  143.3677  152.1502 LP  0  0  0  0  0  0  0  0  0  0  0  0  # atno 17343 bound_to 10162
  156.4326  130.7822  151.2842 LP  0  0  0  0  0  0  0  0  0  0  0  0  # atno 17370 bound_to 10713
  157.7504  131.0149  150.3483 LP  0  0  0  0  0  0  0  0  0  0  0  0  # atno 17371 bound_to 10713
  141.1968  133.8074  157.0655 LP  0  0  0  0  0  0  0  0  0  0  0  0  # atno 17394 bound_to 11000
  140.0586  134.9767  157.1264 LP  0  0  0  0  0  0  0  0  0  0  0  0  # atno 17395 bound_to 11000

$$$$
