AV-unprocessed.smi:1449|AV-procd|sdf|5895|dock1
  -GOLD-   22720 5583D 1   1.00000     0.00000
 Structure written by MMmdl.
 34 35  0  0  0  0  0  0  0  0  1 V2000
  152.0434  140.1886  155.3468 C   0  0  0  0  0  0  0  0  0  0  0  0
  150.9835  141.1315  155.2325 O   0  0  0  0  0  0  0  0  0  0  0  0
  149.7756  140.7014  154.7227 C   0  0  0  0  0  0  0  0  0  0  0  0
  148.6956  141.6056  154.6948 C   0  0  0  0  0  0  0  0  0  0  0  0
  147.4595  141.1762  154.1749 C   0  0  0  0  0  0  0  0  0  0  0  0
  147.3400  139.8462  153.7053 C   0  0  0  0  0  0  0  0  0  0  0  0
  146.1578  139.2950  153.1413 N   0  0  0  0  0  0  0  0  0  0  0  0
  145.9325  138.0405  152.7032 C   0  0  0  0  0  0  0  0  0  0  0  0
  146.7718  137.1433  152.6817 O   0  0  0  0  0  0  0  0  0  0  0  0
  144.6857  137.8326  152.2428 N   0  0  0  0  0  0  0  0  0  0  0  0
  144.1112  136.6009  151.6994 C   0  0  2  0  0  0  0  0  0  0  0  0
  143.7726  135.6078  152.8270 C   0  0  0  0  0  0  0  0  0  0  0  0
  143.5208  134.2267  152.2094 C   0  0  0  0  0  0  0  0  0  0  0  0
  144.5764  134.1388  150.7135 S   0  0  0  0  0  0  0  0  0  0  0  0
  145.7529  133.3000  150.9872 O   0  0  0  0  0  0  0  0  0  0  0  0
  143.7223  133.8874  149.5429 O   0  0  0  0  0  0  0  0  0  0  0  0
  145.0791  135.9004  150.7321 C   0  0  0  0  0  0  0  0  0  0  0  0
  148.4842  139.0243  153.7671 C   0  0  0  0  0  0  0  0  0  0  0  0
  149.6719  139.4297  154.2636 N   0  0  0  0  0  0  0  0  0  0  0  0
  152.9213  140.6828  155.7625 H   0  0  0  0  0  0  0  0  0  0  0  0
  152.3231  139.7814  154.3741 H   0  0  0  0  0  0  0  0  0  0  0  0
  151.7776  139.3691  156.0160 H   0  0  0  0  0  0  0  0  0  0  0  0
  148.8140  142.6145  155.0615 H   0  0  0  0  0  0  0  0  0  0  0  0
  146.6414  141.8778  154.1365 H   0  0  0  0  0  0  0  0  0  0  0  0
  145.3964  139.9464  153.0187 H   0  0  0  0  0  0  0  0  0  0  0  0
  144.0705  138.6335  152.2504 H   0  0  0  0  0  0  0  0  0  0  0  0
  143.1815  136.8209  151.1716 H   0  0  0  0  0  0  0  0  0  0  0  0
  144.6227  135.5334  153.5068 H   0  0  0  0  0  0  0  0  0  0  0  0
  142.9206  135.9417  153.4199 H   0  0  0  0  0  0  0  0  0  0  0  0
  143.7583  133.4076  152.8884 H   0  0  0  0  0  0  0  0  0  0  0  0
  142.4820  134.1273  151.8937 H   0  0  0  0  0  0  0  0  0  0  0  0
  145.0510  136.3089  149.7217 H   0  0  0  0  0  0  0  0  0  0  0  0
  146.1056  135.9480  151.0978 H   0  0  0  0  0  0  0  0  0  0  0  0
  148.4467  138.0058  153.4087 H   0  0  0  0  0  0  0  0  0  0  0  0
  1  2  1  0  0  0  0
  1 20  1  0  0  0  0
  1 21  1  0  0  0  0
  1 22  1  0  0  0  0
  2  3  1  0  0  0  0
  3 19  1  0  0  0  0
  3  4  2  0  0  0  0
  4  5  1  0  0  0  0
  4 23  1  0  0  0  0
  5  6  2  0  0  0  0
  5 24  1  0  0  0  0
  6  7  1  0  0  0  0
  6 18  1  0  0  0  0
  7  8  1  0  0  0  0
  7 25  1  0  0  0  0
  8  9  2  0  0  0  0
  8 10  1  0  0  0  0
 10 11  1  0  0  0  0
 10 26  1  0  0  0  0
 11 17  1  0  0  0  0
 11 12  1  0  0  0  0
 11 27  1  0  0  0  0
 12 13  1  0  0  0  0
 12 28  1  0  0  0  0
 12 29  1  0  0  0  0
 13 14  1  0  0  0  0
 13 30  1  0  0  0  0
 13 31  1  0  0  0  0
 14 15  2  0  0  0  0
 14 16  2  0  0  0  0
 14 17  1  0  0  0  0
 17 32  1  0  0  0  0
 17 33  1  0  0  0  0
 18 19  2  0  0  0  0
 18 34  1  0  0  0  0
M  END
> <s_m_source_file>
AV-unprocessed.smi

> <i_m_source_file_index>
1449

> <i_lp_mmshare_version>
43012

> <i_f3d_flags>
0

> <s_epik_input>
W0NIM11PYzFbY0hdW2NIXWMoW2NIXW4xKVtOSF1DKD1PKVtOSF1bQ0BASF0oW0NIMl0yKVtDSDJdW0NIMl1TMig9Tyk9Tw==

> <s_epik_cmdline>
J2VwaWtfcHl0aG9uJywgJy1waCcsICc3LjAnLCAnLXRuJywgJzgnLCAnLW1hJywgJzIwMCcsICctbWV0YWxfYmluZGluZycsICctaW1hZScsICc8aW5maWxlLm1hZT4nLCAnLW9tYWUnLCAnPG91dGZpbGUubWFlPic=

> <r_lp_tautomer_probability>
1

> <r_epik_Ionization_Penalty>
7.6506e-05

> <r_epik_Ionization_Penalty_Charging>
0

> <r_epik_Ionization_Penalty_Neutral>
7.6506e-05

> <r_epik_State_Penalty>
-0

> <r_epik_Charging_Adjusted_Penalty>
0

> <i_epik_Tot_Q>
0

> <i_epik_Tot_abs_Q>
0

> <r_epik_Metal_State_Penalty>
-0

> <b_epik_Metal_Only>
0

> <s_lp_Force_Field>
OPLS_2005

> <r_lp_Energy>
18.5668

> <b_lp_Chiralities_Consistent>
1

> <s_lp_Variant>
AV-unprocessed.smi:1449-1

> <Gold.Version>
5.8.1

> <Gold.Id.Protein>
6NUR|6NUR_protein|mol2

> <Gold.PLP.Fitness>
35.8161

> <Gold.PLP.PLP>
-27.3137

> <Gold.PLP.part.hbond>
-4.0000

> <Gold.PLP.part.metal>
0.0000

> <Gold.PLP.part.buried>
-0.9879

> <Gold.PLP.part.nonpolar>
-27.0361

> <Gold.PLP.part.repulsive>
4.8361

> <Gold.PLP.ligand.clash>
0.0000

> <Gold.PLP.ligand.torsion>
0.2388

> <Gold.PLP.Chemscore.Hbond>
1.9924

> <Gold.PLP.Chemscore.CHOScore>
1.0000

> <Gold.PLP.Chemscore.Metal>
0.0000

> <Gold.Chemscore.Hbonds>
donor molecule, donor type, donor heavy atom, donor atom, acceptor molecule, acceptor atom, score
      L1  H     7    25       P1 10175  1.00
      L1  H    10    26       P1 10175  1.00
      L1  C    18    34       P1  7948  1.00

> <Gold.PLP.Chemscore.Internal.Correction>
0.0029

> <Gold.Rescore>
     Score         DG    S(hbond)    S(metal)    S(lipo)     H(rot)  DE(clash)    DE(int)     intcor
      9.23     -13.81       1.88        0.00      46.12       1.31       1.64       2.93       ----

> <Gold.Chemscore.Fitness>
9.2277

> <Gold.Chemscore.DG>
-13.8055

> <Gold.Chemscore.ZeroCoef>
-5.4800

> <Gold.Chemscore.Hbond>
1.8819

> <Gold.Chemscore.Metal>
0.0000

> <Gold.Chemscore.Lipo>
46.1181

> <Gold.Chemscore.Internal_Hbond>
0.0000

> <Gold.Chemscore.DEClash>
1.6449

> <Gold.Chemscore.DEInternal>
2.9330

> <Gold.Chemscore.Rot>
1.3109

> <Gold.Chemscore.Internal.Correction>
   9.000000E+99

> <Gold.Chemscore.Hbonds>
donor molecule, donor type, donor heavy atom, donor atom, acceptor molecule, acceptor atom, score
      L1  H     7    25       P1 10175  0.98
      L1  H    10    26       P1 10175  0.98

> <Gold.Chemscore.Hbond.Weighted>
-6.2856

> <Gold.Chemscore.Metal.Weighted>
-0.0000

> <Gold.Chemscore.Lipo.Weighted>
-5.3958

> <Gold.Chemscore.Internal_Hbond.Weighted>
0.0000

> <Gold.Chemscore.DEClash.Weighted>
1.6449

> <Gold.Chemscore.DEInternal.Weighted>
2.9330

> <Gold.Chemscore.Rot.Weighted>
3.3559

> <Gold.Chemscore.Internal.Correction.Weighted>
   9.000000E+99

> <Gold.Protein.RotatedTorsions>
[ 6907 6896 6895 6894 ] final -175.51 input  -60.11 | X-H torsion
[ 7974 7965 7964 7962 ] final  -81.08 input  175.53 | X-H torsion
[ 8008 7997 7996 7995 ] final   -0.42 input   59.86 | X-H torsion
[ 10167 10162 10161 10158 ] final  -50.68 input  -65.29 | X-H torsion
[ 10718 10713 10712 10709 ] final   70.08 input   66.30 | X-H torsion
[ 10763 10752 10751 10750 ] final  -52.02 input  -60.55 | X-H torsion
[ 11005 11000 10999 10996 ] final -147.52 input  -57.11 | X-H torsion

> <Gold.Protein.ActiveResidues>
 VAL166  LYS551  ARG553  GLY616  TRP617  ASP618  TYR619  PRO620  LYS621  CYS622 
 ASP623  PHE694  ASN695  SER759  ASP760  ASP761  ALA762  ILE779  LEU786  VAL792 
 PHE793  MET794  SER795  GLU796  ALA797  LYS798  CYS799  TRP800  GLU811  SER814 

> <Gold.Protein.RotatedAtoms>
  151.5897  133.3368  159.3024 H   0  0  0  0  0  0  0  0  0  0  0  0  # atno 6907 bound_to 6896
  150.8267  134.7504  159.6830 H   0  0  0  0  0  0  0  0  0  0  0  0  # atno 6908 bound_to 6896
  152.4355  134.5700  159.9970 H   0  0  0  0  0  0  0  0  0  0  0  0  # atno 6909 bound_to 6896
  145.5513  140.9496  143.1497 H   0  0  0  0  0  0  0  0  0  0  0  0  # atno 7974 bound_to 7965
  154.6583  140.2584  155.7137 H   0  0  0  0  0  0  0  0  0  0  0  0  # atno 8008 bound_to 7997
  156.2607  140.2854  156.0966 H   0  0  0  0  0  0  0  0  0  0  0  0  # atno 8009 bound_to 7997
  155.1347  140.0379  157.2774 H   0  0  0  0  0  0  0  0  0  0  0  0  # atno 8010 bound_to 7997
  140.6625  143.2648  151.4395 H   0  0  0  0  0  0  0  0  0  0  0  0  # atno 10167 bound_to 10162
  157.6381  130.9459  150.0601 H   0  0  0  0  0  0  0  0  0  0  0  0  # atno 10718 bound_to 10713
  154.1360  135.6512  153.4932 H   0  0  0  0  0  0  0  0  0  0  0  0  # atno 10763 bound_to 10752
  153.0180  135.5304  154.6953 H   0  0  0  0  0  0  0  0  0  0  0  0  # atno 10764 bound_to 10752
  154.6201  135.2964  155.0306 H   0  0  0  0  0  0  0  0  0  0  0  0  # atno 10765 bound_to 10752
  140.7708  134.3191  157.5075 H   0  0  0  0  0  0  0  0  0  0  0  0  # atno 11005 bound_to 11000
  144.7528  139.7151  143.7266 LP  0  0  0  0  0  0  0  0  0  0  0  0  # atno 17320 bound_to 7965
  146.1914  139.5157  142.9802 LP  0  0  0  0  0  0  0  0  0  0  0  0  # atno 17321 bound_to 7965
  139.5864  144.1596  152.2034 LP  0  0  0  0  0  0  0  0  0  0  0  0  # atno 17342 bound_to 10162
  140.0937  144.5599  150.7037 LP  0  0  0  0  0  0  0  0  0  0  0  0  # atno 17343 bound_to 10162
  156.1636  130.3644  149.9263 LP  0  0  0  0  0  0  0  0  0  0  0  0  # atno 17370 bound_to 10713
  156.7255  130.9023  151.3621 LP  0  0  0  0  0  0  0  0  0  0  0  0  # atno 17371 bound_to 10713
  139.8756  134.9260  156.3388 LP  0  0  0  0  0  0  0  0  0  0  0  0  # atno 17394 bound_to 11000
  140.9575  133.7410  156.0356 LP  0  0  0  0  0  0  0  0  0  0  0  0  # atno 17395 bound_to 11000

$$$$
