AV-unprocessed.smi:212|AV-procd|sdf|1627|dock2
  -GOLD-   2262019573D 1   1.00000     0.00000
 Structure written by MMmdl.
 65 68  0  0  0  0  0  0  0  0  2 V2000
  148.7740  129.6050  153.2649 C   0  0  0  0  0  0  0  0  0  0  0  0
  148.0471  130.6272  154.1551 C   0  0  2  0  0  0  0  0  0  0  0  0
  146.8548  131.2865  153.4303 C   0  0  0  0  0  0  0  0  0  0  0  0
  147.3100  132.2459  152.3892 N   0  3  1  0  0  0  0  0  0  0  0  0
  146.1982  132.8049  151.5756 C   0  0  0  0  0  0  0  0  0  0  0  0
  145.6903  131.8148  150.5010 C   0  0  0  0  0  0  0  0  0  0  0  0
  144.9936  130.6185  151.1708 C   0  0  0  0  0  0  0  0  0  0  0  0
  144.7411  132.4855  149.4907 C   0  0  0  0  0  0  0  0  0  0  0  0
  146.7951  131.2906  149.7917 O   0  0  0  0  0  0  0  0  0  0  0  0
  148.2101  133.2867  152.9463 C   0  0  0  0  0  0  0  0  0  0  0  0
  149.4053  132.6482  153.6777 C   0  0  0  0  0  0  0  0  0  0  0  0
  148.9624  131.6552  154.6581 N   0  0  0  0  0  0  0  0  0  0  0  0
  148.7715  132.0457  155.9458 C   0  0  0  0  0  0  0  0  0  0  0  0
  149.5954  131.5848  156.9244 N   0  0  0  0  0  0  0  0  0  0  0  0
  149.4228  131.9726  158.1917 C   0  0  0  0  0  0  0  0  0  0  0  0
  148.5041  132.7996  158.6933 N   0  0  0  0  0  0  0  0  0  0  0  0
  147.6683  133.2589  157.7188 C   0  0  0  0  0  0  0  0  0  0  0  0
  147.7310  132.9368  156.3337 C   0  0  0  0  0  0  0  0  0  0  0  0
  146.7107  133.5885  155.6503 N   0  0  0  0  0  0  0  0  0  0  0  0
  146.0871  134.2647  156.5764 C   0  0  0  0  0  0  0  0  0  0  0  0
  146.5983  134.1271  157.8465 N   0  0  0  0  0  0  0  0  0  0  0  0
  146.0964  134.7604  159.0532 C   0  0  0  0  0  0  0  0  0  0  0  0
  146.7601  134.2098  160.3432 C   0  0  2  0  0  0  0  0  0  0  0  0
  146.4547  132.7057  160.5428 C   0  0  0  0  0  0  0  0  0  0  0  0
  145.0688  132.4794  160.6946 O   0  0  0  0  0  0  0  0  0  0  0  0
  146.4108  135.0461  161.6075 C   0  0  1  0  0  0  0  0  0  0  0  0
  147.4424  134.9353  162.7342 C   0  0  0  0  0  0  0  0  0  0  0  0
  147.7307  136.3836  163.1225 C   0  0  0  0  0  0  0  0  0  0  0  0
  147.4773  137.1030  161.9284 O   0  0  0  0  0  0  0  0  0  0  0  0
  146.2891  136.5612  161.3747 C   0  0  0  0  0  0  0  0  0  0  0  0
  148.0941  128.8144  152.9470 H   0  0  0  0  0  0  0  0  0  0  0  0
  149.5946  129.1326  153.8056 H   0  0  0  0  0  0  0  0  0  0  0  0
  149.1869  130.0624  152.3657 H   0  0  0  0  0  0  0  0  0  0  0  0
  147.6300  130.0654  154.9906 H   0  0  0  0  0  0  0  0  0  0  0  0
  146.2186  130.5183  152.9907 H   0  0  0  0  0  0  0  0  0  0  0  0
  146.2382  131.8207  154.1552 H   0  0  0  0  0  0  0  0  0  0  0  0
  145.3812  133.1249  152.2246 H   0  0  0  0  0  0  0  0  0  0  0  0
  146.5351  133.7108  151.0689 H   0  0  0  0  0  0  0  0  0  0  0  0
  144.1169  130.9382  151.7352 H   0  0  0  0  0  0  0  0  0  0  0  0
  145.6610  130.1038  151.8633 H   0  0  0  0  0  0  0  0  0  0  0  0
  144.6587  129.8874  150.4338 H   0  0  0  0  0  0  0  0  0  0  0  0
  143.8760  132.9200  149.9927 H   0  0  0  0  0  0  0  0  0  0  0  0
  144.3686  131.7666  148.7598 H   0  0  0  0  0  0  0  0  0  0  0  0
  145.2356  133.2831  148.9353 H   0  0  0  0  0  0  0  0  0  0  0  0
  147.4695  131.0581  150.4118 H   0  0  0  0  0  0  0  0  0  0  0  0
  148.5789  133.9249  152.1425 H   0  0  0  0  0  0  0  0  0  0  0  0
  147.6441  133.9258  153.6257 H   0  0  0  0  0  0  0  0  0  0  0  0
  150.0534  132.1515  152.9556 H   0  0  0  0  0  0  0  0  0  0  0  0
  150.0221  133.4159  154.1469 H   0  0  0  0  0  0  0  0  0  0  0  0
  150.1215  131.5624  158.9059 H   0  0  0  0  0  0  0  0  0  0  0  0
  145.2313  134.8873  156.3580 H   0  0  0  0  0  0  0  0  0  0  0  0
  146.2607  135.8321  158.9487 H   0  0  0  0  0  0  0  0  0  0  0  0
  145.0155  134.6255  159.0873 H   0  0  0  0  0  0  0  0  0  0  0  0
  147.8395  134.2917  160.2040 H   0  0  0  0  0  0  0  0  0  0  0  0
  146.8281  132.1147  159.7064 H   0  0  0  0  0  0  0  0  0  0  0  0
  146.9373  132.3220  161.4407 H   0  0  0  0  0  0  0  0  0  0  0  0
  144.7676  132.9568  161.4526 H   0  0  0  0  0  0  0  0  0  0  0  0
  145.4580  134.6940  162.0037 H   0  0  0  0  0  0  0  0  0  0  0  0
  147.0696  134.3602  163.5824 H   0  0  0  0  0  0  0  0  0  0  0  0
  148.3580  134.4497  162.3992 H   0  0  0  0  0  0  0  0  0  0  0  0
  147.0469  136.7211  163.9031 H   0  0  0  0  0  0  0  0  0  0  0  0
  148.7522  136.5310  163.4732 H   0  0  0  0  0  0  0  0  0  0  0  0
  146.1702  136.8435  160.3289 H   0  0  0  0  0  0  0  0  0  0  0  0
  145.4325  136.9608  161.9198 H   0  0  0  0  0  0  0  0  0  0  0  0
  147.8767  131.7126  151.7453 H   0  0  0  0  0  0  0  0  0  0  0  0
  1  2  1  0  0  0  0
  1 31  1  0  0  0  0
  1 32  1  0  0  0  0
  1 33  1  0  0  0  0
  2 12  1  0  0  0  0
  2  3  1  0  0  0  0
  2 34  1  0  0  0  0
  3  4  1  0  0  0  0
  3 35  1  0  0  0  0
  3 36  1  0  0  0  0
  4  5  1  0  0  0  0
  4 10  1  0  0  0  0
  4 65  1  0  0  0  0
  5  6  1  0  0  0  0
  5 37  1  0  0  0  0
  5 38  1  0  0  0  0
  6  7  1  0  0  0  0
  6  8  1  0  0  0  0
  6  9  1  0  0  0  0
  7 39  1  0  0  0  0
  7 40  1  0  0  0  0
  7 41  1  0  0  0  0
  8 42  1  0  0  0  0
  8 43  1  0  0  0  0
  8 44  1  0  0  0  0
  9 45  1  0  0  0  0
 10 11  1  0  0  0  0
 10 46  1  0  0  0  0
 10 47  1  0  0  0  0
 11 12  1  0  0  0  0
 11 48  1  0  0  0  0
 11 49  1  0  0  0  0
 12 13  1  0  0  0  0
 13 18  1  0  0  0  0
 13 14  2  0  0  0  0
 14 15  1  0  0  0  0
 15 16  2  0  0  0  0
 15 50  1  0  0  0  0
 16 17  1  0  0  0  0
 17 21  1  0  0  0  0
 17 18  2  0  0  0  0
 18 19  1  0  0  0  0
 19 20  2  0  0  0  0
 20 21  1  0  0  0  0
 20 51  1  0  0  0  0
 21 22  1  0  0  0  0
 22 23  1  0  0  0  0
 22 52  1  0  0  0  0
 22 53  1  0  0  0  0
 23 24  1  0  0  0  0
 23 26  1  0  0  0  0
 23 54  1  0  0  0  0
 24 25  1  0  0  0  0
 24 55  1  0  0  0  0
 24 56  1  0  0  0  0
 25 57  1  0  0  0  0
 26 30  1  0  0  0  0
 26 27  1  0  0  0  0
 26 58  1  0  0  0  0
 27 28  1  0  0  0  0
 27 59  1  0  0  0  0
 27 60  1  0  0  0  0
 28 29  1  0  0  0  0
 28 61  1  0  0  0  0
 28 62  1  0  0  0  0
 29 30  1  0  0  0  0
 30 63  1  0  0  0  0
 30 64  1  0  0  0  0
M  CHG  1   4   1
M  END
> <s_m_source_file>
AV-unprocessed.smi

> <i_m_source_file_index>
212

> <i_lp_mmshare_version>
43012

> <i_f3d_flags>
0

> <s_epik_input>
W0NIM11bQ0BASF0xW0NIMl1OKFtDSDJdQyhbQ0gzXSkoW0NIM10pW09IXSlbQ0gyXVtDSDJdTjFjKG5bY0hdbjIpYyhjMjMpbltjSF1uM1tDSDJdW0NASF0oW0NIMl1bT0hdKVtDQEBIXTRbQ0gyXVtDSDJdT1tDSDJdNA==

> <s_epik_cmdline>
J2VwaWtfcHl0aG9uJywgJy1waCcsICc3LjAnLCAnLXRuJywgJzgnLCAnLW1hJywgJzIwMCcsICctbWV0YWxfYmluZGluZycsICctaW1hZScsICc8aW5maWxlLm1hZT4nLCAnLW9tYWUnLCAnPG91dGZpbGUubWFlPic=

> <r_lp_tautomer_probability>
1

> <r_epik_Ionization_Penalty>
0.00182193

> <r_epik_Ionization_Penalty_Charging>
0.00173996

> <r_epik_Ionization_Penalty_Neutral>
8.19718e-05

> <r_epik_State_Penalty>
-0

> <r_epik_Charging_Adjusted_Penalty>
0.00173996

> <i_epik_Tot_Q>
1

> <i_epik_Tot_abs_Q>
1

> <r_epik_Metal_State_Penalty>
-0

> <b_epik_Metal_Only>
0

> <s_lp_Force_Field>
OPLS_2005

> <r_lp_Energy>
60.0337

> <b_lp_Chiralities_Consistent>
1

> <s_lp_Variant>
AV-unprocessed.smi:212-11

> <Gold.Version>
5.8.1

> <Gold.Id.Protein>
6NUR|6NUR_protein|mol2

> <Gold.PLP.Fitness>
47.8816

> <Gold.PLP.PLP>
-42.5519

> <Gold.PLP.part.hbond>
-3.0841

> <Gold.PLP.part.metal>
0.0000

> <Gold.PLP.part.buried>
-5.6562

> <Gold.PLP.part.nonpolar>
-32.4095

> <Gold.PLP.part.repulsive>
0.0243

> <Gold.PLP.ligand.clash>
0.0000

> <Gold.PLP.ligand.torsion>
2.1857

> <Gold.PLP.Chemscore.Hbond>
2.8888

> <Gold.PLP.Chemscore.CHOScore>
0.0000

> <Gold.PLP.Chemscore.Metal>
0.0000

> <Gold.Chemscore.Hbonds>
donor molecule, donor type, donor heavy atom, donor atom, acceptor molecule, acceptor atom, score
      L1  H     4    65       P1 10747  1.00
      L1  H     9    45       P1 10747  0.62
      P1  H  6931  6943       L1    29  0.93
      P1  H  6934  6947       L1    29  0.31

> <Gold.PLP.Chemscore.Internal.Correction>
1.0347

> <Gold.Rescore>
     Score         DG    S(hbond)    S(metal)    S(lipo)     H(rot)  DE(clash)    DE(int)     intcor
     12.50     -18.70       2.67        0.00     111.22       3.40       0.23       5.97       ----

> <Gold.Chemscore.Fitness>
12.4990

> <Gold.Chemscore.DG>
-18.6966

> <Gold.Chemscore.ZeroCoef>
-5.4800

> <Gold.Chemscore.Hbond>
2.6659

> <Gold.Chemscore.Metal>
0.0000

> <Gold.Chemscore.Lipo>
111.2218

> <Gold.Chemscore.Internal_Hbond>
0.0000

> <Gold.Chemscore.DEClash>
0.2281

> <Gold.Chemscore.DEInternal>
5.9694

> <Gold.Chemscore.Rot>
3.3986

> <Gold.Chemscore.Internal.Correction>
   9.000000E+99

> <Gold.Chemscore.Hbonds>
donor molecule, donor type, donor heavy atom, donor atom, acceptor molecule, acceptor atom, score
      L1  H     4    65       P1 10747  0.93
      L1  H     9    45       P1 10747  0.58
      P1  H  6931  6943       L1    29  0.20
      P1  H  6934  6947       L1    29  0.03

> <Gold.Chemscore.Hbond.Weighted>
-8.9041

> <Gold.Chemscore.Metal.Weighted>
-0.0000

> <Gold.Chemscore.Lipo.Weighted>
-13.0130

> <Gold.Chemscore.Internal_Hbond.Weighted>
0.0000

> <Gold.Chemscore.DEClash.Weighted>
0.2281

> <Gold.Chemscore.DEInternal.Weighted>
5.9694

> <Gold.Chemscore.Rot.Weighted>
8.7005

> <Gold.Chemscore.Internal.Correction.Weighted>
   9.000000E+99

> <Gold.Protein.RotatedTorsions>
[ 6907 6896 6895 6894 ] final -108.56 input  -60.11 | X-H torsion
[ 7974 7965 7964 7962 ] final   59.89 input  175.53 | X-H torsion
[ 8008 7997 7996 7995 ] final  -70.29 input   59.86 | X-H torsion
[ 10167 10162 10161 10158 ] final -154.97 input  -65.29 | X-H torsion
[ 10718 10713 10712 10709 ] final  -84.07 input   66.30 | X-H torsion
[ 10763 10752 10751 10750 ] final   -6.53 input  -60.55 | X-H torsion
[ 11005 11000 10999 10996 ] final    1.53 input  -57.11 | X-H torsion

> <Gold.Protein.ActiveResidues>
 VAL166  LYS551  ARG553  GLY616  TRP617  ASP618  TYR619  PRO620  LYS621  CYS622 
 ASP623  PHE694  ASN695  SER759  ASP760  ASP761  ALA762  ILE779  LEU786  VAL792 
 PHE793  MET794  SER795  GLU796  ALA797  LYS798  CYS799  TRP800  GLU811  SER814 

> <Gold.Protein.RotatedAtoms>
  150.7509  133.9659  159.3530 H   0  0  0  0  0  0  0  0  0  0  0  0  # atno 6907 bound_to 6896
  151.7589  135.0813  160.0352 H   0  0  0  0  0  0  0  0  0  0  0  0  # atno 6908 bound_to 6896
  152.3416  133.6037  159.5917 H   0  0  0  0  0  0  0  0  0  0  0  0  # atno 6909 bound_to 6896
  145.9021  139.3589  143.0586 H   0  0  0  0  0  0  0  0  0  0  0  0  # atno 7974 bound_to 7965
  154.5001  140.0837  156.7780 H   0  0  0  0  0  0  0  0  0  0  0  0  # atno 8008 bound_to 7997
  155.4023  140.3437  155.4239 H   0  0  0  0  0  0  0  0  0  0  0  0  # atno 8009 bound_to 7997
  156.1445  140.1539  156.8856 H   0  0  0  0  0  0  0  0  0  0  0  0  # atno 8010 bound_to 7997
  139.6969  143.9327  152.2411 H   0  0  0  0  0  0  0  0  0  0  0  0  # atno 10167 bound_to 10162
  156.0010  130.4686  150.4354 H   0  0  0  0  0  0  0  0  0  0  0  0  # atno 10718 bound_to 10713
  153.4137  135.7008  153.6341 H   0  0  0  0  0  0  0  0  0  0  0  0  # atno 10763 bound_to 10752
  153.4825  135.3690  155.2450 H   0  0  0  0  0  0  0  0  0  0  0  0  # atno 10764 bound_to 10752
  154.8718  135.4069  154.3493 H   0  0  0  0  0  0  0  0  0  0  0  0  # atno 10765 bound_to 10752
  140.6144  133.9719  155.8193 H   0  0  0  0  0  0  0  0  0  0  0  0  # atno 11005 bound_to 11000
  145.8778  140.9381  143.0617 LP  0  0  0  0  0  0  0  0  0  0  0  0  # atno 17320 bound_to 7965
  144.6736  140.0739  143.7472 LP  0  0  0  0  0  0  0  0  0  0  0  0  # atno 17321 bound_to 7965
  139.9159  144.6829  150.8513 LP  0  0  0  0  0  0  0  0  0  0  0  0  # atno 17342 bound_to 10162
  140.7699  143.3410  151.2209 LP  0  0  0  0  0  0  0  0  0  0  0  0  # atno 17343 bound_to 10162
  157.2399  131.0523  151.2443 LP  0  0  0  0  0  0  0  0  0  0  0  0  # atno 17370 bound_to 10713
  157.3630  130.7141  149.6514 LP  0  0  0  0  0  0  0  0  0  0  0  0  # atno 17371 bound_to 10713
  141.0786  134.0097  157.3420 LP  0  0  0  0  0  0  0  0  0  0  0  0  # atno 17394 bound_to 11000
  139.9179  135.0198  156.7952 LP  0  0  0  0  0  0  0  0  0  0  0  0  # atno 17395 bound_to 11000

$$$$
