AV-unprocessed.smi:1623|AV-procd|sdf|6502|dock1
  -GOLD-   22720 7163D 1   1.00000     0.00000
 Structure written by MMmdl.
 42 43  0  0  0  0  0  0  0  0  1 V2000
  145.1601  144.4285  152.9058 C   0  0  0  0  0  0  0  0  0  0  0  0
  145.5713  143.4071  153.9318 C   0  0  0  0  0  0  0  0  0  0  0  0
  146.4166  142.5071  153.5489 N   0  0  0  0  0  0  0  0  0  0  0  0
  146.8599  141.5251  154.4114 N   0  0  0  0  0  0  0  0  0  0  0  0
  147.8002  140.5781  153.8026 C   0  0  0  0  0  0  0  0  0  0  0  0
  149.0864  140.4234  154.6451 C   0  0  1  0  0  0  0  0  0  0  0  0
  150.1634  140.1241  153.7801 O   0  0  0  0  0  0  0  0  0  0  0  0
  149.4433  141.7164  155.3911 C   0  0  0  0  0  0  0  0  0  0  0  0
  150.3099  141.3875  156.4668 O   0  0  0  0  0  0  0  0  0  0  0  0
  150.7870  142.5109  157.1921 C   0  0  0  0  0  0  0  0  0  0  0  0
  151.7971  142.1400  158.2682 C   0  0  0  0  0  0  0  0  0  0  0  0
  152.0886  140.7791  158.5035 C   0  0  0  0  0  0  0  0  0  0  0  0
  153.0200  140.4107  159.4929 C   0  0  0  0  0  0  0  0  0  0  0  0
  153.6637  141.4018  160.2567 C   0  0  0  0  0  0  0  0  0  0  0  0
  153.3737  142.7607  160.0314 C   0  0  0  0  0  0  0  0  0  0  0  0
  152.4426  143.1349  159.0416 C   0  0  0  0  0  0  0  0  0  0  0  0
  152.1134  144.8149  158.7996 Cl  0  0  0  0  0  0  0  0  0  0  0  0
  146.4730  141.3996  155.7131 C   0  0  0  0  0  0  0  0  0  0  0  0
  146.8916  140.5021  156.4459 O   0  0  0  0  0  0  0  0  0  0  0  0
  145.5154  142.4220  156.1406 C   0  0  0  0  0  0  0  0  0  0  0  0
  145.0812  142.3261  157.4970 C   0  0  0  0  0  0  0  0  0  0  0  0
  144.7459  142.2357  158.6013 N   0  0  0  0  0  0  0  0  0  0  0  0
  145.0693  143.3911  155.3023 C   0  0  0  0  0  0  0  0  0  0  0  0
  144.0730  144.4732  155.6958 C   0  0  0  0  0  0  0  0  0  0  0  0
  144.0842  144.3930  152.7332 H   0  0  0  0  0  0  0  0  0  0  0  0
  145.6524  144.2619  151.9462 H   0  0  0  0  0  0  0  0  0  0  0  0
  145.4178  145.4349  153.2367 H   0  0  0  0  0  0  0  0  0  0  0  0
  147.3288  139.6076  153.6340 H   0  0  0  0  0  0  0  0  0  0  0  0
  148.0493  140.9346  152.8015 H   0  0  0  0  0  0  0  0  0  0  0  0
  148.9911  139.6142  155.3705 H   0  0  0  0  0  0  0  0  0  0  0  0
  150.5179  139.2828  154.0250 H   0  0  0  0  0  0  0  0  0  0  0  0
  149.9569  142.4126  154.7259 H   0  0  0  0  0  0  0  0  0  0  0  0
  148.5354  142.2087  155.7431 H   0  0  0  0  0  0  0  0  0  0  0  0
  151.2738  143.1866  156.4883 H   0  0  0  0  0  0  0  0  0  0  0  0
  149.9494  143.0660  157.6172 H   0  0  0  0  0  0  0  0  0  0  0  0
  151.6007  140.0106  157.9217 H   0  0  0  0  0  0  0  0  0  0  0  0
  153.2400  139.3675  159.6656 H   0  0  0  0  0  0  0  0  0  0  0  0
  154.3782  141.1202  161.0159 H   0  0  0  0  0  0  0  0  0  0  0  0
  153.8680  143.5186  160.6212 H   0  0  0  0  0  0  0  0  0  0  0  0
  143.7515  144.3808  156.7328 H   0  0  0  0  0  0  0  0  0  0  0  0
  143.1807  144.4177  155.0713 H   0  0  0  0  0  0  0  0  0  0  0  0
  144.5157  145.4626  155.5775 H   0  0  0  0  0  0  0  0  0  0  0  0
  1  2  1  0  0  0  0
  1 25  1  0  0  0  0
  1 26  1  0  0  0  0
  1 27  1  0  0  0  0
  2 23  1  0  0  0  0
  2  3  2  0  0  0  0
  3  4  1  0  0  0  0
  4  5  1  0  0  0  0
  4 18  1  0  0  0  0
  5  6  1  0  0  0  0
  5 28  1  0  0  0  0
  5 29  1  0  0  0  0
  6  7  1  0  0  0  0
  6  8  1  0  0  0  0
  6 30  1  0  0  0  0
  7 31  1  0  0  0  0
  8  9  1  0  0  0  0
  8 32  1  0  0  0  0
  8 33  1  0  0  0  0
  9 10  1  0  0  0  0
 10 11  1  0  0  0  0
 10 34  1  0  0  0  0
 10 35  1  0  0  0  0
 11 16  1  0  0  0  0
 11 12  2  0  0  0  0
 12 13  1  0  0  0  0
 12 36  1  0  0  0  0
 13 14  2  0  0  0  0
 13 37  1  0  0  0  0
 14 15  1  0  0  0  0
 14 38  1  0  0  0  0
 15 16  2  0  0  0  0
 15 39  1  0  0  0  0
 16 17  1  0  0  0  0
 18 19  2  0  0  0  0
 18 20  1  0  0  0  0
 20 21  1  0  0  0  0
 20 23  2  0  0  0  0
 21 22  3  0  0  0  0
 23 24  1  0  0  0  0
 24 40  1  0  0  0  0
 24 41  1  0  0  0  0
 24 42  1  0  0  0  0
M  END
> <s_m_source_file>
AV-unprocessed.smi

> <i_m_source_file_index>
1623

> <i_lp_mmshare_version>
43012

> <i_f3d_flags>
0

> <s_epik_input>
TiNDYyhjMVtDSDNdKWMoPU8pbihuYzFbQ0gzXSlbQ0gyXVtDQEhdKFtPSF0pW0NIMl1PW0NIMl1jMltjSF1bY0hdW2NIXVtjSF1jMkNs

> <s_epik_cmdline>
J2VwaWtfcHl0aG9uJywgJy1waCcsICc3LjAnLCAnLXRuJywgJzgnLCAnLW1hJywgJzIwMCcsICctbWV0YWxfYmluZGluZycsICctaW1hZScsICc8aW5maWxlLm1hZT4nLCAnLW9tYWUnLCAnPG91dGZpbGUubWFlPic=

> <r_lp_tautomer_probability>
1

> <r_epik_Ionization_Penalty>
6.50533e-08

> <r_epik_Ionization_Penalty_Charging>
2.19172e-10

> <r_epik_Ionization_Penalty_Neutral>
6.48342e-08

> <r_epik_State_Penalty>
-0

> <r_epik_Charging_Adjusted_Penalty>
2.19172e-10

> <i_epik_Tot_Q>
0

> <i_epik_Tot_abs_Q>
0

> <r_epik_Metal_State_Penalty>
-0

> <b_epik_Metal_Only>
0

> <s_lp_Force_Field>
OPLS_2005

> <r_lp_Energy>
29.8059

> <b_lp_Chiralities_Consistent>
1

> <s_lp_Variant>
AV-unprocessed.smi:1623-2

> <Gold.Version>
5.8.1

> <Gold.Id.Protein>
6NUR|6NUR_protein|mol2

> <Gold.PLP.Fitness>
51.4549

> <Gold.PLP.PLP>
-50.0015

> <Gold.PLP.part.hbond>
-2.0000

> <Gold.PLP.part.metal>
0.0000

> <Gold.PLP.part.buried>
-3.6817

> <Gold.PLP.part.nonpolar>
-45.1639

> <Gold.PLP.part.repulsive>
0.2940

> <Gold.PLP.ligand.clash>
0.0000

> <Gold.PLP.ligand.torsion>
0.6523

> <Gold.PLP.Chemscore.Hbond>
0.8480

> <Gold.PLP.Chemscore.CHOScore>
0.0000

> <Gold.PLP.Chemscore.Metal>
0.0000

> <Gold.Chemscore.Hbonds>
donor molecule, donor type, donor heavy atom, donor atom, acceptor molecule, acceptor atom, score
      P1  H  7989  7998       L1     7  0.69

> <Gold.PLP.Chemscore.Internal.Correction>
0.2139

> <Gold.Rescore>
     Score         DG    S(hbond)    S(metal)    S(lipo)     H(rot)  DE(clash)    DE(int)     intcor
     15.72     -17.48       0.92        0.00     130.62       2.48       0.18       1.58       ----

> <Gold.Chemscore.Fitness>
15.7208

> <Gold.Chemscore.DG>
-17.4838

> <Gold.Chemscore.ZeroCoef>
-5.4800

> <Gold.Chemscore.Hbond>
0.9175

> <Gold.Chemscore.Metal>
0.0000

> <Gold.Chemscore.Lipo>
130.6181

> <Gold.Chemscore.Internal_Hbond>
0.0000

> <Gold.Chemscore.DEClash>
0.1834

> <Gold.Chemscore.DEInternal>
1.5795

> <Gold.Chemscore.Rot>
2.4777

> <Gold.Chemscore.Internal.Correction>
   9.000000E+99

> <Gold.Chemscore.Hbonds>
donor molecule, donor type, donor heavy atom, donor atom, acceptor molecule, acceptor atom, score
      P1  H  7989  7998       L1     7  0.12

> <Gold.Chemscore.Hbond.Weighted>
-3.0643

> <Gold.Chemscore.Metal.Weighted>
-0.0000

> <Gold.Chemscore.Lipo.Weighted>
-15.2823

> <Gold.Chemscore.Internal_Hbond.Weighted>
0.0000

> <Gold.Chemscore.DEClash.Weighted>
0.1834

> <Gold.Chemscore.DEInternal.Weighted>
1.5795

> <Gold.Chemscore.Rot.Weighted>
6.3428

> <Gold.Chemscore.Internal.Correction.Weighted>
   9.000000E+99

> <Gold.Protein.RotatedTorsions>
[ 6907 6896 6895 6894 ] final -165.98 input  -60.11 | X-H torsion
[ 7974 7965 7964 7962 ] final   23.92 input  175.53 | X-H torsion
[ 8008 7997 7996 7995 ] final  175.45 input   59.86 | X-H torsion
[ 10167 10162 10161 10158 ] final -108.27 input  -65.29 | X-H torsion
[ 10718 10713 10712 10709 ] final  128.47 input   66.30 | X-H torsion
[ 10763 10752 10751 10750 ] final  -29.76 input  -60.55 | X-H torsion
[ 11005 11000 10999 10996 ] final   66.47 input  -57.11 | X-H torsion

> <Gold.Protein.ActiveResidues>
 VAL166  LYS551  ARG553  GLY616  TRP617  ASP618  TYR619  PRO620  LYS621  CYS622 
 ASP623  PHE694  ASN695  SER759  ASP760  ASP761  ALA762  ILE779  LEU786  VAL792 
 PHE793  MET794  SER795  GLU796  ALA797  LYS798  CYS799  TRP800  GLU811  SER814 

> <Gold.Protein.RotatedAtoms>
  151.4363  133.3656  159.2775 H   0  0  0  0  0  0  0  0  0  0  0  0  # atno 6907 bound_to 6896
  150.9189  134.8609  159.7486 H   0  0  0  0  0  0  0  0  0  0  0  0  # atno 6908 bound_to 6896
  152.4972  134.4299  159.9560 H   0  0  0  0  0  0  0  0  0  0  0  0  # atno 6909 bound_to 6896
  146.1962  139.7677  142.8795 H   0  0  0  0  0  0  0  0  0  0  0  0  # atno 7974 bound_to 7965
  156.0869  140.1408  156.9641 H   0  0  0  0  0  0  0  0  0  0  0  0  # atno 8008 bound_to 7997
  154.4618  140.0940  156.6962 H   0  0  0  0  0  0  0  0  0  0  0  0  # atno 8009 bound_to 7997
  155.4983  140.3450  155.4369 H   0  0  0  0  0  0  0  0  0  0  0  0  # atno 8010 bound_to 7997
  140.1680  143.4066  152.1376 H   0  0  0  0  0  0  0  0  0  0  0  0  # atno 10167 bound_to 10162
  157.5241  131.1098  150.9109 H   0  0  0  0  0  0  0  0  0  0  0  0  # atno 10718 bound_to 10713
  153.7700  135.6913  153.4908 H   0  0  0  0  0  0  0  0  0  0  0  0  # atno 10763 bound_to 10752
  153.1881  135.4481  155.0113 H   0  0  0  0  0  0  0  0  0  0  0  0  # atno 10764 bound_to 10752
  154.8121  135.3382  154.7210 H   0  0  0  0  0  0  0  0  0  0  0  0  # atno 10765 bound_to 10752
  139.9830  134.6713  156.0227 H   0  0  0  0  0  0  0  0  0  0  0  0  # atno 11005 bound_to 11000
  145.3636  141.0330  143.3271 LP  0  0  0  0  0  0  0  0  0  0  0  0  # atno 17320 bound_to 7965
  144.8585  139.5212  143.6823 LP  0  0  0  0  0  0  0  0  0  0  0  0  # atno 17321 bound_to 7965
  139.5351  144.7200  151.4922 LP  0  0  0  0  0  0  0  0  0  0  0  0  # atno 17342 bound_to 10162
  140.6600  143.8518  150.6878 LP  0  0  0  0  0  0  0  0  0  0  0  0  # atno 17343 bound_to 10162
  156.9710  130.5491  149.5290 LP  0  0  0  0  0  0  0  0  0  0  0  0  # atno 17370 bound_to 10713
  156.0375  130.5461  150.8689 LP  0  0  0  0  0  0  0  0  0  0  0  0  # atno 17371 bound_to 10713
  141.1499  133.6550  156.3982 LP  0  0  0  0  0  0  0  0  0  0  0  0  # atno 17394 bound_to 11000
  140.5058  134.6442  157.5266 LP  0  0  0  0  0  0  0  0  0  0  0  0  # atno 17395 bound_to 11000

$$$$
