#       Name:                AV-unprocessed.smi:2926
#       Creating user name   scv26
#       Creation time:       Fri Mar 27 16:11:41 2020


#       File generated by GOLD software.
#

@<TRIPOS>MOLECULE
AV-unprocessed.smi:2926
    38    38     1
SMALL
NO_CHARGES


@<TRIPOS>ATOM
      1 ****        -1.2242  -0.9014  -2.3031 C.3            1 S1                 0.0000
      2 ****        -1.7672  -1.6609  -1.0759 C.3            1 S1                 0.0000
      3 ****        -3.2750  -1.9057  -1.2762 C.3            1 S1                 0.0000
      4 ****        -1.4456  -0.9207   0.2526 C.3            1 S1                 0.0000
      5 ****        -1.9282  -1.6601   1.5197 C.3            1 S1                 0.0000
      6 ****        -1.9210  -0.7866   2.6292 O.3            1 S1                 0.0000
      7 ****         0.0092  -0.7501   0.3618 N.3            1 S1                 0.0000
      8 ****         0.6531   0.8446   0.5095 S.o2           1 S1                 0.0000
      9 ****         0.0348   1.6792  -0.5325 O.2            1 S1                 0.0000
     10 ****         0.5493   1.2373   1.9232 O.2            1 S1                 0.0000
     11 ****         2.4274   0.5959   0.0806 C.3            1 S1                 0.0000
     12 ****         3.1349   1.9214   0.0629 C.2            1 S1                 0.0000
     13 ****         3.4341   2.7803   1.1569 C.2            1 S1                 0.0000
     14 ****         4.0800   3.8303   0.5707 C.2            1 S1                 0.0000
     15 ****         4.1788   3.6393  -0.7691 O.3            1 S1                 0.0000
     16 ****         3.5742   2.4169  -1.0834 N.2            1 S1                 0.0000
     17 ****        -1.9246   0.0592   0.2148 H              1 S1                 0.0000
     18 ****        -1.6487   0.1011  -2.3667 H              1 S1                 0.0000
     19 ****        -1.4678  -1.4230  -3.2291 H              1 S1                 0.0000
     20 ****        -0.1390  -0.8013  -2.2746 H              1 S1                 0.0000
     21 ****        -1.2782  -2.6359  -1.0518 H              1 S1                 0.0000
     22 ****        -3.8403  -0.9763  -1.2006 H              1 S1                 0.0000
     23 ****        -3.6792  -2.6081  -0.5487 H              1 S1                 0.0000
     24 ****        -3.4752  -2.3334  -2.2591 H              1 S1                 0.0000
     25 ****        -2.9549  -2.0055   1.4175 H              1 S1                 0.0000
     26 ****        -1.3158  -2.5381   1.7289 H              1 S1                 0.0000
     27 ****        -2.2446  -1.2545   3.3836 H              1 S1                 0.0000
     28 ****         0.3932  -1.3665   1.0777 H              1 S1                 0.0000
     29 ****         2.8706  -0.0750   0.8158 H              1 S1                 0.0000
     30 ****         2.4762   0.1047  -0.8919 H              1 S1                 0.0000
     31 ****         3.2059   2.6486   2.2043 H              1 S1                 0.0000
     32 ****         4.5093   4.7445   0.9529 H              1 S1                 0.0000
     33 ****        -2.5098  -0.0001   2.4426 LP             1 S1                 0.0000
     34 ****        -0.9883  -0.4708   2.8033 LP             1 S1                 0.0000
     35 ****         0.3180  -1.0108  -0.5529 LP             1 S1                 0.0000
     36 ****         5.1417   3.6195  -1.0379 LP             1 S1                 0.0000
     37 ****         3.7132   4.3810  -1.2518 LP             1 S1                 0.0000
     38 ****         3.4909   2.0021  -1.9895 LP             1 S1                 0.0000
@<TRIPOS>BOND
    1    1    2 1     
    2    1   18 1     
    3    1   19 1     
    4    1   20 1     
    5    2    3 1     
    6    2    4 1     
    7    2   21 1     
    8    3   22 1     
    9    3   23 1     
   10    3   24 1     
   11    4   17 1     
   12    4    5 1     
   13    4    7 1     
   14    5    6 1     
   15    5   25 1     
   16    5   26 1     
   17    6   27 1     
   18    7    8 1     
   19    7   28 1     
   20    8    9 2     
   21    8   10 2     
   22    8   11 1     
   23   11   12 1     
   24   11   29 1     
   25   11   30 1     
   26   12   16 2     
   27   12   13 1     
   28   13   14 2     
   29   13   31 1     
   30   14   15 1     
   31   14   32 1     
   32   15   16 1     
   33    6   33 1     
   34    6   34 1     
   35    7   35 1     
   36   15   36 1     
   37   15   37 1     
   38   16   38 1     
@<TRIPOS>SUBSTRUCTURE
      1 S1             1
@<TRIPOS>SET
LONE_PAIRS      STATIC     ATOMS    <user>   **** ""
8 33 34 35 9 10 36 37 38
DONOR_HYDROGENS      STATIC     ATOMS    <user>   **** ""
2 27 28
ATOM$BLUE        STATIC     ATOMS    COLORGROUP SYSTEM
8 33 34 35 9 10 36 37 38
ATOM$RED        STATIC     ATOMS    COLORGROUP SYSTEM
2 27 28
