#       Name:                AV-unprocessed.smi:703
#       Creating user name   scv26
#       Creation time:       Fri Mar 27 00:42:36 2020


#       File generated by GOLD software.
#

@<TRIPOS>MOLECULE
AV-unprocessed.smi:703
    41    42     1
SMALL
NO_CHARGES


@<TRIPOS>ATOM
      1 ****        -2.4562  -2.3318   2.3622 C.3            1 S1                 0.0000
      2 ****        -2.6548  -2.0237   0.8719 C.3            1 S1                 0.0000
      3 ****        -2.3735  -0.6041   0.5506 N.4            1 S1                 1.0000
      4 ****        -2.7872  -0.1918  -0.8126 C.3            1 S1                 0.0000
      5 ****        -1.5990   0.5612  -1.4340 C.3            1 S1                 0.0000
      6 ****        -2.0259   1.6960  -2.3859 C.3            1 S1                 0.0000
      7 ****        -0.7685   0.9929  -0.2160 C.3            1 S1                 0.0000
      8 ****         0.6303   1.1821  -0.5660 N.pl3          1 S1                -1.0000
      9 ****         1.6643   1.7795   0.5322 S.o2           1 S1                 0.0000
     10 ****         1.3868   3.1919   0.8386 O.2            1 S1                 0.0000
     11 ****         1.8634   0.8726   1.6751 O.2            1 S1                 0.0000
     12 ****         3.2401   1.7716  -0.4321 C.3            1 S1                 0.0000
     13 ****         3.8436   0.3943  -0.4517 C.2            1 S1                 0.0000
     14 ****         4.7931  -0.1667   0.4471 C.2            1 S1                 0.0000
     15 ****         4.9845  -1.4283  -0.0373 C.2            1 S1                 0.0000
     16 ****         4.2278  -1.6322  -1.1448 O.3            1 S1                 0.0000
     17 ****         3.5067  -0.4614  -1.4046 N.2            1 S1                 0.0000
     18 ****        -0.9673  -0.1867   0.7382 C.3            1 S1                 0.0000
     19 ****        -2.7213  -3.3665   2.5798 H              1 S1                 0.0000
     20 ****        -3.0823  -1.6913   2.9841 H              1 S1                 0.0000
     21 ****        -1.4194  -2.1890   2.6679 H              1 S1                 0.0000
     22 ****        -2.0267  -2.6746   0.2616 H              1 S1                 0.0000
     23 ****        -3.6893  -2.2433   0.6047 H              1 S1                 0.0000
     24 ****        -3.0681  -1.0431  -1.4349 H              1 S1                 0.0000
     25 ****        -3.6689   0.4459  -0.7233 H              1 S1                 0.0000
     26 ****        -1.0198  -0.1659  -2.0075 H              1 S1                 0.0000
     27 ****        -2.6301   2.4534  -1.8832 H              1 S1                 0.0000
     28 ****        -2.6237   1.2991  -3.2066 H              1 S1                 0.0000
     29 ****        -1.1646   2.1974  -2.8312 H              1 S1                 0.0000
     30 ****        -1.2176   1.8860   0.2213 H              1 S1                 0.0000
     31 ****         3.0431   2.1499  -1.4354 H              1 S1                 0.0000
     32 ****         3.9229   2.4701   0.0507 H              1 S1                 0.0000
     33 ****         5.2542   0.2836   1.3134 H              1 S1                 0.0000
     34 ****         5.5980  -2.2592   0.2781 H              1 S1                 0.0000
     35 ****        -0.7704   0.0808   1.7768 H              1 S1                 0.0000
     36 ****        -0.3017  -1.0100   0.4697 H              1 S1                 0.0000
     37 ****        -2.9211  -0.0387   1.1833 H              1 S1                 0.0000
     38 ****         0.9541   0.9444  -1.4818 LP             1 S1                 0.0000
     39 ****         3.5957  -2.3910  -0.9877 LP             1 S1                 0.0000
     40 ****         4.8180  -1.8458  -1.9233 LP             1 S1                 0.0000
     41 ****         2.8670  -0.3031  -2.1568 LP             1 S1                 0.0000
@<TRIPOS>BOND
    1    1    2 1     
    2    1   19 1     
    3    1   20 1     
    4    1   21 1     
    5    2    3 1     
    6    2   22 1     
    7    2   23 1     
    8    3   18 1     
    9    3    4 1     
   10    3   37 1     
   11    4    5 1     
   12    4   24 1     
   13    4   25 1     
   14    5    6 1     
   15    5    7 1     
   16    5   26 1     
   17    6   27 1     
   18    6   28 1     
   19    6   29 1     
   20    7    8 1     
   21    7   18 1     
   22    7   30 1     
   23    8    9 1     
   24    9   10 2     
   25    9   11 2     
   26    9   12 1     
   27   12   13 1     
   28   12   31 1     
   29   12   32 1     
   30   13   17 2     
   31   13   14 1     
   32   14   15 2     
   33   14   33 1     
   34   15   16 1     
   35   15   34 1     
   36   16   17 1     
   37   18   35 1     
   38   18   36 1     
   39    8   38 1     
   40   16   39 1     
   41   16   40 1     
   42   17   41 1     
@<TRIPOS>SUBSTRUCTURE
      1 S1             1
@<TRIPOS>SET
LONE_PAIRS      STATIC     ATOMS    <user>   **** ""
6 38 10 11 39 40 41
DONOR_HYDROGENS      STATIC     ATOMS    <user>   **** ""
1 37
ATOM$BLUE        STATIC     ATOMS    COLORGROUP SYSTEM
6 38 10 11 39 40 41
ATOM$RED        STATIC     ATOMS    COLORGROUP SYSTEM
1 37
