#       Name:                AV-unprocessed.smi:2881
#       Creating user name   scv26
#       Creation time:       Fri Mar 27 15:54:11 2020


#       File generated by GOLD software.
#

@<TRIPOS>MOLECULE
AV-unprocessed.smi:2881
    45    47     1
SMALL
NO_CHARGES


@<TRIPOS>ATOM
      1 ****        -3.8150   4.5888   2.3530 C.3            1 S1                 0.0000
      2 ****        -3.3710   3.2913   1.7447 C.2            1 S1                 0.0000
      3 ****        -2.9203   2.1150   2.4123 C.2            1 S1                 0.0000
      4 ****        -2.6427   1.2373   1.4019 C.2            1 S1                 0.0000
      5 ****        -2.1384  -0.1693   1.4292 C.3            1 S1                 0.0000
      6 ****        -0.6144  -0.2066   1.3188 C.2            1 S1                 0.0000
      7 ****         0.0790  -0.0697   2.3262 O.2            1 S1                 0.0000
      8 ****        -0.1081  -0.4000   0.0907 N.am           1 S1                 0.0000
      9 ****         1.3160  -0.4620  -0.2416 C.3            1 S1                 0.0000
     10 ****         1.5499   0.0563  -1.6770 C.3            1 S1                 0.0000
     11 ****         3.0503   0.3423  -1.8715 C.3            1 S1                 0.0000
     12 ****         3.6556  -1.0734  -1.9267 C.3            1 S1                 0.0000
     13 ****         2.4218  -1.9817  -1.7539 C.3            1 S1                 0.0000
     14 ****         1.3622  -1.1996  -2.5196 C.3            1 S1                 0.0000
     15 ****         1.9229  -1.8976  -0.2901 C.3            1 S1                 0.0000
     16 ****         0.9746  -3.0542   0.1002 C.3            1 S1                 0.0000
     17 ****         1.6685  -4.2841   0.0945 O.3            1 S1                 0.0000
     18 ****        -2.9301   1.9004   0.2297 N.pl3          1 S1                 0.0000
     19 ****        -3.3741   3.1555   0.4269 N.2            1 S1                 0.0000
     20 ****        -2.8283   1.5153  -0.6985 H              1 S1                 0.0000
     21 ****        -3.7897   4.5420   3.4419 H              1 S1                 0.0000
     22 ****        -4.8348   4.8341   2.0557 H              1 S1                 0.0000
     23 ****        -3.1691   5.4099   2.0415 H              1 S1                 0.0000
     24 ****        -2.8156   1.9422   3.4733 H              1 S1                 0.0000
     25 ****        -2.5870  -0.7495   0.6214 H              1 S1                 0.0000
     26 ****        -2.4377  -0.6529   2.3597 H              1 S1                 0.0000
     27 ****        -0.7560  -0.5060  -0.6761 H              1 S1                 0.0000
     28 ****         1.8707   0.1600   0.4638 H              1 S1                 0.0000
     29 ****         0.9140   0.8981  -1.9548 H              1 S1                 0.0000
     30 ****         3.2273   0.8712  -2.8089 H              1 S1                 0.0000
     31 ****         3.4694   0.9446  -1.0647 H              1 S1                 0.0000
     32 ****         4.1318  -1.2473  -2.8925 H              1 S1                 0.0000
     33 ****         4.4062  -1.2374  -1.1526 H              1 S1                 0.0000
     34 ****         2.5874  -2.9978  -2.1127 H              1 S1                 0.0000
     35 ****         0.3621  -1.6285  -2.4454 H              1 S1                 0.0000
     36 ****         1.6085  -1.0546  -3.5730 H              1 S1                 0.0000
     37 ****         2.7771  -1.9389   0.3878 H              1 S1                 0.0000
     38 ****         0.5811  -2.9028   1.1056 H              1 S1                 0.0000
     39 ****         0.1230  -3.1212  -0.5771 H              1 S1                 0.0000
     40 ****         1.0717  -4.9683   0.3566 H              1 S1                 0.0000
     41 ****        -0.3546   0.0659   3.2171 LP             1 S1                 0.0000
     42 ****         1.0761  -0.0941   2.2540 LP             1 S1                 0.0000
     43 ****         2.4348  -4.2416   0.7357 LP             1 S1                 0.0000
     44 ****         2.0135  -4.4720  -0.8251 LP             1 S1                 0.0000
     45 ****        -3.6437   3.8290  -0.2613 LP             1 S1                 0.0000
@<TRIPOS>BOND
    1    1   21 1     
    2    1   22 1     
    3    1   23 1     
    4    1    2 1     
    5    2   19 2     
    6    2    3 1     
    7    3    4 2     
    8    3   24 1     
    9    4   18 1     
   10    4    5 1     
   11    5    6 1     
   12    5   25 1     
   13    5   26 1     
   14    6    7 2     
   15    6    8 am    
   16    8    9 1     
   17    8   27 1     
   18    9   15 1     
   19    9   10 1     
   20    9   28 1     
   21   10   14 1     
   22   10   11 1     
   23   10   29 1     
   24   11   12 1     
   25   11   30 1     
   26   11   31 1     
   27   12   13 1     
   28   12   32 1     
   29   12   33 1     
   30   13   14 1     
   31   13   15 1     
   32   13   34 1     
   33   14   35 1     
   34   14   36 1     
   35   15   16 1     
   36   15   37 1     
   37   16   17 1     
   38   16   38 1     
   39   16   39 1     
   40   17   40 1     
   41   18   19 1     
   42   18   20 1     
   43    7   41 1     
   44    7   42 1     
   45   17   43 1     
   46   17   44 1     
   47   19   45 1     
@<TRIPOS>SUBSTRUCTURE
      1 S1             1
@<TRIPOS>SET
LONE_PAIRS      STATIC     ATOMS    <user>   **** ""
5 41 42 43 44 45
DONOR_HYDROGENS      STATIC     ATOMS    <user>   **** ""
3 27 40 20
ATOM$BLUE        STATIC     ATOMS    COLORGROUP SYSTEM
5 41 42 43 44 45
ATOM$RED        STATIC     ATOMS    COLORGROUP SYSTEM
3 27 40 20
