#       Name:                AV-unprocessed.smi:2897
#       Creating user name   scv26
#       Creation time:       Fri Mar 27 16:01:53 2020


#       File generated by GOLD software.
#

@<TRIPOS>MOLECULE
AV-unprocessed.smi:2897
    43    45     1
SMALL
NO_CHARGES


@<TRIPOS>ATOM
      1 ****         1.4162   0.6400   0.4502 O.2            1 S1                 0.0000
      2 ****         1.0695  -0.2111  -0.3675 C.2            1 S1                 0.0000
      3 ****         1.8833  -1.1746  -0.8207 N.am           1 S1                 0.0000
      4 ****         3.2782  -1.3485  -0.4272 C.3            1 S1                 0.0000
      5 ****         3.5266  -2.0224   0.9197 C.3            1 S1                 0.0000
      6 ****         2.7946  -3.3634   1.0051 C.3            1 S1                 0.0000
      7 ****         3.1020  -4.1001   2.1721 O.3            1 S1                 0.0000
      8 ****         4.8990  -1.8603   1.5458 C.3            1 S1                 0.0000
      9 ****         3.7063  -1.1652   2.1569 C.3            1 S1                 0.0000
     10 ****        -0.1549  -0.3159  -0.9119 N.am           1 S1                 0.0000
     11 ****        -1.2856   0.5262  -0.7301 C.ar           1 S1                 0.0000
     12 ****        -2.5400   0.0894  -1.2056 C.ar           1 S1                 0.0000
     13 ****        -3.6557   0.8394  -1.0812 N.ar           1 S1                 0.0000
     14 ****        -3.5174   2.0328  -0.4975 C.ar           1 S1                 0.0000
     15 ****        -4.7625   2.8458  -0.3225 C.3            1 S1                 0.0000
     16 ****        -5.6459   3.1787  -1.5076 C.3            1 S1                 0.0000
     17 ****        -4.8409   4.2642  -0.8492 C.3            1 S1                 0.0000
     18 ****        -2.3888   2.5525  -0.0072 N.ar           1 S1                 0.0000
     19 ****        -1.2678   1.8079  -0.1252 C.ar           1 S1                 0.0000
     20 ****         1.5139  -1.8339  -1.4901 H              1 S1                 0.0000
     21 ****         3.7616  -1.9474  -1.1994 H              1 S1                 0.0000
     22 ****         3.7821  -0.3804  -0.4475 H              1 S1                 0.0000
     23 ****         1.7179  -3.1944   0.9834 H              1 S1                 0.0000
     24 ****         3.0483  -3.9706   0.1357 H              1 S1                 0.0000
     25 ****         2.6094  -4.9064   2.1577 H              1 S1                 0.0000
     26 ****         5.3253  -2.6978   2.0939 H              1 S1                 0.0000
     27 ****         5.6238  -1.2383   1.0244 H              1 S1                 0.0000
     28 ****         3.6452  -0.0852   2.0408 H              1 S1                 0.0000
     29 ****         3.3325  -1.5482   3.1043 H              1 S1                 0.0000
     30 ****        -0.3025  -1.1086  -1.5192 H              1 S1                 0.0000
     31 ****        -2.6524  -0.8708  -1.6876 H              1 S1                 0.0000
     32 ****        -5.2461   2.6294   0.6282 H              1 S1                 0.0000
     33 ****        -5.3239   2.8448  -2.4920 H              1 S1                 0.0000
     34 ****        -6.7218   3.1805  -1.3451 H              1 S1                 0.0000
     35 ****        -5.3777   4.9937  -0.2464 H              1 S1                 0.0000
     36 ****        -3.9831   4.6517  -1.3957 H              1 S1                 0.0000
     37 ****        -0.3696   2.2650   0.2579 H              1 S1                 0.0000
     38 ****         2.3486   0.6355   0.8118 LP             1 S1                 0.0000
     39 ****         0.7657   1.3364   0.7534 LP             1 S1                 0.0000
     40 ****         2.8539  -3.5680   2.9816 LP             1 S1                 0.0000
     41 ****         4.0809  -4.3035   2.1941 LP             1 S1                 0.0000
     42 ****        -4.5432   0.5169  -1.4103 LP             1 S1                 0.0000
     43 ****        -2.3743   3.4528   0.4279 LP             1 S1                 0.0000
@<TRIPOS>BOND
    1    1    2 2     
    2    2    3 am    
    3    2   10 am    
    4    3    4 1     
    5    3   20 1     
    6    4    5 1     
    7    4   21 1     
    8    4   22 1     
    9    5    9 1     
   10    5    6 1     
   11    5    8 1     
   12    6    7 1     
   13    6   23 1     
   14    6   24 1     
   15    7   25 1     
   16    8    9 1     
   17    8   26 1     
   18    8   27 1     
   19    9   28 1     
   20    9   29 1     
   21   10   11 1     
   22   10   30 1     
   23   11   19 ar    
   24   11   12 ar    
   25   12   13 ar    
   26   12   31 1     
   27   13   14 ar    
   28   14   15 1     
   29   14   18 ar    
   30   15   17 1     
   31   15   16 1     
   32   15   32 1     
   33   16   17 1     
   34   16   33 1     
   35   16   34 1     
   36   17   35 1     
   37   17   36 1     
   38   18   19 ar    
   39   19   37 1     
   40    1   38 1     
   41    1   39 1     
   42    7   40 1     
   43    7   41 1     
   44   13   42 1     
   45   18   43 1     
@<TRIPOS>SUBSTRUCTURE
      1 S1             1
@<TRIPOS>SET
LONE_PAIRS      STATIC     ATOMS    <user>   **** ""
6 38 39 40 41 42 43
DONOR_HYDROGENS      STATIC     ATOMS    <user>   **** ""
3 20 25 30
ATOM$BLUE        STATIC     ATOMS    COLORGROUP SYSTEM
6 38 39 40 41 42 43
ATOM$RED        STATIC     ATOMS    COLORGROUP SYSTEM
3 20 25 30
