AV-unprocessed.smi:907|AV-procd|sdf|4109|dock3
  -GOLD-   22720 2 03D 1   1.00000     0.00000
 Structure written by MMmdl.
 53 56  0  0  0  0  0  0  0  0  2 V2000
  152.7431  139.4834  155.8991 O   0  0  0  0  0  0  0  0  0  0  0  0
  151.5354  139.4775  155.6573 C   0  0  0  0  0  0  0  0  0  0  0  0
  150.6633  140.2291  156.3499 N   0  0  0  0  0  0  0  0  0  0  0  0
  151.0138  141.1482  157.4266 C   0  0  0  0  0  0  0  0  0  0  0  0
  150.7791  142.6132  157.0221 C   0  0  0  0  0  0  0  0  0  0  0  0
  151.1101  143.5762  158.1460 C   0  0  0  0  0  0  0  0  0  0  0  0
  152.1220  144.5472  157.9875 C   0  0  0  0  0  0  0  0  0  0  0  0
  152.3811  145.4267  159.0567 C   0  0  0  0  0  0  0  0  0  0  0  0
  151.6226  145.3018  160.2366 C   0  0  0  0  0  0  0  0  0  0  0  0
  150.6342  144.2989  160.2949 C   0  0  0  0  0  0  0  0  0  0  0  0
  150.3764  143.4517  159.2751 N   0  0  0  0  0  0  0  0  0  0  0  0
  150.9718  138.6754  154.7197 N   0  0  0  0  0  0  0  0  0  0  0  0
  151.4446  137.3426  154.3230 C   0  0  0  0  0  0  0  0  0  0  0  0
  150.5140  136.2773  154.9330 C   0  0  0  0  0  0  0  0  0  0  0  0
  149.0883  136.5018  154.5548 N   0  3  0  0  0  0  0  0  0  0  0  0
  148.1572  135.4975  155.1459 C   0  0  1  0  0  0  0  0  0  0  0  0
  146.8655  135.2609  154.3250 C   0  0  0  0  0  0  0  0  0  0  0  0
  146.7976  133.7259  154.2124 C   0  0  1  0  0  0  0  0  0  0  0  0
  147.8317  133.2602  153.1734 C   0  0  0  0  0  0  0  0  0  0  0  0
  149.1665  133.5039  153.8999 C   0  0  0  0  0  0  0  0  0  0  0  0
  148.7210  134.0596  155.2706 C   0  0  2  0  0  0  0  0  0  0  0  0
  147.4404  133.2682  155.5161 C   0  0  0  0  0  0  0  0  0  0  0  0
  148.6531  137.9050  154.8119 C   0  0  0  0  0  0  0  0  0  0  0  0
  149.6277  138.9231  154.1944 C   0  0  0  0  0  0  0  0  0  0  0  0
  149.6837  140.1554  156.1170 H   0  0  0  0  0  0  0  0  0  0  0  0
  150.4471  140.9051  158.3273 H   0  0  0  0  0  0  0  0  0  0  0  0
  152.0651  140.9935  157.6712 H   0  0  0  0  0  0  0  0  0  0  0  0
  151.3868  142.8632  156.1511 H   0  0  0  0  0  0  0  0  0  0  0  0
  149.7406  142.7615  156.7228 H   0  0  0  0  0  0  0  0  0  0  0  0
  152.6847  144.6201  157.0683 H   0  0  0  0  0  0  0  0  0  0  0  0
  153.1467  146.1838  158.9727 H   0  0  0  0  0  0  0  0  0  0  0  0
  151.7938  145.9587  161.0765 H   0  0  0  0  0  0  0  0  0  0  0  0
  150.0336  144.1748  161.1839 H   0  0  0  0  0  0  0  0  0  0  0  0
  151.4293  137.2698  153.2343 H   0  0  0  0  0  0  0  0  0  0  0  0
  152.4750  137.1349  154.6118 H   0  0  0  0  0  0  0  0  0  0  0  0
  150.8469  135.2959  154.5967 H   0  0  0  0  0  0  0  0  0  0  0  0
  150.6044  136.2876  156.0205 H   0  0  0  0  0  0  0  0  0  0  0  0
  147.8827  135.8438  156.1444 H   0  0  0  0  0  0  0  0  0  0  0  0
  145.9987  135.6551  154.8568 H   0  0  0  0  0  0  0  0  0  0  0  0
  146.8854  135.7203  153.3361 H   0  0  0  0  0  0  0  0  0  0  0  0
  145.7933  133.3420  154.0309 H   0  0  0  0  0  0  0  0  0  0  0  0
  147.7054  132.2003  152.9481 H   0  0  0  0  0  0  0  0  0  0  0  0
  147.7594  133.8115  152.2351 H   0  0  0  0  0  0  0  0  0  0  0  0
  149.7067  132.5644  154.0239 H   0  0  0  0  0  0  0  0  0  0  0  0
  149.8173  134.1869  153.3537 H   0  0  0  0  0  0  0  0  0  0  0  0
  149.4683  133.9442  156.0562 H   0  0  0  0  0  0  0  0  0  0  0  0
  146.8931  133.5885  156.4046 H   0  0  0  0  0  0  0  0  0  0  0  0
  147.5997  132.1892  155.5648 H   0  0  0  0  0  0  0  0  0  0  0  0
  147.6578  138.0799  154.4053 H   0  0  0  0  0  0  0  0  0  0  0  0
  148.5854  138.0696  155.8886 H   0  0  0  0  0  0  0  0  0  0  0  0
  149.2815  139.9394  154.3888 H   0  0  0  0  0  0  0  0  0  0  0  0
  149.6401  138.8202  153.1082 H   0  0  0  0  0  0  0  0  0  0  0  0
  149.0452  136.3728  153.5538 H   0  0  0  0  0  0  0  0  0  0  0  0
  1  2  2  0  0  0  0
  2  3  1  0  0  0  0
  2 12  1  0  0  0  0
  3  4  1  0  0  0  0
  3 25  1  0  0  0  0
  4  5  1  0  0  0  0
  4 26  1  0  0  0  0
  4 27  1  0  0  0  0
  5  6  1  0  0  0  0
  5 28  1  0  0  0  0
  5 29  1  0  0  0  0
  6 11  1  0  0  0  0
  6  7  2  0  0  0  0
  7  8  1  0  0  0  0
  7 30  1  0  0  0  0
  8  9  2  0  0  0  0
  8 31  1  0  0  0  0
  9 10  1  0  0  0  0
  9 32  1  0  0  0  0
 10 11  2  0  0  0  0
 10 33  1  0  0  0  0
 12 24  1  0  0  0  0
 12 13  1  0  0  0  0
 13 14  1  0  0  0  0
 13 34  1  0  0  0  0
 13 35  1  0  0  0  0
 14 15  1  0  0  0  0
 14 36  1  0  0  0  0
 14 37  1  0  0  0  0
 15 16  1  0  0  0  0
 15 23  1  0  0  0  0
 15 53  1  0  0  0  0
 16 21  1  0  0  0  0
 16 17  1  0  0  0  0
 16 38  1  0  0  0  0
 17 18  1  0  0  0  0
 17 39  1  0  0  0  0
 17 40  1  0  0  0  0
 18 22  1  0  0  0  0
 18 19  1  0  0  0  0
 18 41  1  0  0  0  0
 19 20  1  0  0  0  0
 19 42  1  0  0  0  0
 19 43  1  0  0  0  0
 20 21  1  0  0  0  0
 20 44  1  0  0  0  0
 20 45  1  0  0  0  0
 21 22  1  0  0  0  0
 21 46  1  0  0  0  0
 22 47  1  0  0  0  0
 22 48  1  0  0  0  0
 23 24  1  0  0  0  0
 23 49  1  0  0  0  0
 23 50  1  0  0  0  0
 24 51  1  0  0  0  0
 24 52  1  0  0  0  0
M  CHG  1  15   1
M  END
> <s_m_source_file>
AV-unprocessed.smi

> <i_m_source_file_index>
907

> <i_lp_mmshare_version>
43012

> <i_f3d_flags>
0

> <s_epik_input>
W0NIMl0xW0NIMl1bQ0BASF0oW0NIMl0yKVtDQEBIXShbQ0gyXVtDQEhdMTIpTihbQ0gyXVtDSDJdMylbQ0gyXVtDSDJdTjNDKD1PKVtOSF1bQ0gyXVtDSDJdYzRbY0hdW2NIXVtjSF1bY0hdbjQ=

> <s_epik_cmdline>
J2VwaWtfcHl0aG9uJywgJy1waCcsICc3LjAnLCAnLXRuJywgJzgnLCAnLW1hJywgJzIwMCcsICctbWV0YWxfYmluZGluZycsICctaW1hZScsICc8aW5maWxlLm1hZT4nLCAnLW9tYWUnLCAnPG91dGZpbGUubWFlPic=

> <r_epik_Ionization_Penalty>
0.0419258

> <r_epik_Ionization_Penalty_Charging>
0.00262064

> <r_epik_Ionization_Penalty_Neutral>
0.0393052

> <r_epik_State_Penalty>
0.0329887

> <r_epik_Charging_Adjusted_Penalty>
0.0356093

> <i_epik_Tot_Q>
1

> <i_epik_Tot_abs_Q>
1

> <r_epik_Metal_State_Penalty>
0.0309172

> <b_epik_Metal_Only>
0

> <s_lp_Force_Field>
OPLS_2005

> <r_lp_Energy>
94.2881

> <b_lp_Chiralities_Consistent>
1

> <s_lp_Variant>
AV-unprocessed.smi:907-4

> <Gold.Version>
5.8.1

> <Gold.Id.Protein>
6NUR|6NUR_protein|mol2

> <Gold.PLP.Fitness>
52.1542

> <Gold.PLP.PLP>
-45.4527

> <Gold.PLP.part.hbond>
-2.3748

> <Gold.PLP.part.metal>
0.0000

> <Gold.PLP.part.buried>
-3.1888

> <Gold.PLP.part.nonpolar>
-41.5989

> <Gold.PLP.part.repulsive>
0.1671

> <Gold.PLP.ligand.clash>
0.9124

> <Gold.PLP.ligand.torsion>
0.7632

> <Gold.PLP.Chemscore.Hbond>
3.0000

> <Gold.PLP.Chemscore.CHOScore>
0.0000

> <Gold.PLP.Chemscore.Metal>
0.0000

> <Gold.Chemscore.Hbonds>
donor molecule, donor type, donor heavy atom, donor atom, acceptor molecule, acceptor atom, score
      L1  H    15    53       P1  7948  2.00
      P1  H  7997  8009       L1     1  1.00

> <Gold.PLP.Chemscore.Internal.Correction>
0.1403

> <Gold.Rescore>
     Score         DG    S(hbond)    S(metal)    S(lipo)     H(rot)  DE(clash)    DE(int)     intcor
     22.23     -23.46       1.94        0.00     128.29       1.37       0.45       0.77       ----

> <Gold.Chemscore.Fitness>
22.2340

> <Gold.Chemscore.DG>
-23.4561

> <Gold.Chemscore.ZeroCoef>
-5.4800

> <Gold.Chemscore.Hbond>
1.9404

> <Gold.Chemscore.Metal>
0.0000

> <Gold.Chemscore.Lipo>
128.2933

> <Gold.Chemscore.Internal_Hbond>
0.0000

> <Gold.Chemscore.DEClash>
0.4537

> <Gold.Chemscore.DEInternal>
0.7684

> <Gold.Chemscore.Rot>
1.3731

> <Gold.Chemscore.Internal.Correction>
   9.000000E+99

> <Gold.Chemscore.Hbonds>
donor molecule, donor type, donor heavy atom, donor atom, acceptor molecule, acceptor atom, score
      L1  H    15    53       P1  7948  0.99
      P1  H  7997  8009       L1     1  1.00

> <Gold.Chemscore.Hbond.Weighted>
-6.4810

> <Gold.Chemscore.Metal.Weighted>
-0.0000

> <Gold.Chemscore.Lipo.Weighted>
-15.0103

> <Gold.Chemscore.Internal_Hbond.Weighted>
0.0000

> <Gold.Chemscore.DEClash.Weighted>
0.4537

> <Gold.Chemscore.DEInternal.Weighted>
0.7684

> <Gold.Chemscore.Rot.Weighted>
3.5152

> <Gold.Chemscore.Internal.Correction.Weighted>
   9.000000E+99

> <Gold.Protein.RotatedTorsions>
[ 6907 6896 6895 6894 ] final  -57.04 input  -60.11 | X-H torsion
[ 7974 7965 7964 7962 ] final  128.33 input  175.53 | X-H torsion
[ 8008 7997 7996 7995 ] final -164.04 input   59.86 | X-H torsion
[ 10167 10162 10161 10158 ] final  151.18 input  -65.29 | X-H torsion
[ 10718 10713 10712 10709 ] final  -87.33 input   66.30 | X-H torsion
[ 10763 10752 10751 10750 ] final -136.65 input  -60.55 | X-H torsion
[ 11005 11000 10999 10996 ] final  120.83 input  -57.11 | X-H torsion

> <Gold.Protein.ActiveResidues>
 VAL166  LYS551  ARG553  GLY616  TRP617  ASP618  TYR619  PRO620  LYS621  CYS622 
 ASP623  PHE694  ASN695  SER759  ASP760  ASP761  ALA762  ILE779  LEU786  VAL792 
 PHE793  MET794  SER795  GLU796  ALA797  LYS798  CYS799  TRP800  GLU811  SER814 

> <Gold.Protein.RotatedAtoms>
  150.8118  134.7277  159.6694 H   0  0  0  0  0  0  0  0  0  0  0  0  # atno 6907 bound_to 6896
  152.4238  134.5904  159.9982 H   0  0  0  0  0  0  0  0  0  0  0  0  # atno 6908 bound_to 6896
  151.6111  133.3310  159.3104 H   0  0  0  0  0  0  0  0  0  0  0  0  # atno 6909 bound_to 6896
  145.0407  139.3966  143.5103 H   0  0  0  0  0  0  0  0  0  0  0  0  # atno 7974 bound_to 7965
  155.8299  140.0932  157.1799 H   0  0  0  0  0  0  0  0  0  0  0  0  # atno 8008 bound_to 7997
  154.3979  140.1421  156.3662 H   0  0  0  0  0  0  0  0  0  0  0  0  # atno 8009 bound_to 7997
  155.8177  140.3447  155.5498 H   0  0  0  0  0  0  0  0  0  0  0  0  # atno 8010 bound_to 7997
  139.4843  144.5462  151.7480 H   0  0  0  0  0  0  0  0  0  0  0  0  # atno 10167 bound_to 10162
  155.9986  130.4796  150.4851 H   0  0  0  0  0  0  0  0  0  0  0  0  # atno 10718 bound_to 10713
  154.8679  135.3666  154.5096 H   0  0  0  0  0  0  0  0  0  0  0  0  # atno 10763 bound_to 10752
  153.5732  135.7020  153.5500 H   0  0  0  0  0  0  0  0  0  0  0  0  # atno 10764 bound_to 10752
  153.3523  135.4068  155.1619 H   0  0  0  0  0  0  0  0  0  0  0  0  # atno 10765 bound_to 10752
  139.9201  134.9636  156.7866 H   0  0  0  0  0  0  0  0  0  0  0  0  # atno 11005 bound_to 11000
  146.3509  140.0006  142.8676 LP  0  0  0  0  0  0  0  0  0  0  0  0  # atno 17320 bound_to 7965
  145.1652  140.9693  143.4354 LP  0  0  0  0  0  0  0  0  0  0  0  0  # atno 17321 bound_to 7965
  140.5009  144.1170  150.5971 LP  0  0  0  0  0  0  0  0  0  0  0  0  # atno 17342 bound_to 10162
  140.4063  143.2679  151.9887 LP  0  0  0  0  0  0  0  0  0  0  0  0  # atno 17343 bound_to 10162
  157.2852  131.0615  151.2171 LP  0  0  0  0  0  0  0  0  0  0  0  0  # atno 17370 bound_to 10713
  157.3203  130.6934  149.6265 LP  0  0  0  0  0  0  0  0  0  0  0  0  # atno 17371 bound_to 10713
  140.6501  133.9739  155.7751 LP  0  0  0  0  0  0  0  0  0  0  0  0  # atno 17394 bound_to 11000
  141.0713  134.0200  157.3521 LP  0  0  0  0  0  0  0  0  0  0  0  0  # atno 17395 bound_to 11000

$$$$
