AV-unprocessed.smi:500|AV-procd|sdf|2741|dock9
  -GOLD-   2262023203D 1   1.00000     0.00000
 Structure written by MMmdl.
 45 47  0  0  0  0  0  0  0  0  3 V2000
  146.9529  142.2539  154.2091 C   0  0  0  0  0  0  0  0  0  0  0  0
  148.0061  141.1536  154.3986 C   0  0  0  0  0  0  0  0  0  0  0  0
  149.3228  141.6826  154.4681 O   0  0  0  0  0  0  0  0  0  0  0  0
  150.1925  140.9764  155.3419 C   0  0  0  0  0  0  0  0  0  0  0  0
  149.5839  140.9293  156.7509 C   0  0  0  0  0  0  0  0  0  0  0  0
  150.5624  140.4904  157.7683 N   0  0  0  0  0  0  0  0  0  0  0  0
  150.7924  139.2618  158.3350 C   0  0  0  0  0  0  0  0  0  0  0  0
  150.0813  137.9573  158.0763 C   0  0  1  0  0  0  0  0  0  0  0  0
  151.0948  136.8579  157.7300 C   0  0  0  0  0  0  0  0  0  0  0  0
  149.2891  137.5338  159.2322 N   0  5  0  0  0  0  0  0  0  0  0  0
  148.9711  136.2361  159.5067 C   0  0  0  0  0  0  0  0  0  0  0  0
  149.1651  135.2175  158.8345 O   0  0  0  0  0  0  0  0  0  0  0  0
  148.2557  136.0989  160.7961 C   0  0  0  0  0  0  0  0  0  0  0  0
  147.8345  134.9995  161.5008 C   0  0  0  0  0  0  0  0  0  0  0  0
  147.1821  135.4840  162.6681 C   0  0  0  0  0  0  0  0  0  0  0  0
  147.2425  136.8453  162.5926 C   0  0  0  0  0  0  0  0  0  0  0  0
  147.8872  137.2347  161.4596 O   0  0  0  0  0  0  0  0  0  0  0  0
  151.8121  139.4209  159.2269 N   0  3  0  0  0  0  0  0  0  0  0  0
  152.2275  140.7500  159.2510 C   0  0  0  0  0  0  0  0  0  0  0  0
  153.2145  141.3796  160.0027 C   0  0  0  0  0  0  0  0  0  0  0  0
  153.3805  142.7641  159.7956 C   0  0  0  0  0  0  0  0  0  0  0  0
  152.5808  143.4681  158.8725 C   0  0  0  0  0  0  0  0  0  0  0  0
  151.5842  142.8173  158.1158 C   0  0  0  0  0  0  0  0  0  0  0  0
  151.4277  141.4457  158.3222 C   0  0  0  0  0  0  0  0  0  0  0  0
  145.9472  141.8359  154.2569 H   0  0  0  0  0  0  0  0  0  0  0  0
  147.0536  142.7487  153.2434 H   0  0  0  0  0  0  0  0  0  0  0  0
  147.0354  143.0123  154.9881 H   0  0  0  0  0  0  0  0  0  0  0  0
  147.8122  140.6386  155.3395 H   0  0  0  0  0  0  0  0  0  0  0  0
  147.9309  140.3990  153.6142 H   0  0  0  0  0  0  0  0  0  0  0  0
  150.3478  139.9601  154.9785 H   0  0  0  0  0  0  0  0  0  0  0  0
  151.1691  141.4583  155.3812 H   0  0  0  0  0  0  0  0  0  0  0  0
  149.2153  141.9153  157.0348 H   0  0  0  0  0  0  0  0  0  0  0  0
  148.7145  140.2733  156.7753 H   0  0  0  0  0  0  0  0  0  0  0  0
  149.4441  138.0947  157.2021 H   0  0  0  0  0  0  0  0  0  0  0  0
  151.6823  137.1328  156.8534 H   0  0  0  0  0  0  0  0  0  0  0  0
  150.5927  135.9162  157.5052 H   0  0  0  0  0  0  0  0  0  0  0  0
  151.7890  136.6769  158.5517 H   0  0  0  0  0  0  0  0  0  0  0  0
  147.9794  133.9691  161.2112 H   0  0  0  0  0  0  0  0  0  0  0  0
  146.7249  134.9093  163.4598 H   0  0  0  0  0  0  0  0  0  0  0  0
  146.8938  137.6487  163.2244 H   0  0  0  0  0  0  0  0  0  0  0  0
  153.8227  140.8407  160.7142 H   0  0  0  0  0  0  0  0  0  0  0  0
  154.1332  143.2968  160.3586 H   0  0  0  0  0  0  0  0  0  0  0  0
  152.7320  144.5299  158.7436 H   0  0  0  0  0  0  0  0  0  0  0  0
  150.9730  143.3718  157.4196 H   0  0  0  0  0  0  0  0  0  0  0  0
  152.1719  138.6637  159.7933 H   0  0  0  0  0  0  0  0  0  0  0  0
  1  2  1  0  0  0  0
  1 25  1  0  0  0  0
  1 26  1  0  0  0  0
  1 27  1  0  0  0  0
  2  3  1  0  0  0  0
  2 28  1  0  0  0  0
  2 29  1  0  0  0  0
  3  4  1  0  0  0  0
  4  5  1  0  0  0  0
  4 30  1  0  0  0  0
  4 31  1  0  0  0  0
  5  6  1  0  0  0  0
  5 32  1  0  0  0  0
  5 33  1  0  0  0  0
  6 24  1  0  0  0  0
  6  7  1  0  0  0  0
  7  8  1  0  0  0  0
  7 18  2  0  0  0  0
  8  9  1  0  0  0  0
  8 10  1  0  0  0  0
  8 34  1  0  0  0  0
  9 35  1  0  0  0  0
  9 36  1  0  0  0  0
  9 37  1  0  0  0  0
 10 11  1  0  0  0  0
 11 12  2  0  0  0  0
 11 13  1  0  0  0  0
 13 17  1  0  0  0  0
 13 14  2  0  0  0  0
 14 15  1  0  0  0  0
 14 38  1  0  0  0  0
 15 16  2  0  0  0  0
 15 39  1  0  0  0  0
 16 17  1  0  0  0  0
 16 40  1  0  0  0  0
 18 19  1  0  0  0  0
 18 45  1  0  0  0  0
 19 24  2  0  0  0  0
 19 20  1  0  0  0  0
 20 21  2  0  0  0  0
 20 41  1  0  0  0  0
 21 22  1  0  0  0  0
 21 42  1  0  0  0  0
 22 23  2  0  0  0  0
 22 43  1  0  0  0  0
 23 24  1  0  0  0  0
 23 44  1  0  0  0  0
M  CHG  1  10  -1
M  CHG  1  18   1
M  END
> <s_m_source_file>
AV-unprocessed.smi

> <i_m_source_file_index>
500

> <i_lp_mmshare_version>
43012

> <i_f3d_flags>
0

> <s_epik_input>
W0NIM11bQ0gyXU9bQ0gyXVtDSDJdbihjKGMxMilbY0hdW2NIXVtjSF1bY0hdMiljKG4xKVtDQEhdKFtDSDNdKVtOSF1DKD1PKWMzW2NIXVtjSF1bY0hdbzM=

> <s_epik_cmdline>
J2VwaWtfcHl0aG9uJywgJy1waCcsICc3LjAnLCAnLXRuJywgJzgnLCAnLW1hJywgJzIwMCcsICctbWV0YWxfYmluZGluZycsICctaW1hZScsICc8aW5maWxlLm1hZT4nLCAnLW9tYWUnLCAnPG91dGZpbGUubWFlPic=

> <r_epik_Ionization_Penalty>
6.22753

> <r_epik_Ionization_Penalty_Charging>
6.22753

> <r_epik_Ionization_Penalty_Neutral>
2.56065e-12

> <r_epik_State_Penalty>
7.17947

> <r_epik_Charging_Adjusted_Penalty>
13.407

> <i_epik_Tot_Q>
0

> <i_epik_Tot_abs_Q>
2

> <r_epik_Metal_State_Penalty>
3.2092

> <b_epik_Metal_Only>
1

> <s_lp_Force_Field>
OPLS_2005

> <r_lp_Energy>
10.9404

> <b_lp_Chiralities_Consistent>
1

> <s_lp_Variant>
AV-unprocessed.smi:500-8

> <Gold.Version>
5.8.1

> <Gold.Id.Protein>
6NUR|6NUR_protein|mol2

> <Gold.PLP.Fitness>
58.4278

> <Gold.PLP.PLP>
-51.3714

> <Gold.PLP.part.hbond>
-5.0303

> <Gold.PLP.part.metal>
0.0000

> <Gold.PLP.part.buried>
-5.1502

> <Gold.PLP.part.nonpolar>
-40.7109

> <Gold.PLP.part.repulsive>
0.3379

> <Gold.PLP.ligand.clash>
0.0000

> <Gold.PLP.ligand.torsion>
1.1115

> <Gold.PLP.Chemscore.Hbond>
3.0339

> <Gold.PLP.Chemscore.CHOScore>
0.0000

> <Gold.PLP.Chemscore.Metal>
0.0000

> <Gold.Chemscore.Hbonds>
donor molecule, donor type, donor heavy atom, donor atom, acceptor molecule, acceptor atom, score
      P1  H  6896  6908       L1    12  1.00
      P1  H  6931  6943       L1    17  1.00
      P1  H  6934  6947       L1    17  0.69
      P1  H  8011  8017       L1     3  0.16

> <Gold.PLP.Chemscore.Internal.Correction>
0.1777

> <Gold.Rescore>
     Score         DG    S(hbond)    S(metal)    S(lipo)     H(rot)  DE(clash)    DE(int)     intcor
     19.58     -22.11       2.10        0.00     123.62       1.90       0.07       2.45       ----

> <Gold.Chemscore.Fitness>
19.5809

> <Gold.Chemscore.DG>
-22.1069

> <Gold.Chemscore.ZeroCoef>
-5.4800

> <Gold.Chemscore.Hbond>
2.1036

> <Gold.Chemscore.Metal>
0.0000

> <Gold.Chemscore.Lipo>
123.6161

> <Gold.Chemscore.Internal_Hbond>
0.0000

> <Gold.Chemscore.DEClash>
0.0740

> <Gold.Chemscore.DEInternal>
2.4520

> <Gold.Chemscore.Rot>
1.8993

> <Gold.Chemscore.Internal.Correction>
   9.000000E+99

> <Gold.Chemscore.Hbonds>
donor molecule, donor type, donor heavy atom, donor atom, acceptor molecule, acceptor atom, score
      P1  H  6896  6908       L1    12  0.70
      P1  H  6931  6943       L1    17  0.55
      P1  H  6934  6947       L1    17  0.43
      P1  H  8011  8017       L1     3  0.09

> <Gold.Chemscore.Hbond.Weighted>
-7.0260

> <Gold.Chemscore.Metal.Weighted>
-0.0000

> <Gold.Chemscore.Lipo.Weighted>
-14.4631

> <Gold.Chemscore.Internal_Hbond.Weighted>
0.0000

> <Gold.Chemscore.DEClash.Weighted>
0.0740

> <Gold.Chemscore.DEInternal.Weighted>
2.4520

> <Gold.Chemscore.Rot.Weighted>
4.8622

> <Gold.Chemscore.Internal.Correction.Weighted>
   9.000000E+99

> <Gold.Protein.RotatedTorsions>
[ 6907 6896 6895 6894 ] final  154.61 input  -60.11 | X-H torsion
[ 7974 7965 7964 7962 ] final   66.83 input  175.53 | X-H torsion
[ 8008 7997 7996 7995 ] final -172.00 input   59.86 | X-H torsion
[ 10167 10162 10161 10158 ] final  -31.40 input  -65.29 | X-H torsion
[ 10718 10713 10712 10709 ] final -129.80 input   66.30 | X-H torsion
[ 10763 10752 10751 10750 ] final  -92.62 input  -60.55 | X-H torsion
[ 11005 11000 10999 10996 ] final  -39.98 input  -57.11 | X-H torsion

> <Gold.Protein.ActiveResidues>
 VAL166  LYS551  ARG553  GLY616  TRP617  ASP618  TYR619  PRO620  LYS621  CYS622 
 ASP623  PHE694  ASN695  SER759  ASP760  ASP761  ALA762  ILE779  LEU786  VAL792 
 PHE793  MET794  SER795  GLU796  ALA797  LYS798  CYS799  TRP800  GLU811  SER814 

> <Gold.Protein.RotatedAtoms>
  152.0560  133.4040  159.4396 H   0  0  0  0  0  0  0  0  0  0  0  0  # atno 6907 bound_to 6896
  150.6868  134.3254  159.4814 H   0  0  0  0  0  0  0  0  0  0  0  0  # atno 6908 bound_to 6896
  152.1070  134.9301  160.0618 H   0  0  0  0  0  0  0  0  0  0  0  0  # atno 6909 bound_to 6896
  145.8219  139.3089  143.1038 H   0  0  0  0  0  0  0  0  0  0  0  0  # atno 7974 bound_to 7965
  155.9389  140.1105  157.1072 H   0  0  0  0  0  0  0  0  0  0  0  0  # atno 8008 bound_to 7997
  154.4085  140.1223  156.4967 H   0  0  0  0  0  0  0  0  0  0  0  0  # atno 8009 bound_to 7997
  155.6987  140.3472  155.4926 H   0  0  0  0  0  0  0  0  0  0  0  0  # atno 8010 bound_to 7997
  140.7236  143.3773  151.1665 H   0  0  0  0  0  0  0  0  0  0  0  0  # atno 10167 bound_to 10162
  156.2082  130.6901  151.0618 H   0  0  0  0  0  0  0  0  0  0  0  0  # atno 10718 bound_to 10713
  154.6879  135.5224  153.8352 H   0  0  0  0  0  0  0  0  0  0  0  0  # atno 10763 bound_to 10752
  153.0611  135.6568  154.0471 H   0  0  0  0  0  0  0  0  0  0  0  0  # atno 10764 bound_to 10752
  154.0349  135.2982  155.3343 H   0  0  0  0  0  0  0  0  0  0  0  0  # atno 10765 bound_to 10752
  141.0142  133.6893  156.2260 H   0  0  0  0  0  0  0  0  0  0  0  0  # atno 11005 bound_to 11000
  145.9665  140.8794  143.0184 LP  0  0  0  0  0  0  0  0  0  0  0  0  # atno 17320 bound_to 7965
  144.6747  140.1886  143.7399 LP  0  0  0  0  0  0  0  0  0  0  0  0  # atno 17321 bound_to 7965
  139.7356  143.9004  152.3034 LP  0  0  0  0  0  0  0  0  0  0  0  0  # atno 17342 bound_to 10162
  139.8808  144.7018  150.8880 LP  0  0  0  0  0  0  0  0  0  0  0  0  # atno 17343 bound_to 10162
  157.7024  131.0770  150.6778 LP  0  0  0  0  0  0  0  0  0  0  0  0  # atno 17370 bound_to 10713
  156.6837  130.4575  149.5620 LP  0  0  0  0  0  0  0  0  0  0  0  0  # atno 17371 bound_to 10713
  140.6683  134.4895  157.5586 LP  0  0  0  0  0  0  0  0  0  0  0  0  # atno 17394 bound_to 11000
  139.9107  134.8351  156.1539 LP  0  0  0  0  0  0  0  0  0  0  0  0  # atno 17395 bound_to 11000

$$$$
