AV-unprocessed.smi:3085|AV-procd|sdf|11750|dock5
  -GOLD-   2272017143D 1   1.00000     0.00000
 Structure written by MMmdl.
 28 29  0  0  0  0  0  0  0  0  2 V2000
  149.7414  132.3685  154.3186 C   0  0  0  0  0  0  0  0  0  0  0  0
  148.9586  133.6262  154.7110 C   0  0  0  0  0  0  0  0  0  0  0  0
  147.8122  133.8965  153.7929 C   0  0  0  0  0  0  0  0  0  0  0  0
  147.6912  133.4205  152.5582 N   0  0  0  0  0  0  0  0  0  0  0  0
  146.4995  133.9840  152.1944 C   0  0  0  0  0  0  0  0  0  0  0  0
  145.9148  133.7985  150.8281 C   0  0  2  0  0  0  0  0  0  0  0  0
  144.5293  134.4581  150.6931 C   0  0  0  0  0  0  0  0  0  0  0  0
  143.9635  134.1682  149.3614 N   0  3  0  0  0  0  0  0  0  0  0  0
  143.9213  132.7163  149.0965 C   0  0  0  0  0  0  0  0  0  0  0  0
  145.3187  132.1005  149.2916 C   0  0  0  0  0  0  0  0  0  0  0  0
  145.7983  132.3951  150.5998 O   0  0  0  0  0  0  0  0  0  0  0  0
  145.9283  134.7744  153.1042 N   0  0  0  0  0  0  0  0  0  0  0  0
  146.7958  134.6908  154.1348 N   0  0  0  0  0  0  0  0  0  0  0  0
  146.6641  135.1796  155.0092 H   0  0  0  0  0  0  0  0  0  0  0  0
  150.5701  132.1960  155.0055 H   0  0  0  0  0  0  0  0  0  0  0  0
  150.1549  132.4606  153.3137 H   0  0  0  0  0  0  0  0  0  0  0  0
  149.1027  131.4849  154.3390 H   0  0  0  0  0  0  0  0  0  0  0  0
  148.5755  133.5224  155.7268 H   0  0  0  0  0  0  0  0  0  0  0  0
  149.6235  134.4910  154.7165 H   0  0  0  0  0  0  0  0  0  0  0  0
  146.6047  134.2237  150.0965 H   0  0  0  0  0  0  0  0  0  0  0  0
  143.8500  134.0800  151.4586 H   0  0  0  0  0  0  0  0  0  0  0  0
  144.6005  135.5375  150.8292 H   0  0  0  0  0  0  0  0  0  0  0  0
  143.0299  134.5494  149.3017 H   0  0  0  0  0  0  0  0  0  0  0  0
  143.2055  132.2485  149.7739 H   0  0  0  0  0  0  0  0  0  0  0  0
  143.5636  132.5439  148.0811 H   0  0  0  0  0  0  0  0  0  0  0  0
  145.2738  131.0185  149.1659 H   0  0  0  0  0  0  0  0  0  0  0  0
  146.0175  132.4785  148.5435 H   0  0  0  0  0  0  0  0  0  0  0  0
  144.5444  134.6076  148.6613 H   0  0  0  0  0  0  0  0  0  0  0  0
  1  2  1  0  0  0  0
  1 15  1  0  0  0  0
  1 16  1  0  0  0  0
  1 17  1  0  0  0  0
  2  3  1  0  0  0  0
  2 18  1  0  0  0  0
  2 19  1  0  0  0  0
  3 13  1  0  0  0  0
  3  4  2  0  0  0  0
  4  5  1  0  0  0  0
  5  6  1  0  0  0  0
  5 12  2  0  0  0  0
  6 11  1  0  0  0  0
  6  7  1  0  0  0  0
  6 20  1  0  0  0  0
  7  8  1  0  0  0  0
  7 21  1  0  0  0  0
  7 22  1  0  0  0  0
  8  9  1  0  0  0  0
  8 23  1  0  0  0  0
  8 28  1  0  0  0  0
  9 10  1  0  0  0  0
  9 24  1  0  0  0  0
  9 25  1  0  0  0  0
 10 11  1  0  0  0  0
 10 26  1  0  0  0  0
 10 27  1  0  0  0  0
 12 13  1  0  0  0  0
 13 14  1  0  0  0  0
M  CHG  1   8   1
M  END
> <s_m_source_file>
AV-unprocessed.smi

> <i_m_source_file_index>
3085

> <i_lp_mmshare_version>
43012

> <i_f3d_flags>
0

> <s_epik_input>
W0NIM11bQ0gyXWMxbmMobltuSF0xKVtDQEBIXTJbQ0gyXVtOSF1bQ0gyXVtDSDJdTzI=

> <s_epik_cmdline>
J2VwaWtfcHl0aG9uJywgJy1waCcsICc3LjAnLCAnLXRuJywgJzgnLCAnLW1hJywgJzIwMCcsICctbWV0YWxfYmluZGluZycsICctaW1hZScsICc8aW5maWxlLm1hZT4nLCAnLW9tYWUnLCAnPG91dGZpbGUubWFlPic=

> <r_lp_tautomer_probability>
0.948284

> <r_epik_Ionization_Penalty>
0.107151

> <r_epik_Ionization_Penalty_Charging>
0.100865

> <r_epik_Ionization_Penalty_Neutral>
0.00628602

> <r_epik_State_Penalty>
0.429695

> <r_epik_Charging_Adjusted_Penalty>
0.530559

> <i_epik_Tot_Q>
1

> <i_epik_Tot_abs_Q>
1

> <r_epik_Metal_State_Penalty>
0.651827

> <b_epik_Metal_Only>
0

> <s_lp_Force_Field>
OPLS_2005

> <r_lp_Energy>
10.1089

> <b_lp_Chiralities_Consistent>
1

> <s_lp_Variant>
AV-unprocessed.smi:3085-1

> <Gold.Version>
5.8.1

> <Gold.Id.Protein>
6NUR|6NUR_protein|mol2

> <Gold.PLP.Fitness>
31.8852

> <Gold.PLP.PLP>
-23.5678

> <Gold.PLP.part.hbond>
-2.0000

> <Gold.PLP.part.metal>
0.0000

> <Gold.PLP.part.buried>
-4.0434

> <Gold.PLP.part.nonpolar>
-17.9147

> <Gold.PLP.part.repulsive>
0.6846

> <Gold.PLP.ligand.clash>
0.0000

> <Gold.PLP.ligand.torsion>
0.3507

> <Gold.PLP.Chemscore.Hbond>
3.0000

> <Gold.PLP.Chemscore.CHOScore>
0.0000

> <Gold.PLP.Chemscore.Metal>
0.0000

> <Gold.Chemscore.Hbonds>
donor molecule, donor type, donor heavy atom, donor atom, acceptor molecule, acceptor atom, score
      L1  H     8    23       P1 10186  2.00
      L1  H     8    28       P1  7921  1.00

> <Gold.PLP.Chemscore.Internal.Correction>
0.0188

> <Gold.Rescore>
     Score         DG    S(hbond)    S(metal)    S(lipo)     H(rot)  DE(clash)    DE(int)     intcor
     14.34     -14.47       1.94        0.00      49.83       1.30       0.06       0.08       ----

> <Gold.Chemscore.Fitness>
14.3381

> <Gold.Chemscore.DG>
-14.4718

> <Gold.Chemscore.ZeroCoef>
-5.4800

> <Gold.Chemscore.Hbond>
1.9439

> <Gold.Chemscore.Metal>
0.0000

> <Gold.Chemscore.Lipo>
49.8292

> <Gold.Chemscore.Internal_Hbond>
0.0000

> <Gold.Chemscore.DEClash>
0.0556

> <Gold.Chemscore.DEInternal>
0.0781

> <Gold.Chemscore.Rot>
1.3011

> <Gold.Chemscore.Internal.Correction>
   9.000000E+99

> <Gold.Chemscore.Hbonds>
donor molecule, donor type, donor heavy atom, donor atom, acceptor molecule, acceptor atom, score
      L1  H     8    23       P1 10186  0.90
      L1  H     8    28       P1  7921  0.98

> <Gold.Chemscore.Hbond.Weighted>
-6.4926

> <Gold.Chemscore.Metal.Weighted>
-0.0000

> <Gold.Chemscore.Lipo.Weighted>
-5.8300

> <Gold.Chemscore.Internal_Hbond.Weighted>
0.0000

> <Gold.Chemscore.DEClash.Weighted>
0.0556

> <Gold.Chemscore.DEInternal.Weighted>
0.0781

> <Gold.Chemscore.Rot.Weighted>
3.3308

> <Gold.Chemscore.Internal.Correction.Weighted>
   9.000000E+99

> <Gold.Protein.RotatedTorsions>
[ 6907 6896 6895 6894 ] final   23.65 input  -60.11 | X-H torsion
[ 7974 7965 7964 7962 ] final  -60.24 input  175.53 | X-H torsion
[ 8008 7997 7996 7995 ] final  -84.95 input   59.86 | X-H torsion
[ 10167 10162 10161 10158 ] final -170.50 input  -65.29 | X-H torsion
[ 10718 10713 10712 10709 ] final  -79.94 input   66.30 | X-H torsion
[ 10763 10752 10751 10750 ] final  107.20 input  -60.55 | X-H torsion
[ 11005 11000 10999 10996 ] final  115.30 input  -57.11 | X-H torsion

> <Gold.Protein.ActiveResidues>
 VAL166  LYS551  ARG553  GLY616  TRP617  ASP618  TYR619  PRO620  LYS621  CYS622 
 ASP623  PHE694  ASN695  SER759  ASP760  ASP761  ALA762  ILE779  LEU786  VAL792 
 PHE793  MET794  SER795  GLU796  ALA797  LYS798  CYS799  TRP800  GLU811  SER814 

> <Gold.Protein.RotatedAtoms>
  151.9456  135.0193  160.0538 H   0  0  0  0  0  0  0  0  0  0  0  0  # atno 6907 bound_to 6896
  152.1998  133.4828  159.5061 H   0  0  0  0  0  0  0  0  0  0  0  0  # atno 6908 bound_to 6896
  150.6952  134.1522  159.4187 H   0  0  0  0  0  0  0  0  0  0  0  0  # atno 6909 bound_to 6896
  145.8178  140.8559  143.0148 H   0  0  0  0  0  0  0  0  0  0  0  0  # atno 7974 bound_to 7965
  154.6354  140.0598  156.9782 H   0  0  0  0  0  0  0  0  0  0  0  0  # atno 8008 bound_to 7997
  155.1600  140.3282  155.4395 H   0  0  0  0  0  0  0  0  0  0  0  0  # atno 8009 bound_to 7997
  156.2504  140.1932  156.6708 H   0  0  0  0  0  0  0  0  0  0  0  0  # atno 8010 bound_to 7997
  139.5858  144.1322  152.1573 H   0  0  0  0  0  0  0  0  0  0  0  0  # atno 10167 bound_to 10162
  156.0081  130.4560  150.3724 H   0  0  0  0  0  0  0  0  0  0  0  0  # atno 10718 bound_to 10713
  153.4034  135.3852  155.2003 H   0  0  0  0  0  0  0  0  0  0  0  0  # atno 10763 bound_to 10752
  154.8731  135.3777  154.4590 H   0  0  0  0  0  0  0  0  0  0  0  0  # atno 10764 bound_to 10752
  153.5090  135.7087  153.5853 H   0  0  0  0  0  0  0  0  0  0  0  0  # atno 10765 bound_to 10752
  139.9006  134.9582  156.7024 H   0  0  0  0  0  0  0  0  0  0  0  0  # atno 11005 bound_to 11000
  144.6750  140.0489  143.7479 LP  0  0  0  0  0  0  0  0  0  0  0  0  # atno 17320 bound_to 7965
  145.9708  139.2868  143.1100 LP  0  0  0  0  0  0  0  0  0  0  0  0  # atno 17321 bound_to 7965
  140.0885  144.5641  150.7071 LP  0  0  0  0  0  0  0  0  0  0  0  0  # atno 17342 bound_to 10162
  140.7130  143.2520  151.4522 LP  0  0  0  0  0  0  0  0  0  0  0  0  # atno 17343 bound_to 10162
  157.1808  131.0392  151.2749 LP  0  0  0  0  0  0  0  0  0  0  0  0  # atno 17370 bound_to 10713
  157.4147  130.7404  149.6866 LP  0  0  0  0  0  0  0  0  0  0  0  0  # atno 17371 bound_to 10713
  140.7140  133.9199  155.8103 LP  0  0  0  0  0  0  0  0  0  0  0  0  # atno 17394 bound_to 11000
  141.0279  134.0798  157.4048 LP  0  0  0  0  0  0  0  0  0  0  0  0  # atno 17395 bound_to 11000

$$$$
