AV-unprocessed.smi:2861|AV-procd|sdf|11007|dock10
  -GOLD-   2272015463D 1   1.00000     0.00000
 Structure written by MMmdl.
 33 35  0  0  0  0  0  0  0  0  1 V2000
  148.6971  139.0466  156.0165 O   0  0  0  0  0  0  0  0  0  0  0  0
  149.3382  139.3633  155.0134 C   0  0  0  0  0  0  0  0  0  0  0  0
  150.8412  139.6499  155.1080 C   0  0  0  0  0  0  0  0  0  0  0  0
  151.1301  140.7046  156.1385 C   0  0  0  0  0  0  0  0  0  0  0  0
  150.7192  142.0155  156.1171 C   0  0  0  0  0  0  0  0  0  0  0  0
  151.2818  142.8995  157.5092 S   0  0  0  0  0  0  0  0  0  0  0  0
  152.0608  141.4281  158.0876 C   0  0  0  0  0  0  0  0  0  0  0  0
  152.8075  141.3594  159.3018 N   0  0  0  0  0  0  0  0  0  0  0  0
  152.5570  142.2887  160.3969 C   0  0  0  0  0  0  0  0  0  0  0  0
  153.6804  142.0551  161.4130 C   0  0  0  0  0  0  0  0  0  0  0  0
  154.3185  140.7262  161.0136 C   0  0  0  0  0  0  0  0  0  0  0  0
  153.7707  140.4734  159.6189 C   0  0  0  0  0  0  0  0  0  0  0  0
  154.1921  139.5532  158.9188 O   0  0  0  0  0  0  0  0  0  0  0  0
  151.8871  140.3831  157.2698 N   0  0  0  0  0  0  0  0  0  0  0  0
  148.7881  139.4872  153.7961 N   0  0  0  0  0  0  0  0  0  0  0  0
  147.4126  139.2714  153.4816 C   0  0  0  0  0  0  0  0  0  0  0  0
  147.0502  139.0567  152.0279 C   0  0  0  0  0  0  0  0  0  0  0  0
  146.6912  140.3510  152.7040 C   0  0  0  0  0  0  0  0  0  0  0  0
  151.3800  138.7328  155.3507 H   0  0  0  0  0  0  0  0  0  0  0  0
  151.1934  139.9619  154.1239 H   0  0  0  0  0  0  0  0  0  0  0  0
  150.1272  142.5145  155.3645 H   0  0  0  0  0  0  0  0  0  0  0  0
  152.5483  143.3232  160.0508 H   0  0  0  0  0  0  0  0  0  0  0  0
  151.5838  142.0687  160.8383 H   0  0  0  0  0  0  0  0  0  0  0  0
  154.4193  142.8548  161.3457 H   0  0  0  0  0  0  0  0  0  0  0  0
  153.3047  142.0397  162.4366 H   0  0  0  0  0  0  0  0  0  0  0  0
  155.4078  140.7759  161.0120 H   0  0  0  0  0  0  0  0  0  0  0  0
  154.0051  139.9191  161.6767 H   0  0  0  0  0  0  0  0  0  0  0  0
  149.3902  139.7578  153.0318 H   0  0  0  0  0  0  0  0  0  0  0  0
  146.8132  138.7229  154.2071 H   0  0  0  0  0  0  0  0  0  0  0  0
  147.8526  139.0810  151.2928 H   0  0  0  0  0  0  0  0  0  0  0  0
  146.2411  138.3623  151.8106 H   0  0  0  0  0  0  0  0  0  0  0  0
  145.6425  140.5215  152.9389 H   0  0  0  0  0  0  0  0  0  0  0  0
  147.2545  141.2382  152.4210 H   0  0  0  0  0  0  0  0  0  0  0  0
  1  2  2  0  0  0  0
  2  3  1  0  0  0  0
  2 15  1  0  0  0  0
  3  4  1  0  0  0  0
  3 19  1  0  0  0  0
  3 20  1  0  0  0  0
  4 14  1  0  0  0  0
  4  5  2  0  0  0  0
  5  6  1  0  0  0  0
  5 21  1  0  0  0  0
  6  7  1  0  0  0  0
  7  8  1  0  0  0  0
  7 14  2  0  0  0  0
  8 12  1  0  0  0  0
  8  9  1  0  0  0  0
  9 10  1  0  0  0  0
  9 22  1  0  0  0  0
  9 23  1  0  0  0  0
 10 11  1  0  0  0  0
 10 24  1  0  0  0  0
 10 25  1  0  0  0  0
 11 12  1  0  0  0  0
 11 26  1  0  0  0  0
 11 27  1  0  0  0  0
 12 13  2  0  0  0  0
 15 16  1  0  0  0  0
 15 28  1  0  0  0  0
 16 18  1  0  0  0  0
 16 17  1  0  0  0  0
 16 29  1  0  0  0  0
 17 18  1  0  0  0  0
 17 30  1  0  0  0  0
 17 31  1  0  0  0  0
 18 32  1  0  0  0  0
 18 33  1  0  0  0  0
M  END
> <s_m_source_file>
AV-unprocessed.smi

> <i_m_source_file_index>
2861

> <i_lp_mmshare_version>
43012

> <i_f3d_flags>
0

> <s_epik_input>
W0NIMl0xW0NIMl1bQ0hdMVtOSF1DKD1PKVtDSDJdYzJbY0hdc2MobjIpTjNbQ0gyXVtDSDJdW0NIMl1DMz1P

> <s_epik_cmdline>
J2VwaWtfcHl0aG9uJywgJy1waCcsICc3LjAnLCAnLXRuJywgJzgnLCAnLW1hJywgJzIwMCcsICctbWV0YWxfYmluZGluZycsICctaW1hZScsICc8aW5maWxlLm1hZT4nLCAnLW9tYWUnLCAnPG91dGZpbGUubWFlPic=

> <r_lp_tautomer_probability>
1

> <r_epik_Ionization_Penalty>
2.96745e-05

> <r_epik_Ionization_Penalty_Charging>
0

> <r_epik_Ionization_Penalty_Neutral>
2.96745e-05

> <r_epik_State_Penalty>
-0

> <r_epik_Charging_Adjusted_Penalty>
0

> <i_epik_Tot_Q>
0

> <i_epik_Tot_abs_Q>
0

> <r_epik_Metal_State_Penalty>
-0

> <b_epik_Metal_Only>
0

> <s_lp_Force_Field>
OPLS_2005

> <r_lp_Energy>
30.3521

> <b_lp_Chiralities_Consistent>
1

> <s_lp_Variant>
AV-unprocessed.smi:2861-1

> <Gold.Version>
5.8.1

> <Gold.Id.Protein>
6NUR|6NUR_protein|mol2

> <Gold.PLP.Fitness>
44.5372

> <Gold.PLP.PLP>
-36.6698

> <Gold.PLP.part.hbond>
-2.0000

> <Gold.PLP.part.metal>
0.0000

> <Gold.PLP.part.buried>
0.6406

> <Gold.PLP.part.nonpolar>
-35.5821

> <Gold.PLP.part.repulsive>
0.0821

> <Gold.PLP.ligand.clash>
0.0000

> <Gold.PLP.ligand.torsion>
0.4465

> <Gold.PLP.Chemscore.Hbond>
1.9760

> <Gold.PLP.Chemscore.CHOScore>
0.9302

> <Gold.PLP.Chemscore.Metal>
0.0000

> <Gold.Chemscore.Hbonds>
donor molecule, donor type, donor heavy atom, donor atom, acceptor molecule, acceptor atom, score
      L1  H    15    28       P1  7957  0.98
      P1  H  7997  8009       L1    13  1.00
      L1  C     5    21       P1  8028  0.90

> <Gold.PLP.Chemscore.Internal.Correction>
0.0417

> <Gold.Rescore>
     Score         DG    S(hbond)    S(metal)    S(lipo)     H(rot)  DE(clash)    DE(int)     intcor
     15.54     -18.26       1.94        0.00      86.48       1.49       1.11       1.60       ----

> <Gold.Chemscore.Fitness>
15.5440

> <Gold.Chemscore.DG>
-18.2581

> <Gold.Chemscore.ZeroCoef>
-5.4800

> <Gold.Chemscore.Hbond>
1.9399

> <Gold.Chemscore.Metal>
0.0000

> <Gold.Chemscore.Lipo>
86.4796

> <Gold.Chemscore.Internal_Hbond>
0.0000

> <Gold.Chemscore.DEClash>
1.1128

> <Gold.Chemscore.DEInternal>
1.6013

> <Gold.Chemscore.Rot>
1.4920

> <Gold.Chemscore.Internal.Correction>
   9.000000E+99

> <Gold.Chemscore.Hbonds>
donor molecule, donor type, donor heavy atom, donor atom, acceptor molecule, acceptor atom, score
      L1  H    15    28       P1  7957  0.92
      P1  H  7997  8009       L1    13  0.94

> <Gold.Chemscore.Hbond.Weighted>
-6.4794

> <Gold.Chemscore.Metal.Weighted>
-0.0000

> <Gold.Chemscore.Lipo.Weighted>
-10.1181

> <Gold.Chemscore.Internal_Hbond.Weighted>
0.0000

> <Gold.Chemscore.DEClash.Weighted>
1.1128

> <Gold.Chemscore.DEInternal.Weighted>
1.6013

> <Gold.Chemscore.Rot.Weighted>
3.8194

> <Gold.Chemscore.Internal.Correction.Weighted>
   9.000000E+99

> <Gold.Protein.RotatedTorsions>
[ 6907 6896 6895 6894 ] final  -26.11 input  -60.11 | X-H torsion
[ 7974 7965 7964 7962 ] final  -73.12 input  175.53 | X-H torsion
[ 8008 7997 7996 7995 ] final  123.22 input   59.86 | X-H torsion
[ 10167 10162 10161 10158 ] final -168.52 input  -65.29 | X-H torsion
[ 10718 10713 10712 10709 ] final   90.63 input   66.30 | X-H torsion
[ 10763 10752 10751 10750 ] final  141.59 input  -60.55 | X-H torsion
[ 11005 11000 10999 10996 ] final   -8.95 input  -57.11 | X-H torsion

> <Gold.Protein.ActiveResidues>
 VAL166  LYS551  ARG553  GLY616  TRP617  ASP618  TYR619  PRO620  LYS621  CYS622 
 ASP623  PHE694  ASN695  SER759  ASP760  ASP761  ALA762  ILE779  LEU786  VAL792 
 PHE793  MET794  SER795  GLU796  ALA797  LYS798  CYS799  TRP800  GLU811  SER814 

> <Gold.Protein.RotatedAtoms>
  151.1656  135.0294  159.8728 H   0  0  0  0  0  0  0  0  0  0  0  0  # atno 6907 bound_to 6896
  152.5450  134.1229  159.8417 H   0  0  0  0  0  0  0  0  0  0  0  0  # atno 6908 bound_to 6896
  151.1330  133.4978  159.2631 H   0  0  0  0  0  0  0  0  0  0  0  0  # atno 6909 bound_to 6896
  145.6562  140.9267  143.0958 H   0  0  0  0  0  0  0  0  0  0  0  0  # atno 7974 bound_to 7965
  156.2758  140.2768  156.1593 H   0  0  0  0  0  0  0  0  0  0  0  0  # atno 8008 bound_to 7997
  155.0771  140.0387  157.2645 H   0  0  0  0  0  0  0  0  0  0  0  0  # atno 8009 bound_to 7997
  154.6994  140.2646  155.6740 H   0  0  0  0  0  0  0  0  0  0  0  0  # atno 8010 bound_to 7997
  139.5980  144.1071  152.1711 H   0  0  0  0  0  0  0  0  0  0  0  0  # atno 10167 bound_to 10162
  157.6959  131.0378  150.3607 H   0  0  0  0  0  0  0  0  0  0  0  0  # atno 10718 bound_to 10713
  153.9418  135.2979  155.3442 H   0  0  0  0  0  0  0  0  0  0  0  0  # atno 10763 bound_to 10752
  154.7473  135.4997  153.9229 H   0  0  0  0  0  0  0  0  0  0  0  0  # atno 10764 bound_to 10752
  153.1038  135.6741  153.9730 H   0  0  0  0  0  0  0  0  0  0  0  0  # atno 10765 bound_to 10752
  140.7290  133.8765  155.8878 H   0  0  0  0  0  0  0  0  0  0  0  0  # atno 11005 bound_to 11000
  144.7105  139.8390  143.7416 LP  0  0  0  0  0  0  0  0  0  0  0  0  # atno 17320 bound_to 7965
  146.1163  139.4174  143.0256 LP  0  0  0  0  0  0  0  0  0  0  0  0  # atno 17321 bound_to 7965
  140.0660  144.5818  150.7227 LP  0  0  0  0  0  0  0  0  0  0  0  0  # atno 17342 bound_to 10162
  140.7227  143.2605  151.4224 LP  0  0  0  0  0  0  0  0  0  0  0  0  # atno 17343 bound_to 10162
  156.4044  130.3922  149.6937 LP  0  0  0  0  0  0  0  0  0  0  0  0  # atno 17370 bound_to 10713
  156.4243  130.7784  151.2802 LP  0  0  0  0  0  0  0  0  0  0  0  0  # atno 17371 bound_to 10713
  140.9938  134.1243  157.4383 LP  0  0  0  0  0  0  0  0  0  0  0  0  # atno 17394 bound_to 11000
  139.8830  135.0048  156.6273 LP  0  0  0  0  0  0  0  0  0  0  0  0  # atno 17395 bound_to 11000

$$$$
