AV-unprocessed.smi:1701|AV-procd|sdf|6832|dock1
  -GOLD-   22720 8 13D 1   1.00000     0.00000
 Structure written by MMmdl.
 54 56  0  0  0  0  0  0  0  0  2 V2000
  152.3643  145.3033  159.0261 C   0  0  0  0  0  0  0  0  0  0  0  0
  151.7879  144.0669  159.7333 C   0  0  0  0  0  0  0  0  0  0  0  0
  152.5020  142.8347  159.3999 N   0  0  0  0  0  0  0  0  0  0  0  0
  153.2053  142.1558  160.4906 C   0  0  0  0  0  0  0  0  0  0  0  0
  152.7674  142.6403  161.8820 C   0  0  0  0  0  0  0  0  0  0  0  0
  151.8840  142.0499  158.4014 C   0  0  0  0  0  0  0  0  0  0  0  0
  152.2596  140.6971  158.2345 C   0  0  0  0  0  0  0  0  0  0  0  0
  151.6436  139.9299  157.2274 C   0  0  0  0  0  0  0  0  0  0  0  0
  150.6701  140.5398  156.4017 C   0  0  0  0  0  0  0  0  0  0  0  0
  149.9586  139.8793  155.3643 N   0  0  0  0  0  0  0  0  0  0  0  0
  148.7279  140.1347  154.8785 C   0  0  0  0  0  0  0  0  0  0  0  0
  147.9663  140.9965  155.3099 O   0  0  0  0  0  0  0  0  0  0  0  0
  148.3707  139.3515  153.8438 N   0  0  0  0  0  0  0  0  0  0  0  0
  147.1171  139.3563  153.0829 C   0  0  1  0  0  0  0  0  0  0  0  0
  147.3396  139.5720  151.5734 C   0  0  0  0  0  0  0  0  0  0  0  0
  146.3430  138.6272  150.8949 C   0  0  0  0  0  0  0  0  0  0  0  0
  146.2917  137.4892  151.8192 N   0  3  2  0  0  0  0  0  0  0  0  0
  145.2440  136.4668  151.6246 C   0  0  0  0  0  0  0  0  0  0  0  0
  145.5262  135.2932  152.5868 C   0  0  0  0  0  0  0  0  0  0  0  0
  145.6966  135.7641  154.0492 C   0  0  0  0  0  0  0  0  0  0  0  0
  146.7074  136.9261  154.1664 C   0  0  0  0  0  0  0  0  0  0  0  0
  146.3040  138.0418  153.1850 C   0  0  1  0  0  0  0  0  0  0  0  0
  150.3579  141.8909  156.6508 C   0  0  0  0  0  0  0  0  0  0  0  0
  150.9445  142.6289  157.6151 N   0  0  0  0  0  0  0  0  0  0  0  0
  151.7924  146.1944  159.2844 H   0  0  0  0  0  0  0  0  0  0  0  0
  152.3333  145.1946  157.9418 H   0  0  0  0  0  0  0  0  0  0  0  0
  153.4001  145.4814  159.3166 H   0  0  0  0  0  0  0  0  0  0  0  0
  151.7817  144.2297  160.8107 H   0  0  0  0  0  0  0  0  0  0  0  0
  150.7420  143.9458  159.4499 H   0  0  0  0  0  0  0  0  0  0  0  0
  153.0151  141.0846  160.4183 H   0  0  0  0  0  0  0  0  0  0  0  0
  154.2826  142.2782  160.3719 H   0  0  0  0  0  0  0  0  0  0  0  0
  153.2784  142.0763  162.6625 H   0  0  0  0  0  0  0  0  0  0  0  0
  151.6951  142.5038  162.0244 H   0  0  0  0  0  0  0  0  0  0  0  0
  152.9940  143.6944  162.0406 H   0  0  0  0  0  0  0  0  0  0  0  0
  152.9978  140.2400  158.8767 H   0  0  0  0  0  0  0  0  0  0  0  0
  151.9218  138.8932  157.1243 H   0  0  0  0  0  0  0  0  0  0  0  0
  150.4378  139.0920  154.9532 H   0  0  0  0  0  0  0  0  0  0  0  0
  149.0700  138.6950  153.5273 H   0  0  0  0  0  0  0  0  0  0  0  0
  146.4884  140.1774  153.4321 H   0  0  0  0  0  0  0  0  0  0  0  0
  147.2004  140.6107  151.2716 H   0  0  0  0  0  0  0  0  0  0  0  0
  148.3542  139.2826  151.2945 H   0  0  0  0  0  0  0  0  0  0  0  0
  145.3580  139.0917  150.8244 H   0  0  0  0  0  0  0  0  0  0  0  0
  146.6596  138.3283  149.8951 H   0  0  0  0  0  0  0  0  0  0  0  0
  144.2589  136.8965  151.8118 H   0  0  0  0  0  0  0  0  0  0  0  0
  145.2552  136.1181  150.5914 H   0  0  0  0  0  0  0  0  0  0  0  0
  144.7259  134.5555  152.5219 H   0  0  0  0  0  0  0  0  0  0  0  0
  146.4373  134.7842  152.2695 H   0  0  0  0  0  0  0  0  0  0  0  0
  144.7294  136.0900  154.4345 H   0  0  0  0  0  0  0  0  0  0  0  0
  146.0107  134.9298  154.6772 H   0  0  0  0  0  0  0  0  0  0  0  0
  146.7166  137.2967  155.1913 H   0  0  0  0  0  0  0  0  0  0  0  0
  147.7152  136.5708  153.9466 H   0  0  0  0  0  0  0  0  0  0  0  0
  145.2808  138.3387  153.4262 H   0  0  0  0  0  0  0  0  0  0  0  0
  149.6135  142.3999  156.0561 H   0  0  0  0  0  0  0  0  0  0  0  0
  147.1760  137.0147  151.7054 H   0  0  0  0  0  0  0  0  0  0  0  0
  1  2  1  0  0  0  0
  1 25  1  0  0  0  0
  1 26  1  0  0  0  0
  1 27  1  0  0  0  0
  2  3  1  0  0  0  0
  2 28  1  0  0  0  0
  2 29  1  0  0  0  0
  3  4  1  0  0  0  0
  3  6  1  0  0  0  0
  4  5  1  0  0  0  0
  4 30  1  0  0  0  0
  4 31  1  0  0  0  0
  5 32  1  0  0  0  0
  5 33  1  0  0  0  0
  5 34  1  0  0  0  0
  6 24  1  0  0  0  0
  6  7  2  0  0  0  0
  7  8  1  0  0  0  0
  7 35  1  0  0  0  0
  8  9  2  0  0  0  0
  8 36  1  0  0  0  0
  9 10  1  0  0  0  0
  9 23  1  0  0  0  0
 10 11  1  0  0  0  0
 10 37  1  0  0  0  0
 11 12  2  0  0  0  0
 11 13  1  0  0  0  0
 13 14  1  0  0  0  0
 13 38  1  0  0  0  0
 14 22  1  0  0  0  0
 14 15  1  0  0  0  0
 14 39  1  0  0  0  0
 15 16  1  0  0  0  0
 15 40  1  0  0  0  0
 15 41  1  0  0  0  0
 16 17  1  0  0  0  0
 16 42  1  0  0  0  0
 16 43  1  0  0  0  0
 17 22  1  0  0  0  0
 17 18  1  0  0  0  0
 17 54  1  0  0  0  0
 18 19  1  0  0  0  0
 18 44  1  0  0  0  0
 18 45  1  0  0  0  0
 19 20  1  0  0  0  0
 19 46  1  0  0  0  0
 19 47  1  0  0  0  0
 20 21  1  0  0  0  0
 20 48  1  0  0  0  0
 20 49  1  0  0  0  0
 21 22  1  0  0  0  0
 21 50  1  0  0  0  0
 21 51  1  0  0  0  0
 22 52  1  0  0  0  0
 23 24  2  0  0  0  0
 23 53  1  0  0  0  0
M  CHG  1  17   1
M  END
> <s_m_source_file>
AV-unprocessed.smi

> <i_m_source_file_index>
1701

> <i_lp_mmshare_version>
43012

> <i_f3d_flags>
0

> <s_epik_input>
W0NIM11bQ0gyXU4oW0NIMl1bQ0gzXSljMVtjSF1bY0hdYyhbY0hdbjEpW05IXUMoPU8pW05IXVtDQEhdKFtDSDJdW0NIMl0yKVtDQEBIXShOMjMpW0NIMl1bQ0gyXVtDSDJdW0NIMl0z

> <s_epik_cmdline>
J2VwaWtfcHl0aG9uJywgJy1waCcsICc3LjAnLCAnLXRuJywgJzgnLCAnLW1hJywgJzIwMCcsICctbWV0YWxfYmluZGluZycsICctaW1hZScsICc8aW5maWxlLm1hZT4nLCAnLW9tYWUnLCAnPG91dGZpbGUubWFlPic=

> <r_lp_tautomer_probability>
1

> <r_epik_Ionization_Penalty>
0.56662

> <r_epik_Ionization_Penalty_Charging>
0.000974069

> <r_epik_Ionization_Penalty_Neutral>
0.565646

> <r_epik_State_Penalty>
2.0247

> <r_epik_Charging_Adjusted_Penalty>
2.02568

> <i_epik_Tot_Q>
1

> <i_epik_Tot_abs_Q>
1

> <r_epik_Metal_State_Penalty>
1.51504

> <b_epik_Metal_Only>
0

> <s_lp_Force_Field>
OPLS_2005

> <r_lp_Energy>
60.356

> <b_lp_Chiralities_Consistent>
1

> <s_lp_Variant>
AV-unprocessed.smi:1701-12

> <Gold.Version>
5.8.1

> <Gold.Id.Protein>
6NUR|6NUR_protein|mol2

> <Gold.PLP.Fitness>
51.5648

> <Gold.PLP.PLP>
-42.9057

> <Gold.PLP.part.hbond>
-1.7855

> <Gold.PLP.part.metal>
0.0000

> <Gold.PLP.part.buried>
2.0234

> <Gold.PLP.part.nonpolar>
-43.9300

> <Gold.PLP.part.repulsive>
0.3550

> <Gold.PLP.ligand.clash>
0.0000

> <Gold.PLP.ligand.torsion>
0.5992

> <Gold.PLP.Chemscore.Hbond>
2.0000

> <Gold.PLP.Chemscore.CHOScore>
1.0000

> <Gold.PLP.Chemscore.Metal>
0.0000

> <Gold.Chemscore.Hbonds>
donor molecule, donor type, donor heavy atom, donor atom, acceptor molecule, acceptor atom, score
      L1  H    17    54       P1  7948  2.00
      L1  C    23    53       P1  8028  1.00

> <Gold.PLP.Chemscore.Internal.Correction>
0.8574

> <Gold.Rescore>
     Score         DG    S(hbond)    S(metal)    S(lipo)     H(rot)  DE(clash)    DE(int)     intcor
     14.76     -19.21       1.00        0.00     117.02       1.28       2.51       1.94       ----

> <Gold.Chemscore.Fitness>
14.7595

> <Gold.Chemscore.DG>
-19.2097

> <Gold.Chemscore.ZeroCoef>
-5.4800

> <Gold.Chemscore.Hbond>
0.9953

> <Gold.Chemscore.Metal>
0.0000

> <Gold.Chemscore.Lipo>
117.0240

> <Gold.Chemscore.Internal_Hbond>
0.0000

> <Gold.Chemscore.DEClash>
2.5104

> <Gold.Chemscore.DEInternal>
1.9398

> <Gold.Chemscore.Rot>
1.2838

> <Gold.Chemscore.Internal.Correction>
   9.000000E+99

> <Gold.Chemscore.Hbonds>
donor molecule, donor type, donor heavy atom, donor atom, acceptor molecule, acceptor atom, score
      L1  H    17    54       P1  7948  1.00

> <Gold.Chemscore.Hbond.Weighted>
-3.3244

> <Gold.Chemscore.Metal.Weighted>
-0.0000

> <Gold.Chemscore.Lipo.Weighted>
-13.6918

> <Gold.Chemscore.Internal_Hbond.Weighted>
0.0000

> <Gold.Chemscore.DEClash.Weighted>
2.5104

> <Gold.Chemscore.DEInternal.Weighted>
1.9398

> <Gold.Chemscore.Rot.Weighted>
3.2865

> <Gold.Chemscore.Internal.Correction.Weighted>
   9.000000E+99

> <Gold.Protein.RotatedTorsions>
[ 6907 6896 6895 6894 ] final  -83.57 input  -60.11 | X-H torsion
[ 7974 7965 7964 7962 ] final  116.73 input  175.53 | X-H torsion
[ 8008 7997 7996 7995 ] final   64.72 input   59.86 | X-H torsion
[ 10167 10162 10161 10158 ] final  173.60 input  -65.29 | X-H torsion
[ 10718 10713 10712 10709 ] final  115.35 input   66.30 | X-H torsion
[ 10763 10752 10751 10750 ] final  -65.84 input  -60.55 | X-H torsion
[ 11005 11000 10999 10996 ] final  -92.34 input  -57.11 | X-H torsion

> <Gold.Protein.ActiveResidues>
 VAL166  LYS551  ARG553  GLY616  TRP617  ASP618  TYR619  PRO620  LYS621  CYS622 
 ASP623  PHE694  ASN695  SER759  ASP760  ASP761  ALA762  ILE779  LEU786  VAL792 
 PHE793  MET794  SER795  GLU796  ALA797  LYS798  CYS799  TRP800  GLU811  SER814 

> <Gold.Protein.RotatedAtoms>
  150.6884  134.3491  159.4901 H   0  0  0  0  0  0  0  0  0  0  0  0  # atno 6907 bound_to 6896
  152.1335  134.9114  160.0567 H   0  0  0  0  0  0  0  0  0  0  0  0  # atno 6908 bound_to 6896
  152.0275  133.3889  159.4320 H   0  0  0  0  0  0  0  0  0  0  0  0  # atno 6909 bound_to 6896
  145.1760  139.3075  143.4443 H   0  0  0  0  0  0  0  0  0  0  0  0  # atno 7974 bound_to 7965
  155.6505  140.3497  155.4746 H   0  0  0  0  0  0  0  0  0  0  0  0  # atno 8008 bound_to 7997
  155.9852  140.1182  157.0713 H   0  0  0  0  0  0  0  0  0  0  0  0  # atno 8009 bound_to 7997
  154.4203  140.1130  156.5476 H   0  0  0  0  0  0  0  0  0  0  0  0  # atno 8010 bound_to 7997
  139.5114  144.3242  152.0174 H   0  0  0  0  0  0  0  0  0  0  0  0  # atno 10167 bound_to 10162
  157.6227  131.1011  150.7317 H   0  0  0  0  0  0  0  0  0  0  0  0  # atno 10718 bound_to 10713
  154.3510  135.6136  153.5643 H   0  0  0  0  0  0  0  0  0  0  0  0  # atno 10763 bound_to 10752
  152.9798  135.5792  154.4743 H   0  0  0  0  0  0  0  0  0  0  0  0  # atno 10764 bound_to 10752
  154.4464  135.2851  155.1789 H   0  0  0  0  0  0  0  0  0  0  0  0  # atno 10765 bound_to 10752
  141.1524  133.7814  157.0006 H   0  0  0  0  0  0  0  0  0  0  0  0  # atno 11005 bound_to 11000
  146.3461  140.1922  142.8589 LP  0  0  0  0  0  0  0  0  0  0  0  0  # atno 17320 bound_to 7965
  145.0184  140.8773  143.5181 LP  0  0  0  0  0  0  0  0  0  0  0  0  # atno 17321 bound_to 7965
  140.2683  144.3992  150.6160 LP  0  0  0  0  0  0  0  0  0  0  0  0  # atno 17342 bound_to 10162
  140.6107  143.2169  151.6891 LP  0  0  0  0  0  0  0  0  0  0  0  0  # atno 17343 bound_to 10162
  156.7672  130.4817  149.5425 LP  0  0  0  0  0  0  0  0  0  0  0  0  # atno 17370 bound_to 10713
  156.1381  130.6225  151.0429 LP  0  0  0  0  0  0  0  0  0  0  0  0  # atno 17371 bound_to 10713
  140.0942  134.9574  157.1824 LP  0  0  0  0  0  0  0  0  0  0  0  0  # atno 17394 bound_to 11000
  140.3404  134.2710  155.7213 LP  0  0  0  0  0  0  0  0  0  0  0  0  # atno 17395 bound_to 11000

$$$$
