AV-unprocessed.smi:3262|AV-procd|sdf|12484|dock4
  -GOLD-   2272018383D 1   1.00000     0.00000
 Structure written by MMmdl.
 39 40  0  0  0  0  0  0  0  0  1 V2000
  150.7568  140.4461  155.2054 O   0  0  0  0  0  0  0  0  0  0  0  0
  149.9096  141.3409  155.2289 C   0  0  0  0  0  0  0  0  0  0  0  0
  150.0817  142.4582  155.9548 N   0  0  0  0  0  0  0  0  0  0  0  0
  151.2406  142.7328  156.7933 C   0  0  0  0  0  0  0  0  0  0  0  0
  151.2368  141.8277  158.0330 C   0  0  0  0  0  0  0  0  0  0  0  0
  151.5769  142.5874  159.3013 C   0  0  0  0  0  0  0  0  0  0  0  0
  152.6103  142.1419  160.1528 C   0  0  0  0  0  0  0  0  0  0  0  0
  152.8906  142.8873  161.3144 C   0  0  0  0  0  0  0  0  0  0  0  0
  152.1316  144.0438  161.5779 C   0  0  0  0  0  0  0  0  0  0  0  0
  151.1224  144.4057  160.6634 C   0  0  0  0  0  0  0  0  0  0  0  0
  150.8455  143.6981  159.5469 N   0  0  0  0  0  0  0  0  0  0  0  0
  148.7674  141.3046  154.4911 N   0  0  0  0  0  0  0  0  0  0  0  0
  147.7558  142.3835  154.4633 C   0  0  0  0  0  0  0  0  0  0  0  0
  146.2905  141.9001  154.4086 C   0  0  0  0  0  0  0  0  0  0  0  0
  145.9647  140.7165  155.3386 C   0  0  0  0  0  0  0  0  0  0  0  0
  146.2497  139.3485  154.6950 C   0  0  0  0  0  0  0  0  0  0  0  0
  147.7380  139.0424  154.4618 C   0  0  0  0  0  0  0  0  0  0  0  0
  148.4757  140.1283  153.6575 C   0  0  0  0  0  0  0  0  0  0  0  0
  149.3621  143.1652  155.9174 H   0  0  0  0  0  0  0  0  0  0  0  0
  152.1543  142.5726  156.2185 H   0  0  0  0  0  0  0  0  0  0  0  0
  151.2256  143.7823  157.0916 H   0  0  0  0  0  0  0  0  0  0  0  0
  150.2578  141.3613  158.1525 H   0  0  0  0  0  0  0  0  0  0  0  0
  151.9503  141.0129  157.9019 H   0  0  0  0  0  0  0  0  0  0  0  0
  153.1773  141.2520  159.9218 H   0  0  0  0  0  0  0  0  0  0  0  0
  153.6738  142.5780  161.9906 H   0  0  0  0  0  0  0  0  0  0  0  0
  152.3187  144.6398  162.4588 H   0  0  0  0  0  0  0  0  0  0  0  0
  150.5216  145.2870  160.8331 H   0  0  0  0  0  0  0  0  0  0  0  0
  147.8249  143.0116  155.3520 H   0  0  0  0  0  0  0  0  0  0  0  0
  147.9615  143.0377  153.6154 H   0  0  0  0  0  0  0  0  0  0  0  0
  145.6529  142.7429  154.6778 H   0  0  0  0  0  0  0  0  0  0  0  0
  146.0110  141.6520  153.3841 H   0  0  0  0  0  0  0  0  0  0  0  0
  146.4888  140.8159  156.2901 H   0  0  0  0  0  0  0  0  0  0  0  0
  144.9015  140.7547  155.5777 H   0  0  0  0  0  0  0  0  0  0  0  0
  145.8311  138.5661  155.3287 H   0  0  0  0  0  0  0  0  0  0  0  0
  145.7143  139.2787  153.7474 H   0  0  0  0  0  0  0  0  0  0  0  0
  148.2367  138.8781  155.4178 H   0  0  0  0  0  0  0  0  0  0  0  0
  147.8114  138.0964  153.9247 H   0  0  0  0  0  0  0  0  0  0  0  0
  147.9020  140.4106  152.7742 H   0  0  0  0  0  0  0  0  0  0  0  0
  149.4029  139.7135  153.2579 H   0  0  0  0  0  0  0  0  0  0  0  0
  1  2  2  0  0  0  0
  2  3  1  0  0  0  0
  2 12  1  0  0  0  0
  3  4  1  0  0  0  0
  3 19  1  0  0  0  0
  4  5  1  0  0  0  0
  4 20  1  0  0  0  0
  4 21  1  0  0  0  0
  5  6  1  0  0  0  0
  5 22  1  0  0  0  0
  5 23  1  0  0  0  0
  6 11  1  0  0  0  0
  6  7  2  0  0  0  0
  7  8  1  0  0  0  0
  7 24  1  0  0  0  0
  8  9  2  0  0  0  0
  8 25  1  0  0  0  0
  9 10  1  0  0  0  0
  9 26  1  0  0  0  0
 10 11  2  0  0  0  0
 10 27  1  0  0  0  0
 12 18  1  0  0  0  0
 12 13  1  0  0  0  0
 13 14  1  0  0  0  0
 13 28  1  0  0  0  0
 13 29  1  0  0  0  0
 14 15  1  0  0  0  0
 14 30  1  0  0  0  0
 14 31  1  0  0  0  0
 15 16  1  0  0  0  0
 15 32  1  0  0  0  0
 15 33  1  0  0  0  0
 16 17  1  0  0  0  0
 16 34  1  0  0  0  0
 16 35  1  0  0  0  0
 17 18  1  0  0  0  0
 17 36  1  0  0  0  0
 17 37  1  0  0  0  0
 18 38  1  0  0  0  0
 18 39  1  0  0  0  0
M  END
> <s_m_source_file>
AV-unprocessed.smi

> <i_m_source_file_index>
3262

> <i_lp_mmshare_version>
43012

> <i_f3d_flags>
0

> <s_epik_input>
W0NIMl0xW0NIMl1bQ0gyXVtDSDJdW0NIMl1bQ0gyXU4xQyg9TylbTkhdW0NIMl1bQ0gyXWMyW2NIXVtjSF1bY0hdW2NIXW4y

> <s_epik_cmdline>
J2VwaWtfcHl0aG9uJywgJy1waCcsICc3LjAnLCAnLXRuJywgJzgnLCAnLW1hJywgJzIwMCcsICctbWV0YWxfYmluZGluZycsICctaW1hZScsICc8aW5maWxlLm1hZT4nLCAnLW9tYWUnLCAnPG91dGZpbGUubWFlPic=

> <r_epik_Ionization_Penalty>
0.0449498

> <r_epik_Ionization_Penalty_Charging>
0

> <r_epik_Ionization_Penalty_Neutral>
0.0449498

> <r_epik_State_Penalty>
0.0380669

> <r_epik_Charging_Adjusted_Penalty>
0.0380669

> <i_epik_Tot_Q>
0

> <i_epik_Tot_abs_Q>
0

> <r_epik_Metal_State_Penalty>
0.0353734

> <b_epik_Metal_Only>
0

> <s_lp_Force_Field>
OPLS_2005

> <r_lp_Energy>
31.2799

> <b_lp_Chiralities_Consistent>
1

> <s_lp_Variant>
AV-unprocessed.smi:3262-1

> <Gold.Version>
5.8.1

> <Gold.Id.Protein>
6NUR|6NUR_protein|mol2

> <Gold.PLP.Fitness>
40.7966

> <Gold.PLP.PLP>
-35.6228

> <Gold.PLP.part.hbond>
-2.0000

> <Gold.PLP.part.metal>
0.0000

> <Gold.PLP.part.buried>
-0.0407

> <Gold.PLP.part.nonpolar>
-33.5492

> <Gold.PLP.part.repulsive>
0.2622

> <Gold.PLP.ligand.clash>
0.0000

> <Gold.PLP.ligand.torsion>
0.4192

> <Gold.PLP.Chemscore.Hbond>
2.0000

> <Gold.PLP.Chemscore.CHOScore>
0.0000

> <Gold.PLP.Chemscore.Metal>
0.0000

> <Gold.Chemscore.Hbonds>
donor molecule, donor type, donor heavy atom, donor atom, acceptor molecule, acceptor atom, score
      L1  H     3    19       P1  8028  1.00
      P1  H  7989  7998       L1     1  0.95

> <Gold.PLP.Chemscore.Internal.Correction>
0.0122

> <Gold.Rescore>
     Score         DG    S(hbond)    S(metal)    S(lipo)     H(rot)  DE(clash)    DE(int)     intcor
     16.63     -19.08       1.68        0.00      96.27       1.27       2.02       0.43       ----

> <Gold.Chemscore.Fitness>
16.6311

> <Gold.Chemscore.DG>
-19.0845

> <Gold.Chemscore.ZeroCoef>
-5.4800

> <Gold.Chemscore.Hbond>
1.6773

> <Gold.Chemscore.Metal>
0.0000

> <Gold.Chemscore.Lipo>
96.2698

> <Gold.Chemscore.Internal_Hbond>
0.0000

> <Gold.Chemscore.DEClash>
2.0235

> <Gold.Chemscore.DEInternal>
0.4299

> <Gold.Chemscore.Rot>
1.2738

> <Gold.Chemscore.Internal.Correction>
   9.000000E+99

> <Gold.Chemscore.Hbonds>
donor molecule, donor type, donor heavy atom, donor atom, acceptor molecule, acceptor atom, score
      L1  H     3    19       P1  8028  0.95
      P1  H  7989  7998       L1     1  0.20

> <Gold.Chemscore.Hbond.Weighted>
-5.6020

> <Gold.Chemscore.Metal.Weighted>
-0.0000

> <Gold.Chemscore.Lipo.Weighted>
-11.2636

> <Gold.Chemscore.Internal_Hbond.Weighted>
0.0000

> <Gold.Chemscore.DEClash.Weighted>
2.0235

> <Gold.Chemscore.DEInternal.Weighted>
0.4299

> <Gold.Chemscore.Rot.Weighted>
3.2610

> <Gold.Chemscore.Internal.Correction.Weighted>
   9.000000E+99

> <Gold.Protein.RotatedTorsions>
[ 6907 6896 6895 6894 ] final  -57.31 input  -60.11 | X-H torsion
[ 7974 7965 7964 7962 ] final   32.44 input  175.53 | X-H torsion
[ 8008 7997 7996 7995 ] final  147.86 input   59.86 | X-H torsion
[ 10167 10162 10161 10158 ] final -173.61 input  -65.29 | X-H torsion
[ 10718 10713 10712 10709 ] final  166.05 input   66.30 | X-H torsion
[ 10763 10752 10751 10750 ] final -125.45 input  -60.55 | X-H torsion
[ 11005 11000 10999 10996 ] final  -43.25 input  -57.11 | X-H torsion

> <Gold.Protein.ActiveResidues>
 VAL166  LYS551  ARG553  GLY616  TRP617  ASP618  TYR619  PRO620  LYS621  CYS622 
 ASP623  PHE694  ASN695  SER759  ASP760  ASP761  ALA762  ILE779  LEU786  VAL792 
 PHE793  MET794  SER795  GLU796  ALA797  LYS798  CYS799  TRP800  GLU811  SER814 

> <Gold.Protein.RotatedAtoms>
  150.8097  134.7244  159.6675 H   0  0  0  0  0  0  0  0  0  0  0  0  # atno 6907 bound_to 6896
  152.4216  134.5940  159.9992 H   0  0  0  0  0  0  0  0  0  0  0  0  # atno 6908 bound_to 6896
  151.6154  133.3306  159.3112 H   0  0  0  0  0  0  0  0  0  0  0  0  # atno 6909 bound_to 6896
  146.1486  139.6525  142.9114 H   0  0  0  0  0  0  0  0  0  0  0  0  # atno 7974 bound_to 7965
  156.2811  140.2144  156.5606 H   0  0  0  0  0  0  0  0  0  0  0  0  # atno 8008 bound_to 7997
  154.7216  140.0503  157.0667 H   0  0  0  0  0  0  0  0  0  0  0  0  # atno 8009 bound_to 7997
  155.0471  140.3152  155.4708 H   0  0  0  0  0  0  0  0  0  0  0  0  # atno 8010 bound_to 7997
  139.5679  144.1712  152.1339 H   0  0  0  0  0  0  0  0  0  0  0  0  # atno 10167 bound_to 10162
  157.0714  131.0367  151.2610 H   0  0  0  0  0  0  0  0  0  0  0  0  # atno 10718 bound_to 10713
  154.8736  135.4029  154.3270 H   0  0  0  0  0  0  0  0  0  0  0  0  # atno 10763 bound_to 10752
  153.4089  135.7020  153.6378 H   0  0  0  0  0  0  0  0  0  0  0  0  # atno 10764 bound_to 10752
  153.5089  135.3711  155.2547 H   0  0  0  0  0  0  0  0  0  0  0  0  # atno 10765 bound_to 10752
  141.0371  133.6795  156.2706 H   0  0  0  0  0  0  0  0  0  0  0  0  # atno 11005 bound_to 11000
  145.4878  141.0438  143.2610 LP  0  0  0  0  0  0  0  0  0  0  0  0  # atno 17320 bound_to 7965
  144.7876  139.6394  143.7127 LP  0  0  0  0  0  0  0  0  0  0  0  0  # atno 17321 bound_to 7965
  140.1239  144.5349  150.6845 LP  0  0  0  0  0  0  0  0  0  0  0  0  # atno 17342 bound_to 10162
  140.6963  143.2406  151.4992 LP  0  0  0  0  0  0  0  0  0  0  0  0  # atno 17343 bound_to 10162
  157.4874  130.7802  149.7474 LP  0  0  0  0  0  0  0  0  0  0  0  0  # atno 17370 bound_to 10713
  155.9949  130.3915  150.2840 LP  0  0  0  0  0  0  0  0  0  0  0  0  # atno 17371 bound_to 10713
  140.6303  134.5271  157.5558 LP  0  0  0  0  0  0  0  0  0  0  0  0  # atno 17394 bound_to 11000
  139.9248  134.8077  156.1101 LP  0  0  0  0  0  0  0  0  0  0  0  0  # atno 17395 bound_to 11000

$$$$
