AV-unprocessed.smi:2510|AV-procd|sdf|9882|dock9
  -GOLD-   2272013513D 1   1.00000     0.00000
 Structure written by MMmdl.
 48 49  0  0  0  0  0  0  0  0  1 V2000
  148.1302  141.3170  154.2012 C   0  0  0  0  0  0  0  0  0  0  0  0
  149.2924  140.3114  154.1123 C   0  0  0  0  0  0  0  0  0  0  0  0
  149.3223  139.1628  155.1604 C   0  0  0  0  0  0  0  0  0  0  0  0
  149.4391  139.8401  156.5480 C   0  0  0  0  0  0  0  0  0  0  0  0
  149.1209  138.9271  157.7456 C   0  0  0  0  0  0  0  0  0  0  0  0
  148.2156  138.0673  155.0961 C   0  0  1  0  0  0  0  0  0  0  0  0
  147.6664  137.8548  153.7587 N   0  0  0  0  0  0  0  0  0  0  0  0
  146.4231  138.1722  153.3661 C   0  0  0  0  0  0  0  0  0  0  0  0
  145.6021  138.7175  154.1028 O   0  0  0  0  0  0  0  0  0  0  0  0
  146.0486  137.8475  151.9154 C   0  0  0  0  0  0  0  0  0  0  0  0
  145.6386  136.4167  151.7428 C   0  0  0  0  0  0  0  0  0  0  0  0
  144.4261  135.8499  151.4644 C   0  0  0  0  0  0  0  0  0  0  0  0
  144.6840  134.4478  151.4610 C   0  0  0  0  0  0  0  0  0  0  0  0
  143.7149  133.3283  151.2200 C   0  0  0  0  0  0  0  0  0  0  0  0
  145.9543  134.1669  151.7105 N   0  0  0  0  0  0  0  0  0  0  0  0
  146.5267  135.3732  151.8776 N   0  0  0  0  0  0  0  0  0  0  0  0
  149.2659  136.9988  155.4516 C   0  0  1  0  0  0  0  0  0  0  0  0
  149.1715  135.5945  154.8560 C   0  0  0  0  0  0  0  0  0  0  0  0
  150.3152  137.9886  154.9233 C   0  0  2  0  0  0  0  0  0  0  0  0
  151.4925  138.0999  155.7099 O   0  0  0  0  0  0  0  0  0  0  0  0
  152.3022  139.2060  155.3521 C   0  0  0  0  0  0  0  0  0  0  0  0
  147.5114  135.4681  152.0831 H   0  0  0  0  0  0  0  0  0  0  0  0
  148.2451  142.0946  153.4460 H   0  0  0  0  0  0  0  0  0  0  0  0
  148.0795  141.8141  155.1688 H   0  0  0  0  0  0  0  0  0  0  0  0
  147.1714  140.8319  154.0168 H   0  0  0  0  0  0  0  0  0  0  0  0
  149.2619  139.9028  153.1016 H   0  0  0  0  0  0  0  0  0  0  0  0
  150.2281  140.8691  154.1607 H   0  0  0  0  0  0  0  0  0  0  0  0
  150.4457  140.2322  156.6942 H   0  0  0  0  0  0  0  0  0  0  0  0
  148.7919  140.7169  156.5941 H   0  0  0  0  0  0  0  0  0  0  0  0
  149.2658  139.4646  158.6829 H   0  0  0  0  0  0  0  0  0  0  0  0
  149.7672  138.0504  157.7707 H   0  0  0  0  0  0  0  0  0  0  0  0
  148.0881  138.5800  157.7299 H   0  0  0  0  0  0  0  0  0  0  0  0
  147.4529  138.1534  155.8711 H   0  0  0  0  0  0  0  0  0  0  0  0
  148.2747  137.4132  153.0843 H   0  0  0  0  0  0  0  0  0  0  0  0
  145.2360  138.5023  151.5984 H   0  0  0  0  0  0  0  0  0  0  0  0
  146.9024  138.0773  151.2768 H   0  0  0  0  0  0  0  0  0  0  0  0
  143.4895  136.3614  151.2979 H   0  0  0  0  0  0  0  0  0  0  0  0
  142.6972  133.7044  151.1135 H   0  0  0  0  0  0  0  0  0  0  0  0
  143.7204  132.6180  152.0472 H   0  0  0  0  0  0  0  0  0  0  0  0
  143.9641  132.7832  150.3092 H   0  0  0  0  0  0  0  0  0  0  0  0
  149.3391  136.9377  156.5386 H   0  0  0  0  0  0  0  0  0  0  0  0
  149.2779  135.6060  153.7708 H   0  0  0  0  0  0  0  0  0  0  0  0
  148.2109  135.1335  155.0871 H   0  0  0  0  0  0  0  0  0  0  0  0
  149.9497  134.9427  155.2521 H   0  0  0  0  0  0  0  0  0  0  0  0
  150.5343  137.7999  153.8718 H   0  0  0  0  0  0  0  0  0  0  0  0
  153.1623  139.2581  156.0195 H   0  0  0  0  0  0  0  0  0  0  0  0
  151.7523  140.1439  155.4393 H   0  0  0  0  0  0  0  0  0  0  0  0
  152.6774  139.1116  154.3333 H   0  0  0  0  0  0  0  0  0  0  0  0
  1  2  1  0  0  0  0
  1 23  1  0  0  0  0
  1 24  1  0  0  0  0
  1 25  1  0  0  0  0
  2  3  1  0  0  0  0
  2 26  1  0  0  0  0
  2 27  1  0  0  0  0
  3 19  1  0  0  0  0
  3  4  1  0  0  0  0
  3  6  1  0  0  0  0
  4  5  1  0  0  0  0
  4 28  1  0  0  0  0
  4 29  1  0  0  0  0
  5 30  1  0  0  0  0
  5 31  1  0  0  0  0
  5 32  1  0  0  0  0
  6  7  1  0  0  0  0
  6 17  1  0  0  0  0
  6 33  1  0  0  0  0
  7  8  1  0  0  0  0
  7 34  1  0  0  0  0
  8  9  2  0  0  0  0
  8 10  1  0  0  0  0
 10 35  1  0  0  0  0
 10 36  1  0  0  0  0
 10 11  1  0  0  0  0
 11 16  1  0  0  0  0
 11 12  2  0  0  0  0
 12 13  1  0  0  0  0
 12 37  1  0  0  0  0
 13 14  1  0  0  0  0
 13 15  2  0  0  0  0
 14 38  1  0  0  0  0
 14 39  1  0  0  0  0
 14 40  1  0  0  0  0
 15 16  1  0  0  0  0
 16 22  1  0  0  0  0
 17 18  1  0  0  0  0
 17 19  1  0  0  0  0
 17 41  1  0  0  0  0
 18 42  1  0  0  0  0
 18 43  1  0  0  0  0
 18 44  1  0  0  0  0
 19 20  1  0  0  0  0
 19 45  1  0  0  0  0
 20 21  1  0  0  0  0
 21 46  1  0  0  0  0
 21 47  1  0  0  0  0
 21 48  1  0  0  0  0
M  END
> <s_m_source_file>
AV-unprocessed.smi

> <i_m_source_file_index>
2510

> <i_lp_mmshare_version>
43012

> <i_f3d_flags>
0

> <s_epik_input>
W0NIM11PW0NAQEhdMVtDQEhdKFtDSDNdKVtDQEBIXShDMShbQ0gyXVtDSDNdKVtDSDJdW0NIM10pW05IXUMoPU8pW0NIMl1jMltjSF1jKFtDSDNdKVtuSF1uMg==

> <s_epik_cmdline>
J2VwaWtfcHl0aG9uJywgJy1waCcsICc3LjAnLCAnLXRuJywgJzgnLCAnLW1hJywgJzIwMCcsICctbWV0YWxfYmluZGluZycsICctaW1hZScsICc8aW5maWxlLm1hZT4nLCAnLW9tYWUnLCAnPG91dGZpbGUubWFlPic=

> <r_lp_tautomer_probability>
0.5

> <r_epik_Ionization_Penalty>
0.000134763

> <r_epik_Ionization_Penalty_Charging>
0

> <r_epik_Ionization_Penalty_Neutral>
0.000134763

> <r_epik_State_Penalty>
0.41068

> <r_epik_Charging_Adjusted_Penalty>
0.41068

> <i_epik_Tot_Q>
0

> <i_epik_Tot_abs_Q>
0

> <r_epik_Metal_State_Penalty>
0.410661

> <b_epik_Metal_Only>
0

> <s_lp_Force_Field>
OPLS_2005

> <r_lp_Energy>
26.4004

> <b_lp_Chiralities_Consistent>
1

> <s_lp_Variant>
AV-unprocessed.smi:2510-13

> <Gold.Version>
5.8.1

> <Gold.Id.Protein>
6NUR|6NUR_protein|mol2

> <Gold.PLP.Fitness>
32.8922

> <Gold.PLP.PLP>
-28.2114

> <Gold.PLP.part.hbond>
-2.0000

> <Gold.PLP.part.metal>
0.0000

> <Gold.PLP.part.buried>
-1.9238

> <Gold.PLP.part.nonpolar>
-25.5083

> <Gold.PLP.part.repulsive>
0.3125

> <Gold.PLP.ligand.clash>
0.0000

> <Gold.PLP.ligand.torsion>
0.9249

> <Gold.PLP.Chemscore.Hbond>
1.9920

> <Gold.PLP.Chemscore.CHOScore>
0.0000

> <Gold.PLP.Chemscore.Metal>
0.0000

> <Gold.Chemscore.Hbonds>
donor molecule, donor type, donor heavy atom, donor atom, acceptor molecule, acceptor atom, score
      L1  H     7    34       P1  7948  1.00
      L1  H    16    22       P1  7948  1.00

> <Gold.PLP.Chemscore.Internal.Correction>
0.5546

> <Gold.Rescore>
     Score         DG    S(hbond)    S(metal)    S(lipo)     H(rot)  DE(clash)    DE(int)     intcor
     13.42     -16.24       1.83        0.00      79.35       1.81       0.91       1.91       ----

> <Gold.Chemscore.Fitness>
13.4196

> <Gold.Chemscore.DG>
-16.2358

> <Gold.Chemscore.ZeroCoef>
-5.4800

> <Gold.Chemscore.Hbond>
1.8282

> <Gold.Chemscore.Metal>
0.0000

> <Gold.Chemscore.Lipo>
79.3471

> <Gold.Chemscore.Internal_Hbond>
0.0000

> <Gold.Chemscore.DEClash>
0.9081

> <Gold.Chemscore.DEInternal>
1.9082

> <Gold.Chemscore.Rot>
1.8102

> <Gold.Chemscore.Internal.Correction>
   9.000000E+99

> <Gold.Chemscore.Hbonds>
donor molecule, donor type, donor heavy atom, donor atom, acceptor molecule, acceptor atom, score
      L1  H     7    34       P1  7948  1.00
      L1  H    16    22       P1  7948  0.94

> <Gold.Chemscore.Hbond.Weighted>
-6.1063

> <Gold.Chemscore.Metal.Weighted>
-0.0000

> <Gold.Chemscore.Lipo.Weighted>
-9.2836

> <Gold.Chemscore.Internal_Hbond.Weighted>
0.0000

> <Gold.Chemscore.DEClash.Weighted>
0.9081

> <Gold.Chemscore.DEInternal.Weighted>
1.9082

> <Gold.Chemscore.Rot.Weighted>
4.6341

> <Gold.Chemscore.Internal.Correction.Weighted>
   9.000000E+99

> <Gold.Protein.RotatedTorsions>
[ 6907 6896 6895 6894 ] final  158.58 input  -60.11 | X-H torsion
[ 7974 7965 7964 7962 ] final   98.57 input  175.53 | X-H torsion
[ 8008 7997 7996 7995 ] final  152.20 input   59.86 | X-H torsion
[ 10167 10162 10161 10158 ] final -155.36 input  -65.29 | X-H torsion
[ 10718 10713 10712 10709 ] final  -14.72 input   66.30 | X-H torsion
[ 10763 10752 10751 10750 ] final   56.42 input  -60.55 | X-H torsion
[ 11005 11000 10999 10996 ] final  -79.84 input  -57.11 | X-H torsion

> <Gold.Protein.ActiveResidues>
 VAL166  LYS551  ARG553  GLY616  TRP617  ASP618  TYR619  PRO620  LYS621  CYS622 
 ASP623  PHE694  ASN695  SER759  ASP760  ASP761  ALA762  ILE779  LEU786  VAL792 
 PHE793  MET794  SER795  GLU796  ALA797  LYS798  CYS799  TRP800  GLU811  SER814 

> <Gold.Protein.RotatedAtoms>
  151.9982  133.3816  159.4171 H   0  0  0  0  0  0  0  0  0  0  0  0  # atno 6907 bound_to 6896
  150.6913  134.3862  159.5065 H   0  0  0  0  0  0  0  0  0  0  0  0  # atno 6908 bound_to 6896
  152.1606  134.8915  160.0592 H   0  0  0  0  0  0  0  0  0  0  0  0  # atno 6909 bound_to 6896
  145.4104  139.2334  143.3251 H   0  0  0  0  0  0  0  0  0  0  0  0  # atno 7974 bound_to 7965
  156.2640  140.2027  156.6295 H   0  0  0  0  0  0  0  0  0  0  0  0  # atno 8008 bound_to 7997
  154.6694  140.0552  157.0173 H   0  0  0  0  0  0  0  0  0  0  0  0  # atno 8009 bound_to 7997
  155.1160  140.3220  155.4512 H   0  0  0  0  0  0  0  0  0  0  0  0  # atno 8010 bound_to 7997
  139.6937  143.9377  152.2397 H   0  0  0  0  0  0  0  0  0  0  0  0  # atno 10167 bound_to 10162
  156.6119  130.4852  149.6198 H   0  0  0  0  0  0  0  0  0  0  0  0  # atno 10718 bound_to 10713
  152.9832  135.5677  154.5226 H   0  0  0  0  0  0  0  0  0  0  0  0  # atno 10763 bound_to 10752
  154.4712  135.2785  155.1643 H   0  0  0  0  0  0  0  0  0  0  0  0  # atno 10764 bound_to 10752
  154.3191  135.6272  153.5553 H   0  0  0  0  0  0  0  0  0  0  0  0  # atno 10765 bound_to 10752
  141.1668  133.7123  156.8183 H   0  0  0  0  0  0  0  0  0  0  0  0  # atno 11005 bound_to 11000
  146.2707  140.4815  142.8815 LP  0  0  0  0  0  0  0  0  0  0  0  0  # atno 17320 bound_to 7965
  144.8313  140.6710  143.6289 LP  0  0  0  0  0  0  0  0  0  0  0  0  # atno 17321 bound_to 7965
  139.9201  144.6805  150.8471 LP  0  0  0  0  0  0  0  0  0  0  0  0  # atno 17342 bound_to 10162
  140.7690  143.3381  151.2265 LP  0  0  0  0  0  0  0  0  0  0  0  0  # atno 17343 bound_to 10162
  156.2383  130.6836  151.1531 LP  0  0  0  0  0  0  0  0  0  0  0  0  # atno 17370 bound_to 10713
  157.7252  131.0655  150.5964 LP  0  0  0  0  0  0  0  0  0  0  0  0  # atno 17371 bound_to 10713
  140.2138  134.8808  157.3303 LP  0  0  0  0  0  0  0  0  0  0  0  0  # atno 17394 bound_to 11000
  140.2059  134.4197  155.7638 LP  0  0  0  0  0  0  0  0  0  0  0  0  # atno 17395 bound_to 11000

$$$$
