AV-unprocessed.smi:1071|AV-procd|sdf|4682|dock9
  -GOLD-   22720 3203D 1   1.00000     0.00000
 Structure written by MMmdl.
 46 47  0  0  0  0  0  0  0  0  1 V2000
  141.3787  146.1893  160.9778 C   0  0  0  0  0  0  0  0  0  0  0  0
  141.3931  144.8101  161.3023 O   0  0  0  0  0  0  0  0  0  0  0  0
  142.6742  144.3622  161.7126 C   0  0  0  0  0  0  0  0  0  0  0  0
  142.8393  142.8919  161.3187 C   0  0  0  0  0  0  0  0  0  0  0  0
  143.1550  142.8232  159.9313 O   0  0  0  0  0  0  0  0  0  0  0  0
  144.4707  142.9817  159.5466 C   0  0  0  0  0  0  0  0  0  0  0  0
  144.8053  142.7805  158.1929 C   0  0  0  0  0  0  0  0  0  0  0  0
  146.1448  142.9427  157.7901 C   0  0  0  0  0  0  0  0  0  0  0  0
  147.1096  143.3109  158.7577 C   0  0  0  0  0  0  0  0  0  0  0  0
  148.4928  143.4869  158.4841 N   0  0  0  0  0  0  0  0  0  0  0  0
  149.4856  143.8139  159.3348 C   0  0  0  0  0  0  0  0  0  0  0  0
  149.3010  144.1553  160.5023 O   0  0  0  0  0  0  0  0  0  0  0  0
  150.6992  143.8480  158.7304 N   0  0  0  0  0  0  0  0  0  0  0  0
  151.1095  142.7839  157.8002 C   0  0  0  0  0  0  0  0  0  0  0  0
  151.9011  141.7153  158.5836 C   0  0  0  0  0  0  0  0  0  0  0  0
  153.0780  142.3198  159.2128 N   0  0  0  0  0  0  0  0  0  0  0  0
  153.7996  141.3116  159.9749 C   0  0  0  0  0  0  0  0  0  0  0  0
  152.6927  143.4246  160.0951 C   0  0  0  0  0  0  0  0  0  0  0  0
  151.9104  144.4836  159.2888 C   0  0  2  0  0  0  0  0  0  0  0  0
  151.6675  145.7767  160.0947 C   0  0  0  0  0  0  0  0  0  0  0  0
  146.6747  143.4719  160.0893 C   0  0  0  0  0  0  0  0  0  0  0  0
  145.3925  143.3197  160.4816 N   0  0  0  0  0  0  0  0  0  0  0  0
  140.3741  146.4834  160.6738 H   0  0  0  0  0  0  0  0  0  0  0  0
  142.0568  146.4066  160.1515 H   0  0  0  0  0  0  0  0  0  0  0  0
  141.6636  146.8004  161.8353 H   0  0  0  0  0  0  0  0  0  0  0  0
  143.4525  144.9644  161.2410 H   0  0  0  0  0  0  0  0  0  0  0  0
  142.7796  144.4724  162.7930 H   0  0  0  0  0  0  0  0  0  0  0  0
  143.6380  142.4411  161.9104 H   0  0  0  0  0  0  0  0  0  0  0  0
  141.9151  142.3502  161.5267 H   0  0  0  0  0  0  0  0  0  0  0  0
  144.0479  142.5023  157.4750 H   0  0  0  0  0  0  0  0  0  0  0  0
  146.4032  142.7675  156.7575 H   0  0  0  0  0  0  0  0  0  0  0  0
  148.7855  143.2251  157.5541 H   0  0  0  0  0  0  0  0  0  0  0  0
  150.2672  142.3077  157.2968 H   0  0  0  0  0  0  0  0  0  0  0  0
  151.7241  143.2048  157.0029 H   0  0  0  0  0  0  0  0  0  0  0  0
  151.2638  141.2561  159.3413 H   0  0  0  0  0  0  0  0  0  0  0  0
  152.2192  140.9215  157.9066 H   0  0  0  0  0  0  0  0  0  0  0  0
  154.6946  141.7410  160.4265 H   0  0  0  0  0  0  0  0  0  0  0  0
  154.1148  140.4944  159.3252 H   0  0  0  0  0  0  0  0  0  0  0  0
  153.1800  140.8967  160.7713 H   0  0  0  0  0  0  0  0  0  0  0  0
  152.0899  143.0559  160.9269 H   0  0  0  0  0  0  0  0  0  0  0  0
  153.5917  143.8714  160.5216 H   0  0  0  0  0  0  0  0  0  0  0  0
  152.5292  144.7888  158.4427 H   0  0  0  0  0  0  0  0  0  0  0  0
  152.6116  146.2869  160.2869 H   0  0  0  0  0  0  0  0  0  0  0  0
  151.2126  145.5854  161.0660 H   0  0  0  0  0  0  0  0  0  0  0  0
  151.0286  146.4710  159.5480 H   0  0  0  0  0  0  0  0  0  0  0  0
  147.3762  143.7382  160.8665 H   0  0  0  0  0  0  0  0  0  0  0  0
  1  2  1  0  0  0  0
  1 23  1  0  0  0  0
  1 24  1  0  0  0  0
  1 25  1  0  0  0  0
  2  3  1  0  0  0  0
  3  4  1  0  0  0  0
  3 26  1  0  0  0  0
  3 27  1  0  0  0  0
  4  5  1  0  0  0  0
  4 28  1  0  0  0  0
  4 29  1  0  0  0  0
  5  6  1  0  0  0  0
  6 22  1  0  0  0  0
  6  7  2  0  0  0  0
  7  8  1  0  0  0  0
  7 30  1  0  0  0  0
  8  9  2  0  0  0  0
  8 31  1  0  0  0  0
  9 10  1  0  0  0  0
  9 21  1  0  0  0  0
 10 11  1  0  0  0  0
 10 32  1  0  0  0  0
 11 12  2  0  0  0  0
 11 13  1  0  0  0  0
 13 19  1  0  0  0  0
 13 14  1  0  0  0  0
 14 15  1  0  0  0  0
 14 33  1  0  0  0  0
 14 34  1  0  0  0  0
 15 16  1  0  0  0  0
 15 35  1  0  0  0  0
 15 36  1  0  0  0  0
 16 17  1  0  0  0  0
 16 18  1  0  0  0  0
 17 37  1  0  0  0  0
 17 38  1  0  0  0  0
 17 39  1  0  0  0  0
 18 19  1  0  0  0  0
 18 40  1  0  0  0  0
 18 41  1  0  0  0  0
 19 20  1  0  0  0  0
 19 42  1  0  0  0  0
 20 43  1  0  0  0  0
 20 44  1  0  0  0  0
 20 45  1  0  0  0  0
 21 22  2  0  0  0  0
 21 46  1  0  0  0  0
M  END
> <s_m_source_file>
AV-unprocessed.smi

> <i_m_source_file_index>
1071

> <i_lp_mmshare_version>
43012

> <i_f3d_flags>
0

> <s_epik_input>
W0NIM11PW0NIMl1bQ0gyXU9jMVtjSF1bY0hdYyhbY0hdbjEpW05IXUMoPU8pTjJbQ0gyXVtDSDJdTihbQ0gzXSlbQ0gyXVtDQEhdMltDSDNd

> <s_epik_cmdline>
J2VwaWtfcHl0aG9uJywgJy1waCcsICc3LjAnLCAnLXRuJywgJzgnLCAnLW1hJywgJzIwMCcsICctbWV0YWxfYmluZGluZycsICctaW1hZScsICc8aW5maWxlLm1hZT4nLCAnLW9tYWUnLCAnPG91dGZpbGUubWFlPic=

> <r_lp_tautomer_probability>
1

> <r_epik_Ionization_Penalty>
0.623446

> <r_epik_Ionization_Penalty_Charging>
0

> <r_epik_Ionization_Penalty_Neutral>
0.623446

> <r_epik_State_Penalty>
0.639577

> <r_epik_Charging_Adjusted_Penalty>
0.639577

> <i_epik_Tot_Q>
0

> <i_epik_Tot_abs_Q>
0

> <r_epik_Metal_State_Penalty>
0.639567

> <b_epik_Metal_Only>
0

> <s_lp_Force_Field>
OPLS_2005

> <r_lp_Energy>
48.0993

> <b_lp_Chiralities_Consistent>
1

> <s_lp_Variant>
AV-unprocessed.smi:1071-6

> <Gold.Version>
5.8.1

> <Gold.Id.Protein>
6NUR|6NUR_protein|mol2

> <Gold.PLP.Fitness>
37.7320

> <Gold.PLP.PLP>
-37.6897

> <Gold.PLP.part.hbond>
-3.4077

> <Gold.PLP.part.metal>
0.0000

> <Gold.PLP.part.buried>
-4.4407

> <Gold.PLP.part.nonpolar>
-31.0343

> <Gold.PLP.part.repulsive>
0.3478

> <Gold.PLP.ligand.clash>
0.1810

> <Gold.PLP.ligand.torsion>
0.8162

> <Gold.PLP.Chemscore.Hbond>
0.4389

> <Gold.PLP.Chemscore.CHOScore>
0.0000

> <Gold.PLP.Chemscore.Metal>
0.0000

> <Gold.Chemscore.Hbonds>
donor molecule, donor type, donor heavy atom, donor atom, acceptor molecule, acceptor atom, score
      L1  H    10    32       P1  8028  0.04
      P1  H  6933  6944       L1    12  0.36

> <Gold.PLP.Chemscore.Internal.Correction>
0.5390

> <Gold.Rescore>
     Score         DG    S(hbond)    S(metal)    S(lipo)     H(rot)  DE(clash)    DE(int)     intcor
      8.97     -12.56       0.20        0.00      89.18       1.57       0.00       3.59       ----

> <Gold.Chemscore.Fitness>
8.9650

> <Gold.Chemscore.DG>
-12.5587

> <Gold.Chemscore.ZeroCoef>
-5.4800

> <Gold.Chemscore.Hbond>
0.2022

> <Gold.Chemscore.Metal>
0.0000

> <Gold.Chemscore.Lipo>
89.1762

> <Gold.Chemscore.Internal_Hbond>
0.0000

> <Gold.Chemscore.DEClash>
0.0000

> <Gold.Chemscore.DEInternal>
3.5937

> <Gold.Chemscore.Rot>
1.5743

> <Gold.Chemscore.Internal.Correction>
   9.000000E+99

> <Gold.Chemscore.Hbonds>
donor molecule, donor type, donor heavy atom, donor atom, acceptor molecule, acceptor atom, score
      L1  H    10    32       P1  8028  0.02
      P1  H  6933  6944       L1    12  0.16

> <Gold.Chemscore.Hbond.Weighted>
-0.6752

> <Gold.Chemscore.Metal.Weighted>
-0.0000

> <Gold.Chemscore.Lipo.Weighted>
-10.4336

> <Gold.Chemscore.Internal_Hbond.Weighted>
0.0000

> <Gold.Chemscore.DEClash.Weighted>
0.0000

> <Gold.Chemscore.DEInternal.Weighted>
3.5937

> <Gold.Chemscore.Rot.Weighted>
4.0301

> <Gold.Chemscore.Internal.Correction.Weighted>
   9.000000E+99

> <Gold.Protein.RotatedTorsions>
[ 6907 6896 6895 6894 ] final -174.75 input  -60.11 | X-H torsion
[ 7974 7965 7964 7962 ] final  -16.58 input  175.53 | X-H torsion
[ 8008 7997 7996 7995 ] final   26.29 input   59.86 | X-H torsion
[ 10167 10162 10161 10158 ] final  -60.75 input  -65.29 | X-H torsion
[ 10718 10713 10712 10709 ] final -121.22 input   66.30 | X-H torsion
[ 10763 10752 10751 10750 ] final -159.25 input  -60.55 | X-H torsion
[ 11005 11000 10999 10996 ] final -113.67 input  -57.11 | X-H torsion

> <Gold.Protein.ActiveResidues>
 VAL166  LYS551  ARG553  GLY616  TRP617  ASP618  TYR619  PRO620  LYS621  CYS622 
 ASP623  PHE694  ASN695  SER759  ASP760  ASP761  ALA762  ILE779  LEU786  VAL792 
 PHE793  MET794  SER795  GLU796  ALA797  LYS798  CYS799  TRP800  GLU811  SER814 

> <Gold.Protein.RotatedAtoms>
  151.5774  133.3382  159.3001 H   0  0  0  0  0  0  0  0  0  0  0  0  # atno 6907 bound_to 6896
  150.8332  134.7598  159.6883 H   0  0  0  0  0  0  0  0  0  0  0  0  # atno 6908 bound_to 6896
  152.4413  134.5592  159.9941 H   0  0  0  0  0  0  0  0  0  0  0  0  # atno 6909 bound_to 6896
  146.1981  140.3656  142.8433 H   0  0  0  0  0  0  0  0  0  0  0  0  # atno 7974 bound_to 7965
  155.0250  140.3152  155.4779 H   0  0  0  0  0  0  0  0  0  0  0  0  # atno 8008 bound_to 7997
  156.2885  140.2190  156.5311 H   0  0  0  0  0  0  0  0  0  0  0  0  # atno 8009 bound_to 7997
  154.7419  140.0473  157.0807 H   0  0  0  0  0  0  0  0  0  0  0  0  # atno 8010 bound_to 7997
  140.6051  143.2371  151.5841 H   0  0  0  0  0  0  0  0  0  0  0  0  # atno 10167 bound_to 10162
  156.1320  130.6402  150.9636 H   0  0  0  0  0  0  0  0  0  0  0  0  # atno 10718 bound_to 10713
  154.7490  135.3087  154.8592 H   0  0  0  0  0  0  0  0  0  0  0  0  # atno 10763 bound_to 10752
  153.9384  135.6777  153.4749 H   0  0  0  0  0  0  0  0  0  0  0  0  # atno 10764 bound_to 10752
  153.1086  135.4877  154.8923 H   0  0  0  0  0  0  0  0  0  0  0  0  # atno 10765 bound_to 10752
  141.0600  133.9551  157.2684 H   0  0  0  0  0  0  0  0  0  0  0  0  # atno 11005 bound_to 11000
  144.8623  140.7157  143.6099 LP  0  0  0  0  0  0  0  0  0  0  0  0  # atno 17320 bound_to 7965
  145.3576  139.1690  143.4400 LP  0  0  0  0  0  0  0  0  0  0  0  0  # atno 17321 bound_to 7965
  139.5319  144.2892  152.1166 LP  0  0  0  0  0  0  0  0  0  0  0  0  # atno 17342 bound_to 10162
  140.2080  144.4591  150.6399 LP  0  0  0  0  0  0  0  0  0  0  0  0  # atno 17343 bound_to 10162
  157.6497  131.0899  150.8078 LP  0  0  0  0  0  0  0  0  0  0  0  0  # atno 17370 bound_to 10713
  156.8162  130.4969  149.5349 LP  0  0  0  0  0  0  0  0  0  0  0  0  # atno 17371 bound_to 10713
  139.9424  135.0189  156.8749 LP  0  0  0  0  0  0  0  0  0  0  0  0  # atno 17394 bound_to 11000
  140.5888  134.0282  155.7491 LP  0  0  0  0  0  0  0  0  0  0  0  0  # atno 17395 bound_to 11000

$$$$
