#       Name:                AV-unprocessed.smi:1535
#       Creating user name   scv26
#       Creation time:       Fri Mar 27 06:33:37 2020


#       File generated by GOLD software.
#

@<TRIPOS>MOLECULE
AV-unprocessed.smi:1535
    51    52     1
SMALL
NO_CHARGES


@<TRIPOS>ATOM
      1 ****        -5.9593   1.3877   2.3770 C.3            1 S1                 0.0000
      2 ****        -4.6952   1.4699   1.5395 C.ar           1 S1                 0.0000
      3 ****        -4.8079   1.6206   0.1389 C.ar           1 S1                 0.0000
      4 ****        -3.6573   1.7031  -0.6755 C.ar           1 S1                 0.0000
      5 ****        -3.5340   1.8516  -2.0462 N.2            1 S1                 0.0000
      6 ****        -2.2129   1.8589  -2.1977 C.2            1 S1                 0.0000
      7 ****        -1.4643   1.7296  -1.0851 N.pl3          1 S1                 0.0000
      8 ****        -0.0154   1.7008  -0.9970 C.3            1 S1                 0.0000
      9 ****         0.5324   0.2667  -0.8696 C.3            1 S1                 0.0000
     10 ****         0.1789  -0.4728  -2.0233 O.3            1 S1                 0.0000
     11 ****         2.0661   0.2455  -0.7177 C.3            1 S1                 0.0000
     12 ****         2.5880  -1.1228  -0.4581 N.4            1 S1                 1.0000
     13 ****         2.4198  -1.5368   0.9567 C.3            1 S1                 0.0000
     14 ****         3.9820  -1.3029  -0.9443 C.3            1 S1                 0.0000
     15 ****         4.3791  -2.7840  -1.1010 C.3            1 S1                 0.0000
     16 ****         5.8216  -2.9271  -1.6030 C.3            1 S1                 0.0000
     17 ****         3.4463  -3.4965  -1.9895 C.1            1 S1                 0.0000
     18 ****         2.7106  -4.0531  -2.6867 N.1            1 S1                 0.0000
     19 ****        -2.3810   1.6267  -0.0452 C.ar           1 S1                 0.0000
     20 ****        -2.2555   1.4763   1.3469 C.ar           1 S1                 0.0000
     21 ****        -3.4153   1.3995   2.1462 C.ar           1 S1                 0.0000
     22 ****        -3.2701   1.2427   3.6495 C.3            1 S1                 0.0000
     23 ****        -6.8528   1.4154   1.7527 H              1 S1                 0.0000
     24 ****        -6.0104   2.2254   3.0727 H              1 S1                 0.0000
     25 ****        -5.9810   0.4599   2.9490 H              1 S1                 0.0000
     26 ****        -5.7825   1.6750  -0.3233 H              1 S1                 0.0000
     27 ****        -1.7632   1.9579  -3.1749 H              1 S1                 0.0000
     28 ****         0.4005   2.1968  -1.8754 H              1 S1                 0.0000
     29 ****         0.2822   2.2962  -0.1329 H              1 S1                 0.0000
     30 ****         0.0605  -0.2067  -0.0091 H              1 S1                 0.0000
     31 ****         0.4933  -0.0141  -2.7878 H              1 S1                 0.0000
     32 ****         2.5015   0.6552  -1.6303 H              1 S1                 0.0000
     33 ****         2.3824   0.9091   0.0889 H              1 S1                 0.0000
     34 ****         3.0537  -0.9423   1.6155 H              1 S1                 0.0000
     35 ****         2.6749  -2.5862   1.0962 H              1 S1                 0.0000
     36 ****         1.3892  -1.4205   1.2894 H              1 S1                 0.0000
     37 ****         4.0903  -0.8283  -1.9208 H              1 S1                 0.0000
     38 ****         4.6713  -0.7883  -0.2731 H              1 S1                 0.0000
     39 ****         4.3217  -3.2842  -0.1351 H              1 S1                 0.0000
     40 ****         6.1038  -3.9771  -1.6847 H              1 S1                 0.0000
     41 ****         6.5256  -2.4484  -0.9220 H              1 S1                 0.0000
     42 ****         5.9455  -2.4731  -2.5868 H              1 S1                 0.0000
     43 ****        -1.2748   1.4226   1.7956 H              1 S1                 0.0000
     44 ****        -2.2221   1.2427   3.9506 H              1 S1                 0.0000
     45 ****        -3.7137   0.3033   3.9797 H              1 S1                 0.0000
     46 ****        -3.7668   2.0625   4.1691 H              1 S1                 0.0000
     47 ****         2.0158  -1.7386  -1.0193 H              1 S1                 0.0000
     48 ****        -4.2499   1.9322  -2.7398 LP             1 S1                 0.0000
     49 ****        -0.8157  -0.5645  -2.0719 LP             1 S1                 0.0000
     50 ****         0.5957  -1.3808  -1.9812 LP             1 S1                 0.0000
     51 ****         2.0743  -4.5344  -3.2896 LP             1 S1                 0.0000
@<TRIPOS>BOND
    1    1    2 1     
    2    1   23 1     
    3    1   24 1     
    4    1   25 1     
    5    2   21 ar    
    6    2    3 ar    
    7    3    4 ar    
    8    3   26 1     
    9    4   19 ar    
   10    4    5 1     
   11    5    6 2     
   12    6    7 1     
   13    6   27 1     
   14    7    8 1     
   15    7   19 1     
   16    8    9 1     
   17    8   28 1     
   18    8   29 1     
   19    9   10 1     
   20    9   11 1     
   21    9   30 1     
   22   10   31 1     
   23   11   12 1     
   24   11   32 1     
   25   11   33 1     
   26   12   13 1     
   27   12   14 1     
   28   12   47 1     
   29   13   34 1     
   30   13   35 1     
   31   13   36 1     
   32   14   15 1     
   33   14   37 1     
   34   14   38 1     
   35   15   16 1     
   36   15   17 1     
   37   15   39 1     
   38   16   40 1     
   39   16   41 1     
   40   16   42 1     
   41   17   18 3     
   42   19   20 ar    
   43   20   21 ar    
   44   20   43 1     
   45   21   22 1     
   46   22   44 1     
   47   22   45 1     
   48   22   46 1     
   49    5   48 1     
   50   10   49 1     
   51   10   50 1     
   52   18   51 1     
@<TRIPOS>SUBSTRUCTURE
      1 S1             1
@<TRIPOS>SET
LONE_PAIRS      STATIC     ATOMS    <user>   **** ""
4 48 49 50 51
DONOR_HYDROGENS      STATIC     ATOMS    <user>   **** ""
2 31 47
ATOM$BLUE        STATIC     ATOMS    COLORGROUP SYSTEM
4 48 49 50 51
ATOM$RED        STATIC     ATOMS    COLORGROUP SYSTEM
2 31 47
