AV-unprocessed.smi:68|AV-procd|sdf|639|dock4
  -GOLD-   2262016533D 1   1.00000     0.00000
 Structure written by MMmdl.
 23 24  0  0  0  0  0  0  0  0  1 V2000
  150.8848  139.4228  154.1383 O   0  0  0  0  0  0  0  0  0  0  0  0
  150.9753  140.1221  155.1453 C   0  0  0  0  0  0  0  0  0  0  0  0
  152.0753  139.9881  155.9978 N   0  0  0  0  0  0  0  0  0  0  0  0
  152.2913  140.7223  157.1656 C   0  0  0  0  0  0  0  0  0  0  0  0
  153.2899  140.5053  157.8506 O   0  0  0  0  0  0  0  0  0  0  0  0
  151.3213  141.6913  157.5066 N   0  0  0  0  0  0  0  0  0  0  0  0
  151.5045  142.5096  158.7647 C   0  0  2  0  0  0  0  0  0  0  0  0
  150.3586  143.5146  158.9289 C   0  0  0  0  0  0  0  0  0  0  0  0
  151.0933  144.7408  159.4252 C   0  0  0  0  0  0  0  0  0  0  0  0
  152.4159  144.6291  158.6779 C   0  0  0  0  0  0  0  0  0  0  0  0
  152.6993  143.2331  158.6777 O   0  0  0  0  0  0  0  0  0  0  0  0
  150.2038  141.8476  156.6970 C   0  0  0  0  0  0  0  0  0  0  0  0
  150.0038  141.1259  155.5690 C   0  0  0  0  0  0  0  0  0  0  0  0
  148.8966  141.3330  154.8361 F   0  0  0  0  0  0  0  0  0  0  0  0
  152.7700  139.2987  155.7497 H   0  0  0  0  0  0  0  0  0  0  0  0
  151.6018  141.8167  159.6020 H   0  0  0  0  0  0  0  0  0  0  0  0
  149.8952  143.7166  157.9619 H   0  0  0  0  0  0  0  0  0  0  0  0
  149.6006  143.1428  159.6187 H   0  0  0  0  0  0  0  0  0  0  0  0
  150.5633  145.6712  159.2199 H   0  0  0  0  0  0  0  0  0  0  0  0
  151.2616  144.6694  160.5007 H   0  0  0  0  0  0  0  0  0  0  0  0
  152.3076  144.9849  157.6529 H   0  0  0  0  0  0  0  0  0  0  0  0
  153.2159  145.1978  159.1522 H   0  0  0  0  0  0  0  0  0  0  0  0
  149.4483  142.5691  156.9671 H   0  0  0  0  0  0  0  0  0  0  0  0
  1  2  2  0  0  0  0
  2 13  1  0  0  0  0
  2  3  1  0  0  0  0
  3 15  1  0  0  0  0
  3  4  1  0  0  0  0
  4  5  2  0  0  0  0
  4  6  1  0  0  0  0
  6  7  1  0  0  0  0
  6 12  1  0  0  0  0
  7 11  1  0  0  0  0
  7  8  1  0  0  0  0
  7 16  1  0  0  0  0
  8  9  1  0  0  0  0
  8 17  1  0  0  0  0
  8 18  1  0  0  0  0
  9 10  1  0  0  0  0
  9 19  1  0  0  0  0
  9 20  1  0  0  0  0
 10 11  1  0  0  0  0
 10 21  1  0  0  0  0
 10 22  1  0  0  0  0
 12 13  2  0  0  0  0
 12 23  1  0  0  0  0
 13 14  1  0  0  0  0
M  END
> <s_m_source_file>
AV-unprocessed.smi

> <i_m_source_file_index>
68

> <i_lp_mmshare_version>
43012

> <i_f3d_flags>
0

> <s_epik_input>
Tz1jMVtuSF1jKD1PKW4oW2NIXWMxRilbQ0BASF0yW0NIMl1bQ0gyXVtDSDJdTzI=

> <s_epik_cmdline>
J2VwaWtfcHl0aG9uJywgJy1waCcsICc3LjAnLCAnLXRuJywgJzgnLCAnLW1hJywgJzIwMCcsICctbWV0YWxfYmluZGluZycsICctaW1hZScsICc8aW5maWxlLm1hZT4nLCAnLW9tYWUnLCAnPG91dGZpbGUubWFlPic=

> <r_lp_tautomer_probability>
0.999537

> <r_epik_Ionization_Penalty>
0.0350763

> <r_epik_Ionization_Penalty_Charging>
0.0350763

> <r_epik_Ionization_Penalty_Neutral>
6.20402e-12

> <r_epik_State_Penalty>
0.0292209

> <r_epik_Charging_Adjusted_Penalty>
0.0642972

> <i_epik_Tot_Q>
0

> <i_epik_Tot_abs_Q>
0

> <r_epik_Metal_State_Penalty>
2.33597

> <b_epik_Metal_Only>
0

> <s_epik_Chemistry_Notes>
This compound contains an acetal/aminal-like group ( X-CH(R)-Y where X, Y are N, S, or O) that may be acid/base labile, releasing an aldehyde.

> <s_lp_Force_Field>
OPLS_2005

> <r_lp_Energy>
24.14

> <b_lp_Chiralities_Consistent>
1

> <s_lp_Variant>
AV-unprocessed.smi:68-1

> <Gold.Version>
5.8.1

> <Gold.Id.Protein>
6NUR|6NUR_protein|mol2

> <Gold.PLP.Fitness>
35.1277

> <Gold.PLP.PLP>
-29.1353

> <Gold.PLP.part.hbond>
-2.0000

> <Gold.PLP.part.metal>
0.0000

> <Gold.PLP.part.buried>
-2.5812

> <Gold.PLP.part.nonpolar>
-24.9198

> <Gold.PLP.part.repulsive>
0.3029

> <Gold.PLP.ligand.clash>
0.0000

> <Gold.PLP.ligand.torsion>
0.0061

> <Gold.PLP.Chemscore.Hbond>
1.0000

> <Gold.PLP.Chemscore.CHOScore>
1.0000

> <Gold.PLP.Chemscore.Metal>
0.0000

> <Gold.Chemscore.Hbonds>
donor molecule, donor type, donor heavy atom, donor atom, acceptor molecule, acceptor atom, score
      P1  H  7997  8008       L1     5  0.75
      L1  C    12    23       P1  8028  0.82

> <Gold.PLP.Chemscore.Internal.Correction>
0.0047

> <Gold.Rescore>
     Score         DG    S(hbond)    S(metal)    S(lipo)     H(rot)  DE(clash)    DE(int)     intcor
     10.76     -11.11       0.97        0.00      42.30       1.00       0.05       0.30       ----

> <Gold.Chemscore.Fitness>
10.7604

> <Gold.Chemscore.DG>
-11.1086

> <Gold.Chemscore.ZeroCoef>
-5.4800

> <Gold.Chemscore.Hbond>
0.9700

> <Gold.Chemscore.Metal>
0.0000

> <Gold.Chemscore.Lipo>
42.2965

> <Gold.Chemscore.Internal_Hbond>
0.0000

> <Gold.Chemscore.DEClash>
0.0493

> <Gold.Chemscore.DEInternal>
0.2990

> <Gold.Chemscore.Rot>
1.0000

> <Gold.Chemscore.Internal.Correction>
   9.000000E+99

> <Gold.Chemscore.Hbonds>
donor molecule, donor type, donor heavy atom, donor atom, acceptor molecule, acceptor atom, score
      P1  H  7997  8008       L1     5  0.51

> <Gold.Chemscore.Hbond.Weighted>
-3.2399

> <Gold.Chemscore.Metal.Weighted>
-0.0000

> <Gold.Chemscore.Lipo.Weighted>
-4.9487

> <Gold.Chemscore.Internal_Hbond.Weighted>
0.0000

> <Gold.Chemscore.DEClash.Weighted>
0.0493

> <Gold.Chemscore.DEInternal.Weighted>
0.2990

> <Gold.Chemscore.Rot.Weighted>
2.5600

> <Gold.Chemscore.Internal.Correction.Weighted>
   9.000000E+99

> <Gold.Protein.RotatedTorsions>
[ 6907 6896 6895 6894 ] final  -54.46 input  -60.11 | X-H torsion
[ 7974 7965 7964 7962 ] final   -1.14 input  175.53 | X-H torsion
[ 8008 7997 7996 7995 ] final  -75.97 input   59.86 | X-H torsion
[ 10167 10162 10161 10158 ] final   35.21 input  -65.29 | X-H torsion
[ 10718 10713 10712 10709 ] final  173.74 input   66.30 | X-H torsion
[ 10763 10752 10751 10750 ] final  -93.38 input  -60.55 | X-H torsion
[ 11005 11000 10999 10996 ] final  -40.16 input  -57.11 | X-H torsion

> <Gold.Protein.ActiveResidues>
 VAL166  LYS551  ARG553  GLY616  TRP617  ASP618  TYR619  PRO620  LYS621  CYS622 
 ASP623  PHE694  ASN695  SER759  ASP760  ASP761  ALA762  ILE779  LEU786  VAL792 
 PHE793  MET794  SER795  GLU796  ALA797  LYS798  CYS799  TRP800  GLU811  SER814 

> <Gold.Protein.RotatedAtoms>
  150.8336  134.7600  159.6873 H   0  0  0  0  0  0  0  0  0  0  0  0  # atno 6907 bound_to 6896
  152.4436  134.5536  159.9884 H   0  0  0  0  0  0  0  0  0  0  0  0  # atno 6908 bound_to 6896
  151.5692  133.3354  159.3022 H   0  0  0  0  0  0  0  0  0  0  0  0  # atno 6909 bound_to 6896
  146.2420  140.1375  142.8336 H   0  0  0  0  0  0  0  0  0  0  0  0  # atno 7974 bound_to 7965
  154.5464  140.0735  156.8595 H   0  0  0  0  0  0  0  0  0  0  0  0  # atno 8008 bound_to 7997
  155.3079  140.3388  155.4227 H   0  0  0  0  0  0  0  0  0  0  0  0  # atno 8009 bound_to 7997
  156.1922  140.1690  156.8056 H   0  0  0  0  0  0  0  0  0  0  0  0  # atno 8010 bound_to 7997
  140.4243  144.1416  150.6151 H   0  0  0  0  0  0  0  0  0  0  0  0  # atno 10167 bound_to 10162
  156.9598  131.0057  151.2930 H   0  0  0  0  0  0  0  0  0  0  0  0  # atno 10718 bound_to 10713
  154.6953  135.5196  153.8450 H   0  0  0  0  0  0  0  0  0  0  0  0  # atno 10763 bound_to 10752
  153.0663  135.6586  154.0357 H   0  0  0  0  0  0  0  0  0  0  0  0  # atno 10764 bound_to 10752
  154.0225  135.2992  155.3359 H   0  0  0  0  0  0  0  0  0  0  0  0  # atno 10765 bound_to 10752
  141.0154  133.6888  156.2283 H   0  0  0  0  0  0  0  0  0  0  0  0  # atno 11005 bound_to 11000
  145.0274  140.8843  143.5130 LP  0  0  0  0  0  0  0  0  0  0  0  0  # atno 17320 bound_to 7965
  145.1434  139.2558  143.5478 LP  0  0  0  0  0  0  0  0  0  0  0  0  # atno 17321 bound_to 7965
  140.4499  143.2491  151.9362 LP  0  0  0  0  0  0  0  0  0  0  0  0  # atno 17342 bound_to 10162
  139.4783  144.5572  151.8295 LP  0  0  0  0  0  0  0  0  0  0  0  0  # atno 17343 bound_to 10162
  157.5665  130.8281  149.8335 LP  0  0  0  0  0  0  0  0  0  0  0  0  # atno 17370 bound_to 10713
  156.0327  130.3760  150.1644 LP  0  0  0  0  0  0  0  0  0  0  0  0  # atno 17371 bound_to 10713
  140.6663  134.4915  157.5585 LP  0  0  0  0  0  0  0  0  0  0  0  0  # atno 17394 bound_to 11000
  139.9114  134.8337  156.1515 LP  0  0  0  0  0  0  0  0  0  0  0  0  # atno 17395 bound_to 11000

$$$$
