AV-unprocessed.smi:2683|AV-procd|sdf|10376|dock2
  -GOLD-   2272014403D 1   1.00000     0.00000
 Structure written by MMmdl.
 37 38  0  0  0  0  0  0  0  0  2 V2000
  148.8706  141.1948  156.5023 C   0  0  0  0  0  0  0  0  0  0  0  0
  150.2697  141.7696  156.2426 C   0  0  2  0  0  0  0  0  0  0  0  0
  151.3563  140.7133  156.5336 C   0  0  0  0  0  0  0  0  0  0  0  0
  151.2023  139.5100  155.7364 N   0  0  0  0  0  0  0  0  0  0  0  0
  151.6772  138.2418  155.9971 C   0  0  0  0  0  0  0  0  0  0  0  0
  151.2752  137.4391  154.9682 C   0  0  0  0  0  0  0  0  0  0  0  0
  150.5537  138.3191  154.1137 C   0  0  0  0  0  0  0  0  0  0  0  0
  150.5106  139.5580  154.5771 N   0  0  0  0  0  0  0  0  0  0  0  0
  150.4634  142.9801  157.0727 N   0  3  0  0  0  0  0  0  0  0  0  0
  151.7792  143.6365  156.9249 C   0  0  0  0  0  0  0  0  0  0  0  0
  152.2826  144.1780  158.2719 C   0  0  0  0  0  0  0  0  0  0  0  0
  152.3773  143.1220  159.3796 C   0  0  0  0  0  0  0  0  0  0  0  0
  152.3137  143.9009  160.7003 C   0  0  0  0  0  0  0  0  0  0  0  0
  151.7774  145.2983  160.3552 C   0  0  0  0  0  0  0  0  0  0  0  0
  151.3657  145.2391  158.8825 C   0  0  0  0  0  0  0  0  0  0  0  0
  148.6850  140.3183  155.8810 H   0  0  0  0  0  0  0  0  0  0  0  0
  148.0956  141.9276  156.2741 H   0  0  0  0  0  0  0  0  0  0  0  0
  148.7500  140.8951  157.5441 H   0  0  0  0  0  0  0  0  0  0  0  0
  150.3160  142.0437  155.1870 H   0  0  0  0  0  0  0  0  0  0  0  0
  152.3516  141.1280  156.3637 H   0  0  0  0  0  0  0  0  0  0  0  0
  151.3201  140.4214  157.5840 H   0  0  0  0  0  0  0  0  0  0  0  0
  152.2533  138.0180  156.8833 H   0  0  0  0  0  0  0  0  0  0  0  0
  151.4690  136.3840  154.8430 H   0  0  0  0  0  0  0  0  0  0  0  0
  150.0628  138.0959  153.1780 H   0  0  0  0  0  0  0  0  0  0  0  0
  149.7575  143.6547  156.8149 H   0  0  0  0  0  0  0  0  0  0  0  0
  152.4988  142.9184  156.5323 H   0  0  0  0  0  0  0  0  0  0  0  0
  151.7045  144.4423  156.1934 H   0  0  0  0  0  0  0  0  0  0  0  0
  153.2675  144.6279  158.1325 H   0  0  0  0  0  0  0  0  0  0  0  0
  151.5243  142.4441  159.3223 H   0  0  0  0  0  0  0  0  0  0  0  0
  153.2815  142.5175  159.3002 H   0  0  0  0  0  0  0  0  0  0  0  0
  151.6695  143.3923  161.4183 H   0  0  0  0  0  0  0  0  0  0  0  0
  153.3038  143.9793  161.1512 H   0  0  0  0  0  0  0  0  0  0  0  0
  150.9478  145.5942  160.9979 H   0  0  0  0  0  0  0  0  0  0  0  0
  152.5708  146.0351  160.4860 H   0  0  0  0  0  0  0  0  0  0  0  0
  151.4539  146.2060  158.3864 H   0  0  0  0  0  0  0  0  0  0  0  0
  150.3245  144.9216  158.8080 H   0  0  0  0  0  0  0  0  0  0  0  0
  150.3275  142.7293  158.0420 H   0  0  0  0  0  0  0  0  0  0  0  0
  1  2  1  0  0  0  0
  1 16  1  0  0  0  0
  1 17  1  0  0  0  0
  1 18  1  0  0  0  0
  2  3  1  0  0  0  0
  2  9  1  0  0  0  0
  2 19  1  0  0  0  0
  3  4  1  0  0  0  0
  3 20  1  0  0  0  0
  3 21  1  0  0  0  0
  4  8  1  0  0  0  0
  4  5  1  0  0  0  0
  5  6  2  0  0  0  0
  5 22  1  0  0  0  0
  6  7  1  0  0  0  0
  6 23  1  0  0  0  0
  7  8  2  0  0  0  0
  7 24  1  0  0  0  0
  9 10  1  0  0  0  0
  9 25  1  0  0  0  0
  9 37  1  0  0  0  0
 10 11  1  0  0  0  0
 10 26  1  0  0  0  0
 10 27  1  0  0  0  0
 11 15  1  0  0  0  0
 11 12  1  0  0  0  0
 11 28  1  0  0  0  0
 12 13  1  0  0  0  0
 12 29  1  0  0  0  0
 12 30  1  0  0  0  0
 13 14  1  0  0  0  0
 13 31  1  0  0  0  0
 13 32  1  0  0  0  0
 14 15  1  0  0  0  0
 14 33  1  0  0  0  0
 14 34  1  0  0  0  0
 15 35  1  0  0  0  0
 15 36  1  0  0  0  0
M  CHG  1   9   1
M  END
> <s_m_source_file>
AV-unprocessed.smi

> <i_m_source_file_index>
2683

> <i_lp_mmshare_version>
43012

> <i_f3d_flags>
0

> <s_epik_input>
bjFbY0hdW2NIXVtjSF1uMVtDSDJdW0NAQEhdKFtDSDNdKVtOSF1bQ0gyXVtDSF0yW0NIMl1bQ0gyXVtDSDJdW0NIMl0y

> <s_epik_cmdline>
J2VwaWtfcHl0aG9uJywgJy1waCcsICc3LjAnLCAnLXRuJywgJzgnLCAnLW1hJywgJzIwMCcsICctbWV0YWxfYmluZGluZycsICctaW1hZScsICc8aW5maWxlLm1hZT4nLCAnLW9tYWUnLCAnPG91dGZpbGUubWFlPic=

> <r_lp_tautomer_probability>
1

> <r_epik_Ionization_Penalty>
0.00170049

> <r_epik_Ionization_Penalty_Charging>
0.00169627

> <r_epik_Ionization_Penalty_Neutral>
4.21324e-06

> <r_epik_State_Penalty>
0.00114589

> <r_epik_Charging_Adjusted_Penalty>
0.00284216

> <i_epik_Tot_Q>
1

> <i_epik_Tot_abs_Q>
1

> <r_epik_Metal_State_Penalty>
-0

> <b_epik_Metal_Only>
0

> <s_lp_Force_Field>
OPLS_2005

> <r_lp_Energy>
26.6693

> <b_lp_Chiralities_Consistent>
1

> <s_lp_Variant>
AV-unprocessed.smi:2683-1

> <Gold.Version>
5.8.1

> <Gold.Id.Protein>
6NUR|6NUR_protein|mol2

> <Gold.PLP.Fitness>
53.3722

> <Gold.PLP.PLP>
-39.6596

> <Gold.PLP.part.hbond>
-2.0000

> <Gold.PLP.part.metal>
0.0000

> <Gold.PLP.part.buried>
-6.1338

> <Gold.PLP.part.nonpolar>
-33.0204

> <Gold.PLP.part.repulsive>
0.1418

> <Gold.PLP.ligand.clash>
0.0000

> <Gold.PLP.ligand.torsion>
0.5848

> <Gold.PLP.Chemscore.Hbond>
3.0000

> <Gold.PLP.Chemscore.CHOScore>
1.9376

> <Gold.PLP.Chemscore.Metal>
0.0000

> <Gold.Chemscore.Hbonds>
donor molecule, donor type, donor heavy atom, donor atom, acceptor molecule, acceptor atom, score
      L1  H     9    25       P1  8028  2.00
      P1  H  7989  7998       L1     8  0.99
      L1  C     7    24       P1  7948  1.00
      L1  C     7    24       P1  7949  0.01
      L1  C     7    24       P1  7957  0.25

> <Gold.PLP.Chemscore.Internal.Correction>
0.0695

> <Gold.Rescore>
     Score         DG    S(hbond)    S(metal)    S(lipo)     H(rot)  DE(clash)    DE(int)     intcor
     19.54     -20.55       1.97        0.00     106.47       1.55       0.40       0.61       ----

> <Gold.Chemscore.Fitness>
19.5369

> <Gold.Chemscore.DG>
-20.5486

> <Gold.Chemscore.ZeroCoef>
-5.4800

> <Gold.Chemscore.Hbond>
1.9732

> <Gold.Chemscore.Metal>
0.0000

> <Gold.Chemscore.Lipo>
106.4707

> <Gold.Chemscore.Internal_Hbond>
0.0000

> <Gold.Chemscore.DEClash>
0.4043

> <Gold.Chemscore.DEInternal>
0.6074

> <Gold.Chemscore.Rot>
1.5543

> <Gold.Chemscore.Internal.Correction>
   9.000000E+99

> <Gold.Chemscore.Hbonds>
donor molecule, donor type, donor heavy atom, donor atom, acceptor molecule, acceptor atom, score
      L1  H     9    25       P1  8028  0.97
      P1  H  7989  7998       L1     8  0.27

> <Gold.Chemscore.Hbond.Weighted>
-6.5905

> <Gold.Chemscore.Metal.Weighted>
-0.0000

> <Gold.Chemscore.Lipo.Weighted>
-12.4571

> <Gold.Chemscore.Internal_Hbond.Weighted>
0.0000

> <Gold.Chemscore.DEClash.Weighted>
0.4043

> <Gold.Chemscore.DEInternal.Weighted>
0.6074

> <Gold.Chemscore.Rot.Weighted>
3.9789

> <Gold.Chemscore.Internal.Correction.Weighted>
   9.000000E+99

> <Gold.Protein.RotatedTorsions>
[ 6907 6896 6895 6894 ] final  -82.48 input  -60.11 | X-H torsion
[ 7974 7965 7964 7962 ] final -104.27 input  175.53 | X-H torsion
[ 8008 7997 7996 7995 ] final  -98.48 input   59.86 | X-H torsion
[ 10167 10162 10161 10158 ] final    1.70 input  -65.29 | X-H torsion
[ 10718 10713 10712 10709 ] final  -82.25 input   66.30 | X-H torsion
[ 10763 10752 10751 10750 ] final  168.88 input  -60.55 | X-H torsion
[ 11005 11000 10999 10996 ] final  -51.08 input  -57.11 | X-H torsion

> <Gold.Protein.ActiveResidues>
 VAL166  LYS551  ARG553  GLY616  TRP617  ASP618  TYR619  PRO620  LYS621  CYS622 
 ASP623  PHE694  ASN695  SER759  ASP760  ASP761  ALA762  ILE779  LEU786  VAL792 
 PHE793  MET794  SER795  GLU796  ALA797  LYS798  CYS799  TRP800  GLU811  SER814 

> <Gold.Protein.RotatedAtoms>
  150.6897  134.3658  159.4970 H   0  0  0  0  0  0  0  0  0  0  0  0  # atno 6907 bound_to 6896
  152.1480  134.9008  160.0559 H   0  0  0  0  0  0  0  0  0  0  0  0  # atno 6908 bound_to 6896
  152.0116  133.3829  159.4259 H   0  0  0  0  0  0  0  0  0  0  0  0  # atno 6909 bound_to 6896
  145.2453  140.9219  143.3126 H   0  0  0  0  0  0  0  0  0  0  0  0  # atno 7974 bound_to 7965
  154.8018  140.0455  157.1278 H   0  0  0  0  0  0  0  0  0  0  0  0  # atno 8008 bound_to 7997
  154.9470  140.3060  155.5073 H   0  0  0  0  0  0  0  0  0  0  0  0  # atno 8009 bound_to 7997
  156.2962  140.2295  156.4544 H   0  0  0  0  0  0  0  0  0  0  0  0  # atno 8010 bound_to 7997
  140.6670  143.7152  150.7847 H   0  0  0  0  0  0  0  0  0  0  0  0  # atno 10167 bound_to 10162
  156.0036  130.4628  150.4076 H   0  0  0  0  0  0  0  0  0  0  0  0  # atno 10718 bound_to 10713
  154.3750  135.2753  155.2244 H   0  0  0  0  0  0  0  0  0  0  0  0  # atno 10763 bound_to 10752
  154.4375  135.5962  153.6112 H   0  0  0  0  0  0  0  0  0  0  0  0  # atno 10764 bound_to 10752
  152.9837  135.6011  154.3986 H   0  0  0  0  0  0  0  0  0  0  0  0  # atno 10765 bound_to 10752
  141.0851  133.6644  156.3825 H   0  0  0  0  0  0  0  0  0  0  0  0  # atno 11005 bound_to 11000
  144.9552  139.4040  143.6383 LP  0  0  0  0  0  0  0  0  0  0  0  0  # atno 17320 bound_to 7965
  146.3317  139.8578  142.8861 LP  0  0  0  0  0  0  0  0  0  0  0  0  # atno 17321 bound_to 7965
  140.0831  143.4950  152.2519 LP  0  0  0  0  0  0  0  0  0  0  0  0  # atno 17342 bound_to 10162
  139.5923  144.7554  151.3371 LP  0  0  0  0  0  0  0  0  0  0  0  0  # atno 17343 bound_to 10162
  157.2141  131.0467  151.2583 LP  0  0  0  0  0  0  0  0  0  0  0  0  # atno 17370 bound_to 10713
  157.3861  130.7257  149.6664 LP  0  0  0  0  0  0  0  0  0  0  0  0  # atno 17371 bound_to 10713
  140.5380  134.6148  157.5371 LP  0  0  0  0  0  0  0  0  0  0  0  0  # atno 17394 bound_to 11000
  139.9669  134.7358  156.0120 LP  0  0  0  0  0  0  0  0  0  0  0  0  # atno 17395 bound_to 11000

$$$$
