AV-unprocessed.smi:194|AV-procd|sdf|1523|dock10
  -GOLD-   2262019363D 1   1.00000     0.00000
 Structure written by MMmdl.
 53 55  0  0  0  0  0  0  0  0  1 V2000
  147.7516  136.9118  157.9154 C   0  0  0  0  0  0  0  0  0  0  0  0
  148.5223  135.7287  158.5475 C   0  0  1  0  0  0  0  0  0  0  0  0
  147.7292  135.1413  159.7396 C   0  0  0  0  0  0  0  0  0  0  0  0
  147.6959  136.3439  161.1581 S   0  0  2  0  0  0  0  0  0  0  0  0
  146.6954  135.2863  162.3054 C   0  0  0  0  0  0  0  0  0  0  0  0
  146.7968  137.5110  160.7462 O   0  0  0  0  0  0  0  0  0  0  0  0
  148.9149  134.7000  157.5703 N   0  0  0  0  0  0  0  0  0  0  0  0
  150.0129  135.0203  156.6629 C   0  0  0  0  0  0  0  0  0  0  0  0
  147.9027  134.1202  156.8871 C   0  0  0  0  0  0  0  0  0  0  0  0
  147.5133  132.8834  157.2819 N   0  0  0  0  0  0  0  0  0  0  0  0
  146.5134  132.2653  156.6462 C   0  0  0  0  0  0  0  0  0  0  0  0
  145.7884  132.6964  155.6114 N   0  0  0  0  0  0  0  0  0  0  0  0
  146.1889  133.9351  155.2035 C   0  0  0  0  0  0  0  0  0  0  0  0
  147.2291  134.7143  155.7829 C   0  0  0  0  0  0  0  0  0  0  0  0
  147.3461  135.9253  155.1128 N   0  0  0  0  0  0  0  0  0  0  0  0
  146.4199  135.8696  154.1953 C   0  0  0  0  0  0  0  0  0  0  0  0
  145.6891  134.7026  154.1646 N   0  0  0  0  0  0  0  0  0  0  0  0
  144.5972  134.3844  153.2555 C   0  0  0  0  0  0  0  0  0  0  0  0
  144.9984  134.1306  151.7704 C   0  0  0  0  0  0  0  0  0  0  0  0
  145.2833  135.4738  151.0337 C   0  0  0  0  0  0  0  0  0  0  0  0
  144.1775  136.3533  151.0025 O   0  0  0  0  0  0  0  0  0  0  0  0
  146.1985  133.1542  151.6731 C   0  0  0  0  0  0  0  0  0  0  0  0
  146.4211  132.6300  150.2444 C   0  0  0  0  0  0  0  0  0  0  0  0
  145.2461  131.9738  149.7868 O   0  0  0  0  0  0  0  0  0  0  0  0
  144.1241  132.8429  149.7054 C   0  0  0  0  0  0  0  0  0  0  0  0
  143.7951  133.4238  151.0948 C   0  0  0  0  0  0  0  0  0  0  0  0
  147.4170  137.6129  158.6804 H   0  0  0  0  0  0  0  0  0  0  0  0
  146.8720  136.5752  157.3663 H   0  0  0  0  0  0  0  0  0  0  0  0
  148.3727  137.4796  157.2224 H   0  0  0  0  0  0  0  0  0  0  0  0
  149.4431  136.1350  158.9665 H   0  0  0  0  0  0  0  0  0  0  0  0
  146.7092  134.8824  159.4572 H   0  0  0  0  0  0  0  0  0  0  0  0
  148.2000  134.2169  160.0755 H   0  0  0  0  0  0  0  0  0  0  0  0
  147.2045  134.3414  162.4953 H   0  0  0  0  0  0  0  0  0  0  0  0
  145.7173  135.0752  161.8729 H   0  0  0  0  0  0  0  0  0  0  0  0
  146.5502  135.7980  163.2567 H   0  0  0  0  0  0  0  0  0  0  0  0
  150.0955  134.2929  155.8534 H   0  0  0  0  0  0  0  0  0  0  0  0
  150.9634  135.0166  157.1956 H   0  0  0  0  0  0  0  0  0  0  0  0
  149.8730  136.0070  156.2200 H   0  0  0  0  0  0  0  0  0  0  0  0
  146.2571  131.2853  157.0206 H   0  0  0  0  0  0  0  0  0  0  0  0
  146.2499  136.6802  153.5018 H   0  0  0  0  0  0  0  0  0  0  0  0
  144.0875  133.5086  153.6600 H   0  0  0  0  0  0  0  0  0  0  0  0
  143.8703  135.1960  153.3094 H   0  0  0  0  0  0  0  0  0  0  0  0
  146.0960  136.0233  151.5051 H   0  0  0  0  0  0  0  0  0  0  0  0
  145.6038  135.2826  150.0092 H   0  0  0  0  0  0  0  0  0  0  0  0
  144.3570  137.0404  150.3790 H   0  0  0  0  0  0  0  0  0  0  0  0
  147.1151  133.6146  152.0419 H   0  0  0  0  0  0  0  0  0  0  0  0
  146.0152  132.2954  152.3196 H   0  0  0  0  0  0  0  0  0  0  0  0
  146.6997  133.4333  149.5614 H   0  0  0  0  0  0  0  0  0  0  0  0
  147.2429  131.9140  150.2369 H   0  0  0  0  0  0  0  0  0  0  0  0
  144.3084  133.6258  148.9700 H   0  0  0  0  0  0  0  0  0  0  0  0
  143.2725  132.2715  149.3356 H   0  0  0  0  0  0  0  0  0  0  0  0
  143.4576  132.5987  151.7237 H   0  0  0  0  0  0  0  0  0  0  0  0
  142.9481  134.1065  151.0180 H   0  0  0  0  0  0  0  0  0  0  0  0
  1  2  1  0  0  0  0
  1 27  1  0  0  0  0
  1 28  1  0  0  0  0
  1 29  1  0  0  0  0
  2  3  1  0  0  0  0
  2  7  1  0  0  0  0
  2 30  1  0  0  0  0
  3  4  1  0  0  0  0
  3 31  1  0  0  0  0
  3 32  1  0  0  0  0
  4  5  1  0  0  0  0
  4  6  2  0  0  0  0
  5 33  1  0  0  0  0
  5 34  1  0  0  0  0
  5 35  1  0  0  0  0
  7  8  1  0  0  0  0
  7  9  1  0  0  0  0
  8 36  1  0  0  0  0
  8 37  1  0  0  0  0
  8 38  1  0  0  0  0
  9 14  1  0  0  0  0
  9 10  2  0  0  0  0
 10 11  1  0  0  0  0
 11 12  2  0  0  0  0
 11 39  1  0  0  0  0
 12 13  1  0  0  0  0
 13 17  1  0  0  0  0
 13 14  2  0  0  0  0
 14 15  1  0  0  0  0
 15 16  2  0  0  0  0
 16 17  1  0  0  0  0
 16 40  1  0  0  0  0
 17 18  1  0  0  0  0
 18 19  1  0  0  0  0
 18 41  1  0  0  0  0
 18 42  1  0  0  0  0
 19 26  1  0  0  0  0
 19 20  1  0  0  0  0
 19 22  1  0  0  0  0
 20 21  1  0  0  0  0
 20 43  1  0  0  0  0
 20 44  1  0  0  0  0
 21 45  1  0  0  0  0
 22 23  1  0  0  0  0
 22 46  1  0  0  0  0
 22 47  1  0  0  0  0
 23 24  1  0  0  0  0
 23 48  1  0  0  0  0
 23 49  1  0  0  0  0
 24 25  1  0  0  0  0
 25 26  1  0  0  0  0
 25 50  1  0  0  0  0
 25 51  1  0  0  0  0
 26 52  1  0  0  0  0
 26 53  1  0  0  0  0
M  END
> <s_m_source_file>
AV-unprocessed.smi

> <i_m_source_file_index>
194

> <i_lp_mmshare_version>
43012

> <i_f3d_flags>
0

> <s_epik_input>
W0NIM11bU0BAXSg9TylbQ0gyXVtDQEBIXShbQ0gzXSlOKFtDSDNdKWMobltjSF1uMSljKGMxMiluW2NIXW4yW0NIMl1DMyhbQ0gyXVtPSF0pW0NIMl1bQ0gyXU9bQ0gyXVtDSDJdMw==

> <s_epik_cmdline>
J2VwaWtfcHl0aG9uJywgJy1waCcsICc3LjAnLCAnLXRuJywgJzgnLCAnLW1hJywgJzIwMCcsICctbWV0YWxfYmluZGluZycsICctaW1hZScsICc8aW5maWxlLm1hZT4nLCAnLW9tYWUnLCAnPG91dGZpbGUubWFlPic=

> <r_lp_tautomer_probability>
1

> <r_epik_Ionization_Penalty>
0.00101625

> <r_epik_Ionization_Penalty_Charging>
0

> <r_epik_Ionization_Penalty_Neutral>
0.00101625

> <r_epik_State_Penalty>
0.000568005

> <r_epik_Charging_Adjusted_Penalty>
0.000568005

> <i_epik_Tot_Q>
0

> <i_epik_Tot_abs_Q>
0

> <r_epik_Metal_State_Penalty>
-0

> <b_epik_Metal_Only>
0

> <s_lp_Force_Field>
OPLS_2005

> <r_lp_Energy>
31.3732

> <b_lp_Chiralities_Consistent>
1

> <s_lp_Variant>
AV-unprocessed.smi:194-4

> <Gold.Version>
5.8.1

> <Gold.Id.Protein>
6NUR|6NUR_protein|mol2

> <Gold.PLP.Fitness>
36.9543

> <Gold.PLP.PLP>
-31.8805

> <Gold.PLP.part.hbond>
-2.5678

> <Gold.PLP.part.metal>
0.0000

> <Gold.PLP.part.buried>
-5.8025

> <Gold.PLP.part.nonpolar>
-24.0921

> <Gold.PLP.part.repulsive>
0.3424

> <Gold.PLP.ligand.clash>
0.0000

> <Gold.PLP.ligand.torsion>
0.8056

> <Gold.PLP.Chemscore.Hbond>
2.0000

> <Gold.PLP.Chemscore.CHOScore>
0.0000

> <Gold.PLP.Chemscore.Metal>
0.0000

> <Gold.Chemscore.Hbonds>
donor molecule, donor type, donor heavy atom, donor atom, acceptor molecule, acceptor atom, score
      L1  H    21    45       P1 10171  0.91
      P1  H  6934  6947       L1     6  1.00

> <Gold.PLP.Chemscore.Internal.Correction>
0.6849

> <Gold.Rescore>
     Score         DG    S(hbond)    S(metal)    S(lipo)     H(rot)  DE(clash)    DE(int)     intcor
     10.82     -11.61       2.00        0.00      67.78       3.31       0.00       0.79       ----

> <Gold.Chemscore.Fitness>
10.8168

> <Gold.Chemscore.DG>
-11.6068

> <Gold.Chemscore.ZeroCoef>
-5.4800

> <Gold.Chemscore.Hbond>
1.9969

> <Gold.Chemscore.Metal>
0.0000

> <Gold.Chemscore.Lipo>
67.7783

> <Gold.Chemscore.Internal_Hbond>
0.0000

> <Gold.Chemscore.DEClash>
0.0015

> <Gold.Chemscore.DEInternal>
0.7885

> <Gold.Chemscore.Rot>
3.3098

> <Gold.Chemscore.Internal.Correction>
   9.000000E+99

> <Gold.Chemscore.Hbonds>
donor molecule, donor type, donor heavy atom, donor atom, acceptor molecule, acceptor atom, score
      L1  H    21    45       P1 10171  0.88
      P1  H  6934  6947       L1     6  0.96

> <Gold.Chemscore.Hbond.Weighted>
-6.6697

> <Gold.Chemscore.Metal.Weighted>
-0.0000

> <Gold.Chemscore.Lipo.Weighted>
-7.9301

> <Gold.Chemscore.Internal_Hbond.Weighted>
0.0000

> <Gold.Chemscore.DEClash.Weighted>
0.0015

> <Gold.Chemscore.DEInternal.Weighted>
0.7885

> <Gold.Chemscore.Rot.Weighted>
8.4730

> <Gold.Chemscore.Internal.Correction.Weighted>
   9.000000E+99

> <Gold.Protein.RotatedTorsions>
[ 6907 6896 6895 6894 ] final  -98.74 input  -60.11 | X-H torsion
[ 7974 7965 7964 7962 ] final   30.78 input  175.53 | X-H torsion
[ 8008 7997 7996 7995 ] final  -93.89 input   59.86 | X-H torsion
[ 10167 10162 10161 10158 ] final   55.79 input  -65.29 | X-H torsion
[ 10718 10713 10712 10709 ] final   10.39 input   66.30 | X-H torsion
[ 10763 10752 10751 10750 ] final  -70.40 input  -60.55 | X-H torsion
[ 11005 11000 10999 10996 ] final   27.66 input  -57.11 | X-H torsion

> <Gold.Protein.ActiveResidues>
 VAL166  LYS551  ARG553  GLY616  TRP617  ASP618  TYR619  PRO620  LYS621  CYS622 
 ASP623  PHE694  ASN695  SER759  ASP760  ASP761  ALA762  ILE779  LEU786  VAL792 
 PHE793  MET794  SER795  GLU796  ALA797  LYS798  CYS799  TRP800  GLU811  SER814 

> <Gold.Protein.RotatedAtoms>
  150.7057  134.1147  159.4012 H   0  0  0  0  0  0  0  0  0  0  0  0  # atno 6907 bound_to 6896
  151.9134  135.0327  160.0525 H   0  0  0  0  0  0  0  0  0  0  0  0  # atno 6908 bound_to 6896
  152.2317  133.5028  159.5256 H   0  0  0  0  0  0  0  0  0  0  0  0  # atno 6909 bound_to 6896
  146.1591  139.6743  142.9046 H   0  0  0  0  0  0  0  0  0  0  0  0  # atno 7974 bound_to 7965
  154.7414  140.0494  157.0814 H   0  0  0  0  0  0  0  0  0  0  0  0  # atno 8008 bound_to 7997
  155.0173  140.3143  155.4787 H   0  0  0  0  0  0  0  0  0  0  0  0  # atno 8009 bound_to 7997
  156.2865  140.2173  156.5290 H   0  0  0  0  0  0  0  0  0  0  0  0  # atno 8010 bound_to 7997
  140.2157  144.3842  150.6471 H   0  0  0  0  0  0  0  0  0  0  0  0  # atno 10167 bound_to 10162
  156.9802  130.6003  149.5676 H   0  0  0  0  0  0  0  0  0  0  0  0  # atno 10718 bound_to 10713
  154.4172  135.5995  153.5988 H   0  0  0  0  0  0  0  0  0  0  0  0  # atno 10763 bound_to 10752
  152.9792  135.5943  154.3999 H   0  0  0  0  0  0  0  0  0  0  0  0  # atno 10764 bound_to 10752
  154.3820  135.2841  155.2184 H   0  0  0  0  0  0  0  0  0  0  0  0  # atno 10765 bound_to 10752
  140.3239  134.2513  155.7712 H   0  0  0  0  0  0  0  0  0  0  0  0  # atno 11005 bound_to 11000
  145.4635  141.0434  143.2738 LP  0  0  0  0  0  0  0  0  0  0  0  0  # atno 17320 bound_to 7965
  144.8002  139.6155  143.7075 LP  0  0  0  0  0  0  0  0  0  0  0  0  # atno 17321 bound_to 7965
  140.6292  143.2185  151.6532 LP  0  0  0  0  0  0  0  0  0  0  0  0  # atno 17342 bound_to 10162
  139.5163  144.3351  152.0791 LP  0  0  0  0  0  0  0  0  0  0  0  0  # atno 17343 bound_to 10162
  156.0247  130.5341  150.8374 LP  0  0  0  0  0  0  0  0  0  0  0  0  # atno 17370 bound_to 10713
  157.5531  131.0944  150.9667 LP  0  0  0  0  0  0  0  0  0  0  0  0  # atno 17371 bound_to 10713
  141.2080  133.7790  157.0086 LP  0  0  0  0  0  0  0  0  0  0  0  0  # atno 17394 bound_to 11000
  140.0918  134.9588  157.1788 LP  0  0  0  0  0  0  0  0  0  0  0  0  # atno 17395 bound_to 11000

$$$$
