#       Name:                AV-unprocessed.smi:287
#       Creating user name   scv26
#       Creation time:       Thu Mar 26 21:54:45 2020


#       File generated by GOLD software.
#

@<TRIPOS>MOLECULE
AV-unprocessed.smi:287
    70    73     1
SMALL
NO_CHARGES


@<TRIPOS>ATOM
      1 ****        -2.0860   3.1849   3.8409 C.3            1 S1                 0.0000
      2 ****        -2.5535   3.1491   2.4264 C.2            1 S1                 0.0000
      3 ****        -3.1328   2.1905   1.6475 C.2            1 S1                 0.0000
      4 ****        -3.3465   2.7609   0.3571 C.2            1 S1                 0.0000
      5 ****        -3.9782   2.0636  -0.8400 C.3            1 S1                 0.0000
      6 ****        -5.5063   2.0345  -0.6743 C.3            1 S1                 0.0000
      7 ****        -3.7425   2.7446  -2.0572 O.3            1 S1                 0.0000
      8 ****        -3.4375   0.6304  -1.0460 C.3            1 S1                 0.0000
      9 ****        -1.9823   0.5558  -0.9630 N.pl3          1 S1                 0.0000
     10 ****        -1.3585  -0.6384  -1.0357 C.ar           1 S1                 0.0000
     11 ****        -2.0650  -1.7913  -1.1722 N.ar           1 S1                 0.0000
     12 ****        -1.4247  -2.9633  -1.2345 C.ar           1 S1                 0.0000
     13 ****        -0.1121  -3.2020  -1.1795 N.ar           1 S1                 0.0000
     14 ****         0.5983  -2.0447  -1.0451 C.ar           1 S1                 0.0000
     15 ****         0.0552  -0.7333  -0.9680 C.ar           1 S1                 0.0000
     16 ****         1.0815   0.1932  -0.8370 N.2            1 S1                 0.0000
     17 ****         2.1665  -0.5346  -0.8341 C.2            1 S1                 0.0000
     18 ****         1.9635  -1.8950  -0.9432 N.pl3          1 S1                 0.0000
     19 ****         2.9623  -3.0127  -0.9576 C.3            1 S1                 0.0000
     20 ****         4.2144  -2.4800  -1.2723 O.3            1 S1                 0.0000
     21 ****         5.0007  -2.3634  -0.0914 C.3            1 S1                 0.0000
     22 ****         6.4902  -2.2988  -0.4610 C.3            1 S1                 0.0000
     23 ****         6.8404  -0.9778  -0.8140 O.3            1 S1                 0.0000
     24 ****         4.6034  -3.6350   0.6576 C.3            1 S1                 0.0000
     25 ****         4.9600  -3.6017   2.0272 O.3            1 S1                 0.0000
     26 ****         3.0963  -3.7057   0.4208 C.3            1 S1                 0.0000
     27 ****         2.3580  -3.0759   1.4585 O.3            1 S1                 0.0000
     28 ****        -2.8842   4.0507   0.4636 C.2            1 S1                 0.0000
     29 ****        -2.8137   5.2076  -0.4782 C.3            1 S1                 0.0000
     30 ****        -2.3970   4.2923   1.7127 O.3            1 S1                 0.0000
     31 ****         2.6241  -3.6765  -1.7543 H              1 S1                 0.0000
     32 ****         4.6959  -1.4861   0.4823 H              1 S1                 0.0000
     33 ****         5.0796  -4.4975   0.1885 H              1 S1                 0.0000
     34 ****         2.7601  -4.7399   0.3408 H              1 S1                 0.0000
     35 ****        -2.1338   2.1934   4.2918 H              1 S1                 0.0000
     36 ****        -2.7051   3.8568   4.4354 H              1 S1                 0.0000
     37 ****        -1.0546   3.5326   3.8993 H              1 S1                 0.0000
     38 ****        -3.3740   1.1871   1.9663 H              1 S1                 0.0000
     39 ****        -5.7950   1.4952   0.2287 H              1 S1                 0.0000
     40 ****        -5.9920   1.5430  -1.5181 H              1 S1                 0.0000
     41 ****        -5.9160   3.0427  -0.5985 H              1 S1                 0.0000
     42 ****        -4.1532   2.2591  -2.7559 H              1 S1                 0.0000
     43 ****        -3.8414  -0.0112  -0.2614 H              1 S1                 0.0000
     44 ****        -3.7828   0.2181  -1.9955 H              1 S1                 0.0000
     45 ****        -1.4964   1.4344  -0.8512 H              1 S1                 0.0000
     46 ****        -2.0541  -3.8343  -1.3412 H              1 S1                 0.0000
     47 ****         3.1468  -0.0895  -0.7478 H              1 S1                 0.0000
     48 ****         7.1029  -2.5812   0.3955 H              1 S1                 0.0000
     49 ****         6.7297  -2.9867  -1.2724 H              1 S1                 0.0000
     50 ****         7.7631  -0.9554  -1.0170 H              1 S1                 0.0000
     51 ****         4.5937  -4.3630   2.4509 H              1 S1                 0.0000
     52 ****         2.6186  -2.1683   1.5016 H              1 S1                 0.0000
     53 ****        -3.7779   5.3754  -0.9583 H              1 S1                 0.0000
     54 ****        -2.0737   5.0253  -1.2576 H              1 S1                 0.0000
     55 ****        -2.5358   6.1246   0.0421 H              1 S1                 0.0000
     56 ****        -2.7584   2.8080  -2.2234 LP             1 S1                 0.0000
     57 ****        -4.1326   3.6641  -2.0105 LP             1 S1                 0.0000
     58 ****        -3.0631  -1.7631  -1.2260 LP             1 S1                 0.0000
     59 ****         0.2980  -4.1127  -1.2304 LP             1 S1                 0.0000
     60 ****         1.0072   1.1876  -0.7622 LP             1 S1                 0.0000
     61 ****         4.0966  -1.5760  -1.6831 LP             1 S1                 0.0000
     62 ****         4.6780  -3.0832  -1.9214 LP             1 S1                 0.0000
     63 ****         6.6484  -0.3625  -0.0496 LP             1 S1                 0.0000
     64 ****         6.3123  -0.6913  -1.6134 LP             1 S1                 0.0000
     65 ****         4.5960  -2.7721   2.4505 LP             1 S1                 0.0000
     66 ****         5.9559  -3.6122   2.1168 LP             1 S1                 0.0000
     67 ****         2.5516  -3.5247   2.3309 LP             1 S1                 0.0000
     68 ****         1.3795  -3.1374   1.2619 LP             1 S1                 0.0000
     69 ****        -1.4285   4.5361   1.6625 LP             1 S1                 0.0000
     70 ****        -2.9066   5.0378   2.1420 LP             1 S1                 0.0000
@<TRIPOS>BOND
    1    1    2 1     
    2    1   35 1     
    3    1   36 1     
    4    1   37 1     
    5    2   30 1     
    6    2    3 2     
    7    3    4 1     
    8    3   38 1     
    9    4    5 1     
   10    4   28 2     
   11    5    6 1     
   12    5    7 1     
   13    5    8 1     
   14    6   39 1     
   15    6   40 1     
   16    6   41 1     
   17    7   42 1     
   18    8    9 1     
   19    8   43 1     
   20    8   44 1     
   21    9   10 1     
   22    9   45 1     
   23   10   15 ar    
   24   10   11 ar    
   25   11   12 ar    
   26   12   13 ar    
   27   12   46 1     
   28   13   14 ar    
   29   14   18 1     
   30   14   15 ar    
   31   15   16 1     
   32   16   17 2     
   33   17   18 1     
   34   17   47 1     
   35   18   19 1     
   36   19   31 1     
   37   19   26 1     
   38   19   20 1     
   39   20   21 1     
   40   21   32 1     
   41   21   22 1     
   42   21   24 1     
   43   22   23 1     
   44   22   48 1     
   45   22   49 1     
   46   23   50 1     
   47   24   33 1     
   48   24   25 1     
   49   24   26 1     
   50   25   51 1     
   51   26   34 1     
   52   26   27 1     
   53   27   52 1     
   54   28   29 1     
   55   28   30 1     
   56   29   53 1     
   57   29   54 1     
   58   29   55 1     
   59    7   56 1     
   60    7   57 1     
   61   11   58 1     
   62   13   59 1     
   63   16   60 1     
   64   20   61 1     
   65   20   62 1     
   66   23   63 1     
   67   23   64 1     
   68   25   65 1     
   69   25   66 1     
   70   27   67 1     
   71   27   68 1     
   72   30   69 1     
   73   30   70 1     
@<TRIPOS>SUBSTRUCTURE
      1 S1             1
@<TRIPOS>SET
LONE_PAIRS      STATIC     ATOMS    <user>   **** ""
15 56 57 58 59 60 61 62 63 64 65 66 67 68 69 70
DONOR_HYDROGENS      STATIC     ATOMS    <user>   **** ""
5 42 45 50 51 52
ATOM$BLUE        STATIC     ATOMS    COLORGROUP SYSTEM
15 56 57 58 59 60 61 62 63 64 65 66 67 68 69 70
ATOM$RED        STATIC     ATOMS    COLORGROUP SYSTEM
5 42 45 50 51 52
