AV-unprocessed.smi:1415|AV-procd|sdf|5763|dock3
  -GOLD-   22720 5403D 1   1.00000     0.00000
 Structure written by MMmdl.
 40 41  0  0  0  0  0  0  0  0  1 V2000
  144.5846  136.7525  152.3436 O   0  0  0  0  0  0  0  0  0  0  0  0
  145.7818  136.5737  152.1174 C   0  0  0  0  0  0  0  0  0  0  0  0
  146.7355  137.4553  152.4513 N   0  0  0  0  0  0  0  0  0  0  0  0
  146.4946  138.7303  153.1158 C   0  0  0  0  0  0  0  0  0  0  0  0
  147.6858  139.6922  152.9455 C   0  0  0  0  0  0  0  0  0  0  0  0
  148.5177  139.7252  154.1548 N   0  0  0  0  0  0  0  0  0  0  0  0
  148.7175  138.4409  154.8471 C   0  0  0  0  0  0  0  0  0  0  0  0
  150.1584  137.8888  154.7350 C   0  0  0  0  0  0  0  0  0  0  0  0
  151.2826  138.9339  154.5917 C   0  0  0  0  0  0  0  0  0  0  0  0
  151.2844  140.0426  155.6651 C   0  0  0  0  0  0  0  0  0  0  0  0
  149.9613  140.8218  155.8535 C   0  0  0  0  0  0  0  0  0  0  0  0
  149.0773  140.8786  154.5973 C   0  0  0  0  0  0  0  0  0  0  0  0
  148.9148  141.9625  154.0365 O   0  0  0  0  0  0  0  0  0  0  0  0
  146.3068  135.4926  151.5143 N   0  0  0  0  0  0  0  0  0  0  0  0
  145.6282  134.3440  151.0260 C   0  0  0  0  0  0  0  0  0  0  0  0
  146.4669  133.3058  150.5612 C   0  0  0  0  0  0  0  0  0  0  0  0
  145.8915  132.1231  150.0574 C   0  0  0  0  0  0  0  0  0  0  0  0
  144.4902  132.0084  150.0318 C   0  0  0  0  0  0  0  0  0  0  0  0
  143.7279  133.0882  150.5139 C   0  0  0  0  0  0  0  0  0  0  0  0
  144.2774  134.2225  150.9970 N   0  0  0  0  0  0  0  0  0  0  0  0
  147.6944  137.2310  152.2287 H   0  0  0  0  0  0  0  0  0  0  0  0
  145.5971  139.1730  152.6832 H   0  0  0  0  0  0  0  0  0  0  0  0
  146.2767  138.5613  154.1719 H   0  0  0  0  0  0  0  0  0  0  0  0
  148.2932  139.3936  152.0890 H   0  0  0  0  0  0  0  0  0  0  0  0
  147.3207  140.6893  152.6975 H   0  0  0  0  0  0  0  0  0  0  0  0
  148.4473  138.5562  155.8970 H   0  0  0  0  0  0  0  0  0  0  0  0
  148.0266  137.6815  154.4805 H   0  0  0  0  0  0  0  0  0  0  0  0
  150.3590  137.2521  155.5972 H   0  0  0  0  0  0  0  0  0  0  0  0
  150.2090  137.2307  153.8669 H   0  0  0  0  0  0  0  0  0  0  0  0
  152.2443  138.4206  154.6153 H   0  0  0  0  0  0  0  0  0  0  0  0
  151.2306  139.3868  153.6004 H   0  0  0  0  0  0  0  0  0  0  0  0
  151.5681  139.6066  156.6234 H   0  0  0  0  0  0  0  0  0  0  0  0
  152.0765  140.7513  155.4211 H   0  0  0  0  0  0  0  0  0  0  0  0
  149.3859  140.3920  156.6730 H   0  0  0  0  0  0  0  0  0  0  0  0
  150.1879  141.8385  156.1772 H   0  0  0  0  0  0  0  0  0  0  0  0
  147.3083  135.4902  151.3903 H   0  0  0  0  0  0  0  0  0  0  0  0
  147.5418  133.4107  150.5881 H   0  0  0  0  0  0  0  0  0  0  0  0
  146.5150  131.3182  149.6975 H   0  0  0  0  0  0  0  0  0  0  0  0
  144.0118  131.1173  149.6534 H   0  0  0  0  0  0  0  0  0  0  0  0
  142.6492  133.0405  150.5119 H   0  0  0  0  0  0  0  0  0  0  0  0
  1  2  2  0  0  0  0
  2  3  1  0  0  0  0
  2 14  1  0  0  0  0
  3  4  1  0  0  0  0
  3 21  1  0  0  0  0
  4  5  1  0  0  0  0
  4 22  1  0  0  0  0
  4 23  1  0  0  0  0
  5  6  1  0  0  0  0
  5 24  1  0  0  0  0
  5 25  1  0  0  0  0
  6 12  1  0  0  0  0
  6  7  1  0  0  0  0
  7  8  1  0  0  0  0
  7 26  1  0  0  0  0
  7 27  1  0  0  0  0
  8  9  1  0  0  0  0
  8 28  1  0  0  0  0
  8 29  1  0  0  0  0
  9 10  1  0  0  0  0
  9 30  1  0  0  0  0
  9 31  1  0  0  0  0
 10 11  1  0  0  0  0
 10 32  1  0  0  0  0
 10 33  1  0  0  0  0
 11 12  1  0  0  0  0
 11 34  1  0  0  0  0
 11 35  1  0  0  0  0
 12 13  2  0  0  0  0
 14 15  1  0  0  0  0
 14 36  1  0  0  0  0
 15 20  1  0  0  0  0
 15 16  2  0  0  0  0
 16 17  1  0  0  0  0
 16 37  1  0  0  0  0
 17 18  2  0  0  0  0
 17 38  1  0  0  0  0
 18 19  1  0  0  0  0
 18 39  1  0  0  0  0
 19 20  2  0  0  0  0
 19 40  1  0  0  0  0
M  END
> <s_m_source_file>
AV-unprocessed.smi

> <i_m_source_file_index>
1415

> <i_lp_mmshare_version>
43012

> <i_f3d_flags>
0

> <s_epik_input>
bjFbY0hdW2NIXVtjSF1bY0hdYzFbTkhdQyg9TylbTkhdW0NIMl1bQ0gyXU4yW0NIMl1bQ0gyXVtDSDJdW0NIMl1bQ0gyXUMyPU8=

> <s_epik_cmdline>
J2VwaWtfcHl0aG9uJywgJy1waCcsICc3LjAnLCAnLXRuJywgJzgnLCAnLW1hJywgJzIwMCcsICctbWV0YWxfYmluZGluZycsICctaW1hZScsICc8aW5maWxlLm1hZT4nLCAnLW9tYWUnLCAnPG91dGZpbGUubWFlPic=

> <r_lp_tautomer_probability>
1

> <r_epik_Ionization_Penalty>
4.30218e-05

> <r_epik_Ionization_Penalty_Charging>
0

> <r_epik_Ionization_Penalty_Neutral>
4.30218e-05

> <r_epik_State_Penalty>
-0

> <r_epik_Charging_Adjusted_Penalty>
0

> <i_epik_Tot_Q>
0

> <i_epik_Tot_abs_Q>
0

> <r_epik_Metal_State_Penalty>
-0

> <b_epik_Metal_Only>
0

> <s_lp_Force_Field>
OPLS_2005

> <r_lp_Energy>
23.0834

> <b_lp_Chiralities_Consistent>
1

> <s_lp_Variant>
AV-unprocessed.smi:1415-1

> <Gold.Version>
5.8.1

> <Gold.Id.Protein>
6NUR|6NUR_protein|mol2

> <Gold.PLP.Fitness>
46.1276

> <Gold.PLP.PLP>
-37.3219

> <Gold.PLP.part.hbond>
-3.0000

> <Gold.PLP.part.metal>
0.0000

> <Gold.PLP.part.buried>
0.0261

> <Gold.PLP.part.nonpolar>
-34.6142

> <Gold.PLP.part.repulsive>
0.6856

> <Gold.PLP.ligand.clash>
0.0000

> <Gold.PLP.ligand.torsion>
0.7363

> <Gold.PLP.Chemscore.Hbond>
2.4240

> <Gold.PLP.Chemscore.CHOScore>
1.0000

> <Gold.PLP.Chemscore.Metal>
0.0000

> <Gold.Chemscore.Hbonds>
donor molecule, donor type, donor heavy atom, donor atom, acceptor molecule, acceptor atom, score
      L1  H     3    21       P1  7948  1.00
      L1  H    14    36       P1  7948  0.99
      P1  H  8011  8017       L1    13  0.43
      L1  C    19    40       P1 10186  1.00

> <Gold.PLP.Chemscore.Internal.Correction>
0.0062

> <Gold.Rescore>
     Score         DG    S(hbond)    S(metal)    S(lipo)     H(rot)  DE(clash)    DE(int)     intcor
     15.31     -18.74       2.36        0.00      80.27       1.57       1.45       1.98       ----

> <Gold.Chemscore.Fitness>
15.3057

> <Gold.Chemscore.DG>
-18.7362

> <Gold.Chemscore.ZeroCoef>
-5.4800

> <Gold.Chemscore.Hbond>
2.3629

> <Gold.Chemscore.Metal>
0.0000

> <Gold.Chemscore.Lipo>
80.2669

> <Gold.Chemscore.Internal_Hbond>
0.0000

> <Gold.Chemscore.DEClash>
1.4517

> <Gold.Chemscore.DEInternal>
1.9788

> <Gold.Chemscore.Rot>
1.5731

> <Gold.Chemscore.Internal.Correction>
   9.000000E+99

> <Gold.Chemscore.Hbonds>
donor molecule, donor type, donor heavy atom, donor atom, acceptor molecule, acceptor atom, score
      L1  H     3    21       P1  7948  0.98
      L1  H    14    36       P1  7948  0.87
      P1  H  8011  8017       L1    13  0.43

> <Gold.Chemscore.Hbond.Weighted>
-7.8920

> <Gold.Chemscore.Metal.Weighted>
-0.0000

> <Gold.Chemscore.Lipo.Weighted>
-9.3912

> <Gold.Chemscore.Internal_Hbond.Weighted>
0.0000

> <Gold.Chemscore.DEClash.Weighted>
1.4517

> <Gold.Chemscore.DEInternal.Weighted>
1.9788

> <Gold.Chemscore.Rot.Weighted>
4.0271

> <Gold.Chemscore.Internal.Correction.Weighted>
   9.000000E+99

> <Gold.Protein.RotatedTorsions>
[ 6907 6896 6895 6894 ] final -174.05 input  -60.11 | X-H torsion
[ 7974 7965 7964 7962 ] final -175.49 input  175.53 | X-H torsion
[ 8008 7997 7996 7995 ] final   67.22 input   59.86 | X-H torsion
[ 10167 10162 10161 10158 ] final   -0.44 input  -65.29 | X-H torsion
[ 10718 10713 10712 10709 ] final   35.46 input   66.30 | X-H torsion
[ 10763 10752 10751 10750 ] final  160.06 input  -60.55 | X-H torsion
[ 11005 11000 10999 10996 ] final -141.68 input  -57.11 | X-H torsion

> <Gold.Protein.ActiveResidues>
 VAL166  LYS551  ARG553  GLY616  TRP617  ASP618  TYR619  PRO620  LYS621  CYS622 
 ASP623  PHE694  ASN695  SER759  ASP760  ASP761  ALA762  ILE779  LEU786  VAL792 
 PHE793  MET794  SER795  GLU796  ALA797  LYS798  CYS799  TRP800  GLU811  SER814 

> <Gold.Protein.RotatedAtoms>
  151.5660  133.3396  159.2980 H   0  0  0  0  0  0  0  0  0  0  0  0  # atno 6907 bound_to 6896
  150.8395  134.7684  159.6932 H   0  0  0  0  0  0  0  0  0  0  0  0  # atno 6908 bound_to 6896
  152.4465  134.5490  159.9913 H   0  0  0  0  0  0  0  0  0  0  0  0  # atno 6909 bound_to 6896
  144.7128  140.1313  143.6398 H   0  0  0  0  0  0  0  0  0  0  0  0  # atno 7974 bound_to 7965
  155.6896  140.3496  155.4888 H   0  0  0  0  0  0  0  0  0  0  0  0  # atno 8008 bound_to 7997
  155.9536  140.1124  157.0978 H   0  0  0  0  0  0  0  0  0  0  0  0  # atno 8009 bound_to 7997
  154.4127  140.1189  156.5071 H   0  0  0  0  0  0  0  0  0  0  0  0  # atno 8010 bound_to 7997
  140.6767  143.6894  150.8040 H   0  0  0  0  0  0  0  0  0  0  0  0  # atno 10167 bound_to 10162
  157.3229  130.7458  149.6797 H   0  0  0  0  0  0  0  0  0  0  0  0  # atno 10718 bound_to 10713
  154.2415  135.2774  155.2852 H   0  0  0  0  0  0  0  0  0  0  0  0  # atno 10763 bound_to 10752
  154.5541  135.5666  153.6951 H   0  0  0  0  0  0  0  0  0  0  0  0  # atno 10764 bound_to 10752
  152.9999  135.6281  154.2560 H   0  0  0  0  0  0  0  0  0  0  0  0  # atno 10765 bound_to 10752
  140.8300  134.2528  157.4861 H   0  0  0  0  0  0  0  0  0  0  0  0  # atno 11005 bound_to 11000
  145.9284  139.2590  143.1340 LP  0  0  0  0  0  0  0  0  0  0  0  0  # atno 17320 bound_to 7965
  145.9548  140.8881  143.0241 LP  0  0  0  0  0  0  0  0  0  0  0  0  # atno 17321 bound_to 7965
  140.0588  143.5175  152.2638 LP  0  0  0  0  0  0  0  0  0  0  0  0  # atno 17342 bound_to 10162
  139.6064  144.7597  151.3051 LP  0  0  0  0  0  0  0  0  0  0  0  0  # atno 17343 bound_to 10162
  155.9687  130.4217  150.4485 LP  0  0  0  0  0  0  0  0  0  0  0  0  # atno 17370 bound_to 10713
  157.2503  131.0545  151.2383 LP  0  0  0  0  0  0  0  0  0  0  0  0  # atno 17371 bound_to 10713
  139.8705  134.9581  156.4289 LP  0  0  0  0  0  0  0  0  0  0  0  0  # atno 17394 bound_to 11000
  140.9008  133.7781  155.9678 LP  0  0  0  0  0  0  0  0  0  0  0  0  # atno 17395 bound_to 11000

$$$$
