AV-unprocessed.smi:1903|AV-procd|sdf|7722|dock7
  -GOLD-   22720 9463D 1   1.00000     0.00000
 Structure written by MMmdl.
 47 48  0  0  0  0  0  0  0  0  2 V2000
  153.1181  138.4197  154.9621 C   0  0  0  0  0  0  0  0  0  0  0  0
  152.1871  139.3823  155.6426 C   0  0  0  0  0  0  0  0  0  0  0  0
  152.5178  139.8830  156.8212 N   0  0  0  0  0  0  0  0  0  0  0  0
  151.4926  140.6936  157.1508 N   0  0  0  0  0  0  0  0  0  0  0  0
  151.5337  141.4179  158.4064 C   0  0  0  0  0  0  0  0  0  0  0  0
  150.5119  140.7057  156.1782 C   0  0  0  0  0  0  0  0  0  0  0  0
  149.2738  141.5327  156.3106 C   0  0  0  0  0  0  0  0  0  0  0  0
  150.9277  139.8649  155.1798 C   0  0  0  0  0  0  0  0  0  0  0  0
  150.2362  139.5154  153.8861 C   0  0  0  0  0  0  0  0  0  0  0  0
  148.8306  138.9892  154.1770 C   0  0  0  0  0  0  0  0  0  0  0  0
  148.5300  138.6282  155.3146 O   0  0  0  0  0  0  0  0  0  0  0  0
  147.9779  138.9493  153.1411 N   0  0  0  0  0  0  0  0  0  0  0  0
  146.6079  138.4552  153.2033 C   0  0  0  0  0  0  0  0  0  0  0  0
  146.1808  137.7989  151.8760 C   0  0  0  0  0  0  0  0  0  0  0  0
  146.4115  136.3320  151.8680 N   0  3  0  0  0  0  0  0  0  0  0  0
  146.1147  135.7108  153.1859 C   0  0  0  0  0  0  0  0  0  0  0  0
  146.4879  134.2188  153.1975 C   0  0  0  0  0  0  0  0  0  0  0  0
  145.7739  133.4644  152.0690 C   0  0  0  0  0  0  0  0  0  0  0  0
  146.0694  134.1385  150.7235 C   0  0  0  0  0  0  0  0  0  0  0  0
  145.7037  135.6320  150.7623 C   0  0  0  0  0  0  0  0  0  0  0  0
  153.3269  138.7362  153.9402 H   0  0  0  0  0  0  0  0  0  0  0  0
  152.6807  137.4223  154.9177 H   0  0  0  0  0  0  0  0  0  0  0  0
  154.0726  138.3406  155.4839 H   0  0  0  0  0  0  0  0  0  0  0  0
  150.6327  141.2063  158.9827 H   0  0  0  0  0  0  0  0  0  0  0  0
  151.5885  142.4887  158.2090 H   0  0  0  0  0  0  0  0  0  0  0  0
  152.4037  141.1218  158.9941 H   0  0  0  0  0  0  0  0  0  0  0  0
  148.6248  141.4199  155.4424 H   0  0  0  0  0  0  0  0  0  0  0  0
  149.5234  142.5897  156.4045 H   0  0  0  0  0  0  0  0  0  0  0  0
  148.7047  141.2394  157.1929 H   0  0  0  0  0  0  0  0  0  0  0  0
  150.1598  140.3853  153.2326 H   0  0  0  0  0  0  0  0  0  0  0  0
  150.7917  138.7663  153.3210 H   0  0  0  0  0  0  0  0  0  0  0  0
  148.3128  139.2618  152.2410 H   0  0  0  0  0  0  0  0  0  0  0  0
  146.5631  137.7406  154.0241 H   0  0  0  0  0  0  0  0  0  0  0  0
  145.9302  139.2702  153.4638 H   0  0  0  0  0  0  0  0  0  0  0  0
  145.1169  137.9889  151.7280 H   0  0  0  0  0  0  0  0  0  0  0  0
  146.6949  138.2596  151.0310 H   0  0  0  0  0  0  0  0  0  0  0  0
  146.6753  136.2224  153.9695 H   0  0  0  0  0  0  0  0  0  0  0  0
  145.0561  135.8369  153.4190 H   0  0  0  0  0  0  0  0  0  0  0  0
  147.5674  134.1100  153.0852 H   0  0  0  0  0  0  0  0  0  0  0  0
  146.2310  133.7772  154.1610 H   0  0  0  0  0  0  0  0  0  0  0  0
  146.0944  132.4224  152.0486 H   0  0  0  0  0  0  0  0  0  0  0  0
  144.6984  133.4578  152.2508 H   0  0  0  0  0  0  0  0  0  0  0  0
  147.1269  134.0263  150.4814 H   0  0  0  0  0  0  0  0  0  0  0  0
  145.5159  133.6401  149.9275 H   0  0  0  0  0  0  0  0  0  0  0  0
  144.6262  135.7500  150.8867 H   0  0  0  0  0  0  0  0  0  0  0  0
  145.9601  136.0788  149.8026 H   0  0  0  0  0  0  0  0  0  0  0  0
  147.4013  136.2006  151.7148 H   0  0  0  0  0  0  0  0  0  0  0  0
  1  2  1  0  0  0  0
  1 21  1  0  0  0  0
  1 22  1  0  0  0  0
  1 23  1  0  0  0  0
  2  8  1  0  0  0  0
  2  3  2  0  0  0  0
  3  4  1  0  0  0  0
  4  5  1  0  0  0  0
  4  6  1  0  0  0  0
  5 24  1  0  0  0  0
  5 25  1  0  0  0  0
  5 26  1  0  0  0  0
  6  7  1  0  0  0  0
  6  8  2  0  0  0  0
  7 27  1  0  0  0  0
  7 28  1  0  0  0  0
  7 29  1  0  0  0  0
  8  9  1  0  0  0  0
  9 10  1  0  0  0  0
  9 30  1  0  0  0  0
  9 31  1  0  0  0  0
 10 11  2  0  0  0  0
 10 12  1  0  0  0  0
 12 13  1  0  0  0  0
 12 32  1  0  0  0  0
 13 14  1  0  0  0  0
 13 33  1  0  0  0  0
 13 34  1  0  0  0  0
 14 15  1  0  0  0  0
 14 35  1  0  0  0  0
 14 36  1  0  0  0  0
 15 20  1  0  0  0  0
 15 16  1  0  0  0  0
 15 47  1  0  0  0  0
 16 17  1  0  0  0  0
 16 37  1  0  0  0  0
 16 38  1  0  0  0  0
 17 18  1  0  0  0  0
 17 39  1  0  0  0  0
 17 40  1  0  0  0  0
 18 19  1  0  0  0  0
 18 41  1  0  0  0  0
 18 42  1  0  0  0  0
 19 20  1  0  0  0  0
 19 43  1  0  0  0  0
 19 44  1  0  0  0  0
 20 45  1  0  0  0  0
 20 46  1  0  0  0  0
M  CHG  1  15   1
M  END
> <s_m_source_file>
AV-unprocessed.smi

> <i_m_source_file_index>
1903

> <i_lp_mmshare_version>
43012

> <i_f3d_flags>
0

> <s_epik_input>
W0NIM11jMW5uKFtDSDNdKWMoW0NIM10pYzFbQ0gyXUMoPU8pW05IXVtDSDJdW0NIMl1OMltDSDJdW0NIMl1bQ0gyXVtDSDJdW0NIMl0y

> <s_epik_cmdline>
J2VwaWtfcHl0aG9uJywgJy1waCcsICc3LjAnLCAnLXRuJywgJzgnLCAnLW1hJywgJzIwMCcsICctbWV0YWxfYmluZGluZycsICctaW1hZScsICc8aW5maWxlLm1hZT4nLCAnLW9tYWUnLCAnPG91dGZpbGUubWFlPic=

> <r_lp_tautomer_probability>
1

> <r_epik_Ionization_Penalty>
0.00456445

> <r_epik_Ionization_Penalty_Charging>
0.00240401

> <r_epik_Ionization_Penalty_Neutral>
0.00216044

> <r_epik_State_Penalty>
-0

> <r_epik_Charging_Adjusted_Penalty>
0.00240401

> <i_epik_Tot_Q>
1

> <i_epik_Tot_abs_Q>
1

> <r_epik_Metal_State_Penalty>
-0

> <b_epik_Metal_Only>
0

> <s_lp_Force_Field>
OPLS_2005

> <r_lp_Energy>
10.8117

> <b_lp_Chiralities_Consistent>
1

> <s_lp_Variant>
AV-unprocessed.smi:1903-1

> <Gold.Version>
5.8.1

> <Gold.Id.Protein>
6NUR|6NUR_protein|mol2

> <Gold.PLP.Fitness>
44.1911

> <Gold.PLP.PLP>
-33.7231

> <Gold.PLP.part.hbond>
-3.5849

> <Gold.PLP.part.metal>
0.0000

> <Gold.PLP.part.buried>
1.5831

> <Gold.PLP.part.nonpolar>
-31.8211

> <Gold.PLP.part.repulsive>
0.1376

> <Gold.PLP.ligand.clash>
0.0000

> <Gold.PLP.ligand.torsion>
0.7979

> <Gold.PLP.Chemscore.Hbond>
4.0000

> <Gold.PLP.Chemscore.CHOScore>
0.0000

> <Gold.PLP.Chemscore.Metal>
0.0000

> <Gold.Chemscore.Hbonds>
donor molecule, donor type, donor heavy atom, donor atom, acceptor molecule, acceptor atom, score
      L1  H    12    32       P1  7957  1.00
      L1  H    15    47       P1  7948  1.98
      P1  H  7997  8008       L1     3  0.90

> <Gold.PLP.Chemscore.Internal.Correction>
0.0638

> <Gold.Rescore>
     Score         DG    S(hbond)    S(metal)    S(lipo)     H(rot)  DE(clash)    DE(int)     intcor
     18.09     -20.52       2.76        0.00      85.92       1.65       1.64       0.80       ----

> <Gold.Chemscore.Fitness>
18.0891

> <Gold.Chemscore.DG>
-20.5243

> <Gold.Chemscore.ZeroCoef>
-5.4800

> <Gold.Chemscore.Hbond>
2.7566

> <Gold.Chemscore.Metal>
0.0000

> <Gold.Chemscore.Lipo>
85.9205

> <Gold.Chemscore.Internal_Hbond>
0.0000

> <Gold.Chemscore.DEClash>
1.6385

> <Gold.Chemscore.DEInternal>
0.7967

> <Gold.Chemscore.Rot>
1.6467

> <Gold.Chemscore.Internal.Correction>
   9.000000E+99

> <Gold.Chemscore.Hbonds>
donor molecule, donor type, donor heavy atom, donor atom, acceptor molecule, acceptor atom, score
      L1  H    12    32       P1  7957  0.97
      L1  H    15    47       P1  7948  0.92
      P1  H  7997  8008       L1     3  0.18

> <Gold.Chemscore.Hbond.Weighted>
-9.2071

> <Gold.Chemscore.Metal.Weighted>
-0.0000

> <Gold.Chemscore.Lipo.Weighted>
-10.0527

> <Gold.Chemscore.Internal_Hbond.Weighted>
0.0000

> <Gold.Chemscore.DEClash.Weighted>
1.6385

> <Gold.Chemscore.DEInternal.Weighted>
0.7967

> <Gold.Chemscore.Rot.Weighted>
4.2155

> <Gold.Chemscore.Internal.Correction.Weighted>
   9.000000E+99

> <Gold.Protein.RotatedTorsions>
[ 6907 6896 6895 6894 ] final   57.71 input  -60.11 | X-H torsion
[ 7974 7965 7964 7962 ] final -160.95 input  175.53 | X-H torsion
[ 8008 7997 7996 7995 ] final  -51.41 input   59.86 | X-H torsion
[ 10167 10162 10161 10158 ] final  117.24 input  -65.29 | X-H torsion
[ 10718 10713 10712 10709 ] final  -46.68 input   66.30 | X-H torsion
[ 10763 10752 10751 10750 ] final  124.32 input  -60.55 | X-H torsion
[ 11005 11000 10999 10996 ] final -140.83 input  -57.11 | X-H torsion

> <Gold.Protein.ActiveResidues>
 VAL166  LYS551  ARG553  GLY616  TRP617  ASP618  TYR619  PRO620  LYS621  CYS622 
 ASP623  PHE694  ASN695  SER759  ASP760  ASP761  ALA762  ILE779  LEU786  VAL792 
 PHE793  MET794  SER795  GLU796  ALA797  LYS798  CYS799  TRP800  GLU811  SER814 

> <Gold.Protein.RotatedAtoms>
  152.3757  134.6667  160.0160 H   0  0  0  0  0  0  0  0  0  0  0  0  # atno 6907 bound_to 6896
  151.6946  133.3305  159.3259 H   0  0  0  0  0  0  0  0  0  0  0  0  # atno 6908 bound_to 6896
  150.7708  134.6604  159.6381 H   0  0  0  0  0  0  0  0  0  0  0  0  # atno 6909 bound_to 6896
  144.7408  140.3468  143.6124 H   0  0  0  0  0  0  0  0  0  0  0  0  # atno 7974 bound_to 7965
  154.4082  140.1249  156.4824 H   0  0  0  0  0  0  0  0  0  0  0  0  # atno 8008 bound_to 7997
  155.7072  140.3494  155.4938 H   0  0  0  0  0  0  0  0  0  0  0  0  # atno 8009 bound_to 7997
  155.9333  140.1073  157.1105 H   0  0  0  0  0  0  0  0  0  0  0  0  # atno 8010 bound_to 7997
  139.6192  144.7098  151.2671 H   0  0  0  0  0  0  0  0  0  0  0  0  # atno 10167 bound_to 10162
  156.2159  130.4163  149.9054 H   0  0  0  0  0  0  0  0  0  0  0  0  # atno 10718 bound_to 10713
  153.6596  135.3349  155.3123 H   0  0  0  0  0  0  0  0  0  0  0  0  # atno 10763 bound_to 10752
  154.8518  135.4360  154.1818 H   0  0  0  0  0  0  0  0  0  0  0  0  # atno 10764 bound_to 10752
  153.2782  135.7006  153.7487 H   0  0  0  0  0  0  0  0  0  0  0  0  # atno 10765 bound_to 10752
  140.8384  134.2432  157.4822 H   0  0  0  0  0  0  0  0  0  0  0  0  # atno 11005 bound_to 11000
  145.7318  139.1738  143.2426 LP  0  0  0  0  0  0  0  0  0  0  0  0  # atno 17320 bound_to 7965
  146.1201  140.7320  142.9462 LP  0  0  0  0  0  0  0  0  0  0  0  0  # atno 17321 bound_to 7965
  140.7371  143.6688  150.8100 LP  0  0  0  0  0  0  0  0  0  0  0  0  # atno 17342 bound_to 10162
  140.0296  143.5457  152.2766 LP  0  0  0  0  0  0  0  0  0  0  0  0  # atno 17343 bound_to 10162
  156.6717  130.8823  151.3563 LP  0  0  0  0  0  0  0  0  0  0  0  0  # atno 17370 bound_to 10713
  157.7063  130.9389  150.0941 LP  0  0  0  0  0  0  0  0  0  0  0  0  # atno 17371 bound_to 10713
  139.8703  134.9622  156.4423 LP  0  0  0  0  0  0  0  0  0  0  0  0  # atno 17394 bound_to 11000
  140.8922  133.7840  155.9585 LP  0  0  0  0  0  0  0  0  0  0  0  0  # atno 17395 bound_to 11000

$$$$
