AV-unprocessed.smi:3122|AV-procd|sdf|11899|dock2
  -GOLD-   2272017283D 1   1.00000     0.00000
 Structure written by MMmdl.
 29 30  0  0  0  0  0  0  0  0  1 V2000
  152.1531  144.4274  157.9142 C   0  0  0  0  0  0  0  0  0  0  0  0
  151.7163  143.1336  158.6165 C   0  0  0  0  0  0  0  0  0  0  0  0
  152.6498  142.7548  159.7751 C   0  0  0  0  0  0  0  0  0  0  0  0
  151.5517  142.0033  157.6499 C   0  0  0  0  0  0  0  0  0  0  0  0
  152.1242  140.7972  157.7025 N   0  0  0  0  0  0  0  0  0  0  0  0
  151.6216  140.0950  156.6303 N   0  0  0  0  0  0  0  0  0  0  0  0
  150.7888  140.9310  156.0051 C   0  0  0  0  0  0  0  0  0  0  0  0
  149.9391  140.6341  154.8120 C   0  0  1  0  0  0  0  0  0  0  0  0
  150.0289  139.1572  154.3813 C   0  0  0  0  0  0  0  0  0  0  0  0
  149.1141  138.8967  153.2708 N   0  0  0  0  0  0  0  0  0  0  0  0
  147.7471  139.2918  153.6074 C   0  0  0  0  0  0  0  0  0  0  0  0
  147.7112  140.7619  154.0626 C   0  0  0  0  0  0  0  0  0  0  0  0
  148.5931  140.9419  155.1657 O   0  0  0  0  0  0  0  0  0  0  0  0
  150.6780  142.1387  156.6187 O   0  0  0  0  0  0  0  0  0  0  0  0
  151.4398  144.7129  157.1403 H   0  0  0  0  0  0  0  0  0  0  0  0
  153.1293  144.3132  157.4418 H   0  0  0  0  0  0  0  0  0  0  0  0
  152.2210  145.2545  158.6213 H   0  0  0  0  0  0  0  0  0  0  0  0
  150.7337  143.3256  159.0497 H   0  0  0  0  0  0  0  0  0  0  0  0
  152.2814  141.8755  160.3042 H   0  0  0  0  0  0  0  0  0  0  0  0
  152.7281  143.5667  160.4986 H   0  0  0  0  0  0  0  0  0  0  0  0
  153.6551  142.5307  159.4168 H   0  0  0  0  0  0  0  0  0  0  0  0
  150.2599  141.2853  153.9965 H   0  0  0  0  0  0  0  0  0  0  0  0
  151.0503  138.9110  154.0900 H   0  0  0  0  0  0  0  0  0  0  0  0
  149.7786  138.5115  155.2242 H   0  0  0  0  0  0  0  0  0  0  0  0
  149.1350  137.9091  153.0370 H   0  0  0  0  0  0  0  0  0  0  0  0
  147.0931  139.1496  152.7469 H   0  0  0  0  0  0  0  0  0  0  0  0
  147.3614  138.6533  154.4032 H   0  0  0  0  0  0  0  0  0  0  0  0
  147.9859  141.4313  153.2458 H   0  0  0  0  0  0  0  0  0  0  0  0
  146.7018  141.0346  154.3707 H   0  0  0  0  0  0  0  0  0  0  0  0
  1  2  1  0  0  0  0
  1 15  1  0  0  0  0
  1 16  1  0  0  0  0
  1 17  1  0  0  0  0
  2  3  1  0  0  0  0
  2  4  1  0  0  0  0
  2 18  1  0  0  0  0
  3 19  1  0  0  0  0
  3 20  1  0  0  0  0
  3 21  1  0  0  0  0
  4 14  1  0  0  0  0
  4  5  2  0  0  0  0
  5  6  1  0  0  0  0
  6  7  2  0  0  0  0
  7  8  1  0  0  0  0
  7 14  1  0  0  0  0
  8 13  1  0  0  0  0
  8  9  1  0  0  0  0
  8 22  1  0  0  0  0
  9 10  1  0  0  0  0
  9 23  1  0  0  0  0
  9 24  1  0  0  0  0
 10 11  1  0  0  0  0
 10 25  1  0  0  0  0
 11 12  1  0  0  0  0
 11 26  1  0  0  0  0
 11 27  1  0  0  0  0
 12 13  1  0  0  0  0
 12 28  1  0  0  0  0
 12 29  1  0  0  0  0
M  END
> <s_m_source_file>
AV-unprocessed.smi

> <i_m_source_file_index>
3122

> <i_lp_mmshare_version>
43012

> <i_f3d_flags>
0

> <s_epik_input>
W0NIM11bQ0hdKFtDSDNdKWMxbm5jKG8xKVtDQEBIXTJbQ0gyXVtOSF1bQ0gyXVtDSDJdTzI=

> <s_epik_cmdline>
J2VwaWtfcHl0aG9uJywgJy1waCcsICc3LjAnLCAnLXRuJywgJzgnLCAnLW1hJywgJzIwMCcsICctbWV0YWxfYmluZGluZycsICctaW1hZScsICc8aW5maWxlLm1hZT4nLCAnLW9tYWUnLCAnPG91dGZpbGUubWFlPic=

> <r_lp_tautomer_probability>
1

> <r_epik_Ionization_Penalty>
1.64488

> <r_epik_Ionization_Penalty_Charging>
0

> <r_epik_Ionization_Penalty_Neutral>
1.64488

> <r_epik_State_Penalty>
1.74649

> <r_epik_Charging_Adjusted_Penalty>
1.74649

> <i_epik_Tot_Q>
0

> <i_epik_Tot_abs_Q>
0

> <r_epik_Metal_State_Penalty>
1.74649

> <b_epik_Metal_Only>
0

> <s_lp_Force_Field>
OPLS_2005

> <r_lp_Energy>
11.3744

> <b_lp_Chiralities_Consistent>
1

> <s_lp_Variant>
AV-unprocessed.smi:3122-4

> <Gold.Version>
5.8.1

> <Gold.Id.Protein>
6NUR|6NUR_protein|mol2

> <Gold.PLP.Fitness>
31.4850

> <Gold.PLP.PLP>
-28.6808

> <Gold.PLP.part.hbond>
-1.7181

> <Gold.PLP.part.metal>
0.0000

> <Gold.PLP.part.buried>
-2.7805

> <Gold.PLP.part.nonpolar>
-24.1480

> <Gold.PLP.part.repulsive>
0.2049

> <Gold.PLP.ligand.clash>
0.0000

> <Gold.PLP.ligand.torsion>
0.1276

> <Gold.PLP.Chemscore.Hbond>
0.9913

> <Gold.PLP.Chemscore.CHOScore>
0.0000

> <Gold.PLP.Chemscore.Metal>
0.0000

> <Gold.Chemscore.Hbonds>
donor molecule, donor type, donor heavy atom, donor atom, acceptor molecule, acceptor atom, score
      L1  H    10    25       P1  7948  1.00

> <Gold.PLP.Chemscore.Internal.Correction>
0.0856

> <Gold.Rescore>
     Score         DG    S(hbond)    S(metal)    S(lipo)     H(rot)  DE(clash)    DE(int)     intcor
     12.97     -13.07       0.98        0.00      64.12       1.24       0.02       0.09       ----

> <Gold.Chemscore.Fitness>
12.9659

> <Gold.Chemscore.DG>
-13.0709

> <Gold.Chemscore.ZeroCoef>
-5.4800

> <Gold.Chemscore.Hbond>
0.9787

> <Gold.Chemscore.Metal>
0.0000

> <Gold.Chemscore.Lipo>
64.1182

> <Gold.Chemscore.Internal_Hbond>
0.0000

> <Gold.Chemscore.DEClash>
0.0178

> <Gold.Chemscore.DEInternal>
0.0871

> <Gold.Chemscore.Rot>
1.2422

> <Gold.Chemscore.Internal.Correction>
   9.000000E+99

> <Gold.Chemscore.Hbonds>
donor molecule, donor type, donor heavy atom, donor atom, acceptor molecule, acceptor atom, score
      L1  H    10    25       P1  7948  0.92

> <Gold.Chemscore.Hbond.Weighted>
-3.2690

> <Gold.Chemscore.Metal.Weighted>
-0.0000

> <Gold.Chemscore.Lipo.Weighted>
-7.5018

> <Gold.Chemscore.Internal_Hbond.Weighted>
0.0000

> <Gold.Chemscore.DEClash.Weighted>
0.0178

> <Gold.Chemscore.DEInternal.Weighted>
0.0871

> <Gold.Chemscore.Rot.Weighted>
3.1799

> <Gold.Chemscore.Internal.Correction.Weighted>
   9.000000E+99

> <Gold.Protein.RotatedTorsions>
[ 6907 6896 6895 6894 ] final  -87.49 input  -60.11 | X-H torsion
[ 7974 7965 7964 7962 ] final -124.24 input  175.53 | X-H torsion
[ 8008 7997 7996 7995 ] final -169.05 input   59.86 | X-H torsion
[ 10167 10162 10161 10158 ] final    5.84 input  -65.29 | X-H torsion
[ 10718 10713 10712 10709 ] final  138.61 input   66.30 | X-H torsion
[ 10763 10752 10751 10750 ] final  -91.30 input  -60.55 | X-H torsion
[ 11005 11000 10999 10996 ] final  137.92 input  -57.11 | X-H torsion

> <Gold.Protein.ActiveResidues>
 VAL166  LYS551  ARG553  GLY616  TRP617  ASP618  TYR619  PRO620  LYS621  CYS622 
 ASP623  PHE694  ASN695  SER759  ASP760  ASP761  ALA762  ILE779  LEU786  VAL792 
 PHE793  MET794  SER795  GLU796  ALA797  LYS798  CYS799  TRP800  GLU811  SER814 

> <Gold.Protein.RotatedAtoms>
  150.6866  134.2887  159.4657 H   0  0  0  0  0  0  0  0  0  0  0  0  # atno 6907 bound_to 6896
  152.0794  134.9478  160.0583 H   0  0  0  0  0  0  0  0  0  0  0  0  # atno 6908 bound_to 6896
  152.0837  133.4131  159.4549 H   0  0  0  0  0  0  0  0  0  0  0  0  # atno 6909 bound_to 6896
  145.0101  140.7898  143.4443 H   0  0  0  0  0  0  0  0  0  0  0  0  # atno 7974 bound_to 7965
  155.8997  140.1039  157.1359 H   0  0  0  0  0  0  0  0  0  0  0  0  # atno 8008 bound_to 7997
  154.4025  140.1295  156.4485 H   0  0  0  0  0  0  0  0  0  0  0  0  # atno 8009 bound_to 7997
  155.7437  140.3466  155.5119 H   0  0  0  0  0  0  0  0  0  0  0  0  # atno 8010 bound_to 7997
  140.6460  143.7661  150.7500 H   0  0  0  0  0  0  0  0  0  0  0  0  # atno 10167 bound_to 10162
  157.4234  131.1041  151.0329 H   0  0  0  0  0  0  0  0  0  0  0  0  # atno 10718 bound_to 10713
  154.6747  135.5273  153.8184 H   0  0  0  0  0  0  0  0  0  0  0  0  # atno 10763 bound_to 10752
  153.0524  135.6537  154.0670 H   0  0  0  0  0  0  0  0  0  0  0  0  # atno 10764 bound_to 10752
  154.0565  135.2965  155.3312 H   0  0  0  0  0  0  0  0  0  0  0  0  # atno 10765 bound_to 10752
  140.0147  134.9423  157.0352 H   0  0  0  0  0  0  0  0  0  0  0  0  # atno 11005 bound_to 11000
  145.2034  139.2240  143.5181 LP  0  0  0  0  0  0  0  0  0  0  0  0  # atno 17320 bound_to 7965
  146.3468  140.1857  142.8589 LP  0  0  0  0  0  0  0  0  0  0  0  0  # atno 17321 bound_to 7965
  140.1302  143.4533  152.2259 LP  0  0  0  0  0  0  0  0  0  0  0  0  # atno 17342 bound_to 10162
  139.5671  144.7441  151.3993 LP  0  0  0  0  0  0  0  0  0  0  0  0  # atno 17343 bound_to 10162
  157.1251  130.6078  149.5515 LP  0  0  0  0  0  0  0  0  0  0  0  0  # atno 17370 bound_to 10713
  155.9888  130.4933  150.7187 LP  0  0  0  0  0  0  0  0  0  0  0  0  # atno 17371 bound_to 10713
  140.4492  134.1600  155.7180 LP  0  0  0  0  0  0  0  0  0  0  0  0  # atno 17394 bound_to 11000
  141.1735  133.8561  157.1496 LP  0  0  0  0  0  0  0  0  0  0  0  0  # atno 17395 bound_to 11000

$$$$
