AV-unprocessed.smi:735|AV-procd|sdf|3533|dock7
  -GOLD-   22720 0523D 1   1.00000     0.00000
 Structure written by MMmdl.
 17 17  0  0  0  0  0  0  0  0  2 V2000
  153.3729  139.3010  154.7085 O   0  0  0  0  0  0  0  0  0  0  0  0
  152.2864  138.6807  154.7292 C   0  0  0  0  0  0  0  0  0  0  0  0
  152.1024  137.5488  154.2264 O   0  5  0  0  0  0  0  0  0  0  0  0
  151.1004  139.3780  155.4187 C   0  0  0  0  0  0  0  0  0  0  0  0
  150.7457  138.6221  156.4609 F   0  0  0  0  0  0  0  0  0  0  0  0
  151.5403  140.5357  155.9174 F   0  0  0  0  0  0  0  0  0  0  0  0
  149.8919  139.5713  154.4907 C   0  0  0  0  0  0  0  0  0  0  0  0
  149.3568  138.5213  153.8104 C   0  0  0  0  0  0  0  0  0  0  0  0
  148.2536  138.6319  152.9907 N   0  0  0  0  0  0  0  0  0  0  0  0
  147.6060  139.8536  152.8196 C   0  0  0  0  0  0  0  0  0  0  0  0
  146.6209  139.9673  152.0945 O   0  0  0  0  0  0  0  0  0  0  0  0
  148.1351  140.9386  153.5150 N   0  0  0  0  0  0  0  0  0  0  0  0
  149.2535  140.8954  154.3575 C   0  0  0  0  0  0  0  0  0  0  0  0
  149.6226  141.9368  154.8979 O   0  0  0  0  0  0  0  0  0  0  0  0
  147.8925  137.8275  152.4986 H   0  0  0  0  0  0  0  0  0  0  0  0
  147.6797  141.8318  153.3978 H   0  0  0  0  0  0  0  0  0  0  0  0
  149.8049  137.5424  153.9010 H   0  0  0  0  0  0  0  0  0  0  0  0
  1  2  2  0  0  0  0
  2  3  1  0  0  0  0
  2  4  1  0  0  0  0
  4  5  1  0  0  0  0
  4  6  1  0  0  0  0
  4  7  1  0  0  0  0
  7 13  1  0  0  0  0
  7  8  2  0  0  0  0
  8  9  1  0  0  0  0
  8 17  1  0  0  0  0
  9 15  1  0  0  0  0
  9 10  1  0  0  0  0
 10 11  2  0  0  0  0
 10 12  1  0  0  0  0
 12 16  1  0  0  0  0
 12 13  1  0  0  0  0
 13 14  2  0  0  0  0
M  CHG  1   3  -1
M  END
> <s_m_source_file>
AV-unprocessed.smi

> <i_m_source_file_index>
735

> <i_lp_mmshare_version>
43012

> <i_f3d_flags>
0

> <s_epik_input>
Tz1DKFtPSF0pQyhGKShGKWMxW2NIXVtuSF1jKD1PKVtuSF1jMT1P

> <s_epik_cmdline>
J2VwaWtfcHl0aG9uJywgJy1waCcsICc3LjAnLCAnLXRuJywgJzgnLCAnLW1hJywgJzIwMCcsICctbWV0YWxfYmluZGluZycsICctaW1hZScsICc8aW5maWxlLm1hZT4nLCAnLW9tYWUnLCAnPG91dGZpbGUubWFlPic=

> <r_lp_tautomer_probability>
0.999514

> <r_epik_Ionization_Penalty>
0.138461

> <r_epik_Ionization_Penalty_Charging>
0.138461

> <r_epik_Ionization_Penalty_Neutral>
0

> <r_epik_State_Penalty>
0.812948

> <r_epik_Charging_Adjusted_Penalty>
0.951409

> <i_epik_Tot_Q>
-1

> <i_epik_Tot_abs_Q>
1

> <r_epik_Metal_State_Penalty>
4.31017

> <b_epik_Metal_Only>
0

> <s_lp_Force_Field>
OPLS_2005

> <r_lp_Energy>
7.04955

> <b_lp_Chiralities_Consistent>
1

> <s_lp_Variant>
AV-unprocessed.smi:735-2

> <Gold.Version>
5.8.1

> <Gold.Id.Protein>
6NUR|6NUR_protein|mol2

> <Gold.PLP.Fitness>
35.4877

> <Gold.PLP.PLP>
-21.5240

> <Gold.PLP.part.hbond>
-6.5457

> <Gold.PLP.part.metal>
0.0000

> <Gold.PLP.part.buried>
2.6124

> <Gold.PLP.part.nonpolar>
-20.3035

> <Gold.PLP.part.repulsive>
2.7302

> <Gold.PLP.ligand.clash>
0.0000

> <Gold.PLP.ligand.torsion>
0.1707

> <Gold.PLP.Chemscore.Hbond>
4.2400

> <Gold.PLP.Chemscore.CHOScore>
0.5120

> <Gold.PLP.Chemscore.Metal>
0.0000

> <Gold.Chemscore.Hbonds>
donor molecule, donor type, donor heavy atom, donor atom, acceptor molecule, acceptor atom, score
      L1  H     9    15       P1  7948  0.53
      P1  H  7997  8009       L1     1  2.00
      P1  H 10752 10764       L1     3  1.60
      L1  C     8    17       P1  7948  0.50

> <Gold.PLP.Chemscore.Internal.Correction>
0.0489

> <Gold.Rescore>
     Score         DG    S(hbond)    S(metal)    S(lipo)     H(rot)  DE(clash)    DE(int)     intcor
      5.77     -10.44       2.18        0.00      19.96       1.82       1.66       3.00       ----

> <Gold.Chemscore.Fitness>
5.7749

> <Gold.Chemscore.DG>
-10.4374

> <Gold.Chemscore.ZeroCoef>
-5.4800

> <Gold.Chemscore.Hbond>
2.1789

> <Gold.Chemscore.Metal>
0.0000

> <Gold.Chemscore.Lipo>
19.9640

> <Gold.Chemscore.Internal_Hbond>
0.0000

> <Gold.Chemscore.DEClash>
1.6587

> <Gold.Chemscore.DEInternal>
3.0038

> <Gold.Chemscore.Rot>
1.8187

> <Gold.Chemscore.Internal.Correction>
   9.000000E+99

> <Gold.Chemscore.Hbonds>
donor molecule, donor type, donor heavy atom, donor atom, acceptor molecule, acceptor atom, score
      L1  H     9    15       P1  7948  0.50
      P1  H  7997  8009       L1     1  1.00
      P1  H 10752 10764       L1     3  0.75

> <Gold.Chemscore.Hbond.Weighted>
-7.2775

> <Gold.Chemscore.Metal.Weighted>
-0.0000

> <Gold.Chemscore.Lipo.Weighted>
-2.3358

> <Gold.Chemscore.Internal_Hbond.Weighted>
0.0000

> <Gold.Chemscore.DEClash.Weighted>
1.6587

> <Gold.Chemscore.DEInternal.Weighted>
3.0038

> <Gold.Chemscore.Rot.Weighted>
4.6559

> <Gold.Chemscore.Internal.Correction.Weighted>
   9.000000E+99

> <Gold.Protein.RotatedTorsions>
[ 6907 6896 6895 6894 ] final  103.43 input  -60.11 | X-H torsion
[ 7974 7965 7964 7962 ] final  -19.95 input  175.53 | X-H torsion
[ 8008 7997 7996 7995 ] final -130.02 input   59.86 | X-H torsion
[ 10167 10162 10161 10158 ] final -151.36 input  -65.29 | X-H torsion
[ 10718 10713 10712 10709 ] final  152.51 input   66.30 | X-H torsion
[ 10763 10752 10751 10750 ] final  -87.81 input  -60.55 | X-H torsion
[ 11005 11000 10999 10996 ] final  111.41 input  -57.11 | X-H torsion

> <Gold.Protein.ActiveResidues>
 VAL166  LYS551  ARG553  GLY616  TRP617  ASP618  TYR619  PRO620  LYS621  CYS622 
 ASP623  PHE694  ASN695  SER759  ASP760  ASP761  ALA762  ILE779  LEU786  VAL792 
 PHE793  MET794  SER795  GLU796  ALA797  LYS798  CYS799  TRP800  GLU811  SER814 

> <Gold.Protein.RotatedAtoms>
  152.5295  133.9827  159.7813 H   0  0  0  0  0  0  0  0  0  0  0  0  # atno 6907 bound_to 6896
  151.0077  133.5987  159.2693 H   0  0  0  0  0  0  0  0  0  0  0  0  # atno 6908 bound_to 6896
  151.3072  135.0791  159.9313 H   0  0  0  0  0  0  0  0  0  0  0  0  # atno 6909 bound_to 6896
  146.1814  140.4134  142.8493 H   0  0  0  0  0  0  0  0  0  0  0  0  # atno 7974 bound_to 7965
  155.2888  140.0447  157.3021 H   0  0  0  0  0  0  0  0  0  0  0  0  # atno 8008 bound_to 7997
  154.5553  140.2330  155.8387 H   0  0  0  0  0  0  0  0  0  0  0  0  # atno 8009 bound_to 7997
  156.2002  140.3027  155.9518 H   0  0  0  0  0  0  0  0  0  0  0  0  # atno 8010 bound_to 7997
  139.7274  143.8861  152.2524 H   0  0  0  0  0  0  0  0  0  0  0  0  # atno 10167 bound_to 10162
  157.2568  131.0790  151.1693 H   0  0  0  0  0  0  0  0  0  0  0  0  # atno 10718 bound_to 10713
  154.6377  135.5400  153.7753 H   0  0  0  0  0  0  0  0  0  0  0  0  # atno 10763 bound_to 10752
  153.0317  135.6451  154.1206 H   0  0  0  0  0  0  0  0  0  0  0  0  # atno 10764 bound_to 10752
  154.1133  135.2925  155.3205 H   0  0  0  0  0  0  0  0  0  0  0  0  # atno 10765 bound_to 10752
  139.8903  134.9507  156.6427 H   0  0  0  0  0  0  0  0  0  0  0  0  # atno 11005 bound_to 11000
  144.8322  140.6724  143.6284 LP  0  0  0  0  0  0  0  0  0  0  0  0  # atno 17320 bound_to 7965
  145.4065  139.1588  143.4149 LP  0  0  0  0  0  0  0  0  0  0  0  0  # atno 17321 bound_to 7965
  139.8775  144.7035  150.8916 LP  0  0  0  0  0  0  0  0  0  0  0  0  # atno 17342 bound_to 10162
  140.7765  143.3688  151.1688 LP  0  0  0  0  0  0  0  0  0  0  0  0  # atno 17343 bound_to 10162
  157.3219  130.6941  149.6274 LP  0  0  0  0  0  0  0  0  0  0  0  0  # atno 17370 bound_to 10713
  155.9665  130.4333  150.5000 LP  0  0  0  0  0  0  0  0  0  0  0  0  # atno 17371 bound_to 10713
  140.7581  133.8841  155.8397 LP  0  0  0  0  0  0  0  0  0  0  0  0  # atno 17394 bound_to 11000
  140.9945  134.1234  157.4377 LP  0  0  0  0  0  0  0  0  0  0  0  0  # atno 17395 bound_to 11000

$$$$
