AV-unprocessed.smi:2378|AV-procd|sdf|9450|dock5
  -GOLD-   2272013 83D 1   1.00000     0.00000
 Structure written by MMmdl.
 40 41  0  0  0  0  0  0  0  0  1 V2000
  145.9018  131.8050  149.2512 C   0  0  0  0  0  0  0  0  0  0  0  0
  145.3963  132.6569  150.3966 C   0  0  0  0  0  0  0  0  0  0  0  0
  144.1524  132.3921  151.0008 C   0  0  0  0  0  0  0  0  0  0  0  0
  143.7389  133.2213  152.0598 C   0  0  0  0  0  0  0  0  0  0  0  0
  144.4752  134.2541  152.5208 N   0  0  0  0  0  0  0  0  0  0  0  0
  145.6750  134.5194  151.9467 C   0  0  0  0  0  0  0  0  0  0  0  0
  146.5287  135.5784  152.3556 N   0  0  0  0  0  0  0  0  0  0  0  0
  146.3292  136.4767  153.3365 C   0  0  0  0  0  0  0  0  0  0  0  0
  145.3343  136.5334  154.0598 O   0  0  0  0  0  0  0  0  0  0  0  0
  147.3621  137.3263  153.4328 N   0  0  0  0  0  0  0  0  0  0  0  0
  147.4549  138.4289  154.3828 C   0  0  0  0  0  0  0  0  0  0  0  0
  148.6748  139.3200  154.0936 C   0  0  0  0  0  0  0  0  0  0  0  0
  149.8838  138.9851  154.9812 C   0  0  1  0  0  0  0  0  0  0  0  0
  150.4576  137.5892  154.6686 C   0  0  0  0  0  0  0  0  0  0  0  0
  151.7051  137.3177  155.5165 C   0  0  0  0  0  0  0  0  0  0  0  0
  152.7088  138.4613  155.3376 C   0  0  0  0  0  0  0  0  0  0  0  0
  152.0303  139.8142  155.6058 C   0  0  0  0  0  0  0  0  0  0  0  0
  150.8959  139.9652  154.7578 O   0  0  0  0  0  0  0  0  0  0  0  0
  146.1656  133.7356  150.8778 C   0  0  0  0  0  0  0  0  0  0  0  0
  145.2742  130.9252  149.1053 H   0  0  0  0  0  0  0  0  0  0  0  0
  146.9193  131.4675  149.4496 H   0  0  0  0  0  0  0  0  0  0  0  0
  145.9038  132.3808  148.3254 H   0  0  0  0  0  0  0  0  0  0  0  0
  143.5281  131.5770  150.6653 H   0  0  0  0  0  0  0  0  0  0  0  0
  142.7915  133.0514  152.5498 H   0  0  0  0  0  0  0  0  0  0  0  0
  147.3918  135.6631  151.8395 H   0  0  0  0  0  0  0  0  0  0  0  0
  148.1382  137.2068  152.7986 H   0  0  0  0  0  0  0  0  0  0  0  0
  146.5350  139.0160  154.3668 H   0  0  0  0  0  0  0  0  0  0  0  0
  147.5334  138.0048  155.3839 H   0  0  0  0  0  0  0  0  0  0  0  0
  148.9573  139.2032  153.0465 H   0  0  0  0  0  0  0  0  0  0  0  0
  148.4086  140.3698  154.2242 H   0  0  0  0  0  0  0  0  0  0  0  0
  149.5726  139.0213  156.0269 H   0  0  0  0  0  0  0  0  0  0  0  0
  149.7074  136.8201  154.8542 H   0  0  0  0  0  0  0  0  0  0  0  0
  150.7156  137.5252  153.6107 H   0  0  0  0  0  0  0  0  0  0  0  0
  151.4243  137.2353  156.5671 H   0  0  0  0  0  0  0  0  0  0  0  0
  152.1572  136.3661  155.2356 H   0  0  0  0  0  0  0  0  0  0  0  0
  153.5601  138.3252  156.0051 H   0  0  0  0  0  0  0  0  0  0  0  0
  153.1022  138.4472  154.3204 H   0  0  0  0  0  0  0  0  0  0  0  0
  151.7300  139.8991  156.6513 H   0  0  0  0  0  0  0  0  0  0  0  0
  152.7274  140.6287  155.4085 H   0  0  0  0  0  0  0  0  0  0  0  0
  147.1231  133.9576  150.4289 H   0  0  0  0  0  0  0  0  0  0  0  0
  1  2  1  0  0  0  0
  1 20  1  0  0  0  0
  1 21  1  0  0  0  0
  1 22  1  0  0  0  0
  2 19  1  0  0  0  0
  2  3  2  0  0  0  0
  3  4  1  0  0  0  0
  3 23  1  0  0  0  0
  4  5  2  0  0  0  0
  4 24  1  0  0  0  0
  5  6  1  0  0  0  0
  6  7  1  0  0  0  0
  6 19  2  0  0  0  0
  7  8  1  0  0  0  0
  7 25  1  0  0  0  0
  8  9  2  0  0  0  0
  8 10  1  0  0  0  0
 10 11  1  0  0  0  0
 10 26  1  0  0  0  0
 11 12  1  0  0  0  0
 11 27  1  0  0  0  0
 11 28  1  0  0  0  0
 12 13  1  0  0  0  0
 12 29  1  0  0  0  0
 12 30  1  0  0  0  0
 13 18  1  0  0  0  0
 13 14  1  0  0  0  0
 13 31  1  0  0  0  0
 14 15  1  0  0  0  0
 14 32  1  0  0  0  0
 14 33  1  0  0  0  0
 15 16  1  0  0  0  0
 15 34  1  0  0  0  0
 15 35  1  0  0  0  0
 16 17  1  0  0  0  0
 16 36  1  0  0  0  0
 16 37  1  0  0  0  0
 17 18  1  0  0  0  0
 17 38  1  0  0  0  0
 17 39  1  0  0  0  0
 19 40  1  0  0  0  0
M  END
> <s_m_source_file>
AV-unprocessed.smi

> <i_m_source_file_index>
2378

> <i_lp_mmshare_version>
43012

> <i_f3d_flags>
0

> <s_epik_input>
W0NIM11jMVtjSF1bY0hdbmMoW2NIXTEpW05IXUMoPU8pW05IXVtDSDJdW0NIMl1bQ0BASF0yW0NIMl1bQ0gyXVtDSDJdW0NIMl1PMg==

> <s_epik_cmdline>
J2VwaWtfcHl0aG9uJywgJy1waCcsICc3LjAnLCAnLXRuJywgJzgnLCAnLW1hJywgJzIwMCcsICctbWV0YWxfYmluZGluZycsICctaW1hZScsICc8aW5maWxlLm1hZT4nLCAnLW9tYWUnLCAnPG91dGZpbGUubWFlPic=

> <r_lp_tautomer_probability>
1

> <r_epik_Ionization_Penalty>
8.60919e-05

> <r_epik_Ionization_Penalty_Charging>
0

> <r_epik_Ionization_Penalty_Neutral>
8.60919e-05

> <r_epik_State_Penalty>
-0

> <r_epik_Charging_Adjusted_Penalty>
0

> <i_epik_Tot_Q>
0

> <i_epik_Tot_abs_Q>
0

> <r_epik_Metal_State_Penalty>
-0

> <b_epik_Metal_Only>
0

> <s_lp_Force_Field>
OPLS_2005

> <r_lp_Energy>
10.7522

> <b_lp_Chiralities_Consistent>
1

> <s_lp_Variant>
AV-unprocessed.smi:2378-2

> <Gold.Version>
5.8.1

> <Gold.Id.Protein>
6NUR|6NUR_protein|mol2

> <Gold.PLP.Fitness>
41.8927

> <Gold.PLP.PLP>
-31.5376

> <Gold.PLP.part.hbond>
-2.8565

> <Gold.PLP.part.metal>
0.0000

> <Gold.PLP.part.buried>
-2.5658

> <Gold.PLP.part.nonpolar>
-27.7538

> <Gold.PLP.part.repulsive>
0.2501

> <Gold.PLP.ligand.clash>
0.0000

> <Gold.PLP.ligand.torsion>
0.3206

> <Gold.PLP.Chemscore.Hbond>
2.8860

> <Gold.PLP.Chemscore.CHOScore>
0.7751

> <Gold.PLP.Chemscore.Metal>
0.0000

> <Gold.Chemscore.Hbonds>
donor molecule, donor type, donor heavy atom, donor atom, acceptor molecule, acceptor atom, score
      L1  H     7    25       P1  7948  0.96
      L1  H    10    26       P1  7948  0.96
      P1  H  7989  7998       L1    18  0.95
      L1  C     4    24       P1 10957  0.77

> <Gold.PLP.Chemscore.Internal.Correction>
0.0130

> <Gold.Rescore>
     Score         DG    S(hbond)    S(metal)    S(lipo)     H(rot)  DE(clash)    DE(int)     intcor
     18.88     -20.50       2.82        0.00      79.01       1.42       0.01       1.60       ----

> <Gold.Chemscore.Fitness>
18.8846

> <Gold.Chemscore.DG>
-20.4953

> <Gold.Chemscore.ZeroCoef>
-5.4800

> <Gold.Chemscore.Hbond>
2.8201

> <Gold.Chemscore.Metal>
0.0000

> <Gold.Chemscore.Lipo>
79.0067

> <Gold.Chemscore.Internal_Hbond>
0.0000

> <Gold.Chemscore.DEClash>
0.0141

> <Gold.Chemscore.DEInternal>
1.5966

> <Gold.Chemscore.Rot>
1.4248

> <Gold.Chemscore.Internal.Correction>
   9.000000E+99

> <Gold.Chemscore.Hbonds>
donor molecule, donor type, donor heavy atom, donor atom, acceptor molecule, acceptor atom, score
      L1  H     7    25       P1  7948  0.92
      L1  H    10    26       P1  7948  0.90
      P1  H  7989  7998       L1    18  0.22

> <Gold.Chemscore.Hbond.Weighted>
-9.4191

> <Gold.Chemscore.Metal.Weighted>
-0.0000

> <Gold.Chemscore.Lipo.Weighted>
-9.2438

> <Gold.Chemscore.Internal_Hbond.Weighted>
0.0000

> <Gold.Chemscore.DEClash.Weighted>
0.0141

> <Gold.Chemscore.DEInternal.Weighted>
1.5966

> <Gold.Chemscore.Rot.Weighted>
3.6476

> <Gold.Chemscore.Internal.Correction.Weighted>
   9.000000E+99

> <Gold.Protein.RotatedTorsions>
[ 6907 6896 6895 6894 ] final -153.96 input  -60.11 | X-H torsion
[ 7974 7965 7964 7962 ] final  179.24 input  175.53 | X-H torsion
[ 8008 7997 7996 7995 ] final   43.16 input   59.86 | X-H torsion
[ 10167 10162 10161 10158 ] final -105.94 input  -65.29 | X-H torsion
[ 10718 10713 10712 10709 ] final    1.89 input   66.30 | X-H torsion
[ 10763 10752 10751 10750 ] final  -11.83 input  -60.55 | X-H torsion
[ 11005 11000 10999 10996 ] final  119.47 input  -57.11 | X-H torsion

> <Gold.Protein.ActiveResidues>
 VAL166  LYS551  ARG553  GLY616  TRP617  ASP618  TYR619  PRO620  LYS621  CYS622 
 ASP623  PHE694  ASN695  SER759  ASP760  ASP761  ALA762  ILE779  LEU786  VAL792 
 PHE793  MET794  SER795  GLU796  ALA797  LYS798  CYS799  TRP800  GLU811  SER814 

> <Gold.Protein.RotatedAtoms>
  151.2504  133.4353  159.2610 H   0  0  0  0  0  0  0  0  0  0  0  0  # atno 6907 bound_to 6896
  151.0623  134.9744  159.8277 H   0  0  0  0  0  0  0  0  0  0  0  0  # atno 6908 bound_to 6896
  152.5400  134.2454  159.8931 H   0  0  0  0  0  0  0  0  0  0  0  0  # atno 6909 bound_to 6896
  144.7147  140.0518  143.6435 H   0  0  0  0  0  0  0  0  0  0  0  0  # atno 7974 bound_to 7965
  155.2981  140.3383  155.4249 H   0  0  0  0  0  0  0  0  0  0  0  0  # atno 8008 bound_to 7997
  156.2014  140.1734  156.7930 H   0  0  0  0  0  0  0  0  0  0  0  0  # atno 8009 bound_to 7997
  154.5564  140.0695  156.8734 H   0  0  0  0  0  0  0  0  0  0  0  0  # atno 8010 bound_to 7997
  140.1931  143.3876  152.1190 H   0  0  0  0  0  0  0  0  0  0  0  0  # atno 10167 bound_to 10162
  156.8548  130.5566  149.5667 H   0  0  0  0  0  0  0  0  0  0  0  0  # atno 10718 bound_to 10713
  153.4895  135.7017  153.5892 H   0  0  0  0  0  0  0  0  0  0  0  0  # atno 10763 bound_to 10752
  153.4071  135.3857  155.2026 H   0  0  0  0  0  0  0  0  0  0  0  0  # atno 10764 bound_to 10752
  154.8717  135.3895  154.4353 H   0  0  0  0  0  0  0  0  0  0  0  0  # atno 10765 bound_to 10752
  139.9148  134.9628  156.7661 H   0  0  0  0  0  0  0  0  0  0  0  0  # atno 11005 bound_to 11000
  145.9938  139.3036  143.0969 LP  0  0  0  0  0  0  0  0  0  0  0  0  # atno 17320 bound_to 7965
  145.8873  140.9326  143.0570 LP  0  0  0  0  0  0  0  0  0  0  0  0  # atno 17321 bound_to 7965
  139.5248  144.7088  151.5272 LP  0  0  0  0  0  0  0  0  0  0  0  0  # atno 17342 bound_to 10162
  140.6442  143.8828  150.6721 LP  0  0  0  0  0  0  0  0  0  0  0  0  # atno 17343 bound_to 10162
  156.0808  130.5819  150.9560 LP  0  0  0  0  0  0  0  0  0  0  0  0  # atno 17370 bound_to 10713
  157.6283  131.0923  150.8491 LP  0  0  0  0  0  0  0  0  0  0  0  0  # atno 17371 bound_to 10713
  140.6659  133.9603  155.7830 LP  0  0  0  0  0  0  0  0  0  0  0  0  # atno 17394 bound_to 11000
  141.0611  134.0344  157.3656 LP  0  0  0  0  0  0  0  0  0  0  0  0  # atno 17395 bound_to 11000

$$$$
