AV-unprocessed.smi:3004|AV-procd|sdf|11442|dock6
  -GOLD-   2272016373D 1   1.00000     0.00000
 Structure written by MMmdl.
 47 48  0  0  0  0  0  0  0  0  2 V2000
  151.0984  144.5227  159.0047 C   0  0  0  0  0  0  0  0  0  0  0  0
  151.8099  143.7245  160.0566 C   0  0  0  0  0  0  0  0  0  0  0  0
  152.0540  144.0745  161.4141 C   0  0  0  0  0  0  0  0  0  0  0  0
  152.7335  143.0034  161.9223 C   0  0  0  0  0  0  0  0  0  0  0  0
  153.2698  142.7673  163.2959 C   0  0  0  0  0  0  0  0  0  0  0  0
  152.8658  142.0876  160.8931 N   0  0  0  0  0  0  0  0  0  0  0  0
  153.4993  140.7787  160.9044 C   0  0  0  0  0  0  0  0  0  0  0  0
  153.2872  140.0520  159.5758 C   0  0  0  0  0  0  0  0  0  0  0  0
  154.2569  139.6821  158.9138 O   0  0  0  0  0  0  0  0  0  0  0  0
  152.0149  139.8542  159.1954 N   0  0  0  0  0  0  0  0  0  0  0  0
  151.6039  139.1613  157.9802 C   0  0  0  0  0  0  0  0  0  0  0  0
  152.2742  139.7582  156.7277 C   0  0  0  0  0  0  0  0  0  0  0  0
  151.2739  140.0989  155.6775 N   0  3  1  0  0  0  0  0  0  0  0  0
  150.6579  138.8614  155.1181 C   0  0  0  0  0  0  0  0  0  0  0  0
  149.7183  139.1601  153.9434 C   0  0  0  0  0  0  0  0  0  0  0  0
  148.6171  140.1239  154.3826 C   0  0  0  0  0  0  0  0  0  0  0  0
  149.2567  141.3972  154.9397 C   0  0  0  0  0  0  0  0  0  0  0  0
  150.2458  141.1096  156.0929 C   0  0  2  0  0  0  0  0  0  0  0  0
  150.8662  142.4550  156.5309 C   0  0  0  0  0  0  0  0  0  0  0  0
  152.2968  142.5331  159.7514 N   0  0  0  0  0  0  0  0  0  0  0  0
  150.8084  145.5031  159.3834 H   0  0  0  0  0  0  0  0  0  0  0  0
  150.1933  144.0145  158.6716 H   0  0  0  0  0  0  0  0  0  0  0  0
  151.7341  144.6792  158.1329 H   0  0  0  0  0  0  0  0  0  0  0  0
  151.7724  144.9770  161.9365 H   0  0  0  0  0  0  0  0  0  0  0  0
  153.0420  143.6075  163.9521 H   0  0  0  0  0  0  0  0  0  0  0  0
  154.3526  142.6443  163.2746 H   0  0  0  0  0  0  0  0  0  0  0  0
  152.8335  141.8708  163.7364 H   0  0  0  0  0  0  0  0  0  0  0  0
  154.5662  140.8931  161.1042 H   0  0  0  0  0  0  0  0  0  0  0  0
  153.0875  140.1884  161.7237 H   0  0  0  0  0  0  0  0  0  0  0  0
  151.2820  140.1850  159.8072 H   0  0  0  0  0  0  0  0  0  0  0  0
  151.8371  138.0986  158.0669 H   0  0  0  0  0  0  0  0  0  0  0  0
  150.5191  139.2351  157.9129 H   0  0  0  0  0  0  0  0  0  0  0  0
  152.8589  140.6419  156.9880 H   0  0  0  0  0  0  0  0  0  0  0  0
  152.9984  139.0340  156.3678 H   0  0  0  0  0  0  0  0  0  0  0  0
  151.4330  138.1755  154.7776 H   0  0  0  0  0  0  0  0  0  0  0  0
  150.1066  138.3428  155.9044 H   0  0  0  0  0  0  0  0  0  0  0  0
  150.2827  139.5893  153.1145 H   0  0  0  0  0  0  0  0  0  0  0  0
  149.2766  138.2345  153.5733 H   0  0  0  0  0  0  0  0  0  0  0  0
  147.9665  140.3645  153.5411 H   0  0  0  0  0  0  0  0  0  0  0  0
  147.9896  139.6568  155.1429 H   0  0  0  0  0  0  0  0  0  0  0  0
  149.7751  141.9180  154.1328 H   0  0  0  0  0  0  0  0  0  0  0  0
  148.4705  142.0717  155.2815 H   0  0  0  0  0  0  0  0  0  0  0  0
  149.6848  140.6953  156.9323 H   0  0  0  0  0  0  0  0  0  0  0  0
  150.0950  143.2170  156.6484 H   0  0  0  0  0  0  0  0  0  0  0  0
  151.5772  142.8243  155.7910 H   0  0  0  0  0  0  0  0  0  0  0  0
  151.3740  142.4002  157.4925 H   0  0  0  0  0  0  0  0  0  0  0  0
  151.7909  140.5334  154.9262 H   0  0  0  0  0  0  0  0  0  0  0  0
  1  2  1  0  0  0  0
  1 21  1  0  0  0  0
  1 22  1  0  0  0  0
  1 23  1  0  0  0  0
  2 20  2  0  0  0  0
  2  3  1  0  0  0  0
  3  4  2  0  0  0  0
  3 24  1  0  0  0  0
  4  5  1  0  0  0  0
  4  6  1  0  0  0  0
  5 25  1  0  0  0  0
  5 26  1  0  0  0  0
  5 27  1  0  0  0  0
  6  7  1  0  0  0  0
  6 20  1  0  0  0  0
  7  8  1  0  0  0  0
  7 28  1  0  0  0  0
  7 29  1  0  0  0  0
  8  9  2  0  0  0  0
  8 10  1  0  0  0  0
 10 11  1  0  0  0  0
 10 30  1  0  0  0  0
 11 12  1  0  0  0  0
 11 31  1  0  0  0  0
 11 32  1  0  0  0  0
 12 13  1  0  0  0  0
 12 33  1  0  0  0  0
 12 34  1  0  0  0  0
 13 18  1  0  0  0  0
 13 14  1  0  0  0  0
 13 47  1  0  0  0  0
 14 15  1  0  0  0  0
 14 35  1  0  0  0  0
 14 36  1  0  0  0  0
 15 16  1  0  0  0  0
 15 37  1  0  0  0  0
 15 38  1  0  0  0  0
 16 17  1  0  0  0  0
 16 39  1  0  0  0  0
 16 40  1  0  0  0  0
 17 18  1  0  0  0  0
 17 41  1  0  0  0  0
 17 42  1  0  0  0  0
 18 19  1  0  0  0  0
 18 43  1  0  0  0  0
 19 44  1  0  0  0  0
 19 45  1  0  0  0  0
 19 46  1  0  0  0  0
M  CHG  1  13   1
M  END
> <s_m_source_file>
AV-unprocessed.smi

> <i_m_source_file_index>
3004

> <i_lp_mmshare_version>
43012

> <i_f3d_flags>
0

> <s_epik_input>
W0NIM11jMVtjSF1jKFtDSDNdKW4objEpW0NIMl1DKD1PKVtOSF1bQ0gyXVtDSDJdTjJbQ0gyXVtDSDJdW0NIMl1bQ0gyXVtDQEhdMltDSDNd

> <s_epik_cmdline>
J2VwaWtfcHl0aG9uJywgJy1waCcsICc3LjAnLCAnLXRuJywgJzgnLCAnLW1hJywgJzIwMCcsICctbWV0YWxfYmluZGluZycsICctaW1hZScsICc8aW5maWxlLm1hZT4nLCAnLW9tYWUnLCAnPG91dGZpbGUubWFlPic=

> <r_lp_tautomer_probability>
1

> <r_epik_Ionization_Penalty>
0.00303644

> <r_epik_Ionization_Penalty_Charging>
0.00284254

> <r_epik_Ionization_Penalty_Neutral>
0.000193908

> <r_epik_State_Penalty>
-0

> <r_epik_Charging_Adjusted_Penalty>
0.00284254

> <i_epik_Tot_Q>
1

> <i_epik_Tot_abs_Q>
1

> <r_epik_Metal_State_Penalty>
-0

> <b_epik_Metal_Only>
0

> <s_lp_Force_Field>
OPLS_2005

> <r_lp_Energy>
17.2859

> <b_lp_Chiralities_Consistent>
1

> <s_lp_Variant>
AV-unprocessed.smi:3004-4

> <Gold.Version>
5.8.1

> <Gold.Id.Protein>
6NUR|6NUR_protein|mol2

> <Gold.PLP.Fitness>
48.7100

> <Gold.PLP.PLP>
-46.5331

> <Gold.PLP.part.hbond>
-1.0000

> <Gold.PLP.part.metal>
0.0000

> <Gold.PLP.part.buried>
-3.2525

> <Gold.PLP.part.nonpolar>
-42.1083

> <Gold.PLP.part.repulsive>
0.2845

> <Gold.PLP.ligand.clash>
0.0000

> <Gold.PLP.ligand.torsion>
0.4303

> <Gold.PLP.Chemscore.Hbond>
1.0000

> <Gold.PLP.Chemscore.CHOScore>
0.0000

> <Gold.PLP.Chemscore.Metal>
0.0000

> <Gold.Chemscore.Hbonds>
donor molecule, donor type, donor heavy atom, donor atom, acceptor molecule, acceptor atom, score
      P1  H  7997  8008       L1     9  1.00

> <Gold.PLP.Chemscore.Internal.Correction>
0.0375

> <Gold.Rescore>
     Score         DG    S(hbond)    S(metal)    S(lipo)     H(rot)  DE(clash)    DE(int)     intcor
     16.23     -19.32       0.99        0.00     126.57       1.67       0.55       2.54       ----

> <Gold.Chemscore.Fitness>
16.2291

> <Gold.Chemscore.DG>
-19.3191

> <Gold.Chemscore.ZeroCoef>
-5.4800

> <Gold.Chemscore.Hbond>
0.9865

> <Gold.Chemscore.Metal>
0.0000

> <Gold.Chemscore.Lipo>
126.5653

> <Gold.Chemscore.Internal_Hbond>
0.0000

> <Gold.Chemscore.DEClash>
0.5472

> <Gold.Chemscore.DEInternal>
2.5427

> <Gold.Chemscore.Rot>
1.6657

> <Gold.Chemscore.Internal.Correction>
   9.000000E+99

> <Gold.Chemscore.Hbonds>
donor molecule, donor type, donor heavy atom, donor atom, acceptor molecule, acceptor atom, score
      P1  H  7997  8008       L1     9  0.95

> <Gold.Chemscore.Hbond.Weighted>
-3.2950

> <Gold.Chemscore.Metal.Weighted>
-0.0000

> <Gold.Chemscore.Lipo.Weighted>
-14.8081

> <Gold.Chemscore.Internal_Hbond.Weighted>
0.0000

> <Gold.Chemscore.DEClash.Weighted>
0.5472

> <Gold.Chemscore.DEInternal.Weighted>
2.5427

> <Gold.Chemscore.Rot.Weighted>
4.2641

> <Gold.Chemscore.Internal.Correction.Weighted>
   9.000000E+99

> <Gold.Protein.RotatedTorsions>
[ 6907 6896 6895 6894 ] final -162.45 input  -60.11 | X-H torsion
[ 7974 7965 7964 7962 ] final  179.84 input  175.53 | X-H torsion
[ 8008 7997 7996 7995 ] final -126.25 input   59.86 | X-H torsion
[ 10167 10162 10161 10158 ] final -125.16 input  -65.29 | X-H torsion
[ 10718 10713 10712 10709 ] final  139.42 input   66.30 | X-H torsion
[ 10763 10752 10751 10750 ] final  169.20 input  -60.55 | X-H torsion
[ 11005 11000 10999 10996 ] final  173.08 input  -57.11 | X-H torsion

> <Gold.Protein.ActiveResidues>
 VAL166  LYS551  ARG553  GLY616  TRP617  ASP618  TYR619  PRO620  LYS621  CYS622 
 ASP623  PHE694  ASN695  SER759  ASP760  ASP761  ALA762  ILE779  LEU786  VAL792 
 PHE793  MET794  SER795  GLU796  ALA797  LYS798  CYS799  TRP800  GLU811  SER814 

> <Gold.Protein.RotatedAtoms>
  151.3806  133.3823  159.2709 H   0  0  0  0  0  0  0  0  0  0  0  0  # atno 6907 bound_to 6896
  150.9581  134.8973  159.7724 H   0  0  0  0  0  0  0  0  0  0  0  0  # atno 6908 bound_to 6896
  152.5138  134.3764  159.9388 H   0  0  0  0  0  0  0  0  0  0  0  0  # atno 6909 bound_to 6896
  144.7142  140.0609  143.6432 H   0  0  0  0  0  0  0  0  0  0  0  0  # atno 7974 bound_to 7965
  155.2266  140.0424  157.2956 H   0  0  0  0  0  0  0  0  0  0  0  0  # atno 8008 bound_to 7997
  154.5915  140.2428  155.7885 H   0  0  0  0  0  0  0  0  0  0  0  0  # atno 8009 bound_to 7997
  156.2262  140.2953  156.0082 H   0  0  0  0  0  0  0  0  0  0  0  0  # atno 8010 bound_to 7997
  139.9850  143.5701  152.2364 H   0  0  0  0  0  0  0  0  0  0  0  0  # atno 10167 bound_to 10162
  157.4145  131.1032  151.0419 H   0  0  0  0  0  0  0  0  0  0  0  0  # atno 10718 bound_to 10713
  154.3797  135.2753  155.2218 H   0  0  0  0  0  0  0  0  0  0  0  0  # atno 10763 bound_to 10752
  154.4330  135.5973  153.6084 H   0  0  0  0  0  0  0  0  0  0  0  0  # atno 10764 bound_to 10752
  152.9835  135.6000  154.4039 H   0  0  0  0  0  0  0  0  0  0  0  0  # atno 10765 bound_to 10752
  140.3366  134.7312  157.4172 H   0  0  0  0  0  0  0  0  0  0  0  0  # atno 11005 bound_to 11000
  145.9865  139.2981  143.1010 LP  0  0  0  0  0  0  0  0  0  0  0  0  # atno 17320 bound_to 7965
  145.8951  140.9279  143.0532 LP  0  0  0  0  0  0  0  0  0  0  0  0  # atno 17321 bound_to 7965
  139.6381  144.7652  151.2395 LP  0  0  0  0  0  0  0  0  0  0  0  0  # atno 17342 bound_to 10162
  140.7475  143.6363  150.8376 LP  0  0  0  0  0  0  0  0  0  0  0  0  # atno 17343 bound_to 10162
  157.1371  130.6127  149.5545 LP  0  0  0  0  0  0  0  0  0  0  0  0  # atno 17370 bound_to 10713
  155.9861  130.4894  150.7062 LP  0  0  0  0  0  0  0  0  0  0  0  0  # atno 17371 bound_to 10713
  140.0816  134.5723  155.8535 LP  0  0  0  0  0  0  0  0  0  0  0  0  # atno 17394 bound_to 11000
  141.2049  133.6643  156.6152 LP  0  0  0  0  0  0  0  0  0  0  0  0  # atno 17395 bound_to 11000

$$$$
