AV-unprocessed.smi:1240|AV-procd|sdf|5205|dock9
  -GOLD-   22720 4293D 1   1.00000     0.00000
 Structure written by MMmdl.
 48 50  0  0  0  0  0  0  0  0  2 V2000
  147.2881  131.9959  152.8030 O   0  0  0  0  0  0  0  0  0  0  0  0
  147.7408  133.1399  152.7670 C   0  0  0  0  0  0  0  0  0  0  0  0
  148.9037  133.4916  153.3330 N   0  0  0  0  0  0  0  0  0  0  0  0
  149.7883  132.5864  154.0630 C   0  0  0  0  0  0  0  0  0  0  0  0
  149.0988  131.8742  155.2699 C   0  0  2  0  0  0  0  0  0  0  0  0
  148.6961  132.9502  156.3362 C   0  0  1  0  0  0  0  0  0  0  0  0
  148.0923  132.5169  157.6612 C   0  0  0  0  0  0  0  0  0  0  0  0
  148.1594  133.8106  158.4634 C   0  0  0  0  0  0  0  0  0  0  0  0
  149.3683  134.4383  158.0492 O   0  0  0  0  0  0  0  0  0  0  0  0
  149.8346  133.8467  156.8384 C   0  0  0  0  0  0  0  0  0  0  0  0
  149.8512  130.7259  155.8369 N   0  0  0  0  0  0  0  0  0  0  0  0
  150.1507  129.7128  154.8159 C   0  0  0  0  0  0  0  0  0  0  0  0
  150.8305  128.4699  155.4124 C   0  0  0  0  0  0  0  0  0  0  0  0
  152.0407  128.8593  156.0498 O   0  0  0  0  0  0  0  0  0  0  0  0
  151.8307  129.8309  157.0670 C   0  0  0  0  0  0  0  0  0  0  0  0
  151.1261  131.0665  156.4771 C   0  0  0  0  0  0  0  0  0  0  0  0
  147.1410  134.1944  152.1876 N   0  0  0  0  0  0  0  0  0  0  0  0
  145.8956  134.2361  151.5032 C   0  0  0  0  0  0  0  0  0  0  0  0
  145.2401  133.0082  151.2616 C   0  0  0  0  0  0  0  0  0  0  0  0
  143.9972  133.0023  150.5960 C   0  0  0  0  0  0  0  0  0  0  0  0
  143.4383  134.1675  150.2051 N   0  3  0  0  0  0  0  0  0  0  0  0
  144.0182  135.3664  150.4274 C   0  0  0  0  0  0  0  0  0  0  0  0
  145.2617  135.4353  151.0881 C   0  0  0  0  0  0  0  0  0  0  0  0
  149.2010  134.4537  153.2597 H   0  0  0  0  0  0  0  0  0  0  0  0
  150.1661  131.8608  153.3414 H   0  0  0  0  0  0  0  0  0  0  0  0
  150.6523  133.1602  154.3989 H   0  0  0  0  0  0  0  0  0  0  0  0
  148.1661  131.4741  154.8695 H   0  0  0  0  0  0  0  0  0  0  0  0
  147.9521  133.6029  155.8767 H   0  0  0  0  0  0  0  0  0  0  0  0
  147.0796  132.1228  157.5724 H   0  0  0  0  0  0  0  0  0  0  0  0
  148.7206  131.7821  158.1643 H   0  0  0  0  0  0  0  0  0  0  0  0
  147.3204  134.4608  158.2125 H   0  0  0  0  0  0  0  0  0  0  0  0
  148.1458  133.6376  159.5396 H   0  0  0  0  0  0  0  0  0  0  0  0
  150.7238  133.2557  157.0613 H   0  0  0  0  0  0  0  0  0  0  0  0
  150.1121  134.6161  156.1175 H   0  0  0  0  0  0  0  0  0  0  0  0
  149.2647  129.3992  154.2739 H   0  0  0  0  0  0  0  0  0  0  0  0
  150.8107  130.1430  154.0609 H   0  0  0  0  0  0  0  0  0  0  0  0
  150.1721  127.9725  156.1263 H   0  0  0  0  0  0  0  0  0  0  0  0
  151.0588  127.7485  154.6276 H   0  0  0  0  0  0  0  0  0  0  0  0
  151.2361  129.3979  157.8730 H   0  0  0  0  0  0  0  0  0  0  0  0
  152.7933  130.1113  157.4946 H   0  0  0  0  0  0  0  0  0  0  0  0
  151.7876  131.5539  155.7592 H   0  0  0  0  0  0  0  0  0  0  0  0
  150.9653  131.7686  157.2947 H   0  0  0  0  0  0  0  0  0  0  0  0
  147.5989  135.0856  152.3102 H   0  0  0  0  0  0  0  0  0  0  0  0
  145.6865  132.0756  151.5757 H   0  0  0  0  0  0  0  0  0  0  0  0
  143.4369  132.1073  150.3679 H   0  0  0  0  0  0  0  0  0  0  0  0
  143.4713  136.2298  150.0776 H   0  0  0  0  0  0  0  0  0  0  0  0
  145.6975  136.4053  151.2725 H   0  0  0  0  0  0  0  0  0  0  0  0
  142.5376  134.1418  149.7261 H   0  0  0  0  0  0  0  0  0  0  0  0
  1  2  2  0  0  0  0
  2  3  1  0  0  0  0
  2 17  1  0  0  0  0
  3  4  1  0  0  0  0
  3 24  1  0  0  0  0
  4  5  1  0  0  0  0
  4 25  1  0  0  0  0
  4 26  1  0  0  0  0
  5  6  1  0  0  0  0
  5 11  1  0  0  0  0
  5 27  1  0  0  0  0
  6 10  1  0  0  0  0
  6  7  1  0  0  0  0
  6 28  1  0  0  0  0
  7  8  1  0  0  0  0
  7 29  1  0  0  0  0
  7 30  1  0  0  0  0
  8  9  1  0  0  0  0
  8 31  1  0  0  0  0
  8 32  1  0  0  0  0
  9 10  1  0  0  0  0
 10 33  1  0  0  0  0
 10 34  1  0  0  0  0
 11 16  1  0  0  0  0
 11 12  1  0  0  0  0
 12 13  1  0  0  0  0
 12 35  1  0  0  0  0
 12 36  1  0  0  0  0
 13 14  1  0  0  0  0
 13 37  1  0  0  0  0
 13 38  1  0  0  0  0
 14 15  1  0  0  0  0
 15 16  1  0  0  0  0
 15 39  1  0  0  0  0
 15 40  1  0  0  0  0
 16 41  1  0  0  0  0
 16 42  1  0  0  0  0
 17 18  1  0  0  0  0
 17 43  1  0  0  0  0
 18 23  1  0  0  0  0
 18 19  2  0  0  0  0
 19 20  1  0  0  0  0
 19 44  1  0  0  0  0
 20 21  2  0  0  0  0
 20 45  1  0  0  0  0
 21 22  1  0  0  0  0
 21 48  1  0  0  0  0
 22 23  2  0  0  0  0
 22 46  1  0  0  0  0
 23 47  1  0  0  0  0
M  CHG  1  21   1
M  END
> <s_m_source_file>
AV-unprocessed.smi

> <i_m_source_file_index>
1240

> <i_lp_mmshare_version>
43012

> <i_f3d_flags>
0

> <s_epik_input>
W2NIXTFbY0hdbltjSF1bY0hdYzFbTkhdQyg9TylbTkhdW0NIMl1bQ0BIXShbQ0BASF0yW0NIMl1bQ0gyXU9bQ0gyXTIpTjNbQ0gyXVtDSDJdT1tDSDJdW0NIMl0z

> <s_epik_cmdline>
J2VwaWtfcHl0aG9uJywgJy1waCcsICc3LjAnLCAnLXRuJywgJzgnLCAnLW1hJywgJzIwMCcsICctbWV0YWxfYmluZGluZycsICctaW1hZScsICc8aW5maWxlLm1hZT4nLCAnLW9tYWUnLCAnPG91dGZpbGUubWFlPic=

> <r_epik_Ionization_Penalty>
1.15944

> <r_epik_Ionization_Penalty_Charging>
1.0344

> <r_epik_Ionization_Penalty_Neutral>
0.125034

> <r_epik_State_Penalty>
1.2199

> <r_epik_Charging_Adjusted_Penalty>
2.25431

> <i_epik_Tot_Q>
1

> <i_epik_Tot_abs_Q>
1

> <r_epik_Metal_State_Penalty>
1.3155

> <b_epik_Metal_Only>
0

> <s_lp_Force_Field>
OPLS_2005

> <r_lp_Energy>
67.1195

> <b_lp_Chiralities_Consistent>
1

> <s_lp_Variant>
AV-unprocessed.smi:1240-11

> <Gold.Version>
5.8.1

> <Gold.Id.Protein>
6NUR|6NUR_protein|mol2

> <Gold.PLP.Fitness>
41.6003

> <Gold.PLP.PLP>
-29.5311

> <Gold.PLP.part.hbond>
-4.0000

> <Gold.PLP.part.metal>
0.0000

> <Gold.PLP.part.buried>
-4.4622

> <Gold.PLP.part.nonpolar>
-21.2497

> <Gold.PLP.part.repulsive>
0.2096

> <Gold.PLP.ligand.clash>
0.0000

> <Gold.PLP.ligand.torsion>
0.1943

> <Gold.PLP.Chemscore.Hbond>
4.0906

> <Gold.PLP.Chemscore.CHOScore>
0.0000

> <Gold.PLP.Chemscore.Metal>
0.0000

> <Gold.Chemscore.Hbonds>
donor molecule, donor type, donor heavy atom, donor atom, acceptor molecule, acceptor atom, score
      L1  H     3    24       P1  7948  0.18
      L1  H    17    43       P1  7948  0.94
      L1  H    21    48       P1 10186  2.00
      P1  H  6896  6908       L1     9  1.00

> <Gold.PLP.Chemscore.Internal.Correction>
0.1860

> <Gold.Rescore>
     Score         DG    S(hbond)    S(metal)    S(lipo)     H(rot)  DE(clash)    DE(int)     intcor
     16.38     -18.05       2.65        0.00      68.82       1.69       0.03       1.65       ----

> <Gold.Chemscore.Fitness>
16.3751

> <Gold.Chemscore.DG>
-18.0533

> <Gold.Chemscore.ZeroCoef>
-5.4800

> <Gold.Chemscore.Hbond>
2.6498

> <Gold.Chemscore.Metal>
0.0000

> <Gold.Chemscore.Lipo>
68.8244

> <Gold.Chemscore.Internal_Hbond>
0.0000

> <Gold.Chemscore.DEClash>
0.0275

> <Gold.Chemscore.DEInternal>
1.6507

> <Gold.Chemscore.Rot>
1.6912

> <Gold.Chemscore.Internal.Correction>
   9.000000E+99

> <Gold.Chemscore.Hbonds>
donor molecule, donor type, donor heavy atom, donor atom, acceptor molecule, acceptor atom, score
      L1  H     3    24       P1  7948  0.01
      L1  H    17    43       P1  7948  0.89
      L1  H    21    48       P1 10186  0.95
      P1  H  6896  6908       L1     9  0.52

> <Gold.Chemscore.Hbond.Weighted>
-8.8503

> <Gold.Chemscore.Metal.Weighted>
-0.0000

> <Gold.Chemscore.Lipo.Weighted>
-8.0525

> <Gold.Chemscore.Internal_Hbond.Weighted>
0.0000

> <Gold.Chemscore.DEClash.Weighted>
0.0275

> <Gold.Chemscore.DEInternal.Weighted>
1.6507

> <Gold.Chemscore.Rot.Weighted>
4.3295

> <Gold.Chemscore.Internal.Correction.Weighted>
   9.000000E+99

> <Gold.Protein.RotatedTorsions>
[ 6907 6896 6895 6894 ] final  148.93 input  -60.11 | X-H torsion
[ 7974 7965 7964 7962 ] final  165.39 input  175.53 | X-H torsion
[ 8008 7997 7996 7995 ] final  126.15 input   59.86 | X-H torsion
[ 10167 10162 10161 10158 ] final   23.17 input  -65.29 | X-H torsion
[ 10718 10713 10712 10709 ] final   78.01 input   66.30 | X-H torsion
[ 10763 10752 10751 10750 ] final   47.50 input  -60.55 | X-H torsion
[ 11005 11000 10999 10996 ] final   38.73 input  -57.11 | X-H torsion

> <Gold.Protein.ActiveResidues>
 VAL166  LYS551  ARG553  GLY616  TRP617  ASP618  TYR619  PRO620  LYS621  CYS622 
 ASP623  PHE694  ASN695  SER759  ASP760  ASP761  ALA762  ILE779  LEU786  VAL792 
 PHE793  MET794  SER795  GLU796  ALA797  LYS798  CYS799  TRP800  GLU811  SER814 

> <Gold.Protein.RotatedAtoms>
  152.1349  133.4429  159.4738 H   0  0  0  0  0  0  0  0  0  0  0  0  # atno 6907 bound_to 6896
  150.6881  134.2375  159.4468 H   0  0  0  0  0  0  0  0  0  0  0  0  # atno 6908 bound_to 6896
  152.0262  134.9794  160.0622 H   0  0  0  0  0  0  0  0  0  0  0  0  # atno 6909 bound_to 6896
  144.7505  139.8463  143.6368 H   0  0  0  0  0  0  0  0  0  0  0  0  # atno 7974 bound_to 7965
  156.2855  140.2699  156.2064 H   0  0  0  0  0  0  0  0  0  0  0  0  # atno 8008 bound_to 7997
  155.0308  140.0386  157.2491 H   0  0  0  0  0  0  0  0  0  0  0  0  # atno 8009 bound_to 7997
  154.7356  140.2715  155.6423 H   0  0  0  0  0  0  0  0  0  0  0  0  # atno 8010 bound_to 7997
  140.5290  143.9874  150.6455 H   0  0  0  0  0  0  0  0  0  0  0  0  # atno 10167 bound_to 10162
  157.6730  130.9848  150.1724 H   0  0  0  0  0  0  0  0  0  0  0  0  # atno 10718 bound_to 10713
  152.9799  135.5974  154.3772 H   0  0  0  0  0  0  0  0  0  0  0  0  # atno 10763 bound_to 10752
  154.3440  135.2767  155.2409 H   0  0  0  0  0  0  0  0  0  0  0  0  # atno 10764 bound_to 10752
  154.4478  135.5997  153.6226 H   0  0  0  0  0  0  0  0  0  0  0  0  # atno 10765 bound_to 10752
  140.2097  134.3770  155.8055 H   0  0  0  0  0  0  0  0  0  0  0  0  # atno 11005 bound_to 11000
  146.1447  139.4513  143.0086 LP  0  0  0  0  0  0  0  0  0  0  0  0  # atno 17320 bound_to 7965
  145.6963  141.0149  143.1528 LP  0  0  0  0  0  0  0  0  0  0  0  0  # atno 17321 bound_to 7965
  140.3244  143.3117  152.0752 LP  0  0  0  0  0  0  0  0  0  0  0  0  # atno 17342 bound_to 10162
  139.4948  144.6552  151.6588 LP  0  0  0  0  0  0  0  0  0  0  0  0  # atno 17343 bound_to 10162
  156.2475  130.3697  149.8268 LP  0  0  0  0  0  0  0  0  0  0  0  0  # atno 17370 bound_to 10713
  156.6051  130.8563  151.3441 LP  0  0  0  0  0  0  0  0  0  0  0  0  # atno 17371 bound_to 10713
  141.2226  133.7136  156.8397 LP  0  0  0  0  0  0  0  0  0  0  0  0  # atno 17394 bound_to 11000
  140.1964  134.8928  157.3119 LP  0  0  0  0  0  0  0  0  0  0  0  0  # atno 17395 bound_to 11000

$$$$
