AV-unprocessed.smi:634|AV-procd|sdf|3137|dock1
  -GOLD-   22720 0 63D 1   1.00000     0.00000
 Structure written by MMmdl.
 32 33  0  0  0  0  0  0  0  0  2 V2000
  146.4716  134.6543  162.7150 C   0  0  0  0  0  0  0  0  0  0  0  0
  146.9954  135.4684  161.5823 C   0  0  0  0  0  0  0  0  0  0  0  0
  147.5861  135.1394  160.3948 C   0  0  0  0  0  0  0  0  0  0  0  0
  147.8356  136.4043  159.7985 C   0  0  0  0  0  0  0  0  0  0  0  0
  148.4605  136.4941  158.5268 N   0  0  0  0  0  0  0  0  0  0  0  0
  149.1596  135.5560  157.8630 C   0  0  0  0  0  0  0  0  0  0  0  0
  149.3539  134.4459  158.3694 O   0  0  0  0  0  0  0  0  0  0  0  0
  149.5809  135.9961  156.6438 N   0  5  0  0  0  0  0  0  0  0  0  0
  150.8115  136.7444  156.3268 C   0  0  1  0  0  0  0  0  0  0  0  0
  151.9817  135.9504  156.9441 C   0  0  0  0  0  0  0  0  0  0  0  0
  151.0301  136.8825  154.7954 C   0  0  0  0  0  0  0  0  0  0  0  0
  152.0988  137.9544  154.5267 C   0  0  0  0  0  0  0  0  0  0  0  0
  151.9608  139.1639  155.8995 S   0  0  0  0  0  0  0  0  0  0  0  0
  153.2571  139.2517  156.5905 O   0  0  0  0  0  0  0  0  0  0  0  0
  151.2827  140.3779  155.4190 O   0  0  0  0  0  0  0  0  0  0  0  0
  150.7859  138.1768  156.9102 C   0  0  0  0  0  0  0  0  0  0  0  0
  147.4297  137.4142  160.5544 N   0  0  0  0  0  0  0  0  0  0  0  0
  146.8897  136.8197  161.7009 O   0  0  0  0  0  0  0  0  0  0  0  0
  146.8046  133.6191  162.6374 H   0  0  0  0  0  0  0  0  0  0  0  0
  145.3818  134.6606  162.7221 H   0  0  0  0  0  0  0  0  0  0  0  0
  146.8195  135.0498  163.6694 H   0  0  0  0  0  0  0  0  0  0  0  0
  147.8063  134.1522  160.0161 H   0  0  0  0  0  0  0  0  0  0  0  0
  148.3531  137.3763  158.0486 H   0  0  0  0  0  0  0  0  0  0  0  0
  152.9419  136.4381  156.7764 H   0  0  0  0  0  0  0  0  0  0  0  0
  152.0491  134.9476  156.5202 H   0  0  0  0  0  0  0  0  0  0  0  0
  151.8615  135.8408  158.0228 H   0  0  0  0  0  0  0  0  0  0  0  0
  151.2954  135.9318  154.3316 H   0  0  0  0  0  0  0  0  0  0  0  0
  150.1130  137.2135  154.3090 H   0  0  0  0  0  0  0  0  0  0  0  0
  153.1032  137.5297  154.5444 H   0  0  0  0  0  0  0  0  0  0  0  0
  151.9555  138.4573  153.5703 H   0  0  0  0  0  0  0  0  0  0  0  0
  149.8098  138.6498  156.8090 H   0  0  0  0  0  0  0  0  0  0  0  0
  151.0694  138.2196  157.9620 H   0  0  0  0  0  0  0  0  0  0  0  0
  1  2  1  0  0  0  0
  1 19  1  0  0  0  0
  1 20  1  0  0  0  0
  1 21  1  0  0  0  0
  2 18  1  0  0  0  0
  2  3  2  0  0  0  0
  3  4  1  0  0  0  0
  3 22  1  0  0  0  0
  4  5  1  0  0  0  0
  4 17  2  0  0  0  0
  5  6  1  0  0  0  0
  5 23  1  0  0  0  0
  6  7  2  0  0  0  0
  6  8  1  0  0  0  0
  8  9  1  0  0  0  0
  9 16  1  0  0  0  0
  9 10  1  0  0  0  0
  9 11  1  0  0  0  0
 10 24  1  0  0  0  0
 10 25  1  0  0  0  0
 10 26  1  0  0  0  0
 11 12  1  0  0  0  0
 11 27  1  0  0  0  0
 11 28  1  0  0  0  0
 12 13  1  0  0  0  0
 12 29  1  0  0  0  0
 12 30  1  0  0  0  0
 13 14  2  0  0  0  0
 13 15  2  0  0  0  0
 13 16  1  0  0  0  0
 16 31  1  0  0  0  0
 16 32  1  0  0  0  0
 17 18  1  0  0  0  0
M  CHG  1   8  -1
M  END
> <s_m_source_file>
AV-unprocessed.smi

> <i_m_source_file_index>
634

> <i_lp_mmshare_version>
43012

> <i_f3d_flags>
0

> <s_epik_input>
W0NIM11jMVtjSF1jKG5vMSlbTkhdQyg9TylbTkhdW0NAQF0yKFtDSDNdKVtDSDJdW0NIMl1TKD1PKSg9TylbQ0gyXTI=

> <s_epik_cmdline>
J2VwaWtfcHl0aG9uJywgJy1waCcsICc3LjAnLCAnLXRuJywgJzgnLCAnLW1hJywgJzIwMCcsICctbWV0YWxfYmluZGluZycsICctaW1hZScsICc8aW5maWxlLm1hZT4nLCAnLW9tYWUnLCAnPG91dGZpbGUubWFlPic=

> <r_lp_tautomer_probability>
1

> <r_epik_Ionization_Penalty>
6.62388

> <r_epik_Ionization_Penalty_Charging>
6.62387

> <r_epik_Ionization_Penalty_Neutral>
5.45748e-06

> <r_epik_State_Penalty>
6.65157

> <r_epik_Charging_Adjusted_Penalty>
13.2754

> <i_epik_Tot_Q>
-1

> <i_epik_Tot_abs_Q>
1

> <r_epik_Metal_State_Penalty>
2.59195

> <b_epik_Metal_Only>
1

> <s_lp_Force_Field>
OPLS_2005

> <r_lp_Energy>
8.12985

> <b_lp_Chiralities_Consistent>
1

> <s_lp_Variant>
AV-unprocessed.smi:634-5

> <Gold.Version>
5.8.1

> <Gold.Id.Protein>
6NUR|6NUR_protein|mol2

> <Gold.PLP.Fitness>
36.7812

> <Gold.PLP.PLP>
-26.4083

> <Gold.PLP.part.hbond>
-5.2452

> <Gold.PLP.part.metal>
0.0000

> <Gold.PLP.part.buried>
-3.5449

> <Gold.PLP.part.nonpolar>
-18.3949

> <Gold.PLP.part.repulsive>
0.1539

> <Gold.PLP.ligand.clash>
0.0000

> <Gold.PLP.ligand.torsion>
0.9049

> <Gold.PLP.Chemscore.Hbond>
4.0575

> <Gold.PLP.Chemscore.CHOScore>
0.0000

> <Gold.PLP.Chemscore.Metal>
0.0000

> <Gold.Chemscore.Hbonds>
donor molecule, donor type, donor heavy atom, donor atom, acceptor molecule, acceptor atom, score
      P1  H  6896  6907       L1     7  1.00
      P1  H  6931  6943       L1    17  0.10
      P1  H  6934  6947       L1    17  1.00
      P1  H  7989  7998       L1    15  0.94
      P1  H  7997  8008       L1    14  0.68

> <Gold.PLP.Chemscore.Internal.Correction>
0.0101

> <Gold.Rescore>
     Score         DG    S(hbond)    S(metal)    S(lipo)     H(rot)  DE(clash)    DE(int)     intcor
     20.34     -23.15       4.42        0.00      46.62       1.00       0.01       2.80       ----

> <Gold.Chemscore.Fitness>
20.3380

> <Gold.Chemscore.DG>
-23.1495

> <Gold.Chemscore.ZeroCoef>
-5.4800

> <Gold.Chemscore.Hbond>
4.4238

> <Gold.Chemscore.Metal>
0.0000

> <Gold.Chemscore.Lipo>
46.6163

> <Gold.Chemscore.Internal_Hbond>
0.0000

> <Gold.Chemscore.DEClash>
0.0141

> <Gold.Chemscore.DEInternal>
2.7974

> <Gold.Chemscore.Rot>
1.0000

> <Gold.Chemscore.Internal.Correction>
   9.000000E+99

> <Gold.Chemscore.Hbonds>
donor molecule, donor type, donor heavy atom, donor atom, acceptor molecule, acceptor atom, score
      P1  H  6896  6907       L1     7  0.99
      P1  H  6934  6947       L1    17  0.25
      P1  H  7989  7998       L1    15  0.80
      P1  H  7997  8008       L1    14  0.66

> <Gold.Chemscore.Hbond.Weighted>
-14.7754

> <Gold.Chemscore.Metal.Weighted>
-0.0000

> <Gold.Chemscore.Lipo.Weighted>
-5.4541

> <Gold.Chemscore.Internal_Hbond.Weighted>
0.0000

> <Gold.Chemscore.DEClash.Weighted>
0.0141

> <Gold.Chemscore.DEInternal.Weighted>
2.7974

> <Gold.Chemscore.Rot.Weighted>
2.5600

> <Gold.Chemscore.Internal.Correction.Weighted>
   9.000000E+99

> <Gold.Protein.RotatedTorsions>
[ 6907 6896 6895 6894 ] final -104.54 input  -60.11 | X-H torsion
[ 7974 7965 7964 7962 ] final  -81.55 input  175.53 | X-H torsion
[ 8008 7997 7996 7995 ] final  -63.90 input   59.86 | X-H torsion
[ 10167 10162 10161 10158 ] final   32.34 input  -65.29 | X-H torsion
[ 10718 10713 10712 10709 ] final  -40.40 input   66.30 | X-H torsion
[ 10763 10752 10751 10750 ] final  -83.06 input  -60.55 | X-H torsion
[ 11005 11000 10999 10996 ] final   40.32 input  -57.11 | X-H torsion

> <Gold.Protein.ActiveResidues>
 VAL166  LYS551  ARG553  GLY616  TRP617  ASP618  TYR619  PRO620  LYS621  CYS622 
 ASP623  PHE694  ASN695  SER759  ASP760  ASP761  ALA762  ILE779  LEU786  VAL792 
 PHE793  MET794  SER795  GLU796  ALA797  LYS798  CYS799  TRP800  GLU811  SER814 

> <Gold.Protein.RotatedAtoms>
  150.7292  134.0262  159.3717 H   0  0  0  0  0  0  0  0  0  0  0  0  # atno 6907 bound_to 6896
  151.8229  135.0644  160.0436 H   0  0  0  0  0  0  0  0  0  0  0  0  # atno 6908 bound_to 6896
  152.2990  133.5600  159.5642 H   0  0  0  0  0  0  0  0  0  0  0  0  # atno 6909 bound_to 6896
  145.5452  140.9504  143.1529 H   0  0  0  0  0  0  0  0  0  0  0  0  # atno 7974 bound_to 7965
  154.4580  140.0965  156.6814 H   0  0  0  0  0  0  0  0  0  0  0  0  # atno 8008 bound_to 7997
  155.5078  140.3475  155.4364 H   0  0  0  0  0  0  0  0  0  0  0  0  # atno 8009 bound_to 7997
  156.0816  140.1374  156.9693 H   0  0  0  0  0  0  0  0  0  0  0  0  # atno 8010 bound_to 7997
  140.4507  144.1052  150.6191 H   0  0  0  0  0  0  0  0  0  0  0  0  # atno 10167 bound_to 10162
  156.2817  130.4218  149.8329 H   0  0  0  0  0  0  0  0  0  0  0  0  # atno 10718 bound_to 10713
  154.5832  135.5569  153.7206 H   0  0  0  0  0  0  0  0  0  0  0  0  # atno 10763 bound_to 10752
  153.0089  135.6325  154.1952 H   0  0  0  0  0  0  0  0  0  0  0  0  # atno 10764 bound_to 10752
  154.1893  135.2883  155.3007 H   0  0  0  0  0  0  0  0  0  0  0  0  # atno 10765 bound_to 10752
  140.1942  134.3949  155.8130 H   0  0  0  0  0  0  0  0  0  0  0  0  # atno 11005 bound_to 11000
  144.7557  139.7081  143.7255 LP  0  0  0  0  0  0  0  0  0  0  0  0  # atno 17320 bound_to 7965
  146.1954  139.5218  142.9778 LP  0  0  0  0  0  0  0  0  0  0  0  0  # atno 17321 bound_to 7965
  140.4210  143.2611  151.9715 LP  0  0  0  0  0  0  0  0  0  0  0  0  # atno 17342 bound_to 10162
  139.4796  144.5830  151.7900 LP  0  0  0  0  0  0  0  0  0  0  0  0  # atno 17343 bound_to 10162
  156.5774  130.8451  151.3373 LP  0  0  0  0  0  0  0  0  0  0  0  0  # atno 17370 bound_to 10713
  157.7316  130.9703  150.1890 LP  0  0  0  0  0  0  0  0  0  0  0  0  # atno 17371 bound_to 10713
  141.2227  133.7061  156.8147 LP  0  0  0  0  0  0  0  0  0  0  0  0  # atno 17394 bound_to 11000
  140.2126  134.8816  157.3291 LP  0  0  0  0  0  0  0  0  0  0  0  0  # atno 17395 bound_to 11000

$$$$
