AV-unprocessed.smi:1661|AV-procd|sdf|6653|dock5
  -GOLD-   22720 7363D 1   1.00000     0.00000
 Structure written by MMmdl.
 38 39  0  0  0  0  0  0  0  0  2 V2000
  143.9745  132.2174  149.6881 C   0  0  0  0  0  0  0  0  0  0  0  0
  144.8861  132.3483  150.9162 C   0  0  2  0  0  0  0  0  0  0  0  0
  146.1747  133.1215  150.5901 C   0  0  0  0  0  0  0  0  0  0  0  0
  147.0946  133.2187  151.8188 C   0  0  0  0  0  0  0  0  0  0  0  0
  147.4234  131.8717  152.3526 N   0  3  1  0  0  0  0  0  0  0  0  0
  148.4119  131.9328  153.4581 C   0  0  0  0  0  0  0  0  0  0  0  0
  148.0494  132.9978  154.5117 C   0  0  0  0  0  0  0  0  0  0  0  0
  148.7092  134.2692  154.2379 N   0  0  0  0  0  0  0  0  0  0  0  0
  149.5786  134.8708  155.0630 C   0  0  0  0  0  0  0  0  0  0  0  0
  149.9025  134.4058  156.1563 O   0  0  0  0  0  0  0  0  0  0  0  0
  150.0320  136.0241  154.5411 N   0  0  0  0  0  0  0  0  0  0  0  0
  150.9544  136.9431  155.1082 C   0  0  0  0  0  0  0  0  0  0  0  0
  151.7663  136.6448  156.1347 N   0  0  0  0  0  0  0  0  0  0  0  0
  152.5653  137.7222  156.4952 N   0  0  0  0  0  0  0  0  0  0  0  0
  152.3253  138.7890  155.7274 C   0  0  0  0  0  0  0  0  0  0  0  0
  151.0996  138.5816  154.4884 S   0  0  0  0  0  0  0  0  0  0  0  0
  146.1934  131.1153  152.7105 C   0  0  0  0  0  0  0  0  0  0  0  0
  145.2554  130.9745  151.5001 C   0  0  0  0  0  0  0  0  0  0  0  0
  144.4651  131.6664  148.8851 H   0  0  0  0  0  0  0  0  0  0  0  0
  143.6976  133.1973  149.2982 H   0  0  0  0  0  0  0  0  0  0  0  0
  143.0529  131.6911  149.9381 H   0  0  0  0  0  0  0  0  0  0  0  0
  144.3387  132.9056  151.6779 H   0  0  0  0  0  0  0  0  0  0  0  0
  146.7070  132.6284  149.7753 H   0  0  0  0  0  0  0  0  0  0  0  0
  145.9295  134.1235  150.2363 H   0  0  0  0  0  0  0  0  0  0  0  0
  148.0112  133.7375  151.5355 H   0  0  0  0  0  0  0  0  0  0  0  0
  146.6203  133.8155  152.5996 H   0  0  0  0  0  0  0  0  0  0  0  0
  148.4523  130.9653  153.9608 H   0  0  0  0  0  0  0  0  0  0  0  0
  149.4076  132.1048  153.0460 H   0  0  0  0  0  0  0  0  0  0  0  0
  146.9728  133.1615  154.5642 H   0  0  0  0  0  0  0  0  0  0  0  0
  148.3598  132.6614  155.5012 H   0  0  0  0  0  0  0  0  0  0  0  0
  148.4984  134.7147  153.3566 H   0  0  0  0  0  0  0  0  0  0  0  0
  149.6768  136.2762  153.6306 H   0  0  0  0  0  0  0  0  0  0  0  0
  152.8743  139.7044  155.8918 H   0  0  0  0  0  0  0  0  0  0  0  0
  146.4490  130.1206  153.0733 H   0  0  0  0  0  0  0  0  0  0  0  0
  145.6766  131.6230  153.5268 H   0  0  0  0  0  0  0  0  0  0  0  0
  144.3520  130.4410  151.7981 H   0  0  0  0  0  0  0  0  0  0  0  0
  145.7369  130.3629  150.7356 H   0  0  0  0  0  0  0  0  0  0  0  0
  147.8690  131.3719  151.5966 H   0  0  0  0  0  0  0  0  0  0  0  0
  1  2  1  0  0  0  0
  1 19  1  0  0  0  0
  1 20  1  0  0  0  0
  1 21  1  0  0  0  0
  2 18  1  0  0  0  0
  2  3  1  0  0  0  0
  2 22  1  0  0  0  0
  3  4  1  0  0  0  0
  3 23  1  0  0  0  0
  3 24  1  0  0  0  0
  4  5  1  0  0  0  0
  4 25  1  0  0  0  0
  4 26  1  0  0  0  0
  5  6  1  0  0  0  0
  5 17  1  0  0  0  0
  5 38  1  0  0  0  0
  6  7  1  0  0  0  0
  6 27  1  0  0  0  0
  6 28  1  0  0  0  0
  7  8  1  0  0  0  0
  7 29  1  0  0  0  0
  7 30  1  0  0  0  0
  8  9  1  0  0  0  0
  8 31  1  0  0  0  0
  9 10  2  0  0  0  0
  9 11  1  0  0  0  0
 11 12  1  0  0  0  0
 11 32  1  0  0  0  0
 12 16  1  0  0  0  0
 12 13  2  0  0  0  0
 13 14  1  0  0  0  0
 14 15  2  0  0  0  0
 15 16  1  0  0  0  0
 15 33  1  0  0  0  0
 17 18  1  0  0  0  0
 17 34  1  0  0  0  0
 17 35  1  0  0  0  0
 18 36  1  0  0  0  0
 18 37  1  0  0  0  0
M  CHG  1   5   1
M  END
> <s_m_source_file>
AV-unprocessed.smi

> <i_m_source_file_index>
1661

> <i_lp_mmshare_version>
43012

> <i_f3d_flags>
0

> <s_epik_input>
W0NIM11bQ0hdMVtDSDJdW0NIMl1OKFtDSDJdW0NIMl0xKVtDSDJdW0NIMl1bTkhdQyg9TylbTkhdYzJubltjSF1zMg==

> <s_epik_cmdline>
J2VwaWtfcHl0aG9uJywgJy1waCcsICc3LjAnLCAnLXRuJywgJzgnLCAnLW1hJywgJzIwMCcsICctbWV0YWxfYmluZGluZycsICctaW1hZScsICc8aW5maWxlLm1hZT4nLCAnLW9tYWUnLCAnPG91dGZpbGUubWFlPic=

> <r_lp_tautomer_probability>
1

> <r_epik_Ionization_Penalty>
0.0053917

> <r_epik_Ionization_Penalty_Charging>
0.00168873

> <r_epik_Ionization_Penalty_Neutral>
0.00370297

> <r_epik_State_Penalty>
-0

> <r_epik_Charging_Adjusted_Penalty>
0.00168873

> <i_epik_Tot_Q>
1

> <i_epik_Tot_abs_Q>
1

> <r_epik_Metal_State_Penalty>
0.36997

> <b_epik_Metal_Only>
0

> <s_lp_Force_Field>
OPLS_2005

> <r_lp_Energy>
14.0049

> <b_lp_Chiralities_Consistent>
1

> <s_lp_Variant>
AV-unprocessed.smi:1661-1

> <Gold.Version>
5.8.1

> <Gold.Id.Protein>
6NUR|6NUR_protein|mol2

> <Gold.PLP.Fitness>
47.2783

> <Gold.PLP.PLP>
-36.2704

> <Gold.PLP.part.hbond>
-4.9543

> <Gold.PLP.part.metal>
0.0000

> <Gold.PLP.part.buried>
-4.4253

> <Gold.PLP.part.nonpolar>
-26.9082

> <Gold.PLP.part.repulsive>
0.1399

> <Gold.PLP.ligand.clash>
0.0000

> <Gold.PLP.ligand.torsion>
0.4121

> <Gold.PLP.Chemscore.Hbond>
3.9360

> <Gold.PLP.Chemscore.CHOScore>
0.0000

> <Gold.PLP.Chemscore.Metal>
0.0000

> <Gold.Chemscore.Hbonds>
donor molecule, donor type, donor heavy atom, donor atom, acceptor molecule, acceptor atom, score
      L1  H     5    38       P1 10747  1.00
      L1  H     8    31       P1  7948  0.71
      L1  H    11    32       P1  7948  1.00
      P1  H 10752 10764       L1    13  0.45

> <Gold.PLP.Chemscore.Internal.Correction>
0.0241

> <Gold.Rescore>
     Score         DG    S(hbond)    S(metal)    S(lipo)     H(rot)  DE(clash)    DE(int)     intcor
     17.68     -19.31       2.93        0.00      71.73       1.70       0.12       1.51       ----

> <Gold.Chemscore.Fitness>
17.6793

> <Gold.Chemscore.DG>
-19.3069

> <Gold.Chemscore.ZeroCoef>
-5.4800

> <Gold.Chemscore.Hbond>
2.9336

> <Gold.Chemscore.Metal>
0.0000

> <Gold.Chemscore.Lipo>
71.7314

> <Gold.Chemscore.Internal_Hbond>
0.0000

> <Gold.Chemscore.DEClash>
0.1163

> <Gold.Chemscore.DEInternal>
1.5113

> <Gold.Chemscore.Rot>
1.7046

> <Gold.Chemscore.Internal.Correction>
   9.000000E+99

> <Gold.Chemscore.Hbonds>
donor molecule, donor type, donor heavy atom, donor atom, acceptor molecule, acceptor atom, score
      L1  H     5    38       P1 10747  1.00
      L1  H     8    31       P1  7948  0.40
      L1  H    11    32       P1  7948  0.40
      P1  H 10752 10764       L1    13  0.01

> <Gold.Chemscore.Hbond.Weighted>
-9.7981

> <Gold.Chemscore.Metal.Weighted>
-0.0000

> <Gold.Chemscore.Lipo.Weighted>
-8.3926

> <Gold.Chemscore.Internal_Hbond.Weighted>
0.0000

> <Gold.Chemscore.DEClash.Weighted>
0.1163

> <Gold.Chemscore.DEInternal.Weighted>
1.5113

> <Gold.Chemscore.Rot.Weighted>
4.3638

> <Gold.Chemscore.Internal.Correction.Weighted>
   9.000000E+99

> <Gold.Protein.RotatedTorsions>
[ 6907 6896 6895 6894 ] final  105.53 input  -60.11 | X-H torsion
[ 7974 7965 7964 7962 ] final   49.95 input  175.53 | X-H torsion
[ 8008 7997 7996 7995 ] final -162.78 input   59.86 | X-H torsion
[ 10167 10162 10161 10158 ] final   34.74 input  -65.29 | X-H torsion
[ 10718 10713 10712 10709 ] final  118.91 input   66.30 | X-H torsion
[ 10763 10752 10751 10750 ] final  -44.50 input  -60.55 | X-H torsion
[ 11005 11000 10999 10996 ] final  146.55 input  -57.11 | X-H torsion

> <Gold.Protein.ActiveResidues>
 VAL166  LYS551  ARG553  GLY616  TRP617  ASP618  TYR619  PRO620  LYS621  CYS622 
 ASP623  PHE694  ASN695  SER759  ASP760  ASP761  ALA762  ILE779  LEU786  VAL792 
 PHE793  MET794  SER795  GLU796  ALA797  LYS798  CYS799  TRP800  GLU811  SER814 

> <Gold.Protein.RotatedAtoms>
  152.5227  133.9515  159.7673 H   0  0  0  0  0  0  0  0  0  0  0  0  # atno 6907 bound_to 6896
  150.9824  133.6223  159.2727 H   0  0  0  0  0  0  0  0  0  0  0  0  # atno 6908 bound_to 6896
  151.3396  135.0866  159.9419 H   0  0  0  0  0  0  0  0  0  0  0  0  # atno 6909 bound_to 6896
  146.0059  139.4490  142.9986 H   0  0  0  0  0  0  0  0  0  0  0  0  # atno 7974 bound_to 7965
  155.8117  140.0906  157.1900 H   0  0  0  0  0  0  0  0  0  0  0  0  # atno 8008 bound_to 7997
  154.3980  140.1453  156.3454 H   0  0  0  0  0  0  0  0  0  0  0  0  # atno 8009 bound_to 7997
  155.8358  140.3441  155.5603 H   0  0  0  0  0  0  0  0  0  0  0  0  # atno 8010 bound_to 7997
  140.4287  144.1356  150.6156 H   0  0  0  0  0  0  0  0  0  0  0  0  # atno 10167 bound_to 10162
  157.5998  131.1052  150.7822 H   0  0  0  0  0  0  0  0  0  0  0  0  # atno 10718 bound_to 10713
  154.0131  135.6679  153.4767 H   0  0  0  0  0  0  0  0  0  0  0  0  # atno 10763 bound_to 10752
  153.0612  135.5027  154.8094 H   0  0  0  0  0  0  0  0  0  0  0  0  # atno 10764 bound_to 10752
  154.6983  135.3074  154.9343 H   0  0  0  0  0  0  0  0  0  0  0  0  # atno 10765 bound_to 10752
  140.0803  134.9101  157.1489 H   0  0  0  0  0  0  0  0  0  0  0  0  # atno 11005 bound_to 11000
  145.7416  141.0006  143.1298 LP  0  0  0  0  0  0  0  0  0  0  0  0  # atno 17320 bound_to 7965
  144.6935  139.9106  143.7463 LP  0  0  0  0  0  0  0  0  0  0  0  0  # atno 17321 bound_to 7965
  140.4452  143.2509  151.9421 LP  0  0  0  0  0  0  0  0  0  0  0  0  # atno 17342 bound_to 10162
  139.4784  144.5616  151.8230 LP  0  0  0  0  0  0  0  0  0  0  0  0  # atno 17343 bound_to 10162
  156.8224  130.4988  149.5341 LP  0  0  0  0  0  0  0  0  0  0  0  0  # atno 17370 bound_to 10713
  156.1069  130.6011  150.9984 LP  0  0  0  0  0  0  0  0  0  0  0  0  # atno 17371 bound_to 10713
  140.3498  134.2611  155.7200 LP  0  0  0  0  0  0  0  0  0  0  0  0  # atno 17394 bound_to 11000
  141.2044  133.7887  157.0289 LP  0  0  0  0  0  0  0  0  0  0  0  0  # atno 17395 bound_to 11000

$$$$
