AV-unprocessed.smi:72|AV-procd|sdf|697|dock7
  -GOLD-   2262017 13D 1   1.00000     0.00000
 Structure written by MMmdl.
 30 31  0  0  0  0  0  0  0  0  2 V2000
  147.9709  143.4975  158.4050 N   0  0  0  0  0  0  0  0  0  0  0  0
  148.3861  142.3035  157.8530 C   0  0  0  0  0  0  0  0  0  0  0  0
  149.1127  142.3571  156.6776 N   0  3  0  0  0  0  0  0  0  0  0  0
  149.5794  141.2938  156.0089 C   0  0  0  0  0  0  0  0  0  0  0  0
  149.3264  140.0840  156.4715 N   0  0  0  0  0  0  0  0  0  0  0  0
  149.8276  138.8386  155.7767 C   0  0  2  0  0  0  0  0  0  0  0  0
  150.8907  138.3274  156.5194 O   0  0  0  0  0  0  0  0  0  0  0  0
  152.1151  138.8290  155.9939 C   0  0  1  0  0  0  0  0  0  0  0  0
  153.3201  138.0338  156.5244 C   0  0  0  0  0  0  0  0  0  0  0  0
  153.1137  136.6546  156.3034 O   0  0  0  0  0  0  0  0  0  0  0  0
  151.8604  138.7357  154.4864 C   0  0  1  0  0  0  0  0  0  0  0  0
  152.0733  137.4096  154.0307 O   0  0  0  0  0  0  0  0  0  0  0  0
  150.3977  139.1705  154.3784 C   0  0  1  0  0  0  0  0  0  0  0  0
  149.7114  138.5237  153.3228 O   0  0  0  0  0  0  0  0  0  0  0  0
  148.6261  139.9320  157.6965 C   0  0  0  0  0  0  0  0  0  0  0  0
  148.4323  138.8115  158.1668 O   0  0  0  0  0  0  0  0  0  0  0  0
  148.1756  141.1043  158.3201 N   0  0  0  0  0  0  0  0  0  0  0  0
  148.9865  138.1429  155.7820 H   0  0  0  0  0  0  0  0  0  0  0  0
  152.2213  139.8839  156.2553 H   0  0  0  0  0  0  0  0  0  0  0  0
  152.5184  139.3979  153.9228 H   0  0  0  0  0  0  0  0  0  0  0  0
  150.3598  140.2484  154.2135 H   0  0  0  0  0  0  0  0  0  0  0  0
  147.4404  143.5549  159.2627 H   0  0  0  0  0  0  0  0  0  0  0  0
  148.1597  144.4034  158.0003 H   0  0  0  0  0  0  0  0  0  0  0  0
  150.1587  141.4609  155.1105 H   0  0  0  0  0  0  0  0  0  0  0  0
  154.2507  138.3568  156.0568 H   0  0  0  0  0  0  0  0  0  0  0  0
  153.4251  138.1824  157.5994 H   0  0  0  0  0  0  0  0  0  0  0  0
  152.2546  136.4253  156.6241 H   0  0  0  0  0  0  0  0  0  0  0  0
  151.2304  136.9987  153.9094 H   0  0  0  0  0  0  0  0  0  0  0  0
  149.7156  139.0915  152.5668 H   0  0  0  0  0  0  0  0  0  0  0  0
  149.3094  143.2722  156.2979 H   0  0  0  0  0  0  0  0  0  0  0  0
  1  2  1  0  0  0  0
  1 22  1  0  0  0  0
  1 23  1  0  0  0  0
  2 17  2  0  0  0  0
  2  3  1  0  0  0  0
  3  4  2  0  0  0  0
  3 30  1  0  0  0  0
  4  5  1  0  0  0  0
  4 24  1  0  0  0  0
  5  6  1  0  0  0  0
  5 15  1  0  0  0  0
  6 18  1  0  0  0  0
  6 13  1  0  0  0  0
  6  7  1  0  0  0  0
  7  8  1  0  0  0  0
  8 19  1  0  0  0  0
  8  9  1  0  0  0  0
  8 11  1  0  0  0  0
  9 10  1  0  0  0  0
  9 25  1  0  0  0  0
  9 26  1  0  0  0  0
 10 27  1  0  0  0  0
 11 20  1  0  0  0  0
 11 12  1  0  0  0  0
 11 13  1  0  0  0  0
 12 28  1  0  0  0  0
 13 21  1  0  0  0  0
 13 14  1  0  0  0  0
 14 29  1  0  0  0  0
 15 16  2  0  0  0  0
 15 17  1  0  0  0  0
M  CHG  1   3   1
M  END
> <s_m_source_file>
AV-unprocessed.smi

> <i_m_source_file_index>
72

> <i_lp_mmshare_version>
43012

> <i_f3d_flags>
0

> <s_epik_input>
W05IMl1jMW5bY0hdbihjKD1PKW4xKVtDQEBIXTJPW0NASF0oW0NIMl1bT0hdKVtDQEBIXShbT0hdKVtDQEhdMltPSF0=

> <s_epik_cmdline>
J2VwaWtfcHl0aG9uJywgJy1waCcsICc3LjAnLCAnLXRuJywgJzgnLCAnLW1hJywgJzIwMCcsICctbWV0YWxfYmluZGluZycsICctaW1hZScsICc8aW5maWxlLm1hZT4nLCAnLW9tYWUnLCAnPG91dGZpbGUubWFlPic=

> <r_lp_tautomer_probability>
4.77166e-05

> <r_epik_Ionization_Penalty>
0.104979

> <r_epik_Ionization_Penalty_Charging>
0.0999619

> <r_epik_Ionization_Penalty_Neutral>
0.00501745

> <r_epik_State_Penalty>
2.51541

> <r_epik_Charging_Adjusted_Penalty>
2.61537

> <i_epik_Tot_Q>
1

> <i_epik_Tot_abs_Q>
1

> <r_epik_Metal_State_Penalty>
3.53763

> <b_epik_Metal_Only>
0

> <s_epik_Chemistry_Notes>
This compound contains an acetal/aminal-like group ( X-CH(R)-Y where X, Y are N, S, or O) that may be acid/base labile, releasing an aldehyde.

> <s_lp_Force_Field>
OPLS_2005

> <r_lp_Energy>
33.8759

> <b_lp_Chiralities_Consistent>
1

> <s_lp_Variant>
AV-unprocessed.smi:72-35

> <Gold.Version>
5.8.1

> <Gold.Id.Protein>
6NUR|6NUR_protein|mol2

> <Gold.PLP.Fitness>
39.3550

> <Gold.PLP.PLP>
-23.2073

> <Gold.PLP.part.hbond>
-9.1721

> <Gold.PLP.part.metal>
0.0000

> <Gold.PLP.part.buried>
-3.9920

> <Gold.PLP.part.nonpolar>
-11.1030

> <Gold.PLP.part.repulsive>
0.1166

> <Gold.PLP.ligand.clash>
0.0000

> <Gold.PLP.ligand.torsion>
0.2464

> <Gold.PLP.Chemscore.Hbond>
5.5360

> <Gold.PLP.Chemscore.CHOScore>
0.0000

> <Gold.PLP.Chemscore.Metal>
0.0000

> <Gold.Chemscore.Hbonds>
donor molecule, donor type, donor heavy atom, donor atom, acceptor molecule, acceptor atom, score
      L1  H     1    23       P1  8029  0.95
      L1  H     3    30       P1  8028  2.00
      L1  H    14    29       P1  7957  1.00
      P1  H 10752 10764       L1    12  0.63
      P1  H 10752 10765       L1    10  0.67

> <Gold.PLP.Chemscore.Internal.Correction>
0.0326

> <Gold.Rescore>
     Score         DG    S(hbond)    S(metal)    S(lipo)     H(rot)  DE(clash)    DE(int)     intcor
      9.85     -10.34       3.67        0.00      26.14       4.08       0.00       0.49       ----

> <Gold.Chemscore.Fitness>
9.8540

> <Gold.Chemscore.DG>
-10.3449

> <Gold.Chemscore.ZeroCoef>
-5.4800

> <Gold.Chemscore.Hbond>
3.6668

> <Gold.Chemscore.Metal>
0.0000

> <Gold.Chemscore.Lipo>
26.1381

> <Gold.Chemscore.Internal_Hbond>
0.0000

> <Gold.Chemscore.DEClash>
0.0000

> <Gold.Chemscore.DEInternal>
0.4909

> <Gold.Chemscore.Rot>
4.0783

> <Gold.Chemscore.Internal.Correction>
   9.000000E+99

> <Gold.Chemscore.Hbonds>
donor molecule, donor type, donor heavy atom, donor atom, acceptor molecule, acceptor atom, score
      L1  H     1    23       P1  8029  0.21
      L1  H     3    30       P1  8028  0.97
      L1  H    14    29       P1  7957  0.88
      P1  H 10752 10764       L1    12  0.09
      P1  H 10752 10765       L1    10  0.51

> <Gold.Chemscore.Hbond.Weighted>
-12.2471

> <Gold.Chemscore.Metal.Weighted>
-0.0000

> <Gold.Chemscore.Lipo.Weighted>
-3.0582

> <Gold.Chemscore.Internal_Hbond.Weighted>
0.0000

> <Gold.Chemscore.DEClash.Weighted>
0.0000

> <Gold.Chemscore.DEInternal.Weighted>
0.4909

> <Gold.Chemscore.Rot.Weighted>
10.4404

> <Gold.Chemscore.Internal.Correction.Weighted>
   9.000000E+99

> <Gold.Protein.RotatedTorsions>
[ 6907 6896 6895 6894 ] final  -44.02 input  -60.11 | X-H torsion
[ 7974 7965 7964 7962 ] final   41.47 input  175.53 | X-H torsion
[ 8008 7997 7996 7995 ] final -118.59 input   59.86 | X-H torsion
[ 10167 10162 10161 10158 ] final   70.42 input  -65.29 | X-H torsion
[ 10718 10713 10712 10709 ] final  -98.77 input   66.30 | X-H torsion
[ 10763 10752 10751 10750 ] final -107.41 input  -60.55 | X-H torsion
[ 11005 11000 10999 10996 ] final  -94.10 input  -57.11 | X-H torsion

> <Gold.Protein.ActiveResidues>
 VAL166  LYS551  ARG553  GLY616  TRP617  ASP618  TYR619  PRO620  LYS621  CYS622 
 ASP623  PHE694  ASN695  SER759  ASP760  ASP761  ALA762  ILE779  LEU786  VAL792 
 PHE793  MET794  SER795  GLU796  ALA797  LYS798  CYS799  TRP800  GLU811  SER814 

> <Gold.Protein.RotatedAtoms>
  150.9374  134.8785  159.7590 H   0  0  0  0  0  0  0  0  0  0  0  0  # atno 6907 bound_to 6896
  152.5065  134.3991  159.9420 H   0  0  0  0  0  0  0  0  0  0  0  0  # atno 6908 bound_to 6896
  151.4014  133.3716  159.2767 H   0  0  0  0  0  0  0  0  0  0  0  0  # atno 6909 bound_to 6896
  146.0821  139.5412  142.9530 H   0  0  0  0  0  0  0  0  0  0  0  0  # atno 7974 bound_to 7965
  155.1020  140.0396  157.2700 H   0  0  0  0  0  0  0  0  0  0  0  0  # atno 8008 bound_to 7997
  154.6750  140.2620  155.6942 H   0  0  0  0  0  0  0  0  0  0  0  0  # atno 8009 bound_to 7997
  156.2673  140.2790  156.1274 H   0  0  0  0  0  0  0  0  0  0  0  0  # atno 8010 bound_to 7997
  140.0571  144.5264  150.7321 H   0  0  0  0  0  0  0  0  0  0  0  0  # atno 10167 bound_to 10162
  156.0116  130.5253  150.6572 H   0  0  0  0  0  0  0  0  0  0  0  0  # atno 10718 bound_to 10713
  154.8073  135.4676  154.0426 H   0  0  0  0  0  0  0  0  0  0  0  0  # atno 10763 bound_to 10752
  153.1884  135.6851  153.8391 H   0  0  0  0  0  0  0  0  0  0  0  0  # atno 10764 bound_to 10752
  153.7917  135.3242  155.3357 H   0  0  0  0  0  0  0  0  0  0  0  0  # atno 10765 bound_to 10752
  141.1479  133.7933  157.0252 H   0  0  0  0  0  0  0  0  0  0  0  0  # atno 11005 bound_to 11000
  145.6199  141.0324  143.1921 LP  0  0  0  0  0  0  0  0  0  0  0  0  # atno 17320 bound_to 7965
  144.7300  139.7755  143.7350 LP  0  0  0  0  0  0  0  0  0  0  0  0  # atno 17321 bound_to 7965
  140.7189  143.2570  151.4342 LP  0  0  0  0  0  0  0  0  0  0  0  0  # atno 17342 bound_to 10162
  139.5917  144.1485  152.2096 LP  0  0  0  0  0  0  0  0  0  0  0  0  # atno 17343 bound_to 10162
  157.4321  131.0850  151.1028 LP  0  0  0  0  0  0  0  0  0  0  0  0  # atno 17370 bound_to 10713
  157.1597  130.6220  149.5607 LP  0  0  0  0  0  0  0  0  0  0  0  0  # atno 17371 bound_to 10713
  140.0790  134.9659  157.1593 LP  0  0  0  0  0  0  0  0  0  0  0  0  # atno 17394 bound_to 11000
  140.3604  134.2501  155.7188 LP  0  0  0  0  0  0  0  0  0  0  0  0  # atno 17395 bound_to 11000

$$$$
