AV-unprocessed.smi:778|AV-procd|sdf|3703|dock1
  -GOLD-   22720 1123D 1   1.00000     0.00000
 Structure written by MMmdl.
 40 41  0  0  0  0  0  0  0  0  1 V2000
  149.5028  133.8844  157.8441 N   0  0  0  0  0  0  0  0  0  0  0  0
  149.3913  135.0060  157.5828 C   0  0  0  0  0  0  0  0  0  0  0  0
  149.2512  136.4179  157.2540 C   0  0  0  0  0  0  0  0  0  0  0  0
  149.2330  137.3913  158.2762 C   0  0  0  0  0  0  0  0  0  0  0  0
  149.1050  138.7084  158.0066 N   0  0  0  0  0  0  0  0  0  0  0  0
  148.9976  139.0456  156.7188 C   0  0  0  0  0  0  0  0  0  0  0  0
  148.8217  140.7770  156.3208 S   0  0  0  0  0  0  0  0  0  0  0  0
  149.4799  141.6039  157.8021 C   0  0  0  0  0  0  0  0  0  0  0  0
  151.0085  141.5346  157.8462 C   0  0  0  0  0  0  0  0  0  0  0  0
  151.4350  141.8530  159.1622 O   0  0  0  0  0  0  0  0  0  0  0  0
  152.7822  142.2967  159.2757 C   0  0  0  0  0  0  0  0  0  0  0  0
  153.3229  142.2720  160.7233 C   0  0  0  0  0  0  0  0  0  0  0  0
  152.4657  143.0050  161.7663 C   0  0  0  0  0  0  0  0  0  0  0  0
  152.2337  144.4969  161.4766 C   0  0  0  0  0  0  0  0  0  0  0  0
  151.2239  144.7309  160.3435 C   0  0  0  0  0  0  0  0  0  0  0  0
  151.8062  144.7092  158.9186 C   0  0  0  0  0  0  0  0  0  0  0  0
  152.9184  143.6832  158.6189 C   0  0  0  0  0  0  0  0  0  0  0  0
  148.9994  138.2211  155.6690 N   0  0  0  0  0  0  0  0  0  0  0  0
  149.1268  136.9012  155.9267 C   0  0  0  0  0  0  0  0  0  0  0  0
  149.1282  136.0545  154.8167 N   0  0  0  0  0  0  0  0  0  0  0  0
  149.3218  137.1170  159.3175 H   0  0  0  0  0  0  0  0  0  0  0  0
  149.1604  142.6463  157.7981 H   0  0  0  0  0  0  0  0  0  0  0  0
  149.0625  141.1368  158.6948 H   0  0  0  0  0  0  0  0  0  0  0  0
  151.3364  140.5375  157.5528 H   0  0  0  0  0  0  0  0  0  0  0  0
  151.4344  142.2453  157.1365 H   0  0  0  0  0  0  0  0  0  0  0  0
  153.4100  141.6219  158.6910 H   0  0  0  0  0  0  0  0  0  0  0  0
  153.4470  141.2386  161.0461 H   0  0  0  0  0  0  0  0  0  0  0  0
  154.3299  142.6903  160.7346 H   0  0  0  0  0  0  0  0  0  0  0  0
  151.5082  142.4955  161.8817 H   0  0  0  0  0  0  0  0  0  0  0  0
  152.9625  142.9153  162.7327 H   0  0  0  0  0  0  0  0  0  0  0  0
  151.8304  144.9493  162.3831 H   0  0  0  0  0  0  0  0  0  0  0  0
  153.1741  145.0124  161.2784 H   0  0  0  0  0  0  0  0  0  0  0  0
  150.4171  144.0012  160.4219 H   0  0  0  0  0  0  0  0  0  0  0  0
  150.7442  145.6989  160.4926 H   0  0  0  0  0  0  0  0  0  0  0  0
  150.9811  144.5479  158.2239 H   0  0  0  0  0  0  0  0  0  0  0  0
  152.1931  145.7004  158.6801 H   0  0  0  0  0  0  0  0  0  0  0  0
  153.8842  144.1108  158.8901 H   0  0  0  0  0  0  0  0  0  0  0  0
  152.9615  143.5531  157.5369 H   0  0  0  0  0  0  0  0  0  0  0  0
  149.2187  135.0534  154.9143 H   0  0  0  0  0  0  0  0  0  0  0  0
  149.0514  136.4194  153.8780 H   0  0  0  0  0  0  0  0  0  0  0  0
  1  2  3  0  0  0  0
  2  3  1  0  0  0  0
  3 19  1  0  0  0  0
  3  4  2  0  0  0  0
  4  5  1  0  0  0  0
  4 21  1  0  0  0  0
  5  6  2  0  0  0  0
  6  7  1  0  0  0  0
  6 18  1  0  0  0  0
  7  8  1  0  0  0  0
  8  9  1  0  0  0  0
  8 22  1  0  0  0  0
  8 23  1  0  0  0  0
  9 10  1  0  0  0  0
  9 24  1  0  0  0  0
  9 25  1  0  0  0  0
 10 11  1  0  0  0  0
 11 17  1  0  0  0  0
 11 12  1  0  0  0  0
 11 26  1  0  0  0  0
 12 13  1  0  0  0  0
 12 27  1  0  0  0  0
 12 28  1  0  0  0  0
 13 14  1  0  0  0  0
 13 29  1  0  0  0  0
 13 30  1  0  0  0  0
 14 15  1  0  0  0  0
 14 31  1  0  0  0  0
 14 32  1  0  0  0  0
 15 16  1  0  0  0  0
 15 33  1  0  0  0  0
 15 34  1  0  0  0  0
 16 17  1  0  0  0  0
 16 35  1  0  0  0  0
 16 36  1  0  0  0  0
 17 37  1  0  0  0  0
 17 38  1  0  0  0  0
 18 19  2  0  0  0  0
 19 20  1  0  0  0  0
 20 39  1  0  0  0  0
 20 40  1  0  0  0  0
M  END
> <s_m_source_file>
AV-unprocessed.smi

> <i_m_source_file_index>
778

> <i_lp_mmshare_version>
43012

> <i_f3d_flags>
0

> <s_epik_input>
TiNDYzFbY0hdbmMobmMxW05IMl0pU1tDSDJdW0NIMl1PW0NIXTJbQ0gyXVtDSDJdW0NIMl1bQ0gyXVtDSDJdW0NIMl0y

> <s_epik_cmdline>
J2VwaWtfcHl0aG9uJywgJy1waCcsICc3LjAnLCAnLXRuJywgJzgnLCAnLW1hJywgJzIwMCcsICctbWV0YWxfYmluZGluZycsICctaW1hZScsICc8aW5maWxlLm1hZT4nLCAnLW9tYWUnLCAnPG91dGZpbGUubWFlPic=

> <r_lp_tautomer_probability>
1

> <r_epik_Ionization_Penalty>
5.1519e-05

> <r_epik_Ionization_Penalty_Charging>
0

> <r_epik_Ionization_Penalty_Neutral>
5.1519e-05

> <r_epik_State_Penalty>
-0

> <r_epik_Charging_Adjusted_Penalty>
0

> <i_epik_Tot_Q>
0

> <i_epik_Tot_abs_Q>
0

> <r_epik_Metal_State_Penalty>
-0

> <b_epik_Metal_Only>
0

> <s_lp_Force_Field>
OPLS_2005

> <r_lp_Energy>
14.4265

> <b_lp_Chiralities_Consistent>
1

> <s_lp_Variant>
AV-unprocessed.smi:778-1

> <Gold.Version>
5.8.1

> <Gold.Id.Protein>
6NUR|6NUR_protein|mol2

> <Gold.PLP.Fitness>
40.6984

> <Gold.PLP.PLP>
-36.0533

> <Gold.PLP.part.hbond>
-2.0000

> <Gold.PLP.part.metal>
0.0000

> <Gold.PLP.part.buried>
-4.8612

> <Gold.PLP.part.nonpolar>
-29.3603

> <Gold.PLP.part.repulsive>
0.0538

> <Gold.PLP.ligand.clash>
0.0000

> <Gold.PLP.ligand.torsion>
0.5986

> <Gold.PLP.Chemscore.Hbond>
1.9353

> <Gold.PLP.Chemscore.CHOScore>
0.0000

> <Gold.PLP.Chemscore.Metal>
0.0000

> <Gold.Chemscore.Hbonds>
donor molecule, donor type, donor heavy atom, donor atom, acceptor molecule, acceptor atom, score
      L1  H    20    40       P1  7948  1.00
      P1  H  6896  6907       L1     1  1.00

> <Gold.PLP.Chemscore.Internal.Correction>
0.0366

> <Gold.Rescore>
     Score         DG    S(hbond)    S(metal)    S(lipo)     H(rot)  DE(clash)    DE(int)     intcor
     16.40     -17.04       1.65        0.00     101.18       2.26       0.06       0.59       ----

> <Gold.Chemscore.Fitness>
16.3962

> <Gold.Chemscore.DG>
-17.0422

> <Gold.Chemscore.ZeroCoef>
-5.4800

> <Gold.Chemscore.Hbond>
1.6468

> <Gold.Chemscore.Metal>
0.0000

> <Gold.Chemscore.Lipo>
101.1768

> <Gold.Chemscore.Internal_Hbond>
0.0000

> <Gold.Chemscore.DEClash>
0.0580

> <Gold.Chemscore.DEInternal>
0.5881

> <Gold.Chemscore.Rot>
2.2562

> <Gold.Chemscore.Internal.Correction>
   9.000000E+99

> <Gold.Chemscore.Hbonds>
donor molecule, donor type, donor heavy atom, donor atom, acceptor molecule, acceptor atom, score
      L1  H    20    40       P1  7948  0.91
      P1  H  6896  6907       L1     1  0.63

> <Gold.Chemscore.Hbond.Weighted>
-5.5004

> <Gold.Chemscore.Metal.Weighted>
-0.0000

> <Gold.Chemscore.Lipo.Weighted>
-11.8377

> <Gold.Chemscore.Internal_Hbond.Weighted>
0.0000

> <Gold.Chemscore.DEClash.Weighted>
0.0580

> <Gold.Chemscore.DEInternal.Weighted>
0.5881

> <Gold.Chemscore.Rot.Weighted>
5.7759

> <Gold.Chemscore.Internal.Correction.Weighted>
   9.000000E+99

> <Gold.Protein.RotatedTorsions>
[ 6907 6896 6895 6894 ] final -126.11 input  -60.11 | X-H torsion
[ 7974 7965 7964 7962 ] final -163.97 input  175.53 | X-H torsion
[ 8008 7997 7996 7995 ] final   59.55 input   59.86 | X-H torsion
[ 10167 10162 10161 10158 ] final  153.80 input  -65.29 | X-H torsion
[ 10718 10713 10712 10709 ] final -165.08 input   66.30 | X-H torsion
[ 10763 10752 10751 10750 ] final    3.22 input  -60.55 | X-H torsion
[ 11005 11000 10999 10996 ] final  -52.08 input  -57.11 | X-H torsion

> <Gold.Protein.ActiveResidues>
 VAL166  LYS551  ARG553  GLY616  TRP617  ASP618  TYR619  PRO620  LYS621  CYS622 
 ASP623  PHE694  ASN695  SER759  ASP760  ASP761  ALA762  ILE779  LEU786  VAL792 
 PHE793  MET794  SER795  GLU796  ALA797  LYS798  CYS799  TRP800  GLU811  SER814 

> <Gold.Protein.RotatedAtoms>
  150.8936  133.7210  159.2897 H   0  0  0  0  0  0  0  0  0  0  0  0  # atno 6907 bound_to 6896
  151.4752  135.1047  159.9772 H   0  0  0  0  0  0  0  0  0  0  0  0  # atno 6908 bound_to 6896
  152.4835  133.8266  159.7137 H   0  0  0  0  0  0  0  0  0  0  0  0  # atno 6909 bound_to 6896
  144.7310  140.3029  143.6201 H   0  0  0  0  0  0  0  0  0  0  0  0  # atno 7974 bound_to 7965
  155.5681  140.3489  155.4508 H   0  0  0  0  0  0  0  0  0  0  0  0  # atno 8008 bound_to 7997
  156.0465  140.1308  157.0123 H   0  0  0  0  0  0  0  0  0  0  0  0  # atno 8009 bound_to 7997
  154.4415  140.1013  156.6298 H   0  0  0  0  0  0  0  0  0  0  0  0  # atno 8010 bound_to 7997
  139.4825  144.5242  151.7828 H   0  0  0  0  0  0  0  0  0  0  0  0  # atno 10167 bound_to 10162
  156.6482  130.8997  151.3008 H   0  0  0  0  0  0  0  0  0  0  0  0  # atno 10718 bound_to 10713
  153.2860  135.6944  153.7339 H   0  0  0  0  0  0  0  0  0  0  0  0  # atno 10763 bound_to 10752
  153.6309  135.3410  155.3042 H   0  0  0  0  0  0  0  0  0  0  0  0  # atno 10764 bound_to 10752
  154.8509  135.4408  154.1928 H   0  0  0  0  0  0  0  0  0  0  0  0  # atno 10765 bound_to 10752
  141.0905  133.6633  156.3972 H   0  0  0  0  0  0  0  0  0  0  0  0  # atno 11005 bound_to 11000
  145.7742  139.1868  143.2195 LP  0  0  0  0  0  0  0  0  0  0  0  0  # atno 17320 bound_to 7965
  146.0886  140.7681  142.9606 LP  0  0  0  0  0  0  0  0  0  0  0  0  # atno 17321 bound_to 7965
  140.4759  144.1519  150.5925 LP  0  0  0  0  0  0  0  0  0  0  0  0  # atno 17342 bound_to 10162
  140.4331  143.2559  151.9570 LP  0  0  0  0  0  0  0  0  0  0  0  0  # atno 17343 bound_to 10162
  157.7149  130.9485  150.1220 LP  0  0  0  0  0  0  0  0  0  0  0  0  # atno 17370 bound_to 10713
  156.2105  130.3666  149.8676 LP  0  0  0  0  0  0  0  0  0  0  0  0  # atno 17371 bound_to 10713
  140.5262  134.6257  157.5335 LP  0  0  0  0  0  0  0  0  0  0  0  0  # atno 17394 bound_to 11000
  139.9731  134.7260  156.0003 LP  0  0  0  0  0  0  0  0  0  0  0  0  # atno 17395 bound_to 11000

$$$$
