AV-unprocessed.smi:1667|AV-procd|sdf|6676|dock7
  -GOLD-   22720 7393D 1   1.00000     0.00000
 Structure written by MMmdl.
 45 47  0  0  0  0  0  0  0  0  1 V2000
  150.5497  132.6551  155.9325 C   0  0  0  0  0  0  0  0  0  0  0  0
  149.0938  132.2034  155.9518 C   0  0  0  0  0  0  0  0  0  0  0  0
  148.2591  132.8523  156.5803 O   0  0  0  0  0  0  0  0  0  0  0  0
  148.8166  131.0881  155.2556 N   0  0  0  0  0  0  0  0  0  0  0  0
  147.5236  130.4158  155.1041 C   0  0  2  0  0  0  0  0  0  0  0  0
  146.8643  130.0390  156.4450 C   0  0  0  0  0  0  0  0  0  0  0  0
  147.6548  129.2668  154.1323 C   0  0  0  0  0  0  0  0  0  0  0  0
  148.4325  128.2122  154.3885 N   0  0  0  0  0  0  0  0  0  0  0  0
  148.3243  127.4581  153.2396 C   0  0  0  0  0  0  0  0  0  0  0  0
  148.9150  126.2209  152.8970 C   0  0  0  0  0  0  0  0  0  0  0  0
  148.6656  125.6353  151.6389 C   0  0  0  0  0  0  0  0  0  0  0  0
  147.8253  126.2786  150.7076 C   0  0  0  0  0  0  0  0  0  0  0  0
  147.2280  127.5123  151.0301 C   0  0  0  0  0  0  0  0  0  0  0  0
  147.4758  128.0914  152.2899 C   0  0  0  0  0  0  0  0  0  0  0  0
  147.0573  129.2674  152.9090 N   0  0  0  0  0  0  0  0  0  0  0  0
  146.1832  130.2787  152.3178 C   0  0  0  0  0  0  0  0  0  0  0  0
  146.6816  131.7327  152.4965 C   0  0  1  0  0  0  0  0  0  0  0  0
  148.0813  131.8019  152.3099 O   0  0  0  0  0  0  0  0  0  0  0  0
  145.9229  132.7343  151.6354 C   0  0  0  0  0  0  0  0  0  0  0  0
  146.0629  134.1255  151.8420 C   0  0  0  0  0  0  0  0  0  0  0  0
  145.3669  135.0386  151.0265 C   0  0  0  0  0  0  0  0  0  0  0  0
  144.5300  134.5680  149.9968 C   0  0  0  0  0  0  0  0  0  0  0  0
  144.3870  133.1835  149.7852 C   0  0  0  0  0  0  0  0  0  0  0  0
  143.5855  132.7297  148.7929 F   0  0  0  0  0  0  0  0  0  0  0  0
  145.0793  132.2697  150.6034 C   0  0  0  0  0  0  0  0  0  0  0  0
  146.8655  131.1616  154.6663 H   0  0  0  0  0  0  0  0  0  0  0  0
  150.8497  132.9260  154.9198 H   0  0  0  0  0  0  0  0  0  0  0  0
  151.2022  131.8557  156.2852 H   0  0  0  0  0  0  0  0  0  0  0  0
  150.6956  133.5229  156.5764 H   0  0  0  0  0  0  0  0  0  0  0  0
  149.5921  130.6481  154.7824 H   0  0  0  0  0  0  0  0  0  0  0  0
  145.8628  129.6401  156.2850 H   0  0  0  0  0  0  0  0  0  0  0  0
  146.7702  130.9110  157.0925 H   0  0  0  0  0  0  0  0  0  0  0  0
  147.4316  129.2832  156.9879 H   0  0  0  0  0  0  0  0  0  0  0  0
  149.5642  125.7234  153.6026 H   0  0  0  0  0  0  0  0  0  0  0  0
  149.1229  124.6899  151.3869 H   0  0  0  0  0  0  0  0  0  0  0  0
  147.6397  125.8247  149.7452 H   0  0  0  0  0  0  0  0  0  0  0  0
  146.5846  128.0060  150.3174 H   0  0  0  0  0  0  0  0  0  0  0  0
  146.0263  130.0548  151.2630 H   0  0  0  0  0  0  0  0  0  0  0  0
  145.1998  130.1766  152.7784 H   0  0  0  0  0  0  0  0  0  0  0  0
  146.5128  132.0113  153.5375 H   0  0  0  0  0  0  0  0  0  0  0  0
  148.2966  131.3719  151.4964 H   0  0  0  0  0  0  0  0  0  0  0  0
  146.7129  134.4999  152.6192 H   0  0  0  0  0  0  0  0  0  0  0  0
  145.4804  136.1006  151.1868 H   0  0  0  0  0  0  0  0  0  0  0  0
  143.9997  135.2686  149.3689 H   0  0  0  0  0  0  0  0  0  0  0  0
  144.9672  131.2094  150.4304 H   0  0  0  0  0  0  0  0  0  0  0  0
  1  2  1  0  0  0  0
  1 27  1  0  0  0  0
  1 28  1  0  0  0  0
  1 29  1  0  0  0  0
  2  3  2  0  0  0  0
  2  4  1  0  0  0  0
  4  5  1  0  0  0  0
  4 30  1  0  0  0  0
  5 26  1  0  0  0  0
  5  6  1  0  0  0  0
  5  7  1  0  0  0  0
  6 31  1  0  0  0  0
  6 32  1  0  0  0  0
  6 33  1  0  0  0  0
  7 15  1  0  0  0  0
  7  8  2  0  0  0  0
  8  9  1  0  0  0  0
  9 14  2  0  0  0  0
  9 10  1  0  0  0  0
 10 11  2  0  0  0  0
 10 34  1  0  0  0  0
 11 12  1  0  0  0  0
 11 35  1  0  0  0  0
 12 13  2  0  0  0  0
 12 36  1  0  0  0  0
 13 14  1  0  0  0  0
 13 37  1  0  0  0  0
 14 15  1  0  0  0  0
 15 16  1  0  0  0  0
 16 17  1  0  0  0  0
 16 38  1  0  0  0  0
 16 39  1  0  0  0  0
 17 18  1  0  0  0  0
 17 19  1  0  0  0  0
 17 40  1  0  0  0  0
 18 41  1  0  0  0  0
 19 25  1  0  0  0  0
 19 20  2  0  0  0  0
 20 21  1  0  0  0  0
 20 42  1  0  0  0  0
 21 22  2  0  0  0  0
 21 43  1  0  0  0  0
 22 23  1  0  0  0  0
 22 44  1  0  0  0  0
 23 24  1  0  0  0  0
 23 25  2  0  0  0  0
 25 45  1  0  0  0  0
M  END
> <s_m_source_file>
AV-unprocessed.smi

> <i_m_source_file_index>
1667

> <i_lp_mmshare_version>
43012

> <i_f3d_flags>
0

> <s_epik_input>
W0NIM11DKD1PKVtOSF1bQ0BASF0oW0NIM10pYyhuMSluKGMoYzEyKVtjSF1bY0hdW2NIXVtjSF0yKVtDSDJdW0NASF0oW09IXSljM1tjSF1bY0hdW2NIXWMoRilbY0hdMw==

> <s_epik_cmdline>
J2VwaWtfcHl0aG9uJywgJy1waCcsICc3LjAnLCAnLXRuJywgJzgnLCAnLW1hJywgJzIwMCcsICctbWV0YWxfYmluZGluZycsICctaW1hZScsICc8aW5maWxlLm1hZT4nLCAnLW9tYWUnLCAnPG91dGZpbGUubWFlPic=

> <r_epik_Ionization_Penalty>
0.133011

> <r_epik_Ionization_Penalty_Charging>
0

> <r_epik_Ionization_Penalty_Neutral>
0.133011

> <r_epik_State_Penalty>
0.122384

> <r_epik_Charging_Adjusted_Penalty>
0.122384

> <i_epik_Tot_Q>
0

> <i_epik_Tot_abs_Q>
0

> <r_epik_Metal_State_Penalty>
0.0997374

> <b_epik_Metal_Only>
0

> <s_lp_Force_Field>
OPLS_2005

> <r_lp_Energy>
8.29393

> <b_lp_Chiralities_Consistent>
1

> <s_lp_Variant>
AV-unprocessed.smi:1667-4

> <Gold.Version>
5.8.1

> <Gold.Id.Protein>
6NUR|6NUR_protein|mol2

> <Gold.PLP.Fitness>
46.7871

> <Gold.PLP.PLP>
-44.6611

> <Gold.PLP.part.hbond>
-0.9973

> <Gold.PLP.part.metal>
0.0000

> <Gold.PLP.part.buried>
-4.6057

> <Gold.PLP.part.nonpolar>
-39.4551

> <Gold.PLP.part.repulsive>
0.0468

> <Gold.PLP.ligand.clash>
0.0000

> <Gold.PLP.ligand.torsion>
0.5416

> <Gold.PLP.Chemscore.Hbond>
1.0000

> <Gold.PLP.Chemscore.CHOScore>
0.0000

> <Gold.PLP.Chemscore.Metal>
0.0000

> <Gold.Chemscore.Hbonds>
donor molecule, donor type, donor heavy atom, donor atom, acceptor molecule, acceptor atom, score
      L1  H    18    41       P1 10747  0.88

> <Gold.PLP.Chemscore.Internal.Correction>
0.2093

> <Gold.Rescore>
     Score         DG    S(hbond)    S(metal)    S(lipo)     H(rot)  DE(clash)    DE(int)     intcor
     14.29     -14.85       0.95        0.00     107.02       2.48       0.14       0.42       ----

> <Gold.Chemscore.Fitness>
14.2883

> <Gold.Chemscore.DG>
-14.8454

> <Gold.Chemscore.ZeroCoef>
-5.4800

> <Gold.Chemscore.Hbond>
0.9529

> <Gold.Chemscore.Metal>
0.0000

> <Gold.Chemscore.Lipo>
107.0191

> <Gold.Chemscore.Internal_Hbond>
0.0000

> <Gold.Chemscore.DEClash>
0.1394

> <Gold.Chemscore.DEInternal>
0.4178

> <Gold.Chemscore.Rot>
2.4760

> <Gold.Chemscore.Internal.Correction>
   9.000000E+99

> <Gold.Chemscore.Hbonds>
donor molecule, donor type, donor heavy atom, donor atom, acceptor molecule, acceptor atom, score
      L1  H    18    41       P1 10747  0.85

> <Gold.Chemscore.Hbond.Weighted>
-3.1827

> <Gold.Chemscore.Metal.Weighted>
-0.0000

> <Gold.Chemscore.Lipo.Weighted>
-12.5212

> <Gold.Chemscore.Internal_Hbond.Weighted>
0.0000

> <Gold.Chemscore.DEClash.Weighted>
0.1394

> <Gold.Chemscore.DEInternal.Weighted>
0.4178

> <Gold.Chemscore.Rot.Weighted>
6.3385

> <Gold.Chemscore.Internal.Correction.Weighted>
   9.000000E+99

> <Gold.Protein.RotatedTorsions>
[ 6907 6896 6895 6894 ] final  -24.01 input  -60.11 | X-H torsion
[ 7974 7965 7964 7962 ] final  124.35 input  175.53 | X-H torsion
[ 8008 7997 7996 7995 ] final  100.47 input   59.86 | X-H torsion
[ 10167 10162 10161 10158 ] final  -24.39 input  -65.29 | X-H torsion
[ 10718 10713 10712 10709 ] final  -68.00 input   66.30 | X-H torsion
[ 10763 10752 10751 10750 ] final   68.79 input  -60.55 | X-H torsion
[ 11005 11000 10999 10996 ] final   73.73 input  -57.11 | X-H torsion

> <Gold.Protein.ActiveResidues>
 VAL166  LYS551  ARG553  GLY616  TRP617  ASP618  TYR619  PRO620  LYS621  CYS622 
 ASP623  PHE694  ASN695  SER759  ASP760  ASP761  ALA762  ILE779  LEU786  VAL792 
 PHE793  MET794  SER795  GLU796  ALA797  LYS798  CYS799  TRP800  GLU811  SER814 

> <Gold.Protein.RotatedAtoms>
  151.1956  135.0421  159.8850 H   0  0  0  0  0  0  0  0  0  0  0  0  # atno 6907 bound_to 6896
  152.5436  134.0907  159.8285 H   0  0  0  0  0  0  0  0  0  0  0  0  # atno 6908 bound_to 6896
  151.1041  133.5174  159.2640 H   0  0  0  0  0  0  0  0  0  0  0  0  # atno 6909 bound_to 6896
  145.0854  139.3626  143.4888 H   0  0  0  0  0  0  0  0  0  0  0  0  # atno 7974 bound_to 7965
  156.1206  140.3213  155.8203 H   0  0  0  0  0  0  0  0  0  0  0  0  # atno 8008 bound_to 7997
  155.4511  140.0532  157.3018 H   0  0  0  0  0  0  0  0  0  0  0  0  # atno 8009 bound_to 7997
  154.4825  140.2059  155.9745 H   0  0  0  0  0  0  0  0  0  0  0  0  # atno 8010 bound_to 7997
  140.7288  143.4358  151.0732 H   0  0  0  0  0  0  0  0  0  0  0  0  # atno 10167 bound_to 10162
  156.0528  130.4287  150.1937 H   0  0  0  0  0  0  0  0  0  0  0  0  # atno 10718 bound_to 10713
  153.0253  135.5234  154.7188 H   0  0  0  0  0  0  0  0  0  0  0  0  # atno 10763 bound_to 10752
  154.6250  135.2893  155.0285 H   0  0  0  0  0  0  0  0  0  0  0  0  # atno 10764 bound_to 10752
  154.1258  135.6600  153.4964 H   0  0  0  0  0  0  0  0  0  0  0  0  # atno 10765 bound_to 10752
  139.9426  134.7372  156.1061 H   0  0  0  0  0  0  0  0  0  0  0  0  # atno 11005 bound_to 11000
  146.3531  140.0664  142.8626 LP  0  0  0  0  0  0  0  0  0  0  0  0  # atno 17320 bound_to 7965
  145.1129  140.9416  143.4646 LP  0  0  0  0  0  0  0  0  0  0  0  0  # atno 17321 bound_to 7965
  139.8019  143.8071  152.3164 LP  0  0  0  0  0  0  0  0  0  0  0  0  # atno 17342 bound_to 10162
  139.8091  144.7343  150.9722 LP  0  0  0  0  0  0  0  0  0  0  0  0  # atno 17343 bound_to 10162
  157.0017  130.9924  151.3389 LP  0  0  0  0  0  0  0  0  0  0  0  0  # atno 17370 bound_to 10713
  157.5470  130.8157  149.8098 LP  0  0  0  0  0  0  0  0  0  0  0  0  # atno 17371 bound_to 10713
  141.1065  133.6658  156.2877 LP  0  0  0  0  0  0  0  0  0  0  0  0  # atno 17394 bound_to 11000
  140.5914  134.5646  157.5500 LP  0  0  0  0  0  0  0  0  0  0  0  0  # atno 17395 bound_to 11000

$$$$
