AV-unprocessed.smi:243|AV-procd|sdf|1851|dock8
  -GOLD-   2262020473D 1   1.00000     0.00000
 Structure written by MMmdl.
 58 61  0  0  0  0  0  0  0  0  2 V2000
  145.3236  131.8108  149.7416 C   0  0  0  0  0  0  0  0  0  0  0  0
  143.9388  132.4420  149.5362 C   0  0  0  0  0  0  0  0  0  0  0  0
  143.7288  133.6447  150.3812 N   0  3  1  0  0  0  0  0  0  0  0  0
  143.2626  133.2975  151.7444 C   0  0  0  0  0  0  0  0  0  0  0  0
  142.8763  134.5673  152.5084 C   0  0  0  0  0  0  0  0  0  0  0  0
  144.0667  135.5450  152.6228 C   0  0  2  0  0  0  0  0  0  0  0  0
  143.7471  136.7382  153.4270 N   0  0  0  0  0  0  0  0  0  0  0  0
  142.3502  137.0834  153.6663 C   0  0  0  0  0  0  0  0  0  0  0  0
  144.6365  137.2084  154.3392 C   0  0  0  0  0  0  0  0  0  0  0  0
  144.5865  136.7026  155.5976 N   0  0  0  0  0  0  0  0  0  0  0  0
  145.4458  137.1193  156.5312 C   0  0  0  0  0  0  0  0  0  0  0  0
  146.4243  138.0184  156.4205 N   0  0  0  0  0  0  0  0  0  0  0  0
  146.4938  138.5201  155.1547 C   0  0  0  0  0  0  0  0  0  0  0  0
  145.6555  138.1655  154.0588 C   0  0  0  0  0  0  0  0  0  0  0  0
  146.0442  138.8727  152.9270 N   0  0  0  0  0  0  0  0  0  0  0  0
  147.0449  139.6055  153.3304 C   0  0  0  0  0  0  0  0  0  0  0  0
  147.3719  139.4683  154.6598 N   0  0  0  0  0  0  0  0  0  0  0  0
  148.4318  140.1642  155.3721 C   0  0  0  0  0  0  0  0  0  0  0  0
  149.8148  140.0816  154.6763 C   0  0  1  0  0  0  0  0  0  0  0  0
  149.7897  140.8135  153.4654 O   0  0  0  0  0  0  0  0  0  0  0  0
  150.9326  140.6057  155.5626 C   0  0  0  0  0  0  0  0  0  0  0  0
  151.3012  139.3865  156.4065 C   0  0  0  0  0  0  0  0  0  0  0  0
  150.9384  138.2450  155.6343 O   0  0  0  0  0  0  0  0  0  0  0  0
  150.3097  138.6524  154.4238 C   0  0  0  0  0  0  0  0  0  0  0  0
  144.6294  135.8516  151.2048 C   0  0  1  0  0  0  0  0  0  0  0  0
  145.9221  136.6864  151.2203 C   0  0  0  0  0  0  0  0  0  0  0  0
  144.9132  134.5393  150.4369 C   0  0  0  0  0  0  0  0  0  0  0  0
  145.4829  130.9994  149.0310 H   0  0  0  0  0  0  0  0  0  0  0  0
  145.4400  131.3897  150.7397 H   0  0  0  0  0  0  0  0  0  0  0  0
  146.1174  132.5426  149.5886 H   0  0  0  0  0  0  0  0  0  0  0  0
  143.8580  132.7241  148.4855 H   0  0  0  0  0  0  0  0  0  0  0  0
  143.1502  131.7111  149.7209 H   0  0  0  0  0  0  0  0  0  0  0  0
  142.3928  132.6418  151.6840 H   0  0  0  0  0  0  0  0  0  0  0  0
  144.0403  132.7486  152.2780 H   0  0  0  0  0  0  0  0  0  0  0  0
  142.0434  135.0260  151.9770 H   0  0  0  0  0  0  0  0  0  0  0  0
  142.5120  134.3037  153.5020 H   0  0  0  0  0  0  0  0  0  0  0  0
  144.8491  135.0164  153.1693 H   0  0  0  0  0  0  0  0  0  0  0  0
  142.2639  138.0956  154.0642 H   0  0  0  0  0  0  0  0  0  0  0  0
  141.8730  136.4023  154.3684 H   0  0  0  0  0  0  0  0  0  0  0  0
  141.7893  137.0503  152.7320 H   0  0  0  0  0  0  0  0  0  0  0  0
  145.3344  136.6677  157.5060 H   0  0  0  0  0  0  0  0  0  0  0  0
  147.5707  140.2769  152.6670 H   0  0  0  0  0  0  0  0  0  0  0  0
  148.1334  141.2067  155.4902 H   0  0  0  0  0  0  0  0  0  0  0  0
  148.4871  139.7498  156.3793 H   0  0  0  0  0  0  0  0  0  0  0  0
  149.8290  140.2035  152.7447 H   0  0  0  0  0  0  0  0  0  0  0  0
  151.7954  140.8921  154.9585 H   0  0  0  0  0  0  0  0  0  0  0  0
  150.6468  141.4709  156.1618 H   0  0  0  0  0  0  0  0  0  0  0  0
  152.3610  139.3698  156.6615 H   0  0  0  0  0  0  0  0  0  0  0  0
  150.7309  139.3735  157.3360 H   0  0  0  0  0  0  0  0  0  0  0  0
  149.5310  137.9561  154.1160 H   0  0  0  0  0  0  0  0  0  0  0  0
  151.0734  138.6471  153.6441 H   0  0  0  0  0  0  0  0  0  0  0  0
  143.8758  136.4087  150.6457 H   0  0  0  0  0  0  0  0  0  0  0  0
  146.6839  136.2274  151.8512 H   0  0  0  0  0  0  0  0  0  0  0  0
  145.7517  137.6967  151.5805 H   0  0  0  0  0  0  0  0  0  0  0  0
  146.3385  136.7837  150.2172 H   0  0  0  0  0  0  0  0  0  0  0  0
  145.7428  134.0042  150.9023 H   0  0  0  0  0  0  0  0  0  0  0  0
  145.2326  134.7877  149.4253 H   0  0  0  0  0  0  0  0  0  0  0  0
  142.9799  134.1691  149.9515 H   0  0  0  0  0  0  0  0  0  0  0  0
  1  2  1  0  0  0  0
  1 28  1  0  0  0  0
  1 29  1  0  0  0  0
  1 30  1  0  0  0  0
  2  3  1  0  0  0  0
  2 31  1  0  0  0  0
  2 32  1  0  0  0  0
  3 27  1  0  0  0  0
  3  4  1  0  0  0  0
  3 58  1  0  0  0  0
  4  5  1  0  0  0  0
  4 33  1  0  0  0  0
  4 34  1  0  0  0  0
  5  6  1  0  0  0  0
  5 35  1  0  0  0  0
  5 36  1  0  0  0  0
  6  7  1  0  0  0  0
  6 25  1  0  0  0  0
  6 37  1  0  0  0  0
  7  8  1  0  0  0  0
  7  9  1  0  0  0  0
  8 38  1  0  0  0  0
  8 39  1  0  0  0  0
  8 40  1  0  0  0  0
  9 14  1  0  0  0  0
  9 10  2  0  0  0  0
 10 11  1  0  0  0  0
 11 12  2  0  0  0  0
 11 41  1  0  0  0  0
 12 13  1  0  0  0  0
 13 17  1  0  0  0  0
 13 14  2  0  0  0  0
 14 15  1  0  0  0  0
 15 16  2  0  0  0  0
 16 17  1  0  0  0  0
 16 42  1  0  0  0  0
 17 18  1  0  0  0  0
 18 19  1  0  0  0  0
 18 43  1  0  0  0  0
 18 44  1  0  0  0  0
 19 24  1  0  0  0  0
 19 20  1  0  0  0  0
 19 21  1  0  0  0  0
 20 45  1  0  0  0  0
 21 22  1  0  0  0  0
 21 46  1  0  0  0  0
 21 47  1  0  0  0  0
 22 23  1  0  0  0  0
 22 48  1  0  0  0  0
 22 49  1  0  0  0  0
 23 24  1  0  0  0  0
 24 50  1  0  0  0  0
 24 51  1  0  0  0  0
 25 26  1  0  0  0  0
 25 27  1  0  0  0  0
 25 52  1  0  0  0  0
 26 53  1  0  0  0  0
 26 54  1  0  0  0  0
 26 55  1  0  0  0  0
 27 56  1  0  0  0  0
 27 57  1  0  0  0  0
M  CHG  1   3   1
M  END
> <s_m_source_file>
AV-unprocessed.smi

> <i_m_source_file_index>
243

> <i_lp_mmshare_version>
43012

> <i_f3d_flags>
0

> <s_epik_input>
W0NIM11bQ0gyXU4xW0NIMl1bQ0gyXVtDQEhdKFtDQEBIXShbQ0gzXSlbQ0gyXTEpTihbQ0gzXSljKG5bY0hdbjIpYyhjMjMpbltjSF1uM1tDSDJdW0NAQF00KFtPSF0pW0NIMl1bQ0gyXU9bQ0gyXTQ=

> <s_epik_cmdline>
J2VwaWtfcHl0aG9uJywgJy1waCcsICc3LjAnLCAnLXRuJywgJzgnLCAnLW1hJywgJzIwMCcsICctbWV0YWxfYmluZGluZycsICctaW1hZScsICc8aW5maWxlLm1hZT4nLCAnLW9tYWUnLCAnPG91dGZpbGUubWFlPic=

> <r_lp_tautomer_probability>
1

> <r_epik_Ionization_Penalty>
0.00253099

> <r_epik_Ionization_Penalty_Charging>
0.00137877

> <r_epik_Ionization_Penalty_Neutral>
0.00115221

> <r_epik_State_Penalty>
-0

> <r_epik_Charging_Adjusted_Penalty>
0.00137877

> <i_epik_Tot_Q>
1

> <i_epik_Tot_abs_Q>
1

> <r_epik_Metal_State_Penalty>
-0

> <b_epik_Metal_Only>
0

> <s_lp_Force_Field>
OPLS_2005

> <r_lp_Energy>
48.9209

> <b_lp_Chiralities_Consistent>
1

> <s_lp_Variant>
AV-unprocessed.smi:243-4

> <Gold.Version>
5.8.1

> <Gold.Id.Protein>
6NUR|6NUR_protein|mol2

> <Gold.PLP.Fitness>
48.8747

> <Gold.PLP.PLP>
-38.2867

> <Gold.PLP.part.hbond>
-3.3527

> <Gold.PLP.part.metal>
0.0000

> <Gold.PLP.part.buried>
-0.7779

> <Gold.PLP.part.nonpolar>
-35.0392

> <Gold.PLP.part.repulsive>
1.7534

> <Gold.PLP.ligand.clash>
0.0000

> <Gold.PLP.ligand.torsion>
2.1582

> <Gold.PLP.Chemscore.Hbond>
3.7207

> <Gold.PLP.Chemscore.CHOScore>
1.0000

> <Gold.PLP.Chemscore.Metal>
0.0000

> <Gold.Chemscore.Hbonds>
donor molecule, donor type, donor heavy atom, donor atom, acceptor molecule, acceptor atom, score
      L1  H     3    58       P1 10186  2.00
      L1  H    20    45       P1  7957  0.88
      P1  H  7989  7998       L1    20  0.08
      P1  H  8011  8017       L1    20  0.75
      L1  C    16    42       P1  7957  1.00

> <Gold.PLP.Chemscore.Internal.Correction>
0.7421

> <Gold.Rescore>
     Score         DG    S(hbond)    S(metal)    S(lipo)     H(rot)  DE(clash)    DE(int)     intcor
     12.49     -17.23       1.94        0.00      94.02       2.24       1.02       3.72       ----

> <Gold.Chemscore.Fitness>
12.4919

> <Gold.Chemscore.DG>
-17.2299

> <Gold.Chemscore.ZeroCoef>
-5.4800

> <Gold.Chemscore.Hbond>
1.9398

> <Gold.Chemscore.Metal>
0.0000

> <Gold.Chemscore.Lipo>
94.0171

> <Gold.Chemscore.Internal_Hbond>
0.0000

> <Gold.Chemscore.DEClash>
1.0213

> <Gold.Chemscore.DEInternal>
3.7167

> <Gold.Chemscore.Rot>
2.2379

> <Gold.Chemscore.Internal.Correction>
   9.000000E+99

> <Gold.Chemscore.Hbonds>
donor molecule, donor type, donor heavy atom, donor atom, acceptor molecule, acceptor atom, score
      L1  H     3    58       P1 10186  0.88
      L1  H    20    45       P1  7957  0.85
      P1  H  8011  8017       L1    20  0.09

> <Gold.Chemscore.Hbond.Weighted>
-6.4790

> <Gold.Chemscore.Metal.Weighted>
-0.0000

> <Gold.Chemscore.Lipo.Weighted>
-11.0000

> <Gold.Chemscore.Internal_Hbond.Weighted>
0.0000

> <Gold.Chemscore.DEClash.Weighted>
1.0213

> <Gold.Chemscore.DEInternal.Weighted>
3.7167

> <Gold.Chemscore.Rot.Weighted>
5.7291

> <Gold.Chemscore.Internal.Correction.Weighted>
   9.000000E+99

> <Gold.Protein.RotatedTorsions>
[ 6907 6896 6895 6894 ] final  -42.19 input  -60.11 | X-H torsion
[ 7974 7965 7964 7962 ] final   75.06 input  175.53 | X-H torsion
[ 8008 7997 7996 7995 ] final  129.06 input   59.86 | X-H torsion
[ 10167 10162 10161 10158 ] final   97.50 input  -65.29 | X-H torsion
[ 10718 10713 10712 10709 ] final  122.31 input   66.30 | X-H torsion
[ 10763 10752 10751 10750 ] final  -19.27 input  -60.55 | X-H torsion
[ 11005 11000 10999 10996 ] final -117.16 input  -57.11 | X-H torsion

> <Gold.Protein.ActiveResidues>
 VAL166  LYS551  ARG553  GLY616  TRP617  ASP618  TYR619  PRO620  LYS621  CYS622 
 ASP623  PHE694  ASN695  SER759  ASP760  ASP761  ALA762  ILE779  LEU786  VAL792 
 PHE793  MET794  SER795  GLU796  ALA797  LYS798  CYS799  TRP800  GLU811  SER814 

> <Gold.Protein.RotatedAtoms>
  150.9580  134.8972  159.7712 H   0  0  0  0  0  0  0  0  0  0  0  0  # atno 6907 bound_to 6896
  152.5145  134.3713  159.9329 H   0  0  0  0  0  0  0  0  0  0  0  0  # atno 6908 bound_to 6896
  151.3726  133.3809  159.2736 H   0  0  0  0  0  0  0  0  0  0  0  0  # atno 6909 bound_to 6896
  145.7204  139.2646  143.1599 H   0  0  0  0  0  0  0  0  0  0  0  0  # atno 7974 bound_to 7965
  156.2928  140.2629  156.2538 H   0  0  0  0  0  0  0  0  0  0  0  0  # atno 8008 bound_to 7997
  154.9857  140.0389  157.2315 H   0  0  0  0  0  0  0  0  0  0  0  0  # atno 8009 bound_to 7997
  154.7732  140.2782  155.6126 H   0  0  0  0  0  0  0  0  0  0  0  0  # atno 8010 bound_to 7997
  139.7795  144.6893  151.0042 H   0  0  0  0  0  0  0  0  0  0  0  0  # atno 10167 bound_to 10162
  157.5752  131.1080  150.8293 H   0  0  0  0  0  0  0  0  0  0  0  0  # atno 10718 bound_to 10713
  153.6022  135.6999  153.5380 H   0  0  0  0  0  0  0  0  0  0  0  0  # atno 10763 bound_to 10752
  153.3087  135.4107  155.1316 H   0  0  0  0  0  0  0  0  0  0  0  0  # atno 10764 bound_to 10752
  154.8580  135.3667  154.5558 H   0  0  0  0  0  0  0  0  0  0  0  0  # atno 10765 bound_to 10752
  141.0373  133.9889  157.3050 H   0  0  0  0  0  0  0  0  0  0  0  0  # atno 11005 bound_to 11000
  146.0631  140.7950  142.9725 LP  0  0  0  0  0  0  0  0  0  0  0  0  # atno 17320 bound_to 7965
  144.6918  140.3226  143.7229 LP  0  0  0  0  0  0  0  0  0  0  0  0  # atno 17321 bound_to 7965
  140.7818  143.4498  151.0429 LP  0  0  0  0  0  0  0  0  0  0  0  0  # atno 17342 bound_to 10162
  139.8179  143.7860  152.3175 LP  0  0  0  0  0  0  0  0  0  0  0  0  # atno 17343 bound_to 10162
  156.8754  130.5160  149.5294 LP  0  0  0  0  0  0  0  0  0  0  0  0  # atno 17370 bound_to 10713
  156.0797  130.5810  150.9539 LP  0  0  0  0  0  0  0  0  0  0  0  0  # atno 17371 bound_to 10713
  139.9250  135.0201  156.8202 LP  0  0  0  0  0  0  0  0  0  0  0  0  # atno 17394 bound_to 11000
  140.6298  133.9916  155.7656 LP  0  0  0  0  0  0  0  0  0  0  0  0  # atno 17395 bound_to 11000

$$$$
