AV-unprocessed.smi:1996|AV-procd|sdf|8084|dock5
  -GOLD-   2272010303D 1   1.00000     0.00000
 Structure written by MMmdl.
 33 34  0  0  0  0  0  0  0  0  1 V2000
  148.5501  139.3996  156.0176 O   0  0  0  0  0  0  0  0  0  0  0  0
  149.0566  139.7955  154.9675 C   0  0  0  0  0  0  0  0  0  0  0  0
  150.1836  140.5204  154.9179 N   0  0  0  0  0  0  0  0  0  0  0  0
  150.9696  140.9256  156.0774 C   0  0  0  0  0  0  0  0  0  0  0  0
  150.2309  141.9835  156.9159 C   0  0  0  0  0  0  0  0  0  0  0  0
  151.1172  142.6236  157.9712 C   0  0  0  0  0  0  0  0  0  0  0  0
  151.6613  141.9074  158.9743 C   0  0  0  0  0  0  0  0  0  0  0  0
  152.5430  142.4943  160.0629 C   0  0  0  0  0  0  0  0  0  0  0  0
  152.4855  144.0308  160.1014 C   0  0  0  0  0  0  0  0  0  0  0  0
  152.5317  144.6244  158.6880 C   0  0  0  0  0  0  0  0  0  0  0  0
  151.3561  144.1227  157.8304 C   0  0  0  0  0  0  0  0  0  0  0  0
  148.5723  139.5652  153.7344 N   0  0  0  0  0  0  0  0  0  0  0  0
  147.4167  138.8269  153.3656 C   0  0  0  0  0  0  0  0  0  0  0  0
  146.7447  138.0251  154.2069 N   0  0  0  0  0  0  0  0  0  0  0  0
  145.6571  137.4200  153.5903 N   0  0  0  0  0  0  0  0  0  0  0  0
  145.5515  137.7890  152.3105 C   0  0  0  0  0  0  0  0  0  0  0  0
  146.7703  138.9123  151.7332 S   0  0  0  0  0  0  0  0  0  0  0  0
  150.5283  140.8063  154.0130 H   0  0  0  0  0  0  0  0  0  0  0  0
  151.1617  140.0346  156.6754 H   0  0  0  0  0  0  0  0  0  0  0  0
  151.9429  141.3020  155.7575 H   0  0  0  0  0  0  0  0  0  0  0  0
  149.8387  142.7625  156.2607 H   0  0  0  0  0  0  0  0  0  0  0  0
  149.3671  141.5366  157.4094 H   0  0  0  0  0  0  0  0  0  0  0  0
  151.4848  140.8431  159.0316 H   0  0  0  0  0  0  0  0  0  0  0  0
  152.2411  142.0876  161.0283 H   0  0  0  0  0  0  0  0  0  0  0  0
  153.5654  142.1602  159.8837 H   0  0  0  0  0  0  0  0  0  0  0  0
  151.5646  144.3485  160.5921 H   0  0  0  0  0  0  0  0  0  0  0  0
  153.3066  144.4194  160.7043 H   0  0  0  0  0  0  0  0  0  0  0  0
  152.5204  145.7138  158.7333 H   0  0  0  0  0  0  0  0  0  0  0  0
  153.4734  144.3452  158.2136 H   0  0  0  0  0  0  0  0  0  0  0  0
  151.5403  144.3667  156.7836 H   0  0  0  0  0  0  0  0  0  0  0  0
  150.4423  144.6426  158.1197 H   0  0  0  0  0  0  0  0  0  0  0  0
  149.0968  139.9586  152.9670 H   0  0  0  0  0  0  0  0  0  0  0  0
  144.7500  137.3967  151.7022 H   0  0  0  0  0  0  0  0  0  0  0  0
  1  2  2  0  0  0  0
  2  3  1  0  0  0  0
  2 12  1  0  0  0  0
  3  4  1  0  0  0  0
  3 18  1  0  0  0  0
  4  5  1  0  0  0  0
  4 19  1  0  0  0  0
  4 20  1  0  0  0  0
  5  6  1  0  0  0  0
  5 21  1  0  0  0  0
  5 22  1  0  0  0  0
  6 11  1  0  0  0  0
  6  7  2  0  0  0  0
  7  8  1  0  0  0  0
  7 23  1  0  0  0  0
  8  9  1  0  0  0  0
  8 24  1  0  0  0  0
  8 25  1  0  0  0  0
  9 10  1  0  0  0  0
  9 26  1  0  0  0  0
  9 27  1  0  0  0  0
 10 11  1  0  0  0  0
 10 28  1  0  0  0  0
 10 29  1  0  0  0  0
 11 30  1  0  0  0  0
 11 31  1  0  0  0  0
 12 13  1  0  0  0  0
 12 32  1  0  0  0  0
 13 17  1  0  0  0  0
 13 14  2  0  0  0  0
 14 15  1  0  0  0  0
 15 16  2  0  0  0  0
 16 17  1  0  0  0  0
 16 33  1  0  0  0  0
M  END
> <s_m_source_file>
AV-unprocessed.smi

> <i_m_source_file_index>
1996

> <i_lp_mmshare_version>
43012

> <i_f3d_flags>
0

> <s_epik_input>
czFbY0hdbm5jMVtOSF1DKD1PKVtOSF1bQ0gyXVtDSDJdQzI9W0NIXVtDSDJdW0NIMl1bQ0gyXVtDSDJdMg==

> <s_epik_cmdline>
J2VwaWtfcHl0aG9uJywgJy1waCcsICc3LjAnLCAnLXRuJywgJzgnLCAnLW1hJywgJzIwMCcsICctbWV0YWxfYmluZGluZycsICctaW1hZScsICc8aW5maWxlLm1hZT4nLCAnLW9tYWUnLCAnPG91dGZpbGUubWFlPic=

> <r_lp_tautomer_probability>
1

> <r_epik_Ionization_Penalty>
0.00157076

> <r_epik_Ionization_Penalty_Charging>
0

> <r_epik_Ionization_Penalty_Neutral>
0.00157076

> <r_epik_State_Penalty>
-0

> <r_epik_Charging_Adjusted_Penalty>
0

> <i_epik_Tot_Q>
0

> <i_epik_Tot_abs_Q>
0

> <r_epik_Metal_State_Penalty>
0.323125

> <b_epik_Metal_Only>
0

> <s_lp_Force_Field>
OPLS_2005

> <r_lp_Energy>
6.02977

> <b_lp_Chiralities_Consistent>
1

> <s_lp_Variant>
AV-unprocessed.smi:1996-1

> <Gold.Version>
5.8.1

> <Gold.Id.Protein>
6NUR|6NUR_protein|mol2

> <Gold.PLP.Fitness>
39.7578

> <Gold.PLP.PLP>
-34.5670

> <Gold.PLP.part.hbond>
-1.0000

> <Gold.PLP.part.metal>
0.0000

> <Gold.PLP.part.buried>
-2.0086

> <Gold.PLP.part.nonpolar>
-34.0444

> <Gold.PLP.part.repulsive>
1.9904

> <Gold.PLP.ligand.clash>
0.0000

> <Gold.PLP.ligand.torsion>
0.1198

> <Gold.PLP.Chemscore.Hbond>
1.0000

> <Gold.PLP.Chemscore.CHOScore>
0.8075

> <Gold.PLP.Chemscore.Metal>
0.0000

> <Gold.Chemscore.Hbonds>
donor molecule, donor type, donor heavy atom, donor atom, acceptor molecule, acceptor atom, score
      L1  H    12    32       P1  7957  1.00
      L1  C    16    33       P1 10171  0.85

> <Gold.PLP.Chemscore.Internal.Correction>
0.0080

> <Gold.Rescore>
     Score         DG    S(hbond)    S(metal)    S(lipo)     H(rot)  DE(clash)    DE(int)     intcor
     14.38     -16.21       0.99        0.00      98.90       1.62       0.48       1.36       ----

> <Gold.Chemscore.Fitness>
14.3772

> <Gold.Chemscore.DG>
-16.2110

> <Gold.Chemscore.ZeroCoef>
-5.4800

> <Gold.Chemscore.Hbond>
0.9875

> <Gold.Chemscore.Metal>
0.0000

> <Gold.Chemscore.Lipo>
98.9005

> <Gold.Chemscore.Internal_Hbond>
0.0000

> <Gold.Chemscore.DEClash>
0.4752

> <Gold.Chemscore.DEInternal>
1.3585

> <Gold.Chemscore.Rot>
1.6167

> <Gold.Chemscore.Internal.Correction>
   9.000000E+99

> <Gold.Chemscore.Hbonds>
donor molecule, donor type, donor heavy atom, donor atom, acceptor molecule, acceptor atom, score
      L1  H    12    32       P1  7957  0.97

> <Gold.Chemscore.Hbond.Weighted>
-3.2983

> <Gold.Chemscore.Metal.Weighted>
-0.0000

> <Gold.Chemscore.Lipo.Weighted>
-11.5714

> <Gold.Chemscore.Internal_Hbond.Weighted>
0.0000

> <Gold.Chemscore.DEClash.Weighted>
0.4752

> <Gold.Chemscore.DEInternal.Weighted>
1.3585

> <Gold.Chemscore.Rot.Weighted>
4.1387

> <Gold.Chemscore.Internal.Correction.Weighted>
   9.000000E+99

> <Gold.Protein.RotatedTorsions>
[ 6907 6896 6895 6894 ] final   48.36 input  -60.11 | X-H torsion
[ 7974 7965 7964 7962 ] final -156.02 input  175.53 | X-H torsion
[ 8008 7997 7996 7995 ] final -166.49 input   59.86 | X-H torsion
[ 10167 10162 10161 10158 ] final    0.10 input  -65.29 | X-H torsion
[ 10718 10713 10712 10709 ] final  -78.87 input   66.30 | X-H torsion
[ 10763 10752 10751 10750 ] final -163.09 input  -60.55 | X-H torsion
[ 11005 11000 10999 10996 ] final   21.29 input  -57.11 | X-H torsion

> <Gold.Protein.ActiveResidues>
 VAL166  LYS551  ARG553  GLY616  TRP617  ASP618  TYR619  PRO620  LYS621  CYS622 
 ASP623  PHE694  ASN695  SER759  ASP760  ASP761  ALA762  ILE779  LEU786  VAL792 
 PHE793  MET794  SER795  GLU796  ALA797  LYS798  CYS799  TRP800  GLU811  SER814 

> <Gold.Protein.RotatedAtoms>
  152.2786  134.7853  160.0400 H   0  0  0  0  0  0  0  0  0  0  0  0  # atno 6907 bound_to 6896
  151.8440  133.3423  159.3660 H   0  0  0  0  0  0  0  0  0  0  0  0  # atno 6908 bound_to 6896
  150.7180  134.5291  159.5736 H   0  0  0  0  0  0  0  0  0  0  0  0  # atno 6909 bound_to 6896
  144.7612  140.4167  143.5975 H   0  0  0  0  0  0  0  0  0  0  0  0  # atno 7974 bound_to 7965
  155.8645  140.0983  157.1591 H   0  0  0  0  0  0  0  0  0  0  0  0  # atno 8008 bound_to 7997
  154.3992  140.1359  156.4064 H   0  0  0  0  0  0  0  0  0  0  0  0  # atno 8009 bound_to 7997
  155.7819  140.3458  155.5304 H   0  0  0  0  0  0  0  0  0  0  0  0  # atno 8010 bound_to 7997
  140.6744  143.6959  150.7990 H   0  0  0  0  0  0  0  0  0  0  0  0  # atno 10167 bound_to 10162
  156.0106  130.4530  150.3562 H   0  0  0  0  0  0  0  0  0  0  0  0  # atno 10718 bound_to 10713
  154.7155  135.3015  154.9131 H   0  0  0  0  0  0  0  0  0  0  0  0  # atno 10763 bound_to 10752
  154.0019  135.6706  153.4764 H   0  0  0  0  0  0  0  0  0  0  0  0  # atno 10764 bound_to 10752
  153.0789  135.5019  154.8378 H   0  0  0  0  0  0  0  0  0  0  0  0  # atno 10765 bound_to 10752
  140.3932  134.1797  155.7663 H   0  0  0  0  0  0  0  0  0  0  0  0  # atno 11005 bound_to 11000
  145.6613  139.1582  143.2807 LP  0  0  0  0  0  0  0  0  0  0  0  0  # atno 17320 bound_to 7965
  146.1677  140.6693  142.9248 LP  0  0  0  0  0  0  0  0  0  0  0  0  # atno 17321 bound_to 7965
  140.0649  143.5118  152.2609 LP  0  0  0  0  0  0  0  0  0  0  0  0  # atno 17342 bound_to 10162
  139.6028  144.7587  151.3132 LP  0  0  0  0  0  0  0  0  0  0  0  0  # atno 17343 bound_to 10162
  157.1652  131.0355  151.2822 LP  0  0  0  0  0  0  0  0  0  0  0  0  # atno 17370 bound_to 10713
  157.4276  130.7472  149.6964 LP  0  0  0  0  0  0  0  0  0  0  0  0  # atno 17371 bound_to 10713
  141.1883  133.8262  157.0999 LP  0  0  0  0  0  0  0  0  0  0  0  0  # atno 17394 bound_to 11000
  140.0391  134.9863  157.0927 LP  0  0  0  0  0  0  0  0  0  0  0  0  # atno 17395 bound_to 11000

$$$$
