AV-unprocessed.smi:3161|AV-procd|sdf|12056|dock4
  -GOLD-   2272017483D 1   1.00000     0.00000
 Structure written by MMmdl.
 41 42  0  0  0  0  0  0  0  0  2 V2000
  153.9008  142.8480  163.3600 C   0  0  0  0  0  0  0  0  0  0  0  0
  153.1642  143.0023  162.0607 C   0  0  0  0  0  0  0  0  0  0  0  0
  152.3689  144.1029  161.6316 C   0  0  0  0  0  0  0  0  0  0  0  0
  151.8520  143.9251  160.4264 N   0  0  0  0  0  0  0  0  0  0  0  0
  152.3019  142.7119  160.0427 N   0  0  0  0  0  0  0  0  0  0  0  0
  151.9201  142.1792  158.7471 C   0  0  0  0  0  0  0  0  0  0  0  0
  151.1411  143.1956  157.8792 C   0  0  1  0  0  0  0  0  0  0  0  0
  151.8750  144.5410  157.7451 C   0  0  0  0  0  0  0  0  0  0  0  0
  150.8733  142.6527  156.5287 N   0  3  0  0  0  0  0  0  0  0  0  0
  150.7007  141.1862  156.4525 C   0  0  0  0  0  0  0  0  0  0  0  0
  149.7689  140.8049  155.2933 C   0  0  2  0  0  0  0  0  0  0  0  0
  148.5413  141.7334  155.2105 C   0  0  0  0  0  0  0  0  0  0  0  0
  147.5885  141.2697  154.1025 C   0  0  0  0  0  0  0  0  0  0  0  0
  147.2441  139.7902  154.3028 C   0  0  0  0  0  0  0  0  0  0  0  0
  148.5280  138.9572  154.4422 C   0  0  0  0  0  0  0  0  0  0  0  0
  149.3235  139.4671  155.5082 O   0  0  0  0  0  0  0  0  0  0  0  0
  153.0898  142.1292  161.0127 C   0  0  0  0  0  0  0  0  0  0  0  0
  154.1480  143.8136  163.8020 H   0  0  0  0  0  0  0  0  0  0  0  0
  154.8378  142.3058  163.2319 H   0  0  0  0  0  0  0  0  0  0  0  0
  153.3094  142.2999  164.0936 H   0  0  0  0  0  0  0  0  0  0  0  0
  152.1523  145.0206  162.1585 H   0  0  0  0  0  0  0  0  0  0  0  0
  152.8260  141.8610  158.2290 H   0  0  0  0  0  0  0  0  0  0  0  0
  151.3296  141.2797  158.9218 H   0  0  0  0  0  0  0  0  0  0  0  0
  150.1787  143.3983  158.3519 H   0  0  0  0  0  0  0  0  0  0  0  0
  152.0034  145.0283  158.7119 H   0  0  0  0  0  0  0  0  0  0  0  0
  151.3164  145.2306  157.1113 H   0  0  0  0  0  0  0  0  0  0  0  0
  152.8640  144.4107  157.3042 H   0  0  0  0  0  0  0  0  0  0  0  0
  150.0170  143.0729  156.1970 H   0  0  0  0  0  0  0  0  0  0  0  0
  151.6656  140.6948  156.3279 H   0  0  0  0  0  0  0  0  0  0  0  0
  150.2778  140.8338  157.3941 H   0  0  0  0  0  0  0  0  0  0  0  0
  150.3263  140.8570  154.3560 H   0  0  0  0  0  0  0  0  0  0  0  0
  148.0142  141.7344  156.1658 H   0  0  0  0  0  0  0  0  0  0  0  0
  148.8544  142.7613  155.0254 H   0  0  0  0  0  0  0  0  0  0  0  0
  146.6817  141.8751  154.1008 H   0  0  0  0  0  0  0  0  0  0  0  0
  148.0607  141.4083  153.1291 H   0  0  0  0  0  0  0  0  0  0  0  0
  146.6350  139.6739  155.2001 H   0  0  0  0  0  0  0  0  0  0  0  0
  146.6451  139.4245  153.4681 H   0  0  0  0  0  0  0  0  0  0  0  0
  148.2788  137.9174  154.6542 H   0  0  0  0  0  0  0  0  0  0  0  0
  149.0994  138.9638  153.5126 H   0  0  0  0  0  0  0  0  0  0  0  0
  153.5309  141.1523  160.8780 H   0  0  0  0  0  0  0  0  0  0  0  0
  151.6229  142.9277  155.9098 H   0  0  0  0  0  0  0  0  0  0  0  0
  1  2  1  0  0  0  0
  1 18  1  0  0  0  0
  1 19  1  0  0  0  0
  1 20  1  0  0  0  0
  2 17  2  0  0  0  0
  2  3  1  0  0  0  0
  3  4  2  0  0  0  0
  3 21  1  0  0  0  0
  4  5  1  0  0  0  0
  5  6  1  0  0  0  0
  5 17  1  0  0  0  0
  6  7  1  0  0  0  0
  6 22  1  0  0  0  0
  6 23  1  0  0  0  0
  7  8  1  0  0  0  0
  7  9  1  0  0  0  0
  7 24  1  0  0  0  0
  8 25  1  0  0  0  0
  8 26  1  0  0  0  0
  8 27  1  0  0  0  0
  9 10  1  0  0  0  0
  9 28  1  0  0  0  0
  9 41  1  0  0  0  0
 10 11  1  0  0  0  0
 10 29  1  0  0  0  0
 10 30  1  0  0  0  0
 11 16  1  0  0  0  0
 11 12  1  0  0  0  0
 11 31  1  0  0  0  0
 12 13  1  0  0  0  0
 12 32  1  0  0  0  0
 12 33  1  0  0  0  0
 13 14  1  0  0  0  0
 13 34  1  0  0  0  0
 13 35  1  0  0  0  0
 14 15  1  0  0  0  0
 14 36  1  0  0  0  0
 14 37  1  0  0  0  0
 15 16  1  0  0  0  0
 15 38  1  0  0  0  0
 15 39  1  0  0  0  0
 17 40  1  0  0  0  0
M  CHG  1   9   1
M  END
> <s_m_source_file>
AV-unprocessed.smi

> <i_m_source_file_index>
3161

> <i_lp_mmshare_version>
43012

> <i_f3d_flags>
0

> <s_epik_input>
W0NIM11jMVtjSF1ubihbY0hdMSlbQ0gyXVtDQEhdKFtDSDNdKVtOSF1bQ0gyXVtDQEBIXTJbQ0gyXVtDSDJdW0NIMl1bQ0gyXU8y

> <s_epik_cmdline>
J2VwaWtfcHl0aG9uJywgJy1waCcsICc3LjAnLCAnLXRuJywgJzgnLCAnLW1hJywgJzIwMCcsICctbWV0YWxfYmluZGluZycsICctaW1hZScsICc8aW5maWxlLm1hZT4nLCAnLW9tYWUnLCAnPG91dGZpbGUubWFlPic=

> <r_lp_tautomer_probability>
1

> <r_epik_Ionization_Penalty>
0.00849661

> <r_epik_Ionization_Penalty_Charging>
0.00848754

> <r_epik_Ionization_Penalty_Neutral>
9.06711e-06

> <r_epik_State_Penalty>
0.00639836

> <r_epik_Charging_Adjusted_Penalty>
0.0148859

> <i_epik_Tot_Q>
1

> <i_epik_Tot_abs_Q>
1

> <r_epik_Metal_State_Penalty>
0.00639921

> <b_epik_Metal_Only>
0

> <s_lp_Force_Field>
OPLS_2005

> <r_lp_Energy>
12.4763

> <b_lp_Chiralities_Consistent>
1

> <s_lp_Variant>
AV-unprocessed.smi:3161-2

> <Gold.Version>
5.8.1

> <Gold.Id.Protein>
6NUR|6NUR_protein|mol2

> <Gold.PLP.Fitness>
48.6854

> <Gold.PLP.PLP>
-43.9862

> <Gold.PLP.part.hbond>
-1.0000

> <Gold.PLP.part.metal>
0.0000

> <Gold.PLP.part.buried>
-1.3566

> <Gold.PLP.part.nonpolar>
-40.3146

> <Gold.PLP.part.repulsive>
0.2329

> <Gold.PLP.ligand.clash>
0.0000

> <Gold.PLP.ligand.torsion>
0.6890

> <Gold.PLP.Chemscore.Hbond>
2.0000

> <Gold.PLP.Chemscore.CHOScore>
0.0000

> <Gold.PLP.Chemscore.Metal>
0.0000

> <Gold.Chemscore.Hbonds>
donor molecule, donor type, donor heavy atom, donor atom, acceptor molecule, acceptor atom, score
      L1  H     9    28       P1  8028  1.82

> <Gold.PLP.Chemscore.Internal.Correction>
0.0772

> <Gold.Rescore>
     Score         DG    S(hbond)    S(metal)    S(lipo)     H(rot)  DE(clash)    DE(int)     intcor
     16.07     -18.26       0.92        0.00     117.45       1.57       0.13       2.06       ----

> <Gold.Chemscore.Fitness>
16.0696

> <Gold.Chemscore.DG>
-18.2589

> <Gold.Chemscore.ZeroCoef>
-5.4800

> <Gold.Chemscore.Hbond>
0.9163

> <Gold.Chemscore.Metal>
0.0000

> <Gold.Chemscore.Lipo>
117.4475

> <Gold.Chemscore.Internal_Hbond>
0.0000

> <Gold.Chemscore.DEClash>
0.1252

> <Gold.Chemscore.DEInternal>
2.0640

> <Gold.Chemscore.Rot>
1.5714

> <Gold.Chemscore.Internal.Correction>
   9.000000E+99

> <Gold.Chemscore.Hbonds>
donor molecule, donor type, donor heavy atom, donor atom, acceptor molecule, acceptor atom, score
      L1  H     9    28       P1  8028  0.83

> <Gold.Chemscore.Hbond.Weighted>
-3.0604

> <Gold.Chemscore.Metal.Weighted>
-0.0000

> <Gold.Chemscore.Lipo.Weighted>
-13.7414

> <Gold.Chemscore.Internal_Hbond.Weighted>
0.0000

> <Gold.Chemscore.DEClash.Weighted>
0.1252

> <Gold.Chemscore.DEInternal.Weighted>
2.0640

> <Gold.Chemscore.Rot.Weighted>
4.0228

> <Gold.Chemscore.Internal.Correction.Weighted>
   9.000000E+99

> <Gold.Protein.RotatedTorsions>
[ 6907 6896 6895 6894 ] final   68.63 input  -60.11 | X-H torsion
[ 7974 7965 7964 7962 ] final -153.21 input  175.53 | X-H torsion
[ 8008 7997 7996 7995 ] final   84.65 input   59.86 | X-H torsion
[ 10167 10162 10161 10158 ] final  -59.72 input  -65.29 | X-H torsion
[ 10718 10713 10712 10709 ] final   21.52 input   66.30 | X-H torsion
[ 10763 10752 10751 10750 ] final   36.11 input  -60.55 | X-H torsion
[ 11005 11000 10999 10996 ] final   80.37 input  -57.11 | X-H torsion

> <Gold.Protein.ActiveResidues>
 VAL166  LYS551  ARG553  GLY616  TRP617  ASP618  TYR619  PRO620  LYS621  CYS622 
 ASP623  PHE694  ASN695  SER759  ASP760  ASP761  ALA762  ILE779  LEU786  VAL792 
 PHE793  MET794  SER795  GLU796  ALA797  LYS798  CYS799  TRP800  GLU811  SER814 

> <Gold.Protein.RotatedAtoms>
  152.4633  134.5134  159.9760 H   0  0  0  0  0  0  0  0  0  0  0  0  # atno 6907 bound_to 6896
  151.5178  133.3466  159.2904 H   0  0  0  0  0  0  0  0  0  0  0  0  # atno 6908 bound_to 6896
  150.8605  134.7985  159.7141 H   0  0  0  0  0  0  0  0  0  0  0  0  # atno 6909 bound_to 6896
  144.7753  140.4557  143.5878 H   0  0  0  0  0  0  0  0  0  0  0  0  # atno 7974 bound_to 7965
  155.9399  140.3409  155.6318 H   0  0  0  0  0  0  0  0  0  0  0  0  # atno 8008 bound_to 7997
  155.7053  140.0765  157.2412 H   0  0  0  0  0  0  0  0  0  0  0  0  # atno 8009 bound_to 7997
  154.4100  140.1632  156.2223 H   0  0  0  0  0  0  0  0  0  0  0  0  # atno 8010 bound_to 7997
  140.6117  143.2389  151.5694 H   0  0  0  0  0  0  0  0  0  0  0  0  # atno 10167 bound_to 10162
  157.1395  130.6626  149.5977 H   0  0  0  0  0  0  0  0  0  0  0  0  # atno 10718 bound_to 10713
  153.0090  135.6315  154.1933 H   0  0  0  0  0  0  0  0  0  0  0  0  # atno 10763 bound_to 10752
  154.1676  135.2820  155.3092 H   0  0  0  0  0  0  0  0  0  0  0  0  # atno 10764 bound_to 10752
  154.5933  135.5610  153.7361 H   0  0  0  0  0  0  0  0  0  0  0  0  # atno 10765 bound_to 10752
  139.9137  134.7915  156.1900 H   0  0  0  0  0  0  0  0  0  0  0  0  # atno 11005 bound_to 11000
  145.6205  139.1523  143.3025 LP  0  0  0  0  0  0  0  0  0  0  0  0  # atno 17320 bound_to 7965
  146.1928  140.6315  142.9138 LP  0  0  0  0  0  0  0  0  0  0  0  0  # atno 17321 bound_to 7965
  139.5366  144.2763  152.1264 LP  0  0  0  0  0  0  0  0  0  0  0  0  # atno 17342 bound_to 10162
  140.1964  144.4701  150.6453 LP  0  0  0  0  0  0  0  0  0  0  0  0  # atno 17343 bound_to 10162
  155.9791  130.4782  150.6697 LP  0  0  0  0  0  0  0  0  0  0  0  0  # atno 17370 bound_to 10713
  157.4319  131.0850  151.1030 LP  0  0  0  0  0  0  0  0  0  0  0  0  # atno 17371 bound_to 10713
  141.0590  133.6851  156.1915 LP  0  0  0  0  0  0  0  0  0  0  0  0  # atno 17394 bound_to 11000
  140.6692  134.4886  157.5586 LP  0  0  0  0  0  0  0  0  0  0  0  0  # atno 17395 bound_to 11000

$$$$
