AV-unprocessed.smi:831|AV-procd|sdf|3874|dock3
  -GOLD-   22720 1323D 1   1.00000     0.00000
 Structure written by MMmdl.
 50 51  0  0  0  0  0  0  0  0  1 V2000
  150.3342  132.0828  155.8344 C   0  0  0  0  0  0  0  0  0  0  0  0
  149.2602  132.1065  154.7375 C   0  0  0  0  0  0  0  0  0  0  0  0
  149.4276  130.9134  153.7834 C   0  0  0  0  0  0  0  0  0  0  0  0
  149.2783  133.4408  153.9748 C   0  0  0  0  0  0  0  0  0  0  0  0
  148.6116  134.4291  154.7523 O   0  0  0  0  0  0  0  0  0  0  0  0
  149.3423  134.9143  155.8742 C   0  0  2  0  0  0  0  0  0  0  0  0
  148.3305  135.5732  156.8227 C   0  0  0  0  0  0  0  0  0  0  0  0
  150.3984  135.9371  155.4049 C   0  0  0  0  0  0  0  0  0  0  0  0
  151.5860  135.7257  155.6441 O   0  0  0  0  0  0  0  0  0  0  0  0
  150.0198  137.0562  154.7657 N   0  0  0  0  0  0  0  0  0  0  0  0
  150.8796  138.1198  154.2582 C   0  0  0  0  0  0  0  0  0  0  0  0
  151.1739  139.2183  155.2696 C   0  0  0  0  0  0  0  0  0  0  0  0
  150.4675  140.4405  155.2955 C   0  0  0  0  0  0  0  0  0  0  0  0
  150.7953  141.4000  156.2717 C   0  0  0  0  0  0  0  0  0  0  0  0
  151.8213  141.1164  157.2038 C   0  0  0  0  0  0  0  0  0  0  0  0
  152.1669  142.0672  158.1883 N   0  0  0  0  0  0  0  0  0  0  0  0
  151.5581  143.3936  158.1076 C   0  0  0  0  0  0  0  0  0  0  0  0
  152.2662  144.3658  159.0663 C   0  0  0  0  0  0  0  0  0  0  0  0
  152.2500  143.8336  160.3866 O   0  0  0  0  0  0  0  0  0  0  0  0
  152.9439  142.5931  160.4656 C   0  0  0  0  0  0  0  0  0  0  0  0
  152.2649  141.5568  159.5535 C   0  0  0  0  0  0  0  0  0  0  0  0
  152.4883  139.9360  157.1851 N   0  0  0  0  0  0  0  0  0  0  0  0
  152.1714  139.0203  156.2456 C   0  0  0  0  0  0  0  0  0  0  0  0
  151.3351  132.1751  155.4116 H   0  0  0  0  0  0  0  0  0  0  0  0
  150.2962  131.1521  156.4010 H   0  0  0  0  0  0  0  0  0  0  0  0
  150.1939  132.9017  156.5405 H   0  0  0  0  0  0  0  0  0  0  0  0
  148.2900  132.0128  155.2271 H   0  0  0  0  0  0  0  0  0  0  0  0
  150.3810  130.9583  153.2563 H   0  0  0  0  0  0  0  0  0  0  0  0
  148.6362  130.8906  153.0339 H   0  0  0  0  0  0  0  0  0  0  0  0
  149.3916  129.9682  154.3254 H   0  0  0  0  0  0  0  0  0  0  0  0
  150.3068  133.7607  153.8008 H   0  0  0  0  0  0  0  0  0  0  0  0
  148.8100  133.3132  152.9981 H   0  0  0  0  0  0  0  0  0  0  0  0
  149.7862  134.0662  156.3938 H   0  0  0  0  0  0  0  0  0  0  0  0
  148.8224  135.9701  157.7114 H   0  0  0  0  0  0  0  0  0  0  0  0
  147.5855  134.8497  157.1549 H   0  0  0  0  0  0  0  0  0  0  0  0
  147.7988  136.3932  156.3382 H   0  0  0  0  0  0  0  0  0  0  0  0
  149.0277  137.1900  154.6356 H   0  0  0  0  0  0  0  0  0  0  0  0
  151.8336  137.6968  153.9409 H   0  0  0  0  0  0  0  0  0  0  0  0
  150.4114  138.5675  153.3801 H   0  0  0  0  0  0  0  0  0  0  0  0
  149.6785  140.6512  154.5889 H   0  0  0  0  0  0  0  0  0  0  0  0
  150.2476  142.3301  156.3039 H   0  0  0  0  0  0  0  0  0  0  0  0
  151.6240  143.7784  157.0890 H   0  0  0  0  0  0  0  0  0  0  0  0
  150.4999  143.3222  158.3628 H   0  0  0  0  0  0  0  0  0  0  0  0
  153.2941  144.5462  158.7474 H   0  0  0  0  0  0  0  0  0  0  0  0
  151.7589  145.3306  159.0659 H   0  0  0  0  0  0  0  0  0  0  0  0
  153.9900  142.7304  160.1868 H   0  0  0  0  0  0  0  0  0  0  0  0
  152.9340  142.2467  161.4993 H   0  0  0  0  0  0  0  0  0  0  0  0
  151.2603  141.3405  159.9198 H   0  0  0  0  0  0  0  0  0  0  0  0
  152.8253  140.6243  159.5982 H   0  0  0  0  0  0  0  0  0  0  0  0
  152.7324  138.0978  156.2762 H   0  0  0  0  0  0  0  0  0  0  0  0
  1  2  1  0  0  0  0
  1 24  1  0  0  0  0
  1 25  1  0  0  0  0
  1 26  1  0  0  0  0
  2  3  1  0  0  0  0
  2  4  1  0  0  0  0
  2 27  1  0  0  0  0
  3 28  1  0  0  0  0
  3 29  1  0  0  0  0
  3 30  1  0  0  0  0
  4  5  1  0  0  0  0
  4 31  1  0  0  0  0
  4 32  1  0  0  0  0
  5  6  1  0  0  0  0
  6  7  1  0  0  0  0
  6  8  1  0  0  0  0
  6 33  1  0  0  0  0
  7 34  1  0  0  0  0
  7 35  1  0  0  0  0
  7 36  1  0  0  0  0
  8  9  2  0  0  0  0
  8 10  1  0  0  0  0
 10 11  1  0  0  0  0
 10 37  1  0  0  0  0
 11 12  1  0  0  0  0
 11 38  1  0  0  0  0
 11 39  1  0  0  0  0
 12 23  1  0  0  0  0
 12 13  2  0  0  0  0
 13 14  1  0  0  0  0
 13 40  1  0  0  0  0
 14 15  2  0  0  0  0
 14 41  1  0  0  0  0
 15 16  1  0  0  0  0
 15 22  1  0  0  0  0
 16 21  1  0  0  0  0
 16 17  1  0  0  0  0
 17 18  1  0  0  0  0
 17 42  1  0  0  0  0
 17 43  1  0  0  0  0
 18 19  1  0  0  0  0
 18 44  1  0  0  0  0
 18 45  1  0  0  0  0
 19 20  1  0  0  0  0
 20 21  1  0  0  0  0
 20 46  1  0  0  0  0
 20 47  1  0  0  0  0
 21 48  1  0  0  0  0
 21 49  1  0  0  0  0
 22 23  2  0  0  0  0
 23 50  1  0  0  0  0
M  END
> <s_m_source_file>
AV-unprocessed.smi

> <i_m_source_file_index>
831

> <i_lp_mmshare_version>
43012

> <i_f3d_flags>
0

> <s_epik_input>
W0NIM11bQ0hdKFtDSDNdKVtDSDJdT1tDQEhdKFtDSDNdKUMoPU8pW05IXVtDSDJdYzFbY0hdW2NIXWMobltjSF0xKU4yW0NIMl1bQ0gyXU9bQ0gyXVtDSDJdMg==

> <s_epik_cmdline>
J2VwaWtfcHl0aG9uJywgJy1waCcsICc3LjAnLCAnLXRuJywgJzgnLCAnLW1hJywgJzIwMCcsICctbWV0YWxfYmluZGluZycsICctaW1hZScsICc8aW5maWxlLm1hZT4nLCAnLW9tYWUnLCAnPG91dGZpbGUubWFlPic=

> <r_lp_tautomer_probability>
1

> <r_epik_Ionization_Penalty>
0.00456501

> <r_epik_Ionization_Penalty_Charging>
0

> <r_epik_Ionization_Penalty_Neutral>
0.00456501

> <r_epik_State_Penalty>
0.00329791

> <r_epik_Charging_Adjusted_Penalty>
0.00329791

> <i_epik_Tot_Q>
0

> <i_epik_Tot_abs_Q>
0

> <r_epik_Metal_State_Penalty>
-0

> <b_epik_Metal_Only>
0

> <s_lp_Force_Field>
OPLS_2005

> <r_lp_Energy>
23.9744

> <b_lp_Chiralities_Consistent>
1

> <s_lp_Variant>
AV-unprocessed.smi:831-1

> <Gold.Version>
5.8.1

> <Gold.Id.Protein>
6NUR|6NUR_protein|mol2

> <Gold.PLP.Fitness>
47.6346

> <Gold.PLP.PLP>
-43.3143

> <Gold.PLP.part.hbond>
-2.5109

> <Gold.PLP.part.metal>
0.0000

> <Gold.PLP.part.buried>
-4.4588

> <Gold.PLP.part.nonpolar>
-35.7497

> <Gold.PLP.part.repulsive>
0.2704

> <Gold.PLP.ligand.clash>
0.0000

> <Gold.PLP.ligand.torsion>
1.0887

> <Gold.PLP.Chemscore.Hbond>
1.9600

> <Gold.PLP.Chemscore.CHOScore>
0.0000

> <Gold.PLP.Chemscore.Metal>
0.0000

> <Gold.Chemscore.Hbonds>
donor molecule, donor type, donor heavy atom, donor atom, acceptor molecule, acceptor atom, score
      P1  H  7997  8009       L1    22  0.98
      P1  H 10752 10764       L1     9  1.00

> <Gold.PLP.Chemscore.Internal.Correction>
0.6177

> <Gold.Rescore>
     Score         DG    S(hbond)    S(metal)    S(lipo)     H(rot)  DE(clash)    DE(int)     intcor
     16.00     -17.25       1.22        0.00     107.82       1.92       0.07       1.19       ----

> <Gold.Chemscore.Fitness>
15.9988

> <Gold.Chemscore.DG>
-17.2543

> <Gold.Chemscore.ZeroCoef>
-5.4800

> <Gold.Chemscore.Hbond>
1.2170

> <Gold.Chemscore.Metal>
0.0000

> <Gold.Chemscore.Lipo>
107.8161

> <Gold.Chemscore.Internal_Hbond>
0.0000

> <Gold.Chemscore.DEClash>
0.0678

> <Gold.Chemscore.DEInternal>
1.1877

> <Gold.Chemscore.Rot>
1.9159

> <Gold.Chemscore.Internal.Correction>
   9.000000E+99

> <Gold.Chemscore.Hbonds>
donor molecule, donor type, donor heavy atom, donor atom, acceptor molecule, acceptor atom, score
      P1  H  7997  8009       L1    22  0.20
      P1  H 10752 10764       L1     9  1.00

> <Gold.Chemscore.Hbond.Weighted>
-4.0646

> <Gold.Chemscore.Metal.Weighted>
-0.0000

> <Gold.Chemscore.Lipo.Weighted>
-12.6145

> <Gold.Chemscore.Internal_Hbond.Weighted>
0.0000

> <Gold.Chemscore.DEClash.Weighted>
0.0678

> <Gold.Chemscore.DEInternal.Weighted>
1.1877

> <Gold.Chemscore.Rot.Weighted>
4.9047

> <Gold.Chemscore.Internal.Correction.Weighted>
   9.000000E+99

> <Gold.Protein.RotatedTorsions>
[ 6907 6896 6895 6894 ] final  -22.74 input  -60.11 | X-H torsion
[ 7974 7965 7964 7962 ] final  -74.44 input  175.53 | X-H torsion
[ 8008 7997 7996 7995 ] final  162.94 input   59.86 | X-H torsion
[ 10167 10162 10161 10158 ] final   79.83 input  -65.29 | X-H torsion
[ 10718 10713 10712 10709 ] final   82.67 input   66.30 | X-H torsion
[ 10763 10752 10751 10750 ] final  -48.40 input  -60.55 | X-H torsion
[ 11005 11000 10999 10996 ] final   53.54 input  -57.11 | X-H torsion

> <Gold.Protein.ActiveResidues>
 VAL166  LYS551  ARG553  GLY616  TRP617  ASP618  TYR619  PRO620  LYS621  CYS622 
 ASP623  PHE694  ASN695  SER759  ASP760  ASP761  ALA762  ILE779  LEU786  VAL792 
 PHE793  MET794  SER795  GLU796  ALA797  LYS798  CYS799  TRP800  GLU811  SER814 

> <Gold.Protein.RotatedAtoms>
  151.2143  135.0493  159.8923 H   0  0  0  0  0  0  0  0  0  0  0  0  # atno 6907 bound_to 6896
  152.5422  134.0711  159.8204 H   0  0  0  0  0  0  0  0  0  0  0  0  # atno 6908 bound_to 6896
  151.0868  133.5299  159.2649 H   0  0  0  0  0  0  0  0  0  0  0  0  # atno 6909 bound_to 6896
  145.6391  140.9316  143.1046 H   0  0  0  0  0  0  0  0  0  0  0  0  # atno 7974 bound_to 7965
  156.1994  140.1737  156.7931 H   0  0  0  0  0  0  0  0  0  0  0  0  # atno 8008 bound_to 7997
  154.5572  140.0706  156.8792 H   0  0  0  0  0  0  0  0  0  0  0  0  # atno 8009 bound_to 7997
  155.2917  140.3356  155.4254 H   0  0  0  0  0  0  0  0  0  0  0  0  # atno 8010 bound_to 7997
  139.9562  144.5992  150.8115 H   0  0  0  0  0  0  0  0  0  0  0  0  # atno 10167 bound_to 10162
  157.6862  131.0058  150.2410 H   0  0  0  0  0  0  0  0  0  0  0  0  # atno 10718 bound_to 10713
  154.0771  135.6596  153.4832 H   0  0  0  0  0  0  0  0  0  0  0  0  # atno 10763 bound_to 10752
  153.0369  135.5171  154.7510 H   0  0  0  0  0  0  0  0  0  0  0  0  # atno 10764 bound_to 10752
  154.6593  135.3012  154.9854 H   0  0  0  0  0  0  0  0  0  0  0  0  # atno 10765 bound_to 10752
  140.0758  134.5406  155.8998 H   0  0  0  0  0  0  0  0  0  0  0  0  # atno 11005 bound_to 11000
  144.7164  139.8181  143.7397 LP  0  0  0  0  0  0  0  0  0  0  0  0  # atno 17320 bound_to 7965
  146.1295  139.4328  143.0177 LP  0  0  0  0  0  0  0  0  0  0  0  0  # atno 17321 bound_to 7965
  140.7567  143.3072  151.2932 LP  0  0  0  0  0  0  0  0  0  0  0  0  # atno 17342 bound_to 10162
  139.6590  144.0224  152.2679 LP  0  0  0  0  0  0  0  0  0  0  0  0  # atno 17343 bound_to 10162
  156.3024  130.3760  149.7738 LP  0  0  0  0  0  0  0  0  0  0  0  0  # atno 17370 bound_to 10713
  156.5363  130.8280  151.3254 LP  0  0  0  0  0  0  0  0  0  0  0  0  # atno 17371 bound_to 10713
  141.2029  133.6628  156.6032 LP  0  0  0  0  0  0  0  0  0  0  0  0  # atno 17394 bound_to 11000
  140.3559  134.7729  157.4500 LP  0  0  0  0  0  0  0  0  0  0  0  0  # atno 17395 bound_to 11000

$$$$
