#       Name:                AV-unprocessed.smi:177
#       Creating user name   scv26
#       Creation time:       Thu Mar 26 19:23:04 2020


#       File generated by GOLD software.
#

@<TRIPOS>MOLECULE
AV-unprocessed.smi:177
    73    77     1
SMALL
NO_CHARGES


@<TRIPOS>ATOM
      1 ****        -2.0111   0.5342   4.1530 C.3            1 S1                 0.0000
      2 ****        -3.3008   0.4116   3.5729 O.3            1 S1                 0.0000
      3 ****        -3.3163  -0.2519   2.3153 C.3            1 S1                 0.0000
      4 ****        -4.7475  -0.7593   2.0764 C.3            1 S1                 0.0000
      5 ****        -4.8730  -1.4600   0.7146 C.3            1 S1                 0.0000
      6 ****        -4.4108  -0.5629  -0.4469 C.3            1 S1                 0.0000
      7 ****        -5.3433   0.4993  -0.6308 O.3            1 S1                 0.0000
      8 ****        -5.0338   1.2871  -1.7756 C.3            1 S1                 0.0000
      9 ****        -3.6517   1.9376  -1.6037 C.3            1 S1                 0.0000
     10 ****        -2.6427   0.9214  -1.3006 N.3            1 S1                 0.0000
     11 ****        -1.3325   1.2775  -1.3926 C.ar           1 S1                 0.0000
     12 ****        -0.9942   2.5954  -1.4002 N.ar           1 S1                 0.0000
     13 ****         0.2860   2.9686  -1.4745 C.ar           1 S1                 0.0000
     14 ****         1.3745   2.2020  -1.5478 N.ar           1 S1                 0.0000
     15 ****         1.0474   0.8783  -1.5448 C.ar           1 S1                 0.0000
     16 ****        -0.2674   0.3339  -1.4771 C.ar           1 S1                 0.0000
     17 ****        -0.2009  -1.0539  -1.5263 N.2            1 S1                 0.0000
     18 ****         1.0750  -1.3135  -1.6015 C.2            1 S1                 0.0000
     19 ****         1.8999  -0.2116  -1.6020 N.pl3          1 S1                 0.0000
     20 ****         3.3538  -0.2126  -1.6880 C.3            1 S1                 0.0000
     21 ****         4.1017  -0.2812  -0.3186 C.3            1 S1                 0.0000
     22 ****         3.7432   0.9880   0.5036 C.3            1 S1                 0.0000
     23 ****         4.4414   1.0804   1.7301 O.3            1 S1                 0.0000
     24 ****         3.7265  -1.5515   0.4882 C.3            1 S1                 0.0000
     25 ****         4.2661  -2.8375  -0.1623 C.3            1 S1                 0.0000
     26 ****         5.6787  -2.7499  -0.3017 O.3            1 S1                 0.0000
     27 ****         6.0893  -1.6890  -1.1560 C.3            1 S1                 0.0000
     28 ****         5.6293  -0.3344  -0.5827 C.3            1 S1                 0.0000
     29 ****        -2.9985   0.0192  -0.2010 C.3            1 S1                 0.0000
     30 ****        -2.8979   0.7042   1.1820 C.3            1 S1                 0.0000
     31 ****        -2.0953   1.0308   5.1195 H              1 S1                 0.0000
     32 ****        -1.3393   1.1285   3.5345 H              1 S1                 0.0000
     33 ****        -1.5594  -0.4443   4.3201 H              1 S1                 0.0000
     34 ****        -2.6450  -1.1126   2.3421 H              1 S1                 0.0000
     35 ****        -5.0334  -1.4489   2.8712 H              1 S1                 0.0000
     36 ****        -5.4488   0.0751   2.1249 H              1 S1                 0.0000
     37 ****        -4.2695  -2.3682   0.7256 H              1 S1                 0.0000
     38 ****        -5.9028  -1.7795   0.5518 H              1 S1                 0.0000
     39 ****        -4.3990  -1.1700  -1.3542 H              1 S1                 0.0000
     40 ****        -5.0618   0.6690  -2.6742 H              1 S1                 0.0000
     41 ****        -5.7972   2.0559  -1.8957 H              1 S1                 0.0000
     42 ****        -3.3885   2.4664  -2.5208 H              1 S1                 0.0000
     43 ****        -3.6836   2.6782  -0.8039 H              1 S1                 0.0000
     44 ****         0.4628   4.0342  -1.4730 H              1 S1                 0.0000
     45 ****         1.4508  -2.3247  -1.6566 H              1 S1                 0.0000
     46 ****         3.6333  -1.0428  -2.3345 H              1 S1                 0.0000
     47 ****         3.6570   0.6849  -2.2287 H              1 S1                 0.0000
     48 ****         3.9588   1.8872  -0.0744 H              1 S1                 0.0000
     49 ****         2.6791   1.0096   0.7380 H              1 S1                 0.0000
     50 ****         4.1857   1.8814   2.1616 H              1 S1                 0.0000
     51 ****         4.1520  -1.4918   1.4904 H              1 S1                 0.0000
     52 ****         2.6495  -1.6227   0.6357 H              1 S1                 0.0000
     53 ****         4.0321  -3.6961   0.4673 H              1 S1                 0.0000
     54 ****         3.8018  -3.0259  -1.1305 H              1 S1                 0.0000
     55 ****         7.1767  -1.7066  -1.2298 H              1 S1                 0.0000
     56 ****         5.7117  -1.8523  -2.1655 H              1 S1                 0.0000
     57 ****         5.9287   0.4739  -1.2509 H              1 S1                 0.0000
     58 ****         6.1788  -0.1740   0.3451 H              1 S1                 0.0000
     59 ****        -2.3151  -0.8273  -0.1937 H              1 S1                 0.0000
     60 ****        -3.5317   1.5907   1.2144 H              1 S1                 0.0000
     61 ****        -1.8771   1.0508   1.3399 H              1 S1                 0.0000
     62 ****        -3.6762   1.3299   3.4472 LP             1 S1                 0.0000
     63 ****        -3.8810  -0.1019   4.2051 LP             1 S1                 0.0000
     64 ****        -5.3284   1.0861   0.1788 LP             1 S1                 0.0000
     65 ****        -6.2577   0.1105  -0.7438 LP             1 S1                 0.0000
     66 ****        -2.6953   0.3398  -2.1123 LP             1 S1                 0.0000
     67 ****        -1.7108   3.2911  -1.3496 LP             1 S1                 0.0000
     68 ****         2.3097   2.5525  -1.5984 LP             1 S1                 0.0000
     69 ****        -0.9594  -1.7053  -1.5081 LP             1 S1                 0.0000
     70 ****         5.4263   1.0899   1.5576 LP             1 S1                 0.0000
     71 ****         4.2119   0.2977   2.3086 LP             1 S1                 0.0000
     72 ****         6.0154  -3.6121  -0.6801 LP             1 S1                 0.0000
     73 ****         6.0795  -2.6038   0.6028 LP             1 S1                 0.0000
@<TRIPOS>BOND
    1    1    2 1     
    2    1   31 1     
    3    1   32 1     
    4    1   33 1     
    5    2    3 1     
    6    3   30 1     
    7    3    4 1     
    8    3   34 1     
    9    4    5 1     
   10    4   35 1     
   11    4   36 1     
   12    5    6 1     
   13    5   37 1     
   14    5   38 1     
   15    6   29 1     
   16    6    7 1     
   17    6   39 1     
   18    7    8 1     
   19    8    9 1     
   20    8   40 1     
   21    8   41 1     
   22    9   10 1     
   23    9   42 1     
   24    9   43 1     
   25   10   11 1     
   26   10   29 1     
   27   11   16 ar    
   28   11   12 ar    
   29   12   13 ar    
   30   13   14 ar    
   31   13   44 1     
   32   14   15 ar    
   33   15   19 1     
   34   15   16 ar    
   35   16   17 1     
   36   17   18 2     
   37   18   19 1     
   38   18   45 1     
   39   19   20 1     
   40   20   21 1     
   41   20   46 1     
   42   20   47 1     
   43   21   28 1     
   44   21   22 1     
   45   21   24 1     
   46   22   23 1     
   47   22   48 1     
   48   22   49 1     
   49   23   50 1     
   50   24   25 1     
   51   24   51 1     
   52   24   52 1     
   53   25   26 1     
   54   25   53 1     
   55   25   54 1     
   56   26   27 1     
   57   27   28 1     
   58   27   55 1     
   59   27   56 1     
   60   28   57 1     
   61   28   58 1     
   62   29   30 1     
   63   29   59 1     
   64   30   60 1     
   65   30   61 1     
   66    2   62 1     
   67    2   63 1     
   68    7   64 1     
   69    7   65 1     
   70   10   66 1     
   71   12   67 1     
   72   14   68 1     
   73   17   69 1     
   74   23   70 1     
   75   23   71 1     
   76   26   72 1     
   77   26   73 1     
@<TRIPOS>SUBSTRUCTURE
      1 S1             1
@<TRIPOS>SET
LONE_PAIRS      STATIC     ATOMS    <user>   **** ""
12 62 63 64 65 66 67 68 69 70 71 72 73
DONOR_HYDROGENS      STATIC     ATOMS    <user>   **** ""
1 50
ATOM$BLUE        STATIC     ATOMS    COLORGROUP SYSTEM
12 62 63 64 65 66 67 68 69 70 71 72 73
ATOM$RED        STATIC     ATOMS    COLORGROUP SYSTEM
1 50
