#       Name:                AV-unprocessed.smi:1045
#       Creating user name   scv26
#       Creation time:       Fri Mar 27 02:57:16 2020


#       File generated by GOLD software.
#

@<TRIPOS>MOLECULE
AV-unprocessed.smi:1045
    47    48     1
SMALL
NO_CHARGES


@<TRIPOS>ATOM
      1 ****        -5.6952   1.4623  -3.9323 C.3            1 S1                 0.0000
      2 ****        -4.2847   1.4143  -3.8099 O.3            1 S1                 0.0000
      3 ****        -3.7548   0.1353  -4.1236 C.3            1 S1                 0.0000
      4 ****        -2.2259   0.1431  -3.9654 C.3            1 S1                 0.0000
      5 ****        -1.5401   1.1132  -4.9408 C.3            1 S1                 0.0000
      6 ****        -1.8745   0.4653  -2.5847 N.am           1 S1                 0.0000
      7 ****        -0.8056   0.0008  -1.9227 C.2            1 S1                 0.0000
      8 ****         0.0131  -0.7745  -2.4152 O.2            1 S1                 0.0000
      9 ****        -0.7681   0.4836  -0.6687 N.am           1 S1                 0.0000
     10 ****         0.1859   0.2344   0.3556 C.ar           1 S1                 0.0000
     11 ****        -0.1658   0.5701   1.6774 C.ar           1 S1                 0.0000
     12 ****         0.7579   0.3473   2.7158 C.ar           1 S1                 0.0000
     13 ****         2.0213  -0.2074   2.4037 C.ar           1 S1                 0.0000
     14 ****         2.9765  -0.4485   3.4112 N.pl3          1 S1                 0.0000
     15 ****         4.2075  -1.1746   3.1389 C.3            1 S1                 0.0000
     16 ****         4.8657  -1.3469   4.5068 C.3            1 S1                 0.0000
     17 ****         3.6710  -1.4623   5.4535 C.3            1 S1                 0.0000
     18 ****         2.5976  -0.5752   4.8121 C.3            1 S1                 0.0000
     19 ****         2.3689  -0.5115   1.1308 N.ar           1 S1                 0.0000
     20 ****         1.4798  -0.2963   0.1380 C.ar           1 S1                 0.0000
     21 ****        -6.0514   2.4598  -3.6754 H              1 S1                 0.0000
     22 ****        -6.1741   0.7505  -3.2586 H              1 S1                 0.0000
     23 ****        -6.0100   1.2448  -4.9537 H              1 S1                 0.0000
     24 ****        -4.1912  -0.6186  -3.4659 H              1 S1                 0.0000
     25 ****        -4.0210  -0.1373  -5.1463 H              1 S1                 0.0000
     26 ****        -1.8764  -0.8655  -4.1938 H              1 S1                 0.0000
     27 ****        -1.7897   0.8702  -5.9738 H              1 S1                 0.0000
     28 ****        -0.4548   1.0656  -4.8460 H              1 S1                 0.0000
     29 ****        -1.8441   2.1445  -4.7586 H              1 S1                 0.0000
     30 ****        -2.4964   1.0955  -2.0994 H              1 S1                 0.0000
     31 ****        -1.5482   1.0640  -0.3975 H              1 S1                 0.0000
     32 ****        -1.1350   0.9931   1.8986 H              1 S1                 0.0000
     33 ****         0.4880   0.6086   3.7280 H              1 S1                 0.0000
     34 ****         3.9692  -2.1452   2.7013 H              1 S1                 0.0000
     35 ****         4.8519  -0.6315   2.4469 H              1 S1                 0.0000
     36 ****         5.5328  -2.2082   4.5515 H              1 S1                 0.0000
     37 ****         5.4456  -0.4563   4.7529 H              1 S1                 0.0000
     38 ****         3.3238  -2.4961   5.4763 H              1 S1                 0.0000
     39 ****         3.9076  -1.1667   6.4760 H              1 S1                 0.0000
     40 ****         2.5932   0.4162   5.2664 H              1 S1                 0.0000
     41 ****         1.6072  -1.0145   4.9349 H              1 S1                 0.0000
     42 ****         1.8424  -0.5460  -0.8463 H              1 S1                 0.0000
     43 ****        -4.0366   1.6420  -2.8683 LP             1 S1                 0.0000
     44 ****        -3.8858   2.0880  -4.4319 LP             1 S1                 0.0000
     45 ****        -0.1012  -1.0904  -3.3570 LP             1 S1                 0.0000
     46 ****         0.7928  -1.0887  -1.8735 LP             1 S1                 0.0000
     47 ****         3.2721  -0.8904   0.9289 LP             1 S1                 0.0000
@<TRIPOS>BOND
    1    1    2 1     
    2    1   21 1     
    3    1   22 1     
    4    1   23 1     
    5    2    3 1     
    6    3    4 1     
    7    3   24 1     
    8    3   25 1     
    9    4    5 1     
   10    4    6 1     
   11    4   26 1     
   12    5   27 1     
   13    5   28 1     
   14    5   29 1     
   15    6    7 am    
   16    6   30 1     
   17    7    8 2     
   18    7    9 am    
   19    9   10 1     
   20    9   31 1     
   21   10   20 ar    
   22   10   11 ar    
   23   11   12 ar    
   24   11   32 1     
   25   12   13 ar    
   26   12   33 1     
   27   13   14 1     
   28   13   19 ar    
   29   14   18 1     
   30   14   15 1     
   31   15   16 1     
   32   15   34 1     
   33   15   35 1     
   34   16   17 1     
   35   16   36 1     
   36   16   37 1     
   37   17   18 1     
   38   17   38 1     
   39   17   39 1     
   40   18   40 1     
   41   18   41 1     
   42   19   20 ar    
   43   20   42 1     
   44    2   43 1     
   45    2   44 1     
   46    8   45 1     
   47    8   46 1     
   48   19   47 1     
@<TRIPOS>SUBSTRUCTURE
      1 S1             1
@<TRIPOS>SET
LONE_PAIRS      STATIC     ATOMS    <user>   **** ""
5 43 44 45 46 47
DONOR_HYDROGENS      STATIC     ATOMS    <user>   **** ""
2 30 31
ATOM$BLUE        STATIC     ATOMS    COLORGROUP SYSTEM
5 43 44 45 46 47
ATOM$RED        STATIC     ATOMS    COLORGROUP SYSTEM
2 30 31
