#       Name:                AV-unprocessed.smi:342
#       Creating user name   scv26
#       Creation time:       Thu Mar 26 22:31:33 2020


#       File generated by GOLD software.
#

@<TRIPOS>MOLECULE
AV-unprocessed.smi:342
    47    49     1
SMALL
NO_CHARGES


@<TRIPOS>ATOM
      1 ****        -0.3569   0.5989  -1.0123 O.3            1 S1                 0.0000
      2 ****        -0.0014  -0.3378  -0.0141 C.3            1 S1                 0.0000
      3 ****        -0.5796  -1.7120  -0.4052 C.3            1 S1                 0.0000
      4 ****        -2.0647  -1.7225  -0.4271 N.4            1 S1                 1.0000
      5 ****        -2.6124  -2.7865  -1.3022 C.3            1 S1                 0.0000
      6 ****        -4.1482  -2.7148  -1.3398 C.3            1 S1                 0.0000
      7 ****        -4.6618  -2.8209  -0.0179 O.3            1 S1                 0.0000
      8 ****        -4.2148  -1.7571   0.8135 C.3            1 S1                 0.0000
      9 ****        -2.6809  -1.7938   0.9214 C.3            1 S1                 0.0000
     10 ****         1.5341  -0.3894   0.1301 C.3            1 S1                 0.0000
     11 ****         2.1096   0.8777   0.5641 N.pl3          1 S1                 0.0000
     12 ****         2.3826   1.2900   1.8304 C.2            1 S1                 0.0000
     13 ****         2.1344   0.4210   3.0333 C.3            1 S1                 0.0000
     14 ****         2.3548   1.0956   4.1626 F              1 S1                 0.0000
     15 ****         0.8743  -0.0114   3.0614 F              1 S1                 0.0000
     16 ****         2.9484  -0.6344   3.0215 F              1 S1                 0.0000
     17 ****         2.9193   2.5079   1.9345 N.2            1 S1                 0.0000
     18 ****         3.0085   2.9205   0.6204 C.ar           1 S1                 0.0000
     19 ****         3.4971   4.1258   0.0675 C.ar           1 S1                 0.0000
     20 ****         3.4931   4.3237  -1.3287 C.ar           1 S1                 0.0000
     21 ****         3.0026   3.3211  -2.1899 C.ar           1 S1                 0.0000
     22 ****         2.5112   2.1130  -1.6591 C.ar           1 S1                 0.0000
     23 ****         2.5148   1.9211  -0.2641 C.ar           1 S1                 0.0000
     24 ****         0.0098   1.4395  -0.7806 H              1 S1                 0.0000
     25 ****        -0.4324  -0.0006   0.9266 H              1 S1                 0.0000
     26 ****        -0.1959  -1.9801  -1.3912 H              1 S1                 0.0000
     27 ****        -0.2266  -2.4862   0.2779 H              1 S1                 0.0000
     28 ****        -2.2174  -2.6763  -2.3129 H              1 S1                 0.0000
     29 ****        -2.2921  -3.7635  -0.9360 H              1 S1                 0.0000
     30 ****        -4.4845  -1.7847  -1.8011 H              1 S1                 0.0000
     31 ****        -4.5482  -3.5312  -1.9414 H              1 S1                 0.0000
     32 ****        -4.5552  -0.7996   0.4154 H              1 S1                 0.0000
     33 ****        -4.6630  -1.8688   1.8010 H              1 S1                 0.0000
     34 ****        -2.3668  -2.7122   1.4201 H              1 S1                 0.0000
     35 ****        -2.3453  -0.9636   1.5419 H              1 S1                 0.0000
     36 ****         1.8184  -1.1674   0.8380 H              1 S1                 0.0000
     37 ****         1.9936  -0.6698  -0.8187 H              1 S1                 0.0000
     38 ****         3.8776   4.8990   0.7186 H              1 S1                 0.0000
     39 ****         3.8699   5.2484  -1.7407 H              1 S1                 0.0000
     40 ****         3.0045   3.4799  -3.2585 H              1 S1                 0.0000
     41 ****         2.1358   1.3443  -2.3179 H              1 S1                 0.0000
     42 ****        -2.3481  -0.8445  -0.8394 H              1 S1                 0.0000
     43 ****        -1.3527   0.6697  -1.0689 LP             1 S1                 0.0000
     44 ****         0.0071   0.3044  -1.8959 LP             1 S1                 0.0000
     45 ****        -4.3598  -3.6884   0.3772 LP             1 S1                 0.0000
     46 ****        -5.6608  -2.8023  -0.0571 LP             1 S1                 0.0000
     47 ****         3.1903   3.0004   2.7615 LP             1 S1                 0.0000
@<TRIPOS>BOND
    1    1    2 1     
    2    1   24 1     
    3    2    3 1     
    4    2   10 1     
    5    2   25 1     
    6    3    4 1     
    7    3   26 1     
    8    3   27 1     
    9    4    9 1     
   10    4    5 1     
   11    4   42 1     
   12    5    6 1     
   13    5   28 1     
   14    5   29 1     
   15    6    7 1     
   16    6   30 1     
   17    6   31 1     
   18    7    8 1     
   19    8    9 1     
   20    8   32 1     
   21    8   33 1     
   22    9   34 1     
   23    9   35 1     
   24   10   11 1     
   25   10   36 1     
   26   10   37 1     
   27   11   23 1     
   28   11   12 1     
   29   12   13 1     
   30   12   17 2     
   31   13   14 1     
   32   13   15 1     
   33   13   16 1     
   34   17   18 1     
   35   18   23 ar    
   36   18   19 ar    
   37   19   20 ar    
   38   19   38 1     
   39   20   21 ar    
   40   20   39 1     
   41   21   22 ar    
   42   21   40 1     
   43   22   23 ar    
   44   22   41 1     
   45    1   43 1     
   46    1   44 1     
   47    7   45 1     
   48    7   46 1     
   49   17   47 1     
@<TRIPOS>SUBSTRUCTURE
      1 S1             1
@<TRIPOS>SET
LONE_PAIRS      STATIC     ATOMS    <user>   **** ""
5 43 44 45 46 47
DONOR_HYDROGENS      STATIC     ATOMS    <user>   **** ""
2 24 42
ATOM$BLUE        STATIC     ATOMS    COLORGROUP SYSTEM
5 43 44 45 46 47
ATOM$RED        STATIC     ATOMS    COLORGROUP SYSTEM
2 24 42
