AV-unprocessed.smi:2027|AV-procd|sdf|8213|dock2
  -GOLD-   2272010473D 1   1.00000     0.00000
 Structure written by MMmdl.
 50 52  0  0  0  0  0  0  0  0  2 V2000
  151.1382  144.3518  158.5913 C   0  0  0  0  0  0  0  0  0  0  0  0
  151.3656  143.0165  157.9045 C   0  0  0  0  0  0  0  0  0  0  0  0
  150.8125  142.8005  156.6225 C   0  0  0  0  0  0  0  0  0  0  0  0
  151.0021  141.5742  155.9489 C   0  0  0  0  0  0  0  0  0  0  0  0
  150.5561  141.1518  154.7083 N   0  0  0  0  0  0  0  0  0  0  0  0
  151.0582  139.9224  154.6469 C   0  0  0  0  0  0  0  0  0  0  0  0
  151.7741  139.4947  155.7046 N   0  0  0  0  0  0  0  0  0  0  0  0
  152.4098  138.1985  155.8611 C   0  0  0  0  0  0  0  0  0  0  0  0
  151.6333  137.0724  155.1526 C   0  0  2  0  0  0  0  0  0  0  0  0
  151.8612  137.1494  153.7583 O   0  0  0  0  0  0  0  0  0  0  0  0
  150.1164  137.1776  155.4069 C   0  0  0  0  0  0  0  0  0  0  0  0
  149.3776  135.9914  154.9036 N   0  3  2  0  0  0  0  0  0  0  0  0
  147.9278  136.0722  155.2015 C   0  0  0  0  0  0  0  0  0  0  0  0
  149.9799  134.7033  155.3353 C   0  0  0  0  0  0  0  0  0  0  0  0
  149.3852  133.5419  154.5861 C   0  0  0  0  0  0  0  0  0  0  0  0
  148.4653  133.5778  153.4989 C   0  0  0  0  0  0  0  0  0  0  0  0
  148.1386  132.3729  153.0621 N   0  0  0  0  0  0  0  0  0  0  0  0
  148.8288  131.5284  153.8553 N   0  0  0  0  0  0  0  0  0  0  0  0
  148.7023  130.1002  153.6580 C   0  0  0  0  0  0  0  0  0  0  0  0
  149.5880  132.2051  154.7854 C   0  0  0  0  0  0  0  0  0  0  0  0
  151.7672  140.5612  156.5979 C   0  0  0  0  0  0  0  0  0  0  0  0
  152.3221  140.7638  157.8740 C   0  0  0  0  0  0  0  0  0  0  0  0
  152.1226  141.9951  158.5330 C   0  0  0  0  0  0  0  0  0  0  0  0
  152.7261  142.2043  159.9106 C   0  0  0  0  0  0  0  0  0  0  0  0
  150.5127  145.0088  157.9866 H   0  0  0  0  0  0  0  0  0  0  0  0
  152.0881  144.8588  158.7624 H   0  0  0  0  0  0  0  0  0  0  0  0
  150.6423  144.2100  159.5516 H   0  0  0  0  0  0  0  0  0  0  0  0
  150.2356  143.5780  156.1434 H   0  0  0  0  0  0  0  0  0  0  0  0
  150.8935  139.2933  153.7842 H   0  0  0  0  0  0  0  0  0  0  0  0
  153.4220  138.2667  155.4598 H   0  0  0  0  0  0  0  0  0  0  0  0
  152.5125  137.9847  156.9259 H   0  0  0  0  0  0  0  0  0  0  0  0
  152.0148  136.1141  155.5043 H   0  0  0  0  0  0  0  0  0  0  0  0
  151.0628  136.9143  153.3089 H   0  0  0  0  0  0  0  0  0  0  0  0
  149.9101  137.3033  156.4711 H   0  0  0  0  0  0  0  0  0  0  0  0
  149.7488  138.0826  154.9202 H   0  0  0  0  0  0  0  0  0  0  0  0
  147.7479  136.0554  156.2772 H   0  0  0  0  0  0  0  0  0  0  0  0
  147.3827  135.2429  154.7508 H   0  0  0  0  0  0  0  0  0  0  0  0
  147.5021  136.9919  154.7988 H   0  0  0  0  0  0  0  0  0  0  0  0
  151.0569  134.7234  155.1725 H   0  0  0  0  0  0  0  0  0  0  0  0
  149.8517  134.5899  156.4127 H   0  0  0  0  0  0  0  0  0  0  0  0
  148.0312  134.4402  153.0149 H   0  0  0  0  0  0  0  0  0  0  0  0
  149.3732  129.5684  154.3329 H   0  0  0  0  0  0  0  0  0  0  0  0
  148.9588  129.8440  152.6298 H   0  0  0  0  0  0  0  0  0  0  0  0
  147.6772  129.7894  153.8606 H   0  0  0  0  0  0  0  0  0  0  0  0
  150.2045  131.6852  155.5042 H   0  0  0  0  0  0  0  0  0  0  0  0
  152.8957  139.9778  158.3425 H   0  0  0  0  0  0  0  0  0  0  0  0
  153.2977  141.3330  160.2319 H   0  0  0  0  0  0  0  0  0  0  0  0
  151.9425  142.3807  160.6477 H   0  0  0  0  0  0  0  0  0  0  0  0
  153.3989  143.0622  159.9076 H   0  0  0  0  0  0  0  0  0  0  0  0
  149.4591  136.0297  153.8972 H   0  0  0  0  0  0  0  0  0  0  0  0
  1  2  1  0  0  0  0
  1 25  1  0  0  0  0
  1 26  1  0  0  0  0
  1 27  1  0  0  0  0
  2 23  1  0  0  0  0
  2  3  2  0  0  0  0
  3  4  1  0  0  0  0
  3 28  1  0  0  0  0
  4 21  2  0  0  0  0
  4  5  1  0  0  0  0
  5  6  2  0  0  0  0
  6  7  1  0  0  0  0
  6 29  1  0  0  0  0
  7  8  1  0  0  0  0
  7 21  1  0  0  0  0
  8  9  1  0  0  0  0
  8 30  1  0  0  0  0
  8 31  1  0  0  0  0
  9 10  1  0  0  0  0
  9 11  1  0  0  0  0
  9 32  1  0  0  0  0
 10 33  1  0  0  0  0
 11 12  1  0  0  0  0
 11 34  1  0  0  0  0
 11 35  1  0  0  0  0
 12 13  1  0  0  0  0
 12 14  1  0  0  0  0
 12 50  1  0  0  0  0
 13 36  1  0  0  0  0
 13 37  1  0  0  0  0
 13 38  1  0  0  0  0
 14 15  1  0  0  0  0
 14 39  1  0  0  0  0
 14 40  1  0  0  0  0
 15 20  2  0  0  0  0
 15 16  1  0  0  0  0
 16 17  2  0  0  0  0
 16 41  1  0  0  0  0
 17 18  1  0  0  0  0
 18 19  1  0  0  0  0
 18 20  1  0  0  0  0
 19 42  1  0  0  0  0
 19 43  1  0  0  0  0
 19 44  1  0  0  0  0
 20 45  1  0  0  0  0
 21 22  1  0  0  0  0
 22 23  2  0  0  0  0
 22 46  1  0  0  0  0
 23 24  1  0  0  0  0
 24 47  1  0  0  0  0
 24 48  1  0  0  0  0
 24 49  1  0  0  0  0
M  CHG  1  12   1
M  END
> <s_m_source_file>
AV-unprocessed.smi

> <i_m_source_file_index>
2027

> <i_lp_mmshare_version>
43012

> <i_f3d_flags>
0

> <s_epik_input>
W0NIM11jKFtjSF0xKWMoW0NIM10pW2NIXWMoYzEyKW4oW2NIXW4yKVtDSDJdW0NASF0oW09IXSlbQ0gyXU4oW0NIM10pW0NIMl1jM1tjSF1ubihbQ0gzXSlbY0hdMw==

> <s_epik_cmdline>
J2VwaWtfcHl0aG9uJywgJy1waCcsICc3LjAnLCAnLXRuJywgJzgnLCAnLW1hJywgJzIwMCcsICctbWV0YWxfYmluZGluZycsICctaW1hZScsICc8aW5maWxlLm1hZT4nLCAnLW9tYWUnLCAnPG91dGZpbGUubWFlPic=

> <r_lp_tautomer_probability>
1

> <r_epik_Ionization_Penalty>
0.646578

> <r_epik_Ionization_Penalty_Charging>
0.559419

> <r_epik_Ionization_Penalty_Neutral>
0.087159

> <r_epik_State_Penalty>
0.661677

> <r_epik_Charging_Adjusted_Penalty>
1.2211

> <i_epik_Tot_Q>
1

> <i_epik_Tot_abs_Q>
1

> <r_epik_Metal_State_Penalty>
0.649174

> <b_epik_Metal_Only>
0

> <s_lp_Force_Field>
OPLS_2005

> <r_lp_Energy>
10.3354

> <b_lp_Chiralities_Consistent>
1

> <s_lp_Variant>
AV-unprocessed.smi:2027-5

> <Gold.Version>
5.8.1

> <Gold.Id.Protein>
6NUR|6NUR_protein|mol2

> <Gold.PLP.Fitness>
53.4772

> <Gold.PLP.PLP>
-42.1298

> <Gold.PLP.part.hbond>
-3.8287

> <Gold.PLP.part.metal>
0.0000

> <Gold.PLP.part.buried>
4.6237

> <Gold.PLP.part.nonpolar>
-42.2400

> <Gold.PLP.part.repulsive>
0.4967

> <Gold.PLP.ligand.clash>
0.0085

> <Gold.PLP.ligand.torsion>
0.6377

> <Gold.PLP.Chemscore.Hbond>
3.1353

> <Gold.PLP.Chemscore.CHOScore>
1.0000

> <Gold.PLP.Chemscore.Metal>
0.0000

> <Gold.Chemscore.Hbonds>
donor molecule, donor type, donor heavy atom, donor atom, acceptor molecule, acceptor atom, score
      L1  H    10    33       P1  7949  0.37
      L1  H    12    50       P1  7948  1.76
      P1  H 10752 10764       L1    10  0.62
      L1  C    16    41       P1  7948  1.00

> <Gold.PLP.Chemscore.Internal.Correction>
0.2254

> <Gold.Rescore>
     Score         DG    S(hbond)    S(metal)    S(lipo)     H(rot)  DE(clash)    DE(int)     intcor
     10.16     -13.24       0.39        0.00     109.89       2.50       0.26       2.82       ----

> <Gold.Chemscore.Fitness>
10.1577

> <Gold.Chemscore.DG>
-13.2360

> <Gold.Chemscore.ZeroCoef>
-5.4800

> <Gold.Chemscore.Hbond>
0.3924

> <Gold.Chemscore.Metal>
0.0000

> <Gold.Chemscore.Lipo>
109.8929

> <Gold.Chemscore.Internal_Hbond>
0.0000

> <Gold.Chemscore.DEClash>
0.2587

> <Gold.Chemscore.DEInternal>
2.8195

> <Gold.Chemscore.Rot>
2.5047

> <Gold.Chemscore.Internal.Correction>
   9.000000E+99

> <Gold.Chemscore.Hbonds>
donor molecule, donor type, donor heavy atom, donor atom, acceptor molecule, acceptor atom, score
      L1  H    10    33       P1  7949  0.13
      L1  H    12    50       P1  7948  0.56
      P1  H 10752 10764       L1    10  0.06

> <Gold.Chemscore.Hbond.Weighted>
-1.3105

> <Gold.Chemscore.Metal.Weighted>
-0.0000

> <Gold.Chemscore.Lipo.Weighted>
-12.8575

> <Gold.Chemscore.Internal_Hbond.Weighted>
0.0000

> <Gold.Chemscore.DEClash.Weighted>
0.2587

> <Gold.Chemscore.DEInternal.Weighted>
2.8195

> <Gold.Chemscore.Rot.Weighted>
6.4120

> <Gold.Chemscore.Internal.Correction.Weighted>
   9.000000E+99

> <Gold.Protein.RotatedTorsions>
[ 6907 6896 6895 6894 ] final  -76.63 input  -60.11 | X-H torsion
[ 7974 7965 7964 7962 ] final    6.99 input  175.53 | X-H torsion
[ 8008 7997 7996 7995 ] final   19.37 input   59.86 | X-H torsion
[ 10167 10162 10161 10158 ] final -145.50 input  -65.29 | X-H torsion
[ 10718 10713 10712 10709 ] final  -32.51 input   66.30 | X-H torsion
[ 10763 10752 10751 10750 ] final -114.29 input  -60.55 | X-H torsion
[ 11005 11000 10999 10996 ] final   97.60 input  -57.11 | X-H torsion

> <Gold.Protein.ActiveResidues>
 VAL166  LYS551  ARG553  GLY616  TRP617  ASP618  TYR619  PRO620  LYS621  CYS622 
 ASP623  PHE694  ASN695  SER759  ASP760  ASP761  ALA762  ILE779  LEU786  VAL792 
 PHE793  MET794  SER795  GLU796  ALA797  LYS798  CYS799  TRP800  GLU811  SER814 

> <Gold.Protein.RotatedAtoms>
  150.7022  134.4543  159.5350 H   0  0  0  0  0  0  0  0  0  0  0  0  # atno 6907 bound_to 6896
  152.2230  134.8392  160.0492 H   0  0  0  0  0  0  0  0  0  0  0  0  # atno 6908 bound_to 6896
  151.9236  133.3557  159.3942 H   0  0  0  0  0  0  0  0  0  0  0  0  # atno 6909 bound_to 6896
  146.2430  140.0151  142.8403 H   0  0  0  0  0  0  0  0  0  0  0  0  # atno 7974 bound_to 7965
  154.9197  140.3025  155.5223 H   0  0  0  0  0  0  0  0  0  0  0  0  # atno 8008 bound_to 7997
  156.3010  140.2374  156.4182 H   0  0  0  0  0  0  0  0  0  0  0  0  # atno 8009 bound_to 7997
  154.8343  140.0417  157.1487 H   0  0  0  0  0  0  0  0  0  0  0  0  # atno 8010 bound_to 7997
  139.7800  143.8114  152.2637 H   0  0  0  0  0  0  0  0  0  0  0  0  # atno 10167 bound_to 10162
  156.3740  130.4344  149.7522 H   0  0  0  0  0  0  0  0  0  0  0  0  # atno 10718 bound_to 10713
  154.8433  135.4423  154.1482 H   0  0  0  0  0  0  0  0  0  0  0  0  # atno 10763 bound_to 10752
  153.2650  135.6940  153.7545 H   0  0  0  0  0  0  0  0  0  0  0  0  # atno 10764 bound_to 10752
  153.6808  135.3403  155.3153 H   0  0  0  0  0  0  0  0  0  0  0  0  # atno 10765 bound_to 10752
  139.8775  134.9008  156.4331 H   0  0  0  0  0  0  0  0  0  0  0  0  # atno 11005 bound_to 11000
  145.1292  140.9508  143.4554 LP  0  0  0  0  0  0  0  0  0  0  0  0  # atno 17320 bound_to 7965
  145.0404  139.3265  143.5979 LP  0  0  0  0  0  0  0  0  0  0  0  0  # atno 17321 bound_to 7965
  139.8174  144.7310  150.9617 LP  0  0  0  0  0  0  0  0  0  0  0  0  # atno 17342 bound_to 10162
  140.7818  143.4192  151.0869 LP  0  0  0  0  0  0  0  0  0  0  0  0  # atno 17343 bound_to 10162
  156.4639  130.7964  151.2984 LP  0  0  0  0  0  0  0  0  0  0  0  0  # atno 17370 bound_to 10713
  157.7486  131.0057  150.3124 LP  0  0  0  0  0  0  0  0  0  0  0  0  # atno 17371 bound_to 10713
  140.9053  133.7750  155.9727 LP  0  0  0  0  0  0  0  0  0  0  0  0  # atno 17394 bound_to 11000
  140.8606  134.2845  157.5236 LP  0  0  0  0  0  0  0  0  0  0  0  0  # atno 17395 bound_to 11000

$$$$
