AV-unprocessed.smi:3132|AV-procd|sdf|11931|dock10
  -GOLD-   2272017323D 1   1.00000     0.00000
 Structure written by MMmdl.
 34 35  0  0  0  0  0  0  0  0  2 V2000
  149.1438  140.0220  157.4334 C   0  0  0  0  0  0  0  0  0  0  0  0
  149.7189  140.8983  156.3126 C   0  0  2  0  0  0  0  0  0  0  0  0
  151.0294  140.3026  155.7543 C   0  0  0  0  0  0  0  0  0  0  0  0
  150.8544  138.9641  155.1809 N   0  0  0  0  0  0  0  0  0  0  0  0
  151.4165  137.7916  155.6168 C   0  0  0  0  0  0  0  0  0  0  0  0
  150.9765  136.8086  154.7684 C   0  0  0  0  0  0  0  0  0  0  0  0
  150.1605  137.4210  153.8552 N   0  3  0  0  0  0  0  0  0  0  0  0
  150.0838  138.7310  154.1105 C   0  0  0  0  0  0  0  0  0  0  0  0
  149.9332  142.2482  156.8322 N   0  0  0  0  0  0  0  0  0  0  0  0
  150.6142  142.5676  157.9454 C   0  0  0  0  0  0  0  0  0  0  0  0
  151.1217  141.7252  158.6864 O   0  0  0  0  0  0  0  0  0  0  0  0
  150.7184  144.0584  158.2981 C   0  0  1  0  0  0  0  0  0  0  0  0
  150.1775  144.4180  159.6953 C   0  0  0  0  0  0  0  0  0  0  0  0
  151.3478  145.1034  160.3811 C   0  0  0  0  0  0  0  0  0  0  0  0
  152.2104  145.5531  159.2101 C   0  0  0  0  0  0  0  0  0  0  0  0
  152.0845  144.4700  158.3053 O   0  0  0  0  0  0  0  0  0  0  0  0
  148.9378  139.0128  157.0758 H   0  0  0  0  0  0  0  0  0  0  0  0
  148.2074  140.4329  157.8127 H   0  0  0  0  0  0  0  0  0  0  0  0
  149.8366  139.9424  158.2720 H   0  0  0  0  0  0  0  0  0  0  0  0
  148.9744  140.9258  155.5148 H   0  0  0  0  0  0  0  0  0  0  0  0
  151.4532  140.9498  154.9850 H   0  0  0  0  0  0  0  0  0  0  0  0
  151.7772  140.2212  156.5446 H   0  0  0  0  0  0  0  0  0  0  0  0
  152.0764  137.7462  156.4711 H   0  0  0  0  0  0  0  0  0  0  0  0
  151.1782  135.7475  154.7462 H   0  0  0  0  0  0  0  0  0  0  0  0
  149.5193  139.4587  153.5549 H   0  0  0  0  0  0  0  0  0  0  0  0
  149.5512  143.0097  156.2891 H   0  0  0  0  0  0  0  0  0  0  0  0
  150.1889  144.6362  157.5392 H   0  0  0  0  0  0  0  0  0  0  0  0
  149.3353  145.1041  159.6010 H   0  0  0  0  0  0  0  0  0  0  0  0
  149.8364  143.5581  160.2739 H   0  0  0  0  0  0  0  0  0  0  0  0
  151.0427  145.9271  161.0270 H   0  0  0  0  0  0  0  0  0  0  0  0
  151.8970  144.3815  160.9868 H   0  0  0  0  0  0  0  0  0  0  0  0
  151.8157  146.4632  158.7555 H   0  0  0  0  0  0  0  0  0  0  0  0
  153.2491  145.7260  159.4917 H   0  0  0  0  0  0  0  0  0  0  0  0
  149.6846  136.9528  153.0942 H   0  0  0  0  0  0  0  0  0  0  0  0
  1  2  1  0  0  0  0
  1 17  1  0  0  0  0
  1 18  1  0  0  0  0
  1 19  1  0  0  0  0
  2  3  1  0  0  0  0
  2  9  1  0  0  0  0
  2 20  1  0  0  0  0
  3  4  1  0  0  0  0
  3 21  1  0  0  0  0
  3 22  1  0  0  0  0
  4  8  1  0  0  0  0
  4  5  1  0  0  0  0
  5  6  2  0  0  0  0
  5 23  1  0  0  0  0
  6  7  1  0  0  0  0
  6 24  1  0  0  0  0
  7  8  2  0  0  0  0
  7 34  1  0  0  0  0
  8 25  1  0  0  0  0
  9 10  1  0  0  0  0
  9 26  1  0  0  0  0
 10 11  2  0  0  0  0
 10 12  1  0  0  0  0
 12 16  1  0  0  0  0
 12 13  1  0  0  0  0
 12 27  1  0  0  0  0
 13 14  1  0  0  0  0
 13 28  1  0  0  0  0
 13 29  1  0  0  0  0
 14 15  1  0  0  0  0
 14 30  1  0  0  0  0
 14 31  1  0  0  0  0
 15 16  1  0  0  0  0
 15 32  1  0  0  0  0
 15 33  1  0  0  0  0
M  CHG  1   7   1
M  END
> <s_m_source_file>
AV-unprocessed.smi

> <i_m_source_file_index>
3132

> <i_lp_mmshare_version>
43012

> <i_f3d_flags>
0

> <s_epik_input>
W2NIXTFuW2NIXVtjSF1uMVtDSDJdW0NAQEhdKFtDSDNdKVtOSF1DKD1PKVtDQEBIXTJbQ0gyXVtDSDJdW0NIMl1PMg==

> <s_epik_cmdline>
J2VwaWtfcHl0aG9uJywgJy1waCcsICc3LjAnLCAnLXRuJywgJzgnLCAnLW1hJywgJzIwMCcsICctbWV0YWxfYmluZGluZycsICctaW1hZScsICc8aW5maWxlLm1hZT4nLCAnLW9tYWUnLCAnPG91dGZpbGUubWFlPic=

> <r_lp_tautomer_probability>
1

> <r_epik_Ionization_Penalty>
0.250802

> <r_epik_Ionization_Penalty_Charging>
0

> <r_epik_Ionization_Penalty_Neutral>
0.250802

> <r_epik_State_Penalty>
0.242139

> <r_epik_Charging_Adjusted_Penalty>
0.242139

> <i_epik_Tot_Q>
1

> <i_epik_Tot_abs_Q>
1

> <r_epik_Metal_State_Penalty>
0.533361

> <b_epik_Metal_Only>
0

> <s_lp_Force_Field>
OPLS_2005

> <r_lp_Energy>
20.312

> <b_lp_Chiralities_Consistent>
1

> <s_lp_Variant>
AV-unprocessed.smi:3132-3

> <Gold.Version>
5.8.1

> <Gold.Id.Protein>
6NUR|6NUR_protein|mol2

> <Gold.PLP.Fitness>
42.5451

> <Gold.PLP.PLP>
-30.7819

> <Gold.PLP.part.hbond>
-3.0000

> <Gold.PLP.part.metal>
0.0000

> <Gold.PLP.part.buried>
-3.7000

> <Gold.PLP.part.nonpolar>
-24.4520

> <Gold.PLP.part.repulsive>
0.1597

> <Gold.PLP.ligand.clash>
0.0000

> <Gold.PLP.ligand.torsion>
0.1136

> <Gold.PLP.Chemscore.Hbond>
3.0000

> <Gold.PLP.Chemscore.CHOScore>
0.9915

> <Gold.PLP.Chemscore.Metal>
0.0000

> <Gold.Chemscore.Hbonds>
donor molecule, donor type, donor heavy atom, donor atom, acceptor molecule, acceptor atom, score
      L1  H     7    34       P1  7948  2.00
      L1  H     9    26       P1  8028  1.00
      L1  C     8    25       P1  7957  0.99

> <Gold.PLP.Chemscore.Internal.Correction>
0.0158

> <Gold.Rescore>
     Score         DG    S(hbond)    S(metal)    S(lipo)     H(rot)  DE(clash)    DE(int)     intcor
     13.61     -15.27       1.95        0.00      70.36       1.93       0.22       1.44       ----

> <Gold.Chemscore.Fitness>
13.6058

> <Gold.Chemscore.DG>
-15.2710

> <Gold.Chemscore.ZeroCoef>
-5.4800

> <Gold.Chemscore.Hbond>
1.9467

> <Gold.Chemscore.Metal>
0.0000

> <Gold.Chemscore.Lipo>
70.3581

> <Gold.Chemscore.Internal_Hbond>
0.0000

> <Gold.Chemscore.DEClash>
0.2205

> <Gold.Chemscore.DEInternal>
1.4448

> <Gold.Chemscore.Rot>
1.9308

> <Gold.Chemscore.Internal.Correction>
   9.000000E+99

> <Gold.Chemscore.Hbonds>
donor molecule, donor type, donor heavy atom, donor atom, acceptor molecule, acceptor atom, score
      L1  H     7    34       P1  7948  0.43
      L1  H     9    26       P1  8028  0.99

> <Gold.Chemscore.Hbond.Weighted>
-6.5020

> <Gold.Chemscore.Metal.Weighted>
-0.0000

> <Gold.Chemscore.Lipo.Weighted>
-8.2319

> <Gold.Chemscore.Internal_Hbond.Weighted>
0.0000

> <Gold.Chemscore.DEClash.Weighted>
0.2205

> <Gold.Chemscore.DEInternal.Weighted>
1.4448

> <Gold.Chemscore.Rot.Weighted>
4.9429

> <Gold.Chemscore.Internal.Correction.Weighted>
   9.000000E+99

> <Gold.Protein.RotatedTorsions>
[ 6907 6896 6895 6894 ] final  -50.88 input  -60.11 | X-H torsion
[ 7974 7965 7964 7962 ] final -142.25 input  175.53 | X-H torsion
[ 8008 7997 7996 7995 ] final  116.78 input   59.86 | X-H torsion
[ 10167 10162 10161 10158 ] final    1.13 input  -65.29 | X-H torsion
[ 10718 10713 10712 10709 ] final  118.35 input   66.30 | X-H torsion
[ 10763 10752 10751 10750 ] final   37.64 input  -60.55 | X-H torsion
[ 11005 11000 10999 10996 ] final  136.46 input  -57.11 | X-H torsion

> <Gold.Protein.ActiveResidues>
 VAL166  LYS551  ARG553  GLY616  TRP617  ASP618  TYR619  PRO620  LYS621  CYS622 
 ASP623  PHE694  ASN695  SER759  ASP760  ASP761  ALA762  ILE779  LEU786  VAL792 
 PHE793  MET794  SER795  GLU796  ALA797  LYS798  CYS799  TRP800  GLU811  SER814 

> <Gold.Protein.RotatedAtoms>
  150.8665  134.8029  159.7122 H   0  0  0  0  0  0  0  0  0  0  0  0  # atno 6907 bound_to 6896
  152.4684  134.5016  159.9736 H   0  0  0  0  0  0  0  0  0  0  0  0  # atno 6908 bound_to 6896
  151.5111  133.3446  159.2920 H   0  0  0  0  0  0  0  0  0  0  0  0  # atno 6909 bound_to 6896
  144.8458  140.5981  143.5423 H   0  0  0  0  0  0  0  0  0  0  0  0  # atno 7974 bound_to 7965
  156.2458  140.2910  156.0576 H   0  0  0  0  0  0  0  0  0  0  0  0  # atno 8008 bound_to 7997
  155.1812  140.0404  157.2900 H   0  0  0  0  0  0  0  0  0  0  0  0  # atno 8009 bound_to 7997
  154.6258  140.2487  155.7500 H   0  0  0  0  0  0  0  0  0  0  0  0  # atno 8010 bound_to 7997
  140.6697  143.7083  150.7897 H   0  0  0  0  0  0  0  0  0  0  0  0  # atno 10167 bound_to 10162
  157.6036  131.1047  150.7744 H   0  0  0  0  0  0  0  0  0  0  0  0  # atno 10718 bound_to 10713
  153.0030  135.6272  154.2176 H   0  0  0  0  0  0  0  0  0  0  0  0  # atno 10763 bound_to 10752
  154.1919  135.2808  155.3021 H   0  0  0  0  0  0  0  0  0  0  0  0  # atno 10764 bound_to 10752
  154.5752  135.5664  153.7192 H   0  0  0  0  0  0  0  0  0  0  0  0  # atno 10765 bound_to 10752
  140.0048  134.9464  157.0150 H   0  0  0  0  0  0  0  0  0  0  0  0  # atno 11005 bound_to 11000
  145.4601  139.1514  143.3871 LP  0  0  0  0  0  0  0  0  0  0  0  0  # atno 17320 bound_to 7965
  146.2742  140.4731  142.8802 LP  0  0  0  0  0  0  0  0  0  0  0  0  # atno 17321 bound_to 7965
  140.0766  143.5009  152.2552 LP  0  0  0  0  0  0  0  0  0  0  0  0  # atno 17342 bound_to 10162
  139.5960  144.7567  151.3286 LP  0  0  0  0  0  0  0  0  0  0  0  0  # atno 17343 bound_to 10162
  156.8137  130.4961  149.5352 LP  0  0  0  0  0  0  0  0  0  0  0  0  # atno 17370 bound_to 10713
  156.1116  130.6044  151.0055 LP  0  0  0  0  0  0  0  0  0  0  0  0  # atno 17371 bound_to 10713
  140.4662  134.1433  155.7197 LP  0  0  0  0  0  0  0  0  0  0  0  0  # atno 17394 bound_to 11000
  141.1668  133.8686  157.1689 LP  0  0  0  0  0  0  0  0  0  0  0  0  # atno 17395 bound_to 11000

$$$$
