AV-unprocessed.smi:2275|AV-procd|sdf|9171|dock2
  -GOLD-   2272012383D 1   1.00000     0.00000
 Structure written by MMmdl.
 38 39  0  0  0  0  0  0  0  0  1 V2000
  144.5988  144.0910  155.7259 C   0  0  0  0  0  0  0  0  0  0  0  0
  145.6457  143.0407  155.3995 C   0  0  0  0  0  0  0  0  0  0  0  0
  146.2714  143.1773  154.1568 N   0  0  0  0  0  0  0  0  0  0  0  0
  147.1812  142.3319  153.7966 C   0  0  0  0  0  0  0  0  0  0  0  0
  147.5700  141.2686  154.6270 N   0  0  0  0  0  0  0  0  0  0  0  0
  148.6229  140.3838  154.1026 C   0  0  0  0  0  0  0  0  0  0  0  0
  149.7869  140.2086  155.1036 C   0  0  1  0  0  0  0  0  0  0  0  0
  150.9684  139.8355  154.4237 O   0  0  0  0  0  0  0  0  0  0  0  0
  150.0914  141.4856  155.9043 C   0  0  0  0  0  0  0  0  0  0  0  0
  150.7709  141.1516  157.1088 O   0  0  0  0  0  0  0  0  0  0  0  0
  151.3792  142.1641  157.8189 C   0  0  0  0  0  0  0  0  0  0  0  0
  152.0443  141.8002  159.0081 C   0  0  0  0  0  0  0  0  0  0  0  0
  152.6934  142.7690  159.7972 C   0  0  0  0  0  0  0  0  0  0  0  0
  152.6843  144.1191  159.4015 C   0  0  0  0  0  0  0  0  0  0  0  0
  152.0244  144.4969  158.2176 C   0  0  0  0  0  0  0  0  0  0  0  0
  151.3745  143.5275  157.4286 C   0  0  0  0  0  0  0  0  0  0  0  0
  146.9954  141.0493  155.8449 C   0  0  0  0  0  0  0  0  0  0  0  0
  147.3233  140.0948  156.5525 O   0  0  0  0  0  0  0  0  0  0  0  0
  145.9681  142.0244  156.2454 C   0  0  0  0  0  0  0  0  0  0  0  0
  145.3220  141.8257  157.6108 C   0  0  0  0  0  0  0  0  0  0  0  0
  144.8905  144.6582  156.6099 H   0  0  0  0  0  0  0  0  0  0  0  0
  143.6326  143.6223  155.9138 H   0  0  0  0  0  0  0  0  0  0  0  0
  144.4720  144.7958  154.9033 H   0  0  0  0  0  0  0  0  0  0  0  0
  147.6950  142.3892  152.8353 H   0  0  0  0  0  0  0  0  0  0  0  0
  148.2281  139.4121  153.7980 H   0  0  0  0  0  0  0  0  0  0  0  0
  149.0054  140.8160  153.1761 H   0  0  0  0  0  0  0  0  0  0  0  0
  149.5580  139.4160  155.8172 H   0  0  0  0  0  0  0  0  0  0  0  0
  151.6086  139.5654  155.0645 H   0  0  0  0  0  0  0  0  0  0  0  0
  150.7333  142.1281  155.2993 H   0  0  0  0  0  0  0  0  0  0  0  0
  149.1718  142.0365  156.1102 H   0  0  0  0  0  0  0  0  0  0  0  0
  152.0564  140.7659  159.3195 H   0  0  0  0  0  0  0  0  0  0  0  0
  153.1981  142.4756  160.7058 H   0  0  0  0  0  0  0  0  0  0  0  0
  153.1819  144.8637  160.0054 H   0  0  0  0  0  0  0  0  0  0  0  0
  152.0163  145.5330  157.9130 H   0  0  0  0  0  0  0  0  0  0  0  0
  150.8799  143.8562  156.5274 H   0  0  0  0  0  0  0  0  0  0  0  0
  144.8152  140.8609  157.6497 H   0  0  0  0  0  0  0  0  0  0  0  0
  144.5887  142.5925  157.8550 H   0  0  0  0  0  0  0  0  0  0  0  0
  146.0825  141.8401  158.3922 H   0  0  0  0  0  0  0  0  0  0  0  0
  1  2  1  0  0  0  0
  1 21  1  0  0  0  0
  1 22  1  0  0  0  0
  1 23  1  0  0  0  0
  2 19  2  0  0  0  0
  2  3  1  0  0  0  0
  3  4  2  0  0  0  0
  4  5  1  0  0  0  0
  4 24  1  0  0  0  0
  5  6  1  0  0  0  0
  5 17  1  0  0  0  0
  6  7  1  0  0  0  0
  6 25  1  0  0  0  0
  6 26  1  0  0  0  0
  7  8  1  0  0  0  0
  7  9  1  0  0  0  0
  7 27  1  0  0  0  0
  8 28  1  0  0  0  0
  9 10  1  0  0  0  0
  9 29  1  0  0  0  0
  9 30  1  0  0  0  0
 10 11  1  0  0  0  0
 11 16  1  0  0  0  0
 11 12  2  0  0  0  0
 12 13  1  0  0  0  0
 12 31  1  0  0  0  0
 13 14  2  0  0  0  0
 13 32  1  0  0  0  0
 14 15  1  0  0  0  0
 14 33  1  0  0  0  0
 15 16  2  0  0  0  0
 15 34  1  0  0  0  0
 16 35  1  0  0  0  0
 17 18  2  0  0  0  0
 17 19  1  0  0  0  0
 19 20  1  0  0  0  0
 20 36  1  0  0  0  0
 20 37  1  0  0  0  0
 20 38  1  0  0  0  0
M  END
> <s_m_source_file>
AV-unprocessed.smi

> <i_m_source_file_index>
2275

> <i_lp_mmshare_version>
43012

> <i_f3d_flags>
0

> <s_epik_input>
W0NIM11jMW5bY0hdbihjKD1PKWMxW0NIM10pW0NIMl1bQ0BIXShbT0hdKVtDSDJdT2MyW2NIXVtjSF1bY0hdW2NIXVtjSF0y

> <s_epik_cmdline>
J2VwaWtfcHl0aG9uJywgJy1waCcsICc3LjAnLCAnLXRuJywgJzgnLCAnLW1hJywgJzIwMCcsICctbWV0YWxfYmluZGluZycsICctaW1hZScsICc8aW5maWxlLm1hZT4nLCAnLW9tYWUnLCAnPG91dGZpbGUubWFlPic=

> <r_lp_tautomer_probability>
1

> <r_epik_Ionization_Penalty>
4.18311e-05

> <r_epik_Ionization_Penalty_Charging>
1.04093e-07

> <r_epik_Ionization_Penalty_Neutral>
4.1727e-05

> <r_epik_State_Penalty>
-0

> <r_epik_Charging_Adjusted_Penalty>
1.04093e-07

> <i_epik_Tot_Q>
0

> <i_epik_Tot_abs_Q>
0

> <r_epik_Metal_State_Penalty>
-0

> <b_epik_Metal_Only>
0

> <s_lp_Force_Field>
OPLS_2005

> <r_lp_Energy>
23.5562

> <b_lp_Chiralities_Consistent>
1

> <s_lp_Variant>
AV-unprocessed.smi:2275-2

> <Gold.Version>
5.8.1

> <Gold.Id.Protein>
6NUR|6NUR_protein|mol2

> <Gold.PLP.Fitness>
41.5631

> <Gold.PLP.PLP>
-39.6214

> <Gold.PLP.part.hbond>
-1.0000

> <Gold.PLP.part.metal>
0.0000

> <Gold.PLP.part.buried>
-5.7087

> <Gold.PLP.part.nonpolar>
-33.5322

> <Gold.PLP.part.repulsive>
0.2454

> <Gold.PLP.ligand.clash>
0.0000

> <Gold.PLP.ligand.torsion>
0.5639

> <Gold.PLP.Chemscore.Hbond>
1.0000

> <Gold.PLP.Chemscore.CHOScore>
0.0000

> <Gold.PLP.Chemscore.Metal>
0.0000

> <Gold.Chemscore.Hbonds>
donor molecule, donor type, donor heavy atom, donor atom, acceptor molecule, acceptor atom, score
      P1  H  7989  7998       L1     8  1.00

> <Gold.PLP.Chemscore.Internal.Correction>
0.0694

> <Gold.Rescore>
     Score         DG    S(hbond)    S(metal)    S(lipo)     H(rot)  DE(clash)    DE(int)     intcor
     11.34     -13.41       0.73        0.00      99.08       2.38       0.22       1.85       ----

> <Gold.Chemscore.Fitness>
11.3415

> <Gold.Chemscore.DG>
-13.4101

> <Gold.Chemscore.ZeroCoef>
-5.4800

> <Gold.Chemscore.Hbond>
0.7298

> <Gold.Chemscore.Metal>
0.0000

> <Gold.Chemscore.Lipo>
99.0790

> <Gold.Chemscore.Internal_Hbond>
0.0000

> <Gold.Chemscore.DEClash>
0.2213

> <Gold.Chemscore.DEInternal>
1.8474

> <Gold.Chemscore.Rot>
2.3826

> <Gold.Chemscore.Internal.Correction>
   9.000000E+99

> <Gold.Chemscore.Hbonds>
donor molecule, donor type, donor heavy atom, donor atom, acceptor molecule, acceptor atom, score
      P1  H  7989  7998       L1     8  0.59

> <Gold.Chemscore.Hbond.Weighted>
-2.4375

> <Gold.Chemscore.Metal.Weighted>
-0.0000

> <Gold.Chemscore.Lipo.Weighted>
-11.5922

> <Gold.Chemscore.Internal_Hbond.Weighted>
0.0000

> <Gold.Chemscore.DEClash.Weighted>
0.2213

> <Gold.Chemscore.DEInternal.Weighted>
1.8474

> <Gold.Chemscore.Rot.Weighted>
6.0996

> <Gold.Chemscore.Internal.Correction.Weighted>
   9.000000E+99

> <Gold.Protein.RotatedTorsions>
[ 6907 6896 6895 6894 ] final -160.20 input  -60.11 | X-H torsion
[ 7974 7965 7964 7962 ] final    4.14 input  175.53 | X-H torsion
[ 8008 7997 7996 7995 ] final  -49.26 input   59.86 | X-H torsion
[ 10167 10162 10161 10158 ] final  -19.03 input  -65.29 | X-H torsion
[ 10718 10713 10712 10709 ] final   81.45 input   66.30 | X-H torsion
[ 10763 10752 10751 10750 ] final   12.06 input  -60.55 | X-H torsion
[ 11005 11000 10999 10996 ] final  178.29 input  -57.11 | X-H torsion

> <Gold.Protein.ActiveResidues>
 VAL166  LYS551  ARG553  GLY616  TRP617  ASP618  TYR619  PRO620  LYS621  CYS622 
 ASP623  PHE694  ASN695  SER759  ASP760  ASP761  ALA762  ILE779  LEU786  VAL792 
 PHE793  MET794  SER795  GLU796  ALA797  LYS798  CYS799  TRP800  GLU811  SER814 

> <Gold.Protein.RotatedAtoms>
  151.3454  133.3946  159.2674 H   0  0  0  0  0  0  0  0  0  0  0  0  # atno 6907 bound_to 6896
  150.9844  134.9193  159.7874 H   0  0  0  0  0  0  0  0  0  0  0  0  # atno 6908 bound_to 6896
  152.5227  134.3418  159.9272 H   0  0  0  0  0  0  0  0  0  0  0  0  # atno 6909 bound_to 6896
  146.2444  140.0579  142.8370 H   0  0  0  0  0  0  0  0  0  0  0  0  # atno 7974 bound_to 7965
  154.4041  140.1301  156.4474 H   0  0  0  0  0  0  0  0  0  0  0  0  # atno 8008 bound_to 7997
  155.7400  140.3490  155.5079 H   0  0  0  0  0  0  0  0  0  0  0  0  # atno 8009 bound_to 7997
  155.9048  140.1025  157.1313 H   0  0  0  0  0  0  0  0  0  0  0  0  # atno 8010 bound_to 7997
  140.7264  143.4858  151.0057 H   0  0  0  0  0  0  0  0  0  0  0  0  # atno 10167 bound_to 10162
  157.6833  131.0004  150.2229 H   0  0  0  0  0  0  0  0  0  0  0  0  # atno 10718 bound_to 10713
  153.1861  135.6835  153.8413 H   0  0  0  0  0  0  0  0  0  0  0  0  # atno 10763 bound_to 10752
  153.7728  135.3193  155.3355 H   0  0  0  0  0  0  0  0  0  0  0  0  # atno 10764 bound_to 10752
  154.8090  135.4730  154.0562 H   0  0  0  0  0  0  0  0  0  0  0  0  # atno 10765 bound_to 10752
  140.3935  134.6841  157.4521 H   0  0  0  0  0  0  0  0  0  0  0  0  # atno 11005 bound_to 11000
  145.0926  140.9294  143.4760 LP  0  0  0  0  0  0  0  0  0  0  0  0  # atno 17320 bound_to 7965
  145.0755  139.2999  143.5810 LP  0  0  0  0  0  0  0  0  0  0  0  0  # atno 17321 bound_to 7965
  139.8560  143.7377  152.3176 LP  0  0  0  0  0  0  0  0  0  0  0  0  # atno 17342 bound_to 10162
  139.7575  144.7516  151.0413 LP  0  0  0  0  0  0  0  0  0  0  0  0  # atno 17343 bound_to 10162
  156.2877  130.3741  149.7872 LP  0  0  0  0  0  0  0  0  0  0  0  0  # atno 17370 bound_to 10713
  156.5542  130.8355  151.3309 LP  0  0  0  0  0  0  0  0  0  0  0  0  # atno 17371 bound_to 10713
  140.0389  134.6296  155.9007 LP  0  0  0  0  0  0  0  0  0  0  0  0  # atno 17394 bound_to 11000
  141.1882  133.6562  156.5316 LP  0  0  0  0  0  0  0  0  0  0  0  0  # atno 17395 bound_to 11000

$$$$
