AV-unprocessed.smi:828|AV-procd|sdf|3860|dock4
  -GOLD-   22720 1313D 1   1.00000     0.00000
 Structure written by MMmdl.
 35 36  0  0  0  0  0  0  0  0  2 V2000
  152.5969  137.3954  158.5060 C   0  0  0  0  0  0  0  0  0  0  0  0
  152.0022  136.9682  157.2079 C   0  0  0  0  0  0  0  0  0  0  0  0
  152.6044  137.1816  156.0315 N   0  0  0  0  0  0  0  0  0  0  0  0
  151.8587  136.7012  154.9638 N   0  0  0  0  0  0  0  0  0  0  0  0
  150.7118  136.1385  155.3689 C   0  0  0  0  0  0  0  0  0  0  0  0
  149.7557  135.5721  154.4853 N   0  0  0  0  0  0  0  0  0  0  0  0
  149.0950  134.4077  154.6081 C   0  0  0  0  0  0  0  0  0  0  0  0
  149.1920  133.6275  155.5558 O   0  0  0  0  0  0  0  0  0  0  0  0
  148.2992  134.1867  153.5521 N   0  0  0  0  0  0  0  0  0  0  0  0
  147.4481  133.0140  153.3762 C   0  0  0  0  0  0  0  0  0  0  0  0
  147.1045  132.7565  151.8869 C   0  0  2  0  0  0  0  0  0  0  0  0
  146.1068  133.7746  151.3090 C   0  0  0  0  0  0  0  0  0  0  0  0
  145.3756  132.9999  150.2217 C   0  0  0  0  0  0  0  0  0  0  0  0
  145.2878  131.6003  150.8203 C   0  0  0  0  0  0  0  0  0  0  0  0
  146.5505  131.4074  151.5655 N   0  3  2  0  0  0  0  0  0  0  0  0
  146.4440  130.4167  152.6620 C   0  0  0  0  0  0  0  0  0  0  0  0
  150.4472  136.1515  157.1041 S   0  0  0  0  0  0  0  0  0  0  0  0
  153.6831  137.3055  158.4744 H   0  0  0  0  0  0  0  0  0  0  0  0
  152.2203  136.7726  159.3174 H   0  0  0  0  0  0  0  0  0  0  0  0
  152.3359  138.4337  158.7107 H   0  0  0  0  0  0  0  0  0  0  0  0
  149.5595  136.1148  153.6571 H   0  0  0  0  0  0  0  0  0  0  0  0
  148.2775  134.8804  152.8186 H   0  0  0  0  0  0  0  0  0  0  0  0
  147.9479  132.1509  153.8182 H   0  0  0  0  0  0  0  0  0  0  0  0
  146.5392  133.1839  153.9534 H   0  0  0  0  0  0  0  0  0  0  0  0
  148.0242  132.8246  151.3045 H   0  0  0  0  0  0  0  0  0  0  0  0
  145.3923  134.0814  152.0741 H   0  0  0  0  0  0  0  0  0  0  0  0
  146.5943  134.6733  150.9299 H   0  0  0  0  0  0  0  0  0  0  0  0
  144.3987  133.4211  149.9822 H   0  0  0  0  0  0  0  0  0  0  0  0
  145.9724  132.9822  149.3086 H   0  0  0  0  0  0  0  0  0  0  0  0
  144.4425  131.5552  151.5092 H   0  0  0  0  0  0  0  0  0  0  0  0
  145.1460  130.8282  150.0636 H   0  0  0  0  0  0  0  0  0  0  0  0
  145.7664  130.7558  153.4461 H   0  0  0  0  0  0  0  0  0  0  0  0
  147.4199  130.2118  153.1022 H   0  0  0  0  0  0  0  0  0  0  0  0
  146.0589  129.4730  152.2745 H   0  0  0  0  0  0  0  0  0  0  0  0
  147.2009  131.0136  150.9001 H   0  0  0  0  0  0  0  0  0  0  0  0
  1  2  1  0  0  0  0
  1 18  1  0  0  0  0
  1 19  1  0  0  0  0
  1 20  1  0  0  0  0
  2 17  1  0  0  0  0
  2  3  2  0  0  0  0
  3  4  1  0  0  0  0
  4  5  2  0  0  0  0
  5  6  1  0  0  0  0
  5 17  1  0  0  0  0
  6  7  1  0  0  0  0
  6 21  1  0  0  0  0
  7  8  2  0  0  0  0
  7  9  1  0  0  0  0
  9 10  1  0  0  0  0
  9 22  1  0  0  0  0
 10 11  1  0  0  0  0
 10 23  1  0  0  0  0
 10 24  1  0  0  0  0
 11 15  1  0  0  0  0
 11 12  1  0  0  0  0
 11 25  1  0  0  0  0
 12 13  1  0  0  0  0
 12 26  1  0  0  0  0
 12 27  1  0  0  0  0
 13 14  1  0  0  0  0
 13 28  1  0  0  0  0
 13 29  1  0  0  0  0
 14 15  1  0  0  0  0
 14 30  1  0  0  0  0
 14 31  1  0  0  0  0
 15 16  1  0  0  0  0
 15 35  1  0  0  0  0
 16 32  1  0  0  0  0
 16 33  1  0  0  0  0
 16 34  1  0  0  0  0
M  CHG  1  15   1
M  END
> <s_m_source_file>
AV-unprocessed.smi

> <i_m_source_file_index>
828

> <i_lp_mmshare_version>
43012

> <i_f3d_flags>
0

> <s_epik_input>
W0NIM11jMW5uYyhzMSlbTkhdQyg9TylbTkhdW0NIMl1bQ0BASF0yW0NIMl1bQ0gyXVtDSDJdTjJbQ0gzXQ==

> <s_epik_cmdline>
J2VwaWtfcHl0aG9uJywgJy1waCcsICc3LjAnLCAnLXRuJywgJzgnLCAnLW1hJywgJzIwMCcsICctbWV0YWxfYmluZGluZycsICctaW1hZScsICc8aW5maWxlLm1hZT4nLCAnLW9tYWUnLCAnPG91dGZpbGUubWFlPic=

> <r_lp_tautomer_probability>
1

> <r_epik_Ionization_Penalty>
0.00466477

> <r_epik_Ionization_Penalty_Charging>
0.00372199

> <r_epik_Ionization_Penalty_Neutral>
0.000942783

> <r_epik_State_Penalty>
-0

> <r_epik_Charging_Adjusted_Penalty>
0.00372199

> <i_epik_Tot_Q>
1

> <i_epik_Tot_abs_Q>
1

> <r_epik_Metal_State_Penalty>
0.28212

> <b_epik_Metal_Only>
0

> <s_lp_Force_Field>
OPLS_2005

> <r_lp_Energy>
27.2564

> <b_lp_Chiralities_Consistent>
1

> <s_lp_Variant>
AV-unprocessed.smi:828-3

> <Gold.Version>
5.8.1

> <Gold.Id.Protein>
6NUR|6NUR_protein|mol2

> <Gold.PLP.Fitness>
36.0615

> <Gold.PLP.PLP>
-25.3332

> <Gold.PLP.part.hbond>
-5.0000

> <Gold.PLP.part.metal>
0.0000

> <Gold.PLP.part.buried>
-3.2264

> <Gold.PLP.part.nonpolar>
-16.5295

> <Gold.PLP.part.repulsive>
0.1820

> <Gold.PLP.ligand.clash>
0.0000

> <Gold.PLP.ligand.torsion>
0.6255

> <Gold.PLP.Chemscore.Hbond>
3.9920

> <Gold.PLP.Chemscore.CHOScore>
0.0000

> <Gold.PLP.Chemscore.Metal>
0.0000

> <Gold.Chemscore.Hbonds>
donor molecule, donor type, donor heavy atom, donor atom, acceptor molecule, acceptor atom, score
      L1  H     6    21       P1  7948  1.00
      L1  H     9    22       P1  7948  1.00
      L1  H    15    35       P1 10747  0.99
      P1  H 10752 10765       L1     4  0.95

> <Gold.PLP.Chemscore.Internal.Correction>
0.0032

> <Gold.Rescore>
     Score         DG    S(hbond)    S(metal)    S(lipo)     H(rot)  DE(clash)    DE(int)     intcor
     18.19     -19.03       3.26        0.00      51.69       1.33       0.00       0.83       ----

> <Gold.Chemscore.Fitness>
18.1930

> <Gold.Chemscore.DG>
-19.0261

> <Gold.Chemscore.ZeroCoef>
-5.4800

> <Gold.Chemscore.Hbond>
3.2640

> <Gold.Chemscore.Metal>
0.0000

> <Gold.Chemscore.Lipo>
51.6880

> <Gold.Chemscore.Internal_Hbond>
0.0000

> <Gold.Chemscore.DEClash>
0.0015

> <Gold.Chemscore.DEInternal>
0.8316

> <Gold.Chemscore.Rot>
1.3294

> <Gold.Chemscore.Internal.Correction>
   9.000000E+99

> <Gold.Chemscore.Hbonds>
donor molecule, donor type, donor heavy atom, donor atom, acceptor molecule, acceptor atom, score
      L1  H     6    21       P1  7948  0.47
      L1  H     9    22       P1  7948  0.68
      L1  H    15    35       P1 10747  0.94
      P1  H 10752 10765       L1     4  0.18

> <Gold.Chemscore.Hbond.Weighted>
-10.9019

> <Gold.Chemscore.Metal.Weighted>
-0.0000

> <Gold.Chemscore.Lipo.Weighted>
-6.0475

> <Gold.Chemscore.Internal_Hbond.Weighted>
0.0000

> <Gold.Chemscore.DEClash.Weighted>
0.0015

> <Gold.Chemscore.DEInternal.Weighted>
0.8316

> <Gold.Chemscore.Rot.Weighted>
3.4033

> <Gold.Chemscore.Internal.Correction.Weighted>
   9.000000E+99

> <Gold.Protein.RotatedTorsions>
[ 6907 6896 6895 6894 ] final -159.93 input  -60.11 | X-H torsion
[ 7974 7965 7964 7962 ] final -105.58 input  175.53 | X-H torsion
[ 8008 7997 7996 7995 ] final   14.38 input   59.86 | X-H torsion
[ 10167 10162 10161 10158 ] final   38.52 input  -65.29 | X-H torsion
[ 10718 10713 10712 10709 ] final -116.65 input   66.30 | X-H torsion
[ 10763 10752 10751 10750 ] final  163.16 input  -60.55 | X-H torsion
[ 11005 11000 10999 10996 ] final -118.73 input  -57.11 | X-H torsion

> <Gold.Protein.ActiveResidues>
 VAL166  LYS551  ARG553  GLY616  TRP617  ASP618  TYR619  PRO620  LYS621  CYS622 
 ASP623  PHE694  ASN695  SER759  ASP760  ASP761  ALA762  ILE779  LEU786  VAL792 
 PHE793  MET794  SER795  GLU796  ALA797  LYS798  CYS799  TRP800  GLU811  SER814 

> <Gold.Protein.RotatedAtoms>
  151.3413  133.3961  159.2671 H   0  0  0  0  0  0  0  0  0  0  0  0  # atno 6907 bound_to 6896
  150.9876  134.9218  159.7891 H   0  0  0  0  0  0  0  0  0  0  0  0  # atno 6908 bound_to 6896
  152.5237  134.3377  159.9258 H   0  0  0  0  0  0  0  0  0  0  0  0  # atno 6909 bound_to 6896
  145.2287  140.9162  143.3217 H   0  0  0  0  0  0  0  0  0  0  0  0  # atno 7974 bound_to 7965
  154.8477  140.2924  155.5618 H   0  0  0  0  0  0  0  0  0  0  0  0  # atno 8008 bound_to 7997
  156.3015  140.2502  156.3362 H   0  0  0  0  0  0  0  0  0  0  0  0  # atno 8009 bound_to 7997
  154.9056  140.0390  157.1907 H   0  0  0  0  0  0  0  0  0  0  0  0  # atno 8010 bound_to 7997
  140.3929  144.1829  150.6131 H   0  0  0  0  0  0  0  0  0  0  0  0  # atno 10167 bound_to 10162
  156.0978  130.6147  150.9063 H   0  0  0  0  0  0  0  0  0  0  0  0  # atno 10718 bound_to 10713
  154.2895  135.2761  155.2661 H   0  0  0  0  0  0  0  0  0  0  0  0  # atno 10763 bound_to 10752
  154.5147  135.5773  153.6636 H   0  0  0  0  0  0  0  0  0  0  0  0  # atno 10764 bound_to 10752
  152.9916  135.6189  154.3058 H   0  0  0  0  0  0  0  0  0  0  0  0  # atno 10765 bound_to 10752
  141.0265  134.0045  157.3206 H   0  0  0  0  0  0  0  0  0  0  0  0  # atno 11005 bound_to 11000
  144.9697  139.3893  143.6315 LP  0  0  0  0  0  0  0  0  0  0  0  0  # atno 17320 bound_to 7965
  146.3358  139.8788  142.8827 LP  0  0  0  0  0  0  0  0  0  0  0  0  # atno 17321 bound_to 7965
  140.4821  143.2375  151.8940 LP  0  0  0  0  0  0  0  0  0  0  0  0  # atno 17342 bound_to 10162
  139.4788  144.5258  151.8737 LP  0  0  0  0  0  0  0  0  0  0  0  0  # atno 17343 bound_to 10162
  157.6143  131.0934  150.8739 LP  0  0  0  0  0  0  0  0  0  0  0  0  # atno 17370 bound_to 10713
  156.8873  130.5200  149.5288 LP  0  0  0  0  0  0  0  0  0  0  0  0  # atno 17371 bound_to 10713
  139.9180  135.0198  156.7954 LP  0  0  0  0  0  0  0  0  0  0  0  0  # atno 17394 bound_to 11000
  140.6481  133.9756  155.7741 LP  0  0  0  0  0  0  0  0  0  0  0  0  # atno 17395 bound_to 11000

$$$$
