#       Name:                AV-unprocessed.smi:1278
#       Creating user name   scv26
#       Creation time:       Fri Mar 27 04:48:22 2020


#       File generated by GOLD software.
#

@<TRIPOS>MOLECULE
AV-unprocessed.smi:1278
    42    43     1
SMALL
NO_CHARGES


@<TRIPOS>ATOM
      1 ****        -0.7364   3.0288  -3.1123 C.3            1 S1                 0.0000
      2 ****        -1.4873   1.7045  -3.3375 C.3            1 S1                 0.0000
      3 ****        -2.9850   1.8003  -2.9924 C.3            1 S1                 0.0000
      4 ****        -3.2052   1.8352  -1.4736 C.3            1 S1                 0.0000
      5 ****        -2.5066   0.6506  -0.7873 C.3            1 S1                 0.0000
      6 ****        -1.0577   0.6185  -1.1152 N.4            1 S1                 1.0000
      7 ****        -0.3304  -0.4215  -0.3448 C.3            1 S1                 0.0000
      8 ****         1.1752  -0.1165  -0.2233 C.3            1 S1                 0.0000
      9 ****         1.8624  -1.1217   0.5795 N.am           1 S1                 0.0000
     10 ****         1.8627  -1.1626   1.9199 C.2            1 S1                 0.0000
     11 ****         1.2629  -0.3463   2.6202 O.2            1 S1                 0.0000
     12 ****         2.5887  -2.1977   2.3775 N.am           1 S1                 0.0000
     13 ****         2.8280  -2.5738   3.7255 C.2            1 S1                 0.0000
     14 ****         2.3418  -1.9223   4.7885 N.2            1 S1                 0.0000
     15 ****         2.7388  -2.5122   5.9915 C.2            1 S1                 0.0000
     16 ****         3.5307  -3.6208   5.8242 C.2            1 S1                 0.0000
     17 ****         3.8124  -3.9698   4.1394 S.3            1 S1                 0.0000
     18 ****        -0.8320   0.5284  -2.5836 C.3            1 S1                 0.0000
     19 ****        -0.7317   3.3224  -2.0626 H              1 S1                 0.0000
     20 ****        -1.1927   3.8394  -3.6809 H              1 S1                 0.0000
     21 ****         0.3017   2.9479  -3.4354 H              1 S1                 0.0000
     22 ****        -1.4146   1.4893  -4.4045 H              1 S1                 0.0000
     23 ****        -3.4325   2.6777  -3.4610 H              1 S1                 0.0000
     24 ****        -3.5047   0.9351  -3.4069 H              1 S1                 0.0000
     25 ****        -2.8296   2.7729  -1.0628 H              1 S1                 0.0000
     26 ****        -4.2730   1.8133  -1.2542 H              1 S1                 0.0000
     27 ****        -2.6412   0.7373   0.2916 H              1 S1                 0.0000
     28 ****        -2.9703  -0.2893  -1.0908 H              1 S1                 0.0000
     29 ****        -0.7506  -0.4746   0.6605 H              1 S1                 0.0000
     30 ****        -0.4938  -1.4008  -0.7974 H              1 S1                 0.0000
     31 ****         1.6513  -0.1068  -1.2030 H              1 S1                 0.0000
     32 ****         1.3312   0.8743   0.2076 H              1 S1                 0.0000
     33 ****         2.3816  -1.8295   0.0806 H              1 S1                 0.0000
     34 ****         3.0236  -2.7856   1.6818 H              1 S1                 0.0000
     35 ****         2.4111  -2.0759   6.9236 H              1 S1                 0.0000
     36 ****         3.9638  -4.2505   6.5871 H              1 S1                 0.0000
     37 ****        -1.2409  -0.4155  -2.9480 H              1 S1                 0.0000
     38 ****         0.2336   0.5091  -2.8091 H              1 S1                 0.0000
     39 ****        -0.6843   1.5073  -0.8133 H              1 S1                 0.0000
     40 ****         0.7427   0.3929   2.1924 LP             1 S1                 0.0000
     41 ****         1.2960  -0.4226   3.6168 LP             1 S1                 0.0000
     42 ****         1.7627  -1.1092   4.7290 LP             1 S1                 0.0000
@<TRIPOS>BOND
    1    1    2 1     
    2    1   19 1     
    3    1   20 1     
    4    1   21 1     
    5    2   18 1     
    6    2    3 1     
    7    2   22 1     
    8    3    4 1     
    9    3   23 1     
   10    3   24 1     
   11    4    5 1     
   12    4   25 1     
   13    4   26 1     
   14    5    6 1     
   15    5   27 1     
   16    5   28 1     
   17    6    7 1     
   18    6   18 1     
   19    6   39 1     
   20    7    8 1     
   21    7   29 1     
   22    7   30 1     
   23    8    9 1     
   24    8   31 1     
   25    8   32 1     
   26    9   10 am    
   27    9   33 1     
   28   10   11 2     
   29   10   12 am    
   30   12   13 1     
   31   12   34 1     
   32   13   17 1     
   33   13   14 2     
   34   14   15 1     
   35   15   16 2     
   36   15   35 1     
   37   16   17 1     
   38   16   36 1     
   39   18   37 1     
   40   18   38 1     
   41   11   40 1     
   42   11   41 1     
   43   14   42 1     
@<TRIPOS>SUBSTRUCTURE
      1 S1             1
@<TRIPOS>SET
LONE_PAIRS      STATIC     ATOMS    <user>   **** ""
3 40 41 42
DONOR_HYDROGENS      STATIC     ATOMS    <user>   **** ""
3 39 33 34
ATOM$BLUE        STATIC     ATOMS    COLORGROUP SYSTEM
3 40 41 42
ATOM$RED        STATIC     ATOMS    COLORGROUP SYSTEM
3 39 33 34
