AV-unprocessed.smi:3323|AV-procd|sdf|12780|dock2
  -GOLD-   2272019123D 1   1.00000     0.00000
 Structure written by MMmdl.
 37 38  0  0  0  0  0  0  0  0  1 V2000
  151.4657  138.1188  154.3685 C   0  0  0  0  0  0  0  0  0  0  0  0
  150.1718  138.9001  154.1156 C   0  0  1  0  0  0  0  0  0  0  0  0
  148.9499  138.2227  154.7669 C   0  0  0  0  0  0  0  0  0  0  0  0
  147.6663  139.0534  154.5667 C   0  0  2  0  0  0  0  0  0  0  0  0
  147.0990  139.0157  153.1279 C   0  0  0  0  0  0  0  0  0  0  0  0
  146.9886  137.6549  152.6094 N   0  0  0  0  0  0  0  0  0  0  0  0
  145.8427  136.9912  152.3980 C   0  0  0  0  0  0  0  0  0  0  0  0
  144.7291  137.4712  152.6084 O   0  0  0  0  0  0  0  0  0  0  0  0
  146.0790  135.7617  151.9092 N   0  0  0  0  0  0  0  0  0  0  0  0
  145.1420  134.7515  151.5606 C   0  0  0  0  0  0  0  0  0  0  0  0
  143.9220  134.5242  152.2428 C   0  0  0  0  0  0  0  0  0  0  0  0
  143.0865  133.4763  151.8100 C   0  0  0  0  0  0  0  0  0  0  0  0
  143.5030  132.6905  150.7180 C   0  0  0  0  0  0  0  0  0  0  0  0
  144.6689  132.8872  150.0673 N   0  0  0  0  0  0  0  0  0  0  0  0
  145.4651  133.8928  150.4883 C   0  0  0  0  0  0  0  0  0  0  0  0
  147.9440  140.4912  155.0396 C   0  0  0  0  0  0  0  0  0  0  0  0
  149.2212  141.0636  154.3985 C   0  0  0  0  0  0  0  0  0  0  0  0
  150.3278  140.2071  154.6606 O   0  0  0  0  0  0  0  0  0  0  0  0
  151.4011  137.1114  153.9564 H   0  0  0  0  0  0  0  0  0  0  0  0
  151.6741  138.0321  155.4352 H   0  0  0  0  0  0  0  0  0  0  0  0
  152.3171  138.6147  153.9017 H   0  0  0  0  0  0  0  0  0  0  0  0
  150.0271  138.9771  153.0372 H   0  0  0  0  0  0  0  0  0  0  0  0
  148.8267  137.2088  154.3873 H   0  0  0  0  0  0  0  0  0  0  0  0
  149.1358  138.1165  155.8365 H   0  0  0  0  0  0  0  0  0  0  0  0
  146.8969  138.6369  155.2184 H   0  0  0  0  0  0  0  0  0  0  0  0
  146.0952  139.4410  153.1252 H   0  0  0  0  0  0  0  0  0  0  0  0
  147.6853  139.6416  152.4546 H   0  0  0  0  0  0  0  0  0  0  0  0
  147.8550  137.1817  152.3980 H   0  0  0  0  0  0  0  0  0  0  0  0
  147.0440  135.5416  151.7110 H   0  0  0  0  0  0  0  0  0  0  0  0
  143.6179  135.1170  153.0913 H   0  0  0  0  0  0  0  0  0  0  0  0
  142.1489  133.2768  152.3076 H   0  0  0  0  0  0  0  0  0  0  0  0
  142.8863  131.8786  150.3619 H   0  0  0  0  0  0  0  0  0  0  0  0
  146.3908  134.0187  149.9455 H   0  0  0  0  0  0  0  0  0  0  0  0
  147.0916  141.1377  154.8279 H   0  0  0  0  0  0  0  0  0  0  0  0
  148.0656  140.4938  156.1235 H   0  0  0  0  0  0  0  0  0  0  0  0
  149.0990  141.1988  153.3233 H   0  0  0  0  0  0  0  0  0  0  0  0
  149.4362  142.0479  154.8149 H   0  0  0  0  0  0  0  0  0  0  0  0
  1  2  1  0  0  0  0
  1 19  1  0  0  0  0
  1 20  1  0  0  0  0
  1 21  1  0  0  0  0
  2 18  1  0  0  0  0
  2  3  1  0  0  0  0
  2 22  1  0  0  0  0
  3  4  1  0  0  0  0
  3 23  1  0  0  0  0
  3 24  1  0  0  0  0
  4  5  1  0  0  0  0
  4 16  1  0  0  0  0
  4 25  1  0  0  0  0
  5  6  1  0  0  0  0
  5 26  1  0  0  0  0
  5 27  1  0  0  0  0
  6  7  1  0  0  0  0
  6 28  1  0  0  0  0
  7  8  2  0  0  0  0
  7  9  1  0  0  0  0
  9 10  1  0  0  0  0
  9 29  1  0  0  0  0
 10 15  1  0  0  0  0
 10 11  2  0  0  0  0
 11 12  1  0  0  0  0
 11 30  1  0  0  0  0
 12 13  2  0  0  0  0
 12 31  1  0  0  0  0
 13 14  1  0  0  0  0
 13 32  1  0  0  0  0
 14 15  2  0  0  0  0
 15 33  1  0  0  0  0
 16 17  1  0  0  0  0
 16 34  1  0  0  0  0
 16 35  1  0  0  0  0
 17 18  1  0  0  0  0
 17 36  1  0  0  0  0
 17 37  1  0  0  0  0
M  END
> <s_m_source_file>
AV-unprocessed.smi

> <i_m_source_file_index>
3323

> <i_lp_mmshare_version>
43012

> <i_f3d_flags>
0

> <s_epik_input>
W0NIM11bQ0BASF0xW0NIMl1bQ0BIXShbQ0gyXVtDSDJdTzEpW0NIMl1bTkhdQyg9TylbTkhdYzJbY0hdW2NIXVtjSF1uW2NIXTI=

> <s_epik_cmdline>
J2VwaWtfcHl0aG9uJywgJy1waCcsICc3LjAnLCAnLXRuJywgJzgnLCAnLW1hJywgJzIwMCcsICctbWV0YWxfYmluZGluZycsICctaW1hZScsICc8aW5maWxlLm1hZT4nLCAnLW9tYWUnLCAnPG91dGZpbGUubWFlPic=

> <r_epik_Ionization_Penalty>
0.00485293

> <r_epik_Ionization_Penalty_Charging>
0

> <r_epik_Ionization_Penalty_Neutral>
0.00485293

> <r_epik_State_Penalty>
0.00349083

> <r_epik_Charging_Adjusted_Penalty>
0.00349083

> <i_epik_Tot_Q>
0

> <i_epik_Tot_abs_Q>
0

> <r_epik_Metal_State_Penalty>
-0

> <b_epik_Metal_Only>
0

> <s_lp_Force_Field>
OPLS_2005

> <r_lp_Energy>
13.6237

> <b_lp_Chiralities_Consistent>
1

> <s_lp_Variant>
AV-unprocessed.smi:3323-4

> <Gold.Version>
5.8.1

> <Gold.Id.Protein>
6NUR|6NUR_protein|mol2

> <Gold.PLP.Fitness>
41.5518

> <Gold.PLP.PLP>
-30.3331

> <Gold.PLP.part.hbond>
-2.9845

> <Gold.PLP.part.metal>
0.0000

> <Gold.PLP.part.buried>
-3.5888

> <Gold.PLP.part.nonpolar>
-24.7840

> <Gold.PLP.part.repulsive>
0.5562

> <Gold.PLP.ligand.clash>
0.0000

> <Gold.PLP.ligand.torsion>
0.3250

> <Gold.PLP.Chemscore.Hbond>
2.9120

> <Gold.PLP.Chemscore.CHOScore>
1.0426

> <Gold.PLP.Chemscore.Metal>
0.0000

> <Gold.Chemscore.Hbonds>
donor molecule, donor type, donor heavy atom, donor atom, acceptor molecule, acceptor atom, score
      L1  H     6    28       P1  7948  1.00
      L1  H     9    29       P1  7948  0.91
      P1  H  7989  7998       L1    18  1.00
      L1  C    13    32       P1 10952  0.61
      L1  C    15    33       P1  7921  0.43

> <Gold.PLP.Chemscore.Internal.Correction>
0.0048

> <Gold.Rescore>
     Score         DG    S(hbond)    S(metal)    S(lipo)     H(rot)  DE(clash)    DE(int)     intcor
     17.23     -18.02       2.04        0.00      75.90       1.23       0.43       0.35       ----

> <Gold.Chemscore.Fitness>
17.2348

> <Gold.Chemscore.DG>
-18.0163

> <Gold.Chemscore.ZeroCoef>
-5.4800

> <Gold.Chemscore.Hbond>
2.0352

> <Gold.Chemscore.Metal>
0.0000

> <Gold.Chemscore.Lipo>
75.9011

> <Gold.Chemscore.Internal_Hbond>
0.0000

> <Gold.Chemscore.DEClash>
0.4284

> <Gold.Chemscore.DEInternal>
0.3531

> <Gold.Chemscore.Rot>
1.2273

> <Gold.Chemscore.Internal.Correction>
   9.000000E+99

> <Gold.Chemscore.Hbonds>
donor molecule, donor type, donor heavy atom, donor atom, acceptor molecule, acceptor atom, score
      L1  H     6    28       P1  7948  0.93
      L1  H     9    29       P1  7948  0.84
      P1  H  7989  7998       L1    18  0.09

> <Gold.Chemscore.Hbond.Weighted>
-6.7977

> <Gold.Chemscore.Metal.Weighted>
-0.0000

> <Gold.Chemscore.Lipo.Weighted>
-8.8804

> <Gold.Chemscore.Internal_Hbond.Weighted>
0.0000

> <Gold.Chemscore.DEClash.Weighted>
0.4284

> <Gold.Chemscore.DEInternal.Weighted>
0.3531

> <Gold.Chemscore.Rot.Weighted>
3.1418

> <Gold.Chemscore.Internal.Correction.Weighted>
   9.000000E+99

> <Gold.Protein.RotatedTorsions>
[ 6907 6896 6895 6894 ] final -152.29 input  -60.11 | X-H torsion
[ 7974 7965 7964 7962 ] final  -69.54 input  175.53 | X-H torsion
[ 8008 7997 7996 7995 ] final   48.01 input   59.86 | X-H torsion
[ 10167 10162 10161 10158 ] final -177.16 input  -65.29 | X-H torsion
[ 10718 10713 10712 10709 ] final   88.10 input   66.30 | X-H torsion
[ 10763 10752 10751 10750 ] final  163.34 input  -60.55 | X-H torsion
[ 11005 11000 10999 10996 ] final  153.59 input  -57.11 | X-H torsion

> <Gold.Protein.ActiveResidues>
 VAL166  LYS551  ARG553  GLY616  TRP617  ASP618  TYR619  PRO620  LYS621  CYS622 
 ASP623  PHE694  ASN695  SER759  ASP760  ASP761  ALA762  ILE779  LEU786  VAL792 
 PHE793  MET794  SER795  GLU796  ALA797  LYS798  CYS799  TRP800  GLU811  SER814 

> <Gold.Protein.RotatedAtoms>
  151.2256  133.4478  159.2601 H   0  0  0  0  0  0  0  0  0  0  0  0  # atno 6907 bound_to 6896
  151.0843  134.9877  159.8381 H   0  0  0  0  0  0  0  0  0  0  0  0  # atno 6908 bound_to 6896
  152.5428  134.2194  159.8834 H   0  0  0  0  0  0  0  0  0  0  0  0  # atno 6909 bound_to 6896
  145.7024  140.9111  143.0724 H   0  0  0  0  0  0  0  0  0  0  0  0  # atno 7974 bound_to 7965
  155.3786  140.3427  155.4246 H   0  0  0  0  0  0  0  0  0  0  0  0  # atno 8008 bound_to 7997
  156.1623  140.1604  156.8625 H   0  0  0  0  0  0  0  0  0  0  0  0  # atno 8009 bound_to 7997
  154.5151  140.0780  156.8047 H   0  0  0  0  0  0  0  0  0  0  0  0  # atno 8010 bound_to 7997
  139.5494  144.2149  152.1049 H   0  0  0  0  0  0  0  0  0  0  0  0  # atno 10167 bound_to 10162
  157.6946  131.0282  150.3224 H   0  0  0  0  0  0  0  0  0  0  0  0  # atno 10718 bound_to 10713
  154.2922  135.2761  155.2649 H   0  0  0  0  0  0  0  0  0  0  0  0  # atno 10763 bound_to 10752
  154.5123  135.5779  153.6618 H   0  0  0  0  0  0  0  0  0  0  0  0  # atno 10764 bound_to 10752
  152.9912  135.6184  154.3087 H   0  0  0  0  0  0  0  0  0  0  0  0  # atno 10765 bound_to 10752
  140.1412  134.8738  157.2333 H   0  0  0  0  0  0  0  0  0  0  0  0  # atno 11005 bound_to 11000
  144.6965  139.8966  143.7456 LP  0  0  0  0  0  0  0  0  0  0  0  0  # atno 17320 bound_to 7965
  146.0786  139.3773  143.0479 LP  0  0  0  0  0  0  0  0  0  0  0  0  # atno 17321 bound_to 7965
  140.1642  144.4997  150.6615 LP  0  0  0  0  0  0  0  0  0  0  0  0  # atno 17342 bound_to 10162
  140.6752  143.2302  151.5525 LP  0  0  0  0  0  0  0  0  0  0  0  0  # atno 17343 bound_to 10162
  156.3709  130.3863  149.7176 LP  0  0  0  0  0  0  0  0  0  0  0  0  # atno 17370 bound_to 10713
  156.4591  130.7943  151.2963 LP  0  0  0  0  0  0  0  0  0  0  0  0  # atno 17371 bound_to 10713
  140.2720  134.3449  155.7370 LP  0  0  0  0  0  0  0  0  0  0  0  0  # atno 17394 bound_to 11000
  141.2186  133.7429  156.9237 LP  0  0  0  0  0  0  0  0  0  0  0  0  # atno 17395 bound_to 11000

$$$$
