#       Name:                AV-unprocessed.smi:3345
#       Creating user name   scv26
#       Creation time:       Fri Mar 27 19:31:08 2020


#       File generated by GOLD software.
#

@<TRIPOS>MOLECULE
AV-unprocessed.smi:3345
    47    48     1
SMALL
NO_CHARGES


@<TRIPOS>ATOM
      1 ****        -1.9984  -0.3304  -2.0831 C.3            1 S1                 0.0000
      2 ****        -1.3358   0.0149  -0.7405 C.3            1 S1                 0.0000
      3 ****        -1.9264  -0.8226   0.4150 C.3            1 S1                 0.0000
      4 ****        -2.0493  -0.1212   1.6933 N.3            1 S1                 0.0000
      5 ****        -0.7538   0.2119   2.2817 C.3            1 S1                 0.0000
      6 ****        -0.9027   0.9223   3.6385 C.3            1 S1                 0.0000
      7 ****        -1.6722   0.1135   4.5220 O.3            1 S1                 0.0000
      8 ****        -2.9633  -0.1886   4.0036 C.3            1 S1                 0.0000
      9 ****        -2.8176  -0.9086   2.6518 C.3            1 S1                 0.0000
     10 ****         0.0999  -0.2335  -0.8515 N.am           1 S1                 0.0000
     11 ****         1.0328   0.6894  -1.1354 C.2            1 S1                 0.0000
     12 ****         0.7724   1.8781  -1.3238 O.2            1 S1                 0.0000
     13 ****         2.4801   0.1867  -1.2310 C.3            1 S1                 0.0000
     14 ****         3.4598   1.1080  -0.4765 C.3            1 S1                 0.0000
     15 ****         2.8477  -0.0027  -2.6296 N.pl3          1 S1                 0.0000
     16 ****         2.6959  -1.0708  -3.4160 C.2            1 S1                 0.0000
     17 ****         3.0946  -0.8821  -4.6661 N.2            1 S1                 0.0000
     18 ****         3.4958   0.4208  -4.5826 C.2            1 S1                 0.0000
     19 ****         3.3588   0.9985  -3.3895 N.2            1 S1                 0.0000
     20 ****        -3.0709  -0.1360  -2.0528 H              1 S1                 0.0000
     21 ****        -1.8574  -1.3815  -2.3379 H              1 S1                 0.0000
     22 ****        -1.5815   0.2682  -2.8939 H              1 S1                 0.0000
     23 ****        -1.5290   1.0709  -0.5417 H              1 S1                 0.0000
     24 ****        -2.9278  -1.1344   0.1153 H              1 S1                 0.0000
     25 ****        -1.3646  -1.7496   0.5423 H              1 S1                 0.0000
     26 ****        -0.1618  -0.6953   2.4114 H              1 S1                 0.0000
     27 ****        -0.1909   0.8609   1.6116 H              1 S1                 0.0000
     28 ****         0.0767   1.1031   4.0814 H              1 S1                 0.0000
     29 ****        -1.3824   1.8944   3.5140 H              1 S1                 0.0000
     30 ****        -3.4954  -0.8202   4.7150 H              1 S1                 0.0000
     31 ****        -3.5432   0.7292   3.8928 H              1 S1                 0.0000
     32 ****        -3.8092  -1.1180   2.2489 H              1 S1                 0.0000
     33 ****        -2.3346  -1.8744   2.8088 H              1 S1                 0.0000
     34 ****         0.4063  -1.1848  -0.7085 H              1 S1                 0.0000
     35 ****         2.5307  -0.7947  -0.7558 H              1 S1                 0.0000
     36 ****         3.1933   1.1808   0.5785 H              1 S1                 0.0000
     37 ****         3.4707   2.1205  -0.8825 H              1 S1                 0.0000
     38 ****         4.4772   0.7194  -0.5297 H              1 S1                 0.0000
     39 ****         2.2797  -2.0047  -3.0678 H              1 S1                 0.0000
     40 ****         3.8949   0.9618  -5.4281 H              1 S1                 0.0000
     41 ****        -2.5287   0.7331   1.4924 LP             1 S1                 0.0000
     42 ****        -1.7810   0.6002   5.3887 LP             1 S1                 0.0000
     43 ****        -1.1820  -0.7436   4.6802 LP             1 S1                 0.0000
     44 ****        -0.1735   2.1977  -1.2683 LP             1 S1                 0.0000
     45 ****         1.5069   2.5239  -1.5324 LP             1 S1                 0.0000
     46 ****         3.1001  -1.5107  -5.4439 LP             1 S1                 0.0000
     47 ****         3.5781   1.9365  -3.1211 LP             1 S1                 0.0000
@<TRIPOS>BOND
    1    1    2 1     
    2    1   20 1     
    3    1   21 1     
    4    1   22 1     
    5    2    3 1     
    6    2   10 1     
    7    2   23 1     
    8    3    4 1     
    9    3   24 1     
   10    3   25 1     
   11    4    9 1     
   12    4    5 1     
   13    5    6 1     
   14    5   26 1     
   15    5   27 1     
   16    6    7 1     
   17    6   28 1     
   18    6   29 1     
   19    7    8 1     
   20    8    9 1     
   21    8   30 1     
   22    8   31 1     
   23    9   32 1     
   24    9   33 1     
   25   10   11 am    
   26   10   34 1     
   27   11   12 2     
   28   11   13 1     
   29   13   14 1     
   30   13   15 1     
   31   13   35 1     
   32   14   36 1     
   33   14   37 1     
   34   14   38 1     
   35   15   19 1     
   36   15   16 1     
   37   16   17 2     
   38   16   39 1     
   39   17   18 1     
   40   18   19 2     
   41   18   40 1     
   42    4   41 1     
   43    7   42 1     
   44    7   43 1     
   45   12   44 1     
   46   12   45 1     
   47   17   46 1     
   48   19   47 1     
@<TRIPOS>SUBSTRUCTURE
      1 S1             1
@<TRIPOS>SET
LONE_PAIRS      STATIC     ATOMS    <user>   **** ""
7 41 42 43 44 45 46 47
DONOR_HYDROGENS      STATIC     ATOMS    <user>   **** ""
1 34
ATOM$BLUE        STATIC     ATOMS    COLORGROUP SYSTEM
7 41 42 43 44 45 46 47
ATOM$RED        STATIC     ATOMS    COLORGROUP SYSTEM
1 34
