AV-unprocessed.smi:31|AV-procd|sdf|195|dock4
  -GOLD-   2262015463D 1   1.00000     0.00000
 Structure written by MMmdl.
 49 52  0  0  0  0  0  0  0  0  1 V2000
  152.0093  137.1975  154.1011 O   0  0  0  0  0  0  0  0  0  0  0  0
  151.3637  137.9734  154.8074 C   0  0  0  0  0  0  0  0  0  0  0  0
  151.8339  139.4234  155.0051 C   0  0  0  0  0  0  0  0  0  0  0  0
  151.8575  139.8485  156.4220 N   0  0  0  0  0  0  0  0  0  0  0  0
  152.4803  139.0066  157.3768 C   0  0  0  0  0  0  0  0  0  0  0  0
  152.9796  137.9290  157.0493 O   0  0  0  0  0  0  0  0  0  0  0  0
  152.4944  139.5095  158.7459 C   0  0  0  0  0  0  0  0  0  0  0  0
  153.0686  138.7796  159.7173 F   0  0  0  0  0  0  0  0  0  0  0  0
  151.9445  140.7020  159.0536 C   0  0  0  0  0  0  0  0  0  0  0  0
  151.3385  141.5126  158.1112 N   0  0  0  0  0  0  0  0  0  0  0  0
  150.7543  142.8565  158.4865 C   0  0  2  0  0  0  0  0  0  0  0  0
  151.4629  143.9751  157.7144 C   0  0  0  0  0  0  0  0  0  0  0  0
  152.5358  144.3974  158.6939 C   0  0  0  0  0  0  0  0  0  0  0  0
  151.8214  144.2139  160.0279 C   0  0  0  0  0  0  0  0  0  0  0  0
  150.9693  143.0851  159.8499 O   0  0  0  0  0  0  0  0  0  0  0  0
  151.2937  141.1015  156.7615 C   0  0  0  0  0  0  0  0  0  0  0  0
  150.7870  141.8233  155.8996 O   0  0  0  0  0  0  0  0  0  0  0  0
  150.2192  137.6541  155.4385 N   0  0  0  0  0  0  0  0  0  0  0  0
  149.5269  136.4132  155.4372 C   0  0  0  0  0  0  0  0  0  0  0  0
  148.3652  136.3183  156.2261 C   0  0  0  0  0  0  0  0  0  0  0  0
  147.6299  135.1202  156.2659 C   0  0  0  0  0  0  0  0  0  0  0  0
  148.0439  133.9930  155.5288 C   0  0  0  0  0  0  0  0  0  0  0  0
  149.2594  134.0568  154.7862 C   0  0  0  0  0  0  0  0  0  0  0  0
  149.9739  135.2710  154.7326 C   0  0  0  0  0  0  0  0  0  0  0  0
  149.8162  132.9893  154.1158 O   0  0  0  0  0  0  0  0  0  0  0  0
  149.6269  131.7116  154.7056 C   0  0  0  0  0  0  0  0  0  0  0  0
  148.2799  131.1096  154.3001 C   0  0  0  0  0  0  0  0  0  0  0  0
  147.1388  132.1259  154.3773 C   0  0  0  0  0  0  0  0  0  0  0  0
  147.2155  132.8930  155.5699 O   0  0  0  0  0  0  0  0  0  0  0  0
  152.8219  139.5356  154.5552 H   0  0  0  0  0  0  0  0  0  0  0  0
  151.1962  140.0753  154.4061 H   0  0  0  0  0  0  0  0  0  0  0  0
  151.9927  141.0265  160.0823 H   0  0  0  0  0  0  0  0  0  0  0  0
  149.6832  142.7900  158.2897 H   0  0  0  0  0  0  0  0  0  0  0  0
  151.8465  143.6394  156.7500 H   0  0  0  0  0  0  0  0  0  0  0  0
  150.7543  144.7877  157.5501 H   0  0  0  0  0  0  0  0  0  0  0  0
  153.3937  143.7272  158.6272 H   0  0  0  0  0  0  0  0  0  0  0  0
  152.8858  145.4173  158.5336 H   0  0  0  0  0  0  0  0  0  0  0  0
  152.5123  144.0670  160.8581 H   0  0  0  0  0  0  0  0  0  0  0  0
  151.2040  145.0854  160.2496 H   0  0  0  0  0  0  0  0  0  0  0  0
  149.7488  138.4130  155.9101 H   0  0  0  0  0  0  0  0  0  0  0  0
  148.0192  137.1726  156.7901 H   0  0  0  0  0  0  0  0  0  0  0  0
  146.7223  135.0735  156.8496 H   0  0  0  0  0  0  0  0  0  0  0  0
  150.8923  135.2937  154.1668 H   0  0  0  0  0  0  0  0  0  0  0  0
  150.4340  131.0548  154.3805 H   0  0  0  0  0  0  0  0  0  0  0  0
  149.7116  131.7768  155.7923 H   0  0  0  0  0  0  0  0  0  0  0  0
  148.3367  130.7189  153.2838 H   0  0  0  0  0  0  0  0  0  0  0  0
  148.0650  130.2580  154.9460 H   0  0  0  0  0  0  0  0  0  0  0  0
  147.1411  132.7796  153.5028 H   0  0  0  0  0  0  0  0  0  0  0  0
  146.1819  131.6041  154.3589 H   0  0  0  0  0  0  0  0  0  0  0  0
  1  2  2  0  0  0  0
  2  3  1  0  0  0  0
  2 18  1  0  0  0  0
  3  4  1  0  0  0  0
  3 30  1  0  0  0  0
  3 31  1  0  0  0  0
  4 16  1  0  0  0  0
  4  5  1  0  0  0  0
  5  6  2  0  0  0  0
  5  7  1  0  0  0  0
  7  8  1  0  0  0  0
  7  9  2  0  0  0  0
  9 10  1  0  0  0  0
  9 32  1  0  0  0  0
 10 11  1  0  0  0  0
 10 16  1  0  0  0  0
 11 15  1  0  0  0  0
 11 12  1  0  0  0  0
 11 33  1  0  0  0  0
 12 13  1  0  0  0  0
 12 34  1  0  0  0  0
 12 35  1  0  0  0  0
 13 14  1  0  0  0  0
 13 36  1  0  0  0  0
 13 37  1  0  0  0  0
 14 15  1  0  0  0  0
 14 38  1  0  0  0  0
 14 39  1  0  0  0  0
 16 17  2  0  0  0  0
 18 19  1  0  0  0  0
 18 40  1  0  0  0  0
 19 24  1  0  0  0  0
 19 20  2  0  0  0  0
 20 21  1  0  0  0  0
 20 41  1  0  0  0  0
 21 22  2  0  0  0  0
 21 42  1  0  0  0  0
 22 29  1  0  0  0  0
 22 23  1  0  0  0  0
 23 24  2  0  0  0  0
 23 25  1  0  0  0  0
 24 43  1  0  0  0  0
 25 26  1  0  0  0  0
 26 27  1  0  0  0  0
 26 44  1  0  0  0  0
 26 45  1  0  0  0  0
 27 28  1  0  0  0  0
 27 46  1  0  0  0  0
 27 47  1  0  0  0  0
 28 29  1  0  0  0  0
 28 48  1  0  0  0  0
 28 49  1  0  0  0  0
M  END
> <s_m_source_file>
AV-unprocessed.smi

> <i_m_source_file_index>
31

> <i_lp_mmshare_version>
43012

> <i_f3d_flags>
0

> <s_epik_input>
TzFbQ0gyXVtDSDJdW0NIMl1PYyhjMTIpW2NIXWMoW2NIXVtjSF0yKVtOSF1DKD1PKVtDSDJdbjNjKD1PKWMoRilbY0hdbihjMz1PKVtDQEBIXTRbQ0gyXVtDSDJdW0NIMl1PNA==

> <s_epik_cmdline>
J2VwaWtfcHl0aG9uJywgJy1waCcsICc3LjAnLCAnLXRuJywgJzgnLCAnLW1hJywgJzIwMCcsICctbWV0YWxfYmluZGluZycsICctaW1hZScsICc8aW5maWxlLm1hZT4nLCAnLW9tYWUnLCAnPG91dGZpbGUubWFlPic=

> <r_lp_tautomer_probability>
1

> <r_epik_Ionization_Penalty>
1.0483e-05

> <r_epik_Ionization_Penalty_Charging>
3.88729e-08

> <r_epik_Ionization_Penalty_Neutral>
1.04441e-05

> <r_epik_State_Penalty>
-0

> <r_epik_Charging_Adjusted_Penalty>
3.88729e-08

> <i_epik_Tot_Q>
0

> <i_epik_Tot_abs_Q>
0

> <r_epik_Metal_State_Penalty>
-0

> <b_epik_Metal_Only>
0

> <s_epik_Chemistry_Notes>
This compound contains an acetal/aminal-like group ( X-CH(R)-Y where X, Y are N, S, or O) that may be acid/base labile, releasing an aldehyde.

> <s_lp_Force_Field>
OPLS_2005

> <r_lp_Energy>
45.2544

> <b_lp_Chiralities_Consistent>
1

> <s_lp_Variant>
AV-unprocessed.smi:31-1

> <Gold.Version>
5.8.1

> <Gold.Id.Protein>
6NUR|6NUR_protein|mol2

> <Gold.PLP.Fitness>
46.3260

> <Gold.PLP.PLP>
-44.0841

> <Gold.PLP.part.hbond>
-2.1028

> <Gold.PLP.part.metal>
0.0000

> <Gold.PLP.part.buried>
-2.4828

> <Gold.PLP.part.nonpolar>
-39.7790

> <Gold.PLP.part.repulsive>
1.3059

> <Gold.PLP.ligand.clash>
0.0000

> <Gold.PLP.ligand.torsion>
0.2501

> <Gold.PLP.Chemscore.Hbond>
0.8960

> <Gold.PLP.Chemscore.CHOScore>
0.0000

> <Gold.PLP.Chemscore.Metal>
0.0000

> <Gold.Chemscore.Hbonds>
donor molecule, donor type, donor heavy atom, donor atom, acceptor molecule, acceptor atom, score
      P1  H 10752 10765       L1     1  0.90

> <Gold.PLP.Chemscore.Internal.Correction>
0.0541

> <Gold.Rescore>
     Score         DG    S(hbond)    S(metal)    S(lipo)     H(rot)  DE(clash)    DE(int)     intcor
     10.40     -14.61       0.81        0.00      90.73       1.64       0.12       4.09       ----

> <Gold.Chemscore.Fitness>
10.4018

> <Gold.Chemscore.DG>
-14.6085

> <Gold.Chemscore.ZeroCoef>
-5.4800

> <Gold.Chemscore.Hbond>
0.8137

> <Gold.Chemscore.Metal>
0.0000

> <Gold.Chemscore.Lipo>
90.7348

> <Gold.Chemscore.Internal_Hbond>
0.0000

> <Gold.Chemscore.DEClash>
0.1156

> <Gold.Chemscore.DEInternal>
4.0911

> <Gold.Chemscore.Rot>
1.6427

> <Gold.Chemscore.Internal.Correction>
   9.000000E+99

> <Gold.Chemscore.Hbonds>
donor molecule, donor type, donor heavy atom, donor atom, acceptor molecule, acceptor atom, score
      P1  H 10752 10765       L1     1  0.87

> <Gold.Chemscore.Hbond.Weighted>
-2.7178

> <Gold.Chemscore.Metal.Weighted>
-0.0000

> <Gold.Chemscore.Lipo.Weighted>
-10.6160

> <Gold.Chemscore.Internal_Hbond.Weighted>
0.0000

> <Gold.Chemscore.DEClash.Weighted>
0.1156

> <Gold.Chemscore.DEInternal.Weighted>
4.0911

> <Gold.Chemscore.Rot.Weighted>
4.2053

> <Gold.Chemscore.Internal.Correction.Weighted>
   9.000000E+99

> <Gold.Protein.RotatedTorsions>
[ 6907 6896 6895 6894 ] final  141.90 input  -60.11 | X-H torsion
[ 7974 7965 7964 7962 ] final -147.86 input  175.53 | X-H torsion
[ 8008 7997 7996 7995 ] final   38.71 input   59.86 | X-H torsion
[ 10167 10162 10161 10158 ] final   73.82 input  -65.29 | X-H torsion
[ 10718 10713 10712 10709 ] final  -91.19 input   66.30 | X-H torsion
[ 10763 10752 10751 10750 ] final  137.79 input  -60.55 | X-H torsion
[ 11005 11000 10999 10996 ] final  -64.37 input  -57.11 | X-H torsion

> <Gold.Protein.ActiveResidues>
 VAL166  LYS551  ARG553  GLY616  TRP617  ASP618  TYR619  PRO620  LYS621  CYS622 
 ASP623  PHE694  ASN695  SER759  ASP760  ASP761  ALA762  ILE779  LEU786  VAL792 
 PHE793  MET794  SER795  GLU796  ALA797  LYS798  CYS799  TRP800  GLU811  SER814 

> <Gold.Protein.RotatedAtoms>
  152.2253  133.5015  159.5184 H   0  0  0  0  0  0  0  0  0  0  0  0  # atno 6907 bound_to 6896
  150.7023  134.1289  159.4071 H   0  0  0  0  0  0  0  0  0  0  0  0  # atno 6908 bound_to 6896
  151.9210  135.0298  160.0572 H   0  0  0  0  0  0  0  0  0  0  0  0  # atno 6909 bound_to 6896
  144.8066  140.5272  143.5670 H   0  0  0  0  0  0  0  0  0  0  0  0  # atno 7974 bound_to 7965
  155.2247  140.3333  155.4311 H   0  0  0  0  0  0  0  0  0  0  0  0  # atno 8008 bound_to 7997
  156.2319  140.1854  156.7267 H   0  0  0  0  0  0  0  0  0  0  0  0  # atno 8009 bound_to 7997
  154.5993  140.0625  156.9331 H   0  0  0  0  0  0  0  0  0  0  0  0  # atno 8010 bound_to 7997
  140.0204  144.5545  150.7586 H   0  0  0  0  0  0  0  0  0  0  0  0  # atno 10167 bound_to 10162
  155.9992  130.4938  150.5437 H   0  0  0  0  0  0  0  0  0  0  0  0  # atno 10718 bound_to 10713
  153.8788  135.3047  155.3444 H   0  0  0  0  0  0  0  0  0  0  0  0  # atno 10763 bound_to 10752
  154.7771  135.4855  153.9770 H   0  0  0  0  0  0  0  0  0  0  0  0  # atno 10764 bound_to 10752
  153.1363  135.6815  153.9194 H   0  0  0  0  0  0  0  0  0  0  0  0  # atno 10765 bound_to 10752
  141.1422  133.6665  156.5823 H   0  0  0  0  0  0  0  0  0  0  0  0  # atno 11005 bound_to 11000
  145.5423  139.1475  143.3440 LP  0  0  0  0  0  0  0  0  0  0  0  0  # atno 17320 bound_to 7965
  146.2359  140.5562  142.8955 LP  0  0  0  0  0  0  0  0  0  0  0  0  # atno 17321 bound_to 7965
  140.7345  143.2729  151.3831 LP  0  0  0  0  0  0  0  0  0  0  0  0  # atno 17342 bound_to 10162
  139.6144  144.1033  152.2331 LP  0  0  0  0  0  0  0  0  0  0  0  0  # atno 17343 bound_to 10162
  157.3370  131.0710  151.1817 LP  0  0  0  0  0  0  0  0  0  0  0  0  # atno 17370 bound_to 10713
  157.2679  130.6690  149.6005 LP  0  0  0  0  0  0  0  0  0  0  0  0  # atno 17371 bound_to 10713
  140.3828  134.7508  157.4672 LP  0  0  0  0  0  0  0  0  0  0  0  0  # atno 17394 bound_to 11000
  140.0625  134.5976  155.8733 LP  0  0  0  0  0  0  0  0  0  0  0  0  # atno 17395 bound_to 11000

$$$$
