AV-unprocessed.smi:1032|AV-procd|sdf|4486|dock5
  -GOLD-   22720 2463D 1   1.00000     0.00000
 Structure written by MMmdl.
 47 48  0  0  0  0  0  0  0  0  3 V2000
  151.2432  141.6114  158.3682 C   0  0  0  0  0  0  0  0  0  0  0  0
  150.2382  141.2371  157.2697 C   0  0  2  0  0  0  0  0  0  0  0  0
  150.7437  141.6333  155.8724 C   0  0  0  0  0  0  0  0  0  0  0  0
  149.7154  141.2785  154.7848 C   0  0  0  0  0  0  0  0  0  0  0  0
  148.4023  141.9215  155.0585 N   0  3  1  0  0  0  0  0  0  0  0  0
  147.4032  141.7140  153.9782 C   0  0  0  0  0  0  0  0  0  0  0  0
  147.5989  140.3837  153.2209 C   0  0  2  0  0  0  0  0  0  0  0  0
  146.7794  140.4224  152.0690 O   0  0  0  0  0  0  0  0  0  0  0  0
  147.1601  139.1794  154.0795 C   0  0  0  0  0  0  0  0  0  0  0  0
  147.2259  137.9235  153.3374 N   0  0  0  0  0  0  0  0  0  0  0  0
  146.1834  137.1108  153.1116 C   0  0  0  0  0  0  0  0  0  0  0  0
  145.0511  137.3273  153.5435 O   0  0  0  0  0  0  0  0  0  0  0  0
  146.5440  136.0387  152.3855 N   0  0  0  0  0  0  0  0  0  0  0  0
  145.7187  134.9895  151.8969 C   0  0  0  0  0  0  0  0  0  0  0  0
  146.3176  134.0113  151.0723 C   0  0  0  0  0  0  0  0  0  0  0  0
  145.5301  132.9646  150.5510 C   0  0  0  0  0  0  0  0  0  0  0  0
  144.2105  132.9113  150.8324 N   0  3  0  0  0  0  0  0  0  0  0  0
  143.5904  133.8315  151.6016 C   0  0  0  0  0  0  0  0  0  0  0  0
  144.3266  134.9003  152.1527 C   0  0  0  0  0  0  0  0  0  0  0  0
  147.8738  141.5286  156.3903 C   0  0  0  0  0  0  0  0  0  0  0  0
  148.8644  141.8840  157.5114 C   0  0  0  0  0  0  0  0  0  0  0  0
  151.4094  142.6886  158.4059 H   0  0  0  0  0  0  0  0  0  0  0  0
  152.2075  141.1315  158.1990 H   0  0  0  0  0  0  0  0  0  0  0  0
  150.8871  141.2954  159.3492 H   0  0  0  0  0  0  0  0  0  0  0  0
  150.1130  140.1534  157.2908 H   0  0  0  0  0  0  0  0  0  0  0  0
  150.9507  142.7041  155.8425 H   0  0  0  0  0  0  0  0  0  0  0  0
  151.6885  141.1310  155.6609 H   0  0  0  0  0  0  0  0  0  0  0  0
  150.1056  141.5980  153.8196 H   0  0  0  0  0  0  0  0  0  0  0  0
  149.5879  140.1962  154.7295 H   0  0  0  0  0  0  0  0  0  0  0  0
  146.4015  141.7668  154.4074 H   0  0  0  0  0  0  0  0  0  0  0  0
  147.4669  142.5313  153.2575 H   0  0  0  0  0  0  0  0  0  0  0  0
  148.6389  140.2661  152.9192 H   0  0  0  0  0  0  0  0  0  0  0  0
  145.8912  140.6053  152.3367 H   0  0  0  0  0  0  0  0  0  0  0  0
  147.8033  139.0922  154.9571 H   0  0  0  0  0  0  0  0  0  0  0  0
  146.1499  139.3206  154.4665 H   0  0  0  0  0  0  0  0  0  0  0  0
  148.1236  137.6700  152.9508 H   0  0  0  0  0  0  0  0  0  0  0  0
  147.5301  135.9417  152.1927 H   0  0  0  0  0  0  0  0  0  0  0  0
  147.3726  134.0555  150.8435 H   0  0  0  0  0  0  0  0  0  0  0  0
  145.9127  132.1763  149.9192 H   0  0  0  0  0  0  0  0  0  0  0  0
  142.5294  133.6905  151.7474 H   0  0  0  0  0  0  0  0  0  0  0  0
  143.8078  135.6369  152.7474 H   0  0  0  0  0  0  0  0  0  0  0  0
  146.9282  142.0391  156.5778 H   0  0  0  0  0  0  0  0  0  0  0  0
  147.6634  140.4577  156.3982 H   0  0  0  0  0  0  0  0  0  0  0  0
  148.4623  141.5588  158.4716 H   0  0  0  0  0  0  0  0  0  0  0  0
  148.9703  142.9681  157.5723 H   0  0  0  0  0  0  0  0  0  0  0  0
  148.5635  142.9179  155.1028 H   0  0  0  0  0  0  0  0  0  0  0  0
  143.6576  132.1469  150.4432 H   0  0  0  0  0  0  0  0  0  0  0  0
  1  2  1  0  0  0  0
  1 22  1  0  0  0  0
  1 23  1  0  0  0  0
  1 24  1  0  0  0  0
  2 21  1  0  0  0  0
  2  3  1  0  0  0  0
  2 25  1  0  0  0  0
  3  4  1  0  0  0  0
  3 26  1  0  0  0  0
  3 27  1  0  0  0  0
  4  5  1  0  0  0  0
  4 28  1  0  0  0  0
  4 29  1  0  0  0  0
  5  6  1  0  0  0  0
  5 20  1  0  0  0  0
  5 46  1  0  0  0  0
  6  7  1  0  0  0  0
  6 30  1  0  0  0  0
  6 31  1  0  0  0  0
  7  8  1  0  0  0  0
  7  9  1  0  0  0  0
  7 32  1  0  0  0  0
  8 33  1  0  0  0  0
  9 10  1  0  0  0  0
  9 34  1  0  0  0  0
  9 35  1  0  0  0  0
 10 11  1  0  0  0  0
 10 36  1  0  0  0  0
 11 12  2  0  0  0  0
 11 13  1  0  0  0  0
 13 14  1  0  0  0  0
 13 37  1  0  0  0  0
 14 19  1  0  0  0  0
 14 15  2  0  0  0  0
 15 16  1  0  0  0  0
 15 38  1  0  0  0  0
 16 17  2  0  0  0  0
 16 39  1  0  0  0  0
 17 18  1  0  0  0  0
 17 47  1  0  0  0  0
 18 19  2  0  0  0  0
 18 40  1  0  0  0  0
 19 41  1  0  0  0  0
 20 21  1  0  0  0  0
 20 42  1  0  0  0  0
 20 43  1  0  0  0  0
 21 44  1  0  0  0  0
 21 45  1  0  0  0  0
M  CHG  1   5   1
M  CHG  1  17   1
M  END
> <s_m_source_file>
AV-unprocessed.smi

> <i_m_source_file_index>
1032

> <i_lp_mmshare_version>
43012

> <i_f3d_flags>
0

> <s_epik_input>
W0NIM11bQ0hdMVtDSDJdW0NIMl1OKFtDSDJdW0NIMl0xKVtDSDJdW0NASF0oW09IXSlbQ0gyXVtOSF1DKD1PKVtOSF1jMltjSF1bY0hdbltjSF1bY0hdMg==

> <s_epik_cmdline>
J2VwaWtfcHl0aG9uJywgJy1waCcsICc3LjAnLCAnLXRuJywgJzgnLCAnLW1hJywgJzIwMCcsICctbWV0YWxfYmluZGluZycsICctaW1hZScsICc8aW5maWxlLm1hZT4nLCAnLW9tYWUnLCAnPG91dGZpbGUubWFlPic=

> <r_epik_Ionization_Penalty>
1.02509

> <r_epik_Ionization_Penalty_Charging>
1.02507

> <r_epik_Ionization_Penalty_Neutral>
1.85474e-05

> <r_epik_State_Penalty>
1.07411

> <r_epik_Charging_Adjusted_Penalty>
2.09917

> <i_epik_Tot_Q>
2

> <i_epik_Tot_abs_Q>
2

> <r_epik_Metal_State_Penalty>
1.1725

> <b_epik_Metal_Only>
0

> <s_lp_Force_Field>
OPLS_2005

> <r_lp_Energy>
32.4913

> <b_lp_Chiralities_Consistent>
1

> <s_lp_Variant>
AV-unprocessed.smi:1032-5

> <Gold.Version>
5.8.1

> <Gold.Id.Protein>
6NUR|6NUR_protein|mol2

> <Gold.PLP.Fitness>
47.5868

> <Gold.PLP.PLP>
-34.0113

> <Gold.PLP.part.hbond>
-4.5081

> <Gold.PLP.part.metal>
0.0000

> <Gold.PLP.part.buried>
-5.2877

> <Gold.PLP.part.nonpolar>
-24.6530

> <Gold.PLP.part.repulsive>
0.3316

> <Gold.PLP.ligand.clash>
0.0000

> <Gold.PLP.ligand.torsion>
0.5347

> <Gold.PLP.Chemscore.Hbond>
4.8564

> <Gold.PLP.Chemscore.CHOScore>
0.0000

> <Gold.PLP.Chemscore.Metal>
0.0000

> <Gold.Chemscore.Hbonds>
donor molecule, donor type, donor heavy atom, donor atom, acceptor molecule, acceptor atom, score
      L1  H     5    46       P1  8028  2.00
      L1  H     8    33       P1 10175  0.57
      L1  H    10    36       P1  7948  0.82
      L1  H    13    37       P1  7948  0.84

> <Gold.PLP.Chemscore.Internal.Correction>
0.0757

> <Gold.Rescore>
     Score         DG    S(hbond)    S(metal)    S(lipo)     H(rot)  DE(clash)    DE(int)     intcor
     18.81     -20.78       3.62        0.00      78.72       2.34       0.14       1.83       ----

> <Gold.Chemscore.Fitness>
18.8083

> <Gold.Chemscore.DG>
-20.7807

> <Gold.Chemscore.ZeroCoef>
-5.4800

> <Gold.Chemscore.Hbond>
3.6164

> <Gold.Chemscore.Metal>
0.0000

> <Gold.Chemscore.Lipo>
78.7221

> <Gold.Chemscore.Internal_Hbond>
0.0000

> <Gold.Chemscore.DEClash>
0.1413

> <Gold.Chemscore.DEInternal>
1.8311

> <Gold.Chemscore.Rot>
2.3393

> <Gold.Chemscore.Internal.Correction>
   9.000000E+99

> <Gold.Chemscore.Hbonds>
donor molecule, donor type, donor heavy atom, donor atom, acceptor molecule, acceptor atom, score
      L1  H     5    46       P1  8028  1.00
      L1  H     8    33       P1 10175  0.14
      L1  H    10    36       P1  7948  0.80
      L1  H    13    37       P1  7948  0.84

> <Gold.Chemscore.Hbond.Weighted>
-12.0789

> <Gold.Chemscore.Metal.Weighted>
-0.0000

> <Gold.Chemscore.Lipo.Weighted>
-9.2105

> <Gold.Chemscore.Internal_Hbond.Weighted>
0.0000

> <Gold.Chemscore.DEClash.Weighted>
0.1413

> <Gold.Chemscore.DEInternal.Weighted>
1.8311

> <Gold.Chemscore.Rot.Weighted>
5.9886

> <Gold.Chemscore.Internal.Correction.Weighted>
   9.000000E+99

> <Gold.Protein.RotatedTorsions>
[ 6907 6896 6895 6894 ] final   81.24 input  -60.11 | X-H torsion
[ 7974 7965 7964 7962 ] final   87.08 input  175.53 | X-H torsion
[ 8008 7997 7996 7995 ] final  152.35 input   59.86 | X-H torsion
[ 10167 10162 10161 10158 ] final   54.41 input  -65.29 | X-H torsion
[ 10718 10713 10712 10709 ] final    6.42 input   66.30 | X-H torsion
[ 10763 10752 10751 10750 ] final  124.75 input  -60.55 | X-H torsion
[ 11005 11000 10999 10996 ] final  -72.02 input  -57.11 | X-H torsion

> <Gold.Protein.ActiveResidues>
 VAL166  LYS551  ARG553  GLY616  TRP617  ASP618  TYR619  PRO620  LYS621  CYS622 
 ASP623  PHE694  ASN695  SER759  ASP760  ASP761  ALA762  ILE779  LEU786  VAL792 
 PHE793  MET794  SER795  GLU796  ALA797  LYS798  CYS799  TRP800  GLU811  SER814 

> <Gold.Protein.RotatedAtoms>
  152.5262  134.3234  159.9156 H   0  0  0  0  0  0  0  0  0  0  0  0  # atno 6907 bound_to 6896
  151.3183  133.4044  159.2660 H   0  0  0  0  0  0  0  0  0  0  0  0  # atno 6908 bound_to 6896
  150.9980  134.9316  159.7995 H   0  0  0  0  0  0  0  0  0  0  0  0  # atno 6909 bound_to 6896
  145.5638  139.2306  143.2444 H   0  0  0  0  0  0  0  0  0  0  0  0  # atno 7974 bound_to 7965
  156.2633  140.2023  156.6319 H   0  0  0  0  0  0  0  0  0  0  0  0  # atno 8008 bound_to 7997
  154.6676  140.0554  157.0155 H   0  0  0  0  0  0  0  0  0  0  0  0  # atno 8009 bound_to 7997
  155.1184  140.3222  155.4506 H   0  0  0  0  0  0  0  0  0  0  0  0  # atno 8010 bound_to 7997
  140.2304  144.3693  150.6416 H   0  0  0  0  0  0  0  0  0  0  0  0  # atno 10167 bound_to 10162
  156.9220  130.5794  149.5648 H   0  0  0  0  0  0  0  0  0  0  0  0  # atno 10718 bound_to 10713
  153.6664  135.3338  155.3141 H   0  0  0  0  0  0  0  0  0  0  0  0  # atno 10763 bound_to 10752
  154.8502  135.4376  154.1751 H   0  0  0  0  0  0  0  0  0  0  0  0  # atno 10764 bound_to 10752
  153.2731  135.7002  153.7536 H   0  0  0  0  0  0  0  0  0  0  0  0  # atno 10765 bound_to 10752
  141.1602  133.6834  156.6995 H   0  0  0  0  0  0  0  0  0  0  0  0  # atno 11005 bound_to 11000
  146.1832  140.6463  142.9179 LP  0  0  0  0  0  0  0  0  0  0  0  0  # atno 17320 bound_to 7965
  144.7470  140.5094  143.6828 LP  0  0  0  0  0  0  0  0  0  0  0  0  # atno 17321 bound_to 7965
  140.6189  143.2174  151.6734 LP  0  0  0  0  0  0  0  0  0  0  0  0  # atno 17342 bound_to 10162
  139.5112  144.3517  152.0646 LP  0  0  0  0  0  0  0  0  0  0  0  0  # atno 17343 bound_to 10162
  156.0487  130.5559  150.8939 LP  0  0  0  0  0  0  0  0  0  0  0  0  # atno 17370 bound_to 10713
  157.5902  131.0944  150.9131 LP  0  0  0  0  0  0  0  0  0  0  0  0  # atno 17371 bound_to 10713
  140.2970  134.8195  157.4065 LP  0  0  0  0  0  0  0  0  0  0  0  0  # atno 17394 bound_to 11000
  140.1296  134.5113  155.8116 LP  0  0  0  0  0  0  0  0  0  0  0  0  # atno 17395 bound_to 11000

$$$$
