#       Name:                AV-unprocessed.smi:1709
#       Creating user name   scv26
#       Creation time:       Fri Mar 27 08:09:53 2020


#       File generated by GOLD software.
#

@<TRIPOS>MOLECULE
AV-unprocessed.smi:1709
    46    48     1
SMALL
NO_CHARGES


@<TRIPOS>ATOM
      1 ****        -1.7902  -4.3808   0.4163 C.3            1 S1                 0.0000
      2 ****        -0.3508  -4.8636   0.4987 C.ar           1 S1                 0.0000
      3 ****        -0.0907  -6.1821   0.9289 C.ar           1 S1                 0.0000
      4 ****         1.2390  -6.6297   1.0040 C.ar           1 S1                 0.0000
      5 ****         2.2589  -5.7344   0.6416 C.ar           1 S1                 0.0000
      6 ****         2.0192  -4.4730   0.2288 N.ar           1 S1                 0.0000
      7 ****         0.7405  -4.0205   0.1564 C.ar           1 S1                 0.0000
      8 ****         0.4002  -2.7073  -0.2928 N.am           1 S1                 0.0000
      9 ****         1.1734  -1.6350  -0.5632 C.2            1 S1                 0.0000
     10 ****         2.3961  -1.6804  -0.4391 O.2            1 S1                 0.0000
     11 ****         0.5272  -0.5317  -0.9736 N.am           1 S1                 0.0000
     12 ****         1.1532   0.7570  -1.2472 C.3            1 S1                 0.0000
     13 ****         0.2943   1.6733  -2.1087 C.3            1 S1                 0.0000
     14 ****         0.8965   3.0567  -1.8441 C.3            1 S1                 0.0000
     15 ****         1.5063   3.0085  -0.4923 N.4            1 S1                 1.0000
     16 ****         0.9970   4.0519   0.4375 C.3            1 S1                 0.0000
     17 ****         1.3563   3.7149   1.8921 C.3            1 S1                 0.0000
     18 ****         0.7117   2.3898   2.3403 C.3            1 S1                 0.0000
     19 ****         0.3887   1.4601   1.1549 C.3            1 S1                 0.0000
     20 ****         1.4214   1.6072   0.0089 C.3            1 S1                 0.0000
     21 ****        -2.4889  -5.1617   0.7181 H              1 S1                 0.0000
     22 ****        -2.0374  -4.0862  -0.6040 H              1 S1                 0.0000
     23 ****        -1.9431  -3.5233   1.0725 H              1 S1                 0.0000
     24 ****        -0.8991  -6.8462   1.1979 H              1 S1                 0.0000
     25 ****         1.4709  -7.6332   1.3293 H              1 S1                 0.0000
     26 ****         3.2947  -6.0376   0.6822 H              1 S1                 0.0000
     27 ****        -0.5741  -2.5922  -0.5316 H              1 S1                 0.0000
     28 ****        -0.4789  -0.5806  -1.0550 H              1 S1                 0.0000
     29 ****         2.0969   0.5955  -1.7730 H              1 S1                 0.0000
     30 ****         0.3096   1.4016  -3.1648 H              1 S1                 0.0000
     31 ****        -0.7428   1.6506  -1.7701 H              1 S1                 0.0000
     32 ****         1.6924   3.2605  -2.5611 H              1 S1                 0.0000
     33 ****         0.1517   3.8463  -1.9530 H              1 S1                 0.0000
     34 ****         1.4171   5.0166   0.1516 H              1 S1                 0.0000
     35 ****        -0.0872   4.1403   0.3479 H              1 S1                 0.0000
     36 ****         2.4411   3.6410   1.9799 H              1 S1                 0.0000
     37 ****         1.0513   4.5217   2.5595 H              1 S1                 0.0000
     38 ****         1.3829   1.8871   3.0377 H              1 S1                 0.0000
     39 ****        -0.2065   2.5882   2.8944 H              1 S1                 0.0000
     40 ****         0.3407   0.4322   1.5151 H              1 S1                 0.0000
     41 ****        -0.6069   1.6927   0.7743 H              1 S1                 0.0000
     42 ****         2.3977   1.3352   0.4128 H              1 S1                 0.0000
     43 ****         2.4911   3.1925  -0.6204 H              1 S1                 0.0000
     44 ****         2.7792  -3.8737  -0.0226 LP             1 S1                 0.0000
     45 ****         2.8365  -2.5241  -0.1322 LP             1 S1                 0.0000
     46 ****         2.9499  -0.8736  -0.6451 LP             1 S1                 0.0000
@<TRIPOS>BOND
    1    1    2 1     
    2    1   21 1     
    3    1   22 1     
    4    1   23 1     
    5    2    7 ar    
    6    2    3 ar    
    7    3    4 ar    
    8    3   24 1     
    9    4    5 ar    
   10    4   25 1     
   11    5    6 ar    
   12    5   26 1     
   13    6    7 ar    
   14    7    8 1     
   15    8    9 am    
   16    8   27 1     
   17    9   10 2     
   18    9   11 am    
   19   11   12 1     
   20   11   28 1     
   21   12   20 1     
   22   12   13 1     
   23   12   29 1     
   24   13   14 1     
   25   13   30 1     
   26   13   31 1     
   27   14   15 1     
   28   14   32 1     
   29   14   33 1     
   30   15   20 1     
   31   15   16 1     
   32   15   43 1     
   33   16   17 1     
   34   16   34 1     
   35   16   35 1     
   36   17   18 1     
   37   17   36 1     
   38   17   37 1     
   39   18   19 1     
   40   18   38 1     
   41   18   39 1     
   42   19   20 1     
   43   19   40 1     
   44   19   41 1     
   45   20   42 1     
   46    6   44 1     
   47   10   45 1     
   48   10   46 1     
@<TRIPOS>SUBSTRUCTURE
      1 S1             1
@<TRIPOS>SET
LONE_PAIRS      STATIC     ATOMS    <user>   **** ""
3 44 45 46
DONOR_HYDROGENS      STATIC     ATOMS    <user>   **** ""
3 27 28 43
ATOM$BLUE        STATIC     ATOMS    COLORGROUP SYSTEM
3 44 45 46
ATOM$RED        STATIC     ATOMS    COLORGROUP SYSTEM
3 27 28 43
