AV-unprocessed.smi:655|AV-procd|sdf|3215|dock4
  -GOLD-   22720 0153D 1   1.00000     0.00000
 Structure written by MMmdl.
 35 36  0  0  0  0  0  0  0  0  1 V2000
  150.9724  145.7789  160.2742 C   0  0  0  0  0  0  0  0  0  0  0  0
  152.0832  144.7196  160.2462 C   0  0  2  0  0  0  0  0  0  0  0  0
  152.1791  144.0395  158.8691 C   0  0  0  0  0  0  0  0  0  0  0  0
  153.2910  142.9742  158.8326 C   0  0  0  0  0  0  0  0  0  0  0  0
  153.1354  141.9068  159.9432 C   0  0  2  0  0  0  0  0  0  0  0  0
  154.3503  141.1838  160.0129 O   0  0  0  0  0  0  0  0  0  0  0  0
  151.9900  140.8746  159.7154 C   0  0  0  0  0  0  0  0  0  0  0  0
  151.6199  140.6389  158.3323 N   0  0  0  0  0  0  0  0  0  0  0  0
  150.4762  141.1995  157.7817 C   0  0  0  0  0  0  0  0  0  0  0  0
  150.0983  141.0170  156.4937 C   0  0  0  0  0  0  0  0  0  0  0  0
  148.6548  141.7488  155.8900 Cl  0  0  0  0  0  0  0  0  0  0  0  0
  150.9149  140.1956  155.6023 C   0  0  0  0  0  0  0  0  0  0  0  0
  150.6668  139.9620  154.4211 O   0  0  0  0  0  0  0  0  0  0  0  0
  152.0625  139.6587  156.1919 N   0  0  0  0  0  0  0  0  0  0  0  0
  152.4610  139.8443  157.5159 C   0  0  0  0  0  0  0  0  0  0  0  0
  153.5029  139.3233  157.9102 O   0  0  0  0  0  0  0  0  0  0  0  0
  152.9984  142.6047  161.3177 C   0  0  0  0  0  0  0  0  0  0  0  0
  151.8824  143.6629  161.3467 C   0  0  0  0  0  0  0  0  0  0  0  0
  152.6572  139.0893  155.6073 H   0  0  0  0  0  0  0  0  0  0  0  0
  149.9938  145.3324  160.0955 H   0  0  0  0  0  0  0  0  0  0  0  0
  151.1364  146.5393  159.5102 H   0  0  0  0  0  0  0  0  0  0  0  0
  150.9356  146.2849  161.2394 H   0  0  0  0  0  0  0  0  0  0  0  0
  153.0285  145.2299  160.4368 H   0  0  0  0  0  0  0  0  0  0  0  0
  151.2181  143.5911  158.6245 H   0  0  0  0  0  0  0  0  0  0  0  0
  152.3701  144.7870  158.0985 H   0  0  0  0  0  0  0  0  0  0  0  0
  153.3371  142.5110  157.8474 H   0  0  0  0  0  0  0  0  0  0  0  0
  154.2471  143.4850  158.9588 H   0  0  0  0  0  0  0  0  0  0  0  0
  154.2382  140.4682  160.6196 H   0  0  0  0  0  0  0  0  0  0  0  0
  152.2801  139.8938  160.0973 H   0  0  0  0  0  0  0  0  0  0  0  0
  151.0870  141.1312  160.2708 H   0  0  0  0  0  0  0  0  0  0  0  0
  149.8496  141.8148  158.4118 H   0  0  0  0  0  0  0  0  0  0  0  0
  152.8286  141.8671  162.1031 H   0  0  0  0  0  0  0  0  0  0  0  0
  153.9377  143.0991  161.5714 H   0  0  0  0  0  0  0  0  0  0  0  0
  151.8694  144.1463  162.3242 H   0  0  0  0  0  0  0  0  0  0  0  0
  150.9093  143.1843  161.2332 H   0  0  0  0  0  0  0  0  0  0  0  0
  1  2  1  0  0  0  0
  1 20  1  0  0  0  0
  1 21  1  0  0  0  0
  1 22  1  0  0  0  0
  2 18  1  0  0  0  0
  2  3  1  0  0  0  0
  2 23  1  0  0  0  0
  3  4  1  0  0  0  0
  3 24  1  0  0  0  0
  3 25  1  0  0  0  0
  4  5  1  0  0  0  0
  4 26  1  0  0  0  0
  4 27  1  0  0  0  0
  5  6  1  0  0  0  0
  5  7  1  0  0  0  0
  5 17  1  0  0  0  0
  6 28  1  0  0  0  0
  7  8  1  0  0  0  0
  7 29  1  0  0  0  0
  7 30  1  0  0  0  0
  8 15  1  0  0  0  0
  8  9  1  0  0  0  0
  9 10  2  0  0  0  0
  9 31  1  0  0  0  0
 10 11  1  0  0  0  0
 10 12  1  0  0  0  0
 12 13  2  0  0  0  0
 12 14  1  0  0  0  0
 14 19  1  0  0  0  0
 14 15  1  0  0  0  0
 15 16  2  0  0  0  0
 17 18  1  0  0  0  0
 17 32  1  0  0  0  0
 17 33  1  0  0  0  0
 18 34  1  0  0  0  0
 18 35  1  0  0  0  0
M  END
> <s_m_source_file>
AV-unprocessed.smi

> <i_m_source_file_index>
655

> <i_lp_mmshare_version>
43012

> <i_f3d_flags>
0

> <s_epik_input>
W0NIMl0xW0NIMl1bQ0BIXShbQ0gzXSlbQ0gyXVtDSDJdW0NAQF0xKFtPSF0pW0NIMl1uMltjSF1jKENsKWMoPU8pW25IXWMyPU8=

> <s_epik_cmdline>
J2VwaWtfcHl0aG9uJywgJy1waCcsICc3LjAnLCAnLXRuJywgJzgnLCAnLW1hJywgJzIwMCcsICctbWV0YWxfYmluZGluZycsICctaW1hZScsICc8aW5maWxlLm1hZT4nLCAnLW9tYWUnLCAnPG91dGZpbGUubWFlPic=

> <r_lp_tautomer_probability>
0.999537

> <r_epik_Ionization_Penalty>
0.0114762

> <r_epik_Ionization_Penalty_Charging>
0.0114753

> <r_epik_Ionization_Penalty_Neutral>
8.25878e-07

> <r_epik_State_Penalty>
0.00883314

> <r_epik_Charging_Adjusted_Penalty>
0.0203085

> <i_epik_Tot_Q>
0

> <i_epik_Tot_abs_Q>
0

> <r_epik_Metal_State_Penalty>
1.64347

> <b_epik_Metal_Only>
0

> <s_lp_Force_Field>
OPLS_2005

> <r_lp_Energy>
18.8489

> <b_lp_Chiralities_Consistent>
1

> <s_lp_Variant>
AV-unprocessed.smi:655-2

> <Gold.Version>
5.8.1

> <Gold.Id.Protein>
6NUR|6NUR_protein|mol2

> <Gold.PLP.Fitness>
40.2418

> <Gold.PLP.PLP>
-35.8946

> <Gold.PLP.part.hbond>
-2.0000

> <Gold.PLP.part.metal>
0.0000

> <Gold.PLP.part.buried>
-1.0591

> <Gold.PLP.part.nonpolar>
-32.9971

> <Gold.PLP.part.repulsive>
0.2623

> <Gold.PLP.ligand.clash>
0.0000

> <Gold.PLP.ligand.torsion>
0.8325

> <Gold.PLP.Chemscore.Hbond>
2.0000

> <Gold.PLP.Chemscore.CHOScore>
0.0000

> <Gold.PLP.Chemscore.Metal>
0.0000

> <Gold.Chemscore.Hbonds>
donor molecule, donor type, donor heavy atom, donor atom, acceptor molecule, acceptor atom, score
      P1  H  7989  7998       L1    13  1.00
      P1  H  7997  8009       L1    16  1.00

> <Gold.PLP.Chemscore.Internal.Correction>
0.0122

> <Gold.Rescore>
     Score         DG    S(hbond)    S(metal)    S(lipo)     H(rot)  DE(clash)    DE(int)     intcor
     14.76     -17.47       1.51        0.00      99.82       1.84       1.66       1.05       ----

> <Gold.Chemscore.Fitness>
14.7569

> <Gold.Chemscore.DG>
-17.4719

> <Gold.Chemscore.ZeroCoef>
-5.4800

> <Gold.Chemscore.Hbond>
1.5059

> <Gold.Chemscore.Metal>
0.0000

> <Gold.Chemscore.Lipo>
99.8179

> <Gold.Chemscore.Internal_Hbond>
0.0000

> <Gold.Chemscore.DEClash>
1.6625

> <Gold.Chemscore.DEInternal>
1.0525

> <Gold.Chemscore.Rot>
1.8424

> <Gold.Chemscore.Internal.Correction>
   9.000000E+99

> <Gold.Chemscore.Hbonds>
donor molecule, donor type, donor heavy atom, donor atom, acceptor molecule, acceptor atom, score
      P1  H  7989  7998       L1    13  0.69
      P1  H  7997  8009       L1    16  0.25

> <Gold.Chemscore.Hbond.Weighted>
-5.0296

> <Gold.Chemscore.Metal.Weighted>
-0.0000

> <Gold.Chemscore.Lipo.Weighted>
-11.6787

> <Gold.Chemscore.Internal_Hbond.Weighted>
0.0000

> <Gold.Chemscore.DEClash.Weighted>
1.6625

> <Gold.Chemscore.DEInternal.Weighted>
1.0525

> <Gold.Chemscore.Rot.Weighted>
4.7164

> <Gold.Chemscore.Internal.Correction.Weighted>
   9.000000E+99

> <Gold.Protein.RotatedTorsions>
[ 6907 6896 6895 6894 ] final  -26.80 input  -60.11 | X-H torsion
[ 7974 7965 7964 7962 ] final -157.26 input  175.53 | X-H torsion
[ 8008 7997 7996 7995 ] final  159.39 input   59.86 | X-H torsion
[ 10167 10162 10161 10158 ] final  -31.99 input  -65.29 | X-H torsion
[ 10718 10713 10712 10709 ] final  117.41 input   66.30 | X-H torsion
[ 10763 10752 10751 10750 ] final -144.13 input  -60.55 | X-H torsion
[ 11005 11000 10999 10996 ] final  168.85 input  -57.11 | X-H torsion

> <Gold.Protein.ActiveResidues>
 VAL166  LYS551  ARG553  GLY616  TRP617  ASP618  TYR619  PRO620  LYS621  CYS622 
 ASP623  PHE694  ASN695  SER759  ASP760  ASP761  ALA762  ILE779  LEU786  VAL792 
 PHE793  MET794  SER795  GLU796  ALA797  LYS798  CYS799  TRP800  GLU811  SER814 

> <Gold.Protein.RotatedAtoms>
  151.1559  135.0250  159.8688 H   0  0  0  0  0  0  0  0  0  0  0  0  # atno 6907 bound_to 6896
  152.5452  134.1335  159.8459 H   0  0  0  0  0  0  0  0  0  0  0  0  # atno 6908 bound_to 6896
  151.1425  133.4916  159.2629 H   0  0  0  0  0  0  0  0  0  0  0  0  # atno 6909 bound_to 6896
  144.7556  140.3994  143.6015 H   0  0  0  0  0  0  0  0  0  0  0  0  # atno 7974 bound_to 7965
  156.2241  140.1832  156.7405 H   0  0  0  0  0  0  0  0  0  0  0  0  # atno 8008 bound_to 7997
  154.5913  140.0650  156.9271 H   0  0  0  0  0  0  0  0  0  0  0  0  # atno 8009 bound_to 7997
  155.2331  140.3316  155.4303 H   0  0  0  0  0  0  0  0  0  0  0  0  # atno 8010 bound_to 7997
  140.7228  143.3728  151.1745 H   0  0  0  0  0  0  0  0  0  0  0  0  # atno 10167 bound_to 10162
  157.6098  131.1037  150.7611 H   0  0  0  0  0  0  0  0  0  0  0  0  # atno 10718 bound_to 10713
  154.8441  135.3449  154.6298 H   0  0  0  0  0  0  0  0  0  0  0  0  # atno 10763 bound_to 10752
  153.6907  135.6975  153.5095 H   0  0  0  0  0  0  0  0  0  0  0  0  # atno 10764 bound_to 10752
  153.2597  135.4327  155.0837 H   0  0  0  0  0  0  0  0  0  0  0  0  # atno 10765 bound_to 10752
  140.2916  134.7669  157.3843 H   0  0  0  0  0  0  0  0  0  0  0  0  # atno 11005 bound_to 11000
  145.6790  139.1614  143.2711 LP  0  0  0  0  0  0  0  0  0  0  0  0  # atno 17320 bound_to 7965
  146.1562  140.6854  142.9299 LP  0  0  0  0  0  0  0  0  0  0  0  0  # atno 17321 bound_to 7965
  139.7303  143.9083  152.3017 LP  0  0  0  0  0  0  0  0  0  0  0  0  # atno 17342 bound_to 10162
  139.8870  144.6986  150.8813 LP  0  0  0  0  0  0  0  0  0  0  0  0  # atno 17343 bound_to 10162
  156.7990  130.4915  149.5372 LP  0  0  0  0  0  0  0  0  0  0  0  0  # atno 17370 bound_to 10713
  156.1197  130.6101  151.0175 LP  0  0  0  0  0  0  0  0  0  0  0  0  # atno 17371 bound_to 10713
  140.1191  134.5244  155.8199 LP  0  0  0  0  0  0  0  0  0  0  0  0  # atno 17394 bound_to 11000
  141.2145  133.6750  156.6831 LP  0  0  0  0  0  0  0  0  0  0  0  0  # atno 17395 bound_to 11000

$$$$
