AV-unprocessed.smi:3289|AV-procd|sdf|12608|dock8
  -GOLD-   2272018533D 1   1.00000     0.00000
 Structure written by MMmdl.
 40 41  0  0  0  0  0  0  0  0  2 V2000
  147.2993  139.1066  153.2887 C   0  0  0  0  0  0  0  0  0  0  0  0
  148.1570  139.9121  154.2781 C   0  0  0  0  0  0  0  0  0  0  0  0
  148.2090  141.3978  153.8955 C   0  0  0  0  0  0  0  0  0  0  0  0
  149.5408  139.3412  154.4278 C   0  0  0  0  0  0  0  0  0  0  0  0
  149.9834  138.2221  153.8398 N   0  3  0  0  0  0  0  0  0  0  0  0
  151.2956  137.9993  154.1530 C   0  0  0  0  0  0  0  0  0  0  0  0
  151.6822  139.0397  154.9550 C   0  0  0  0  0  0  0  0  0  0  0  0
  150.5890  139.8567  155.0991 N   0  0  0  0  0  0  0  0  0  0  0  0
  150.5462  141.1042  155.8764 C   0  0  0  0  0  0  0  0  0  0  0  0
  150.9343  140.8638  157.3367 C   0  0  0  0  0  0  0  0  0  0  0  0
  150.3317  140.0230  158.0039 O   0  0  0  0  0  0  0  0  0  0  0  0
  151.9179  141.6337  157.8262 N   0  0  0  0  0  0  0  0  0  0  0  0
  152.3576  141.6635  159.2167 C   0  0  0  0  0  0  0  0  0  0  0  0
  152.1820  143.0642  159.8286 C   0  0  1  0  0  0  0  0  0  0  0  0
  152.6042  144.2242  158.9299 C   0  0  0  0  0  0  0  0  0  0  0  0
  151.8796  145.3897  159.5682 C   0  0  0  0  0  0  0  0  0  0  0  0
  150.6090  144.7458  160.1302 C   0  0  0  0  0  0  0  0  0  0  0  0
  150.8091  143.3352  160.0682 O   0  0  0  0  0  0  0  0  0  0  0  0
  147.2373  138.0586  153.5826 H   0  0  0  0  0  0  0  0  0  0  0  0
  147.7072  139.1464  152.2783 H   0  0  0  0  0  0  0  0  0  0  0  0
  146.2814  139.4952  153.2483 H   0  0  0  0  0  0  0  0  0  0  0  0
  147.6821  139.8266  155.2540 H   0  0  0  0  0  0  0  0  0  0  0  0
  148.7598  141.9783  154.6361 H   0  0  0  0  0  0  0  0  0  0  0  0
  147.2062  141.8210  153.8270 H   0  0  0  0  0  0  0  0  0  0  0  0
  148.6971  141.5414  152.9310 H   0  0  0  0  0  0  0  0  0  0  0  0
  151.8425  137.1419  153.7885 H   0  0  0  0  0  0  0  0  0  0  0  0
  152.6324  139.2560  155.4217 H   0  0  0  0  0  0  0  0  0  0  0  0
  151.2464  141.8103  155.4284 H   0  0  0  0  0  0  0  0  0  0  0  0
  149.5506  141.5413  155.7898 H   0  0  0  0  0  0  0  0  0  0  0  0
  152.3654  142.2864  157.1991 H   0  0  0  0  0  0  0  0  0  0  0  0
  151.8353  140.9130  159.8123 H   0  0  0  0  0  0  0  0  0  0  0  0
  153.4122  141.3887  159.2360 H   0  0  0  0  0  0  0  0  0  0  0  0
  152.7104  143.1260  160.7817 H   0  0  0  0  0  0  0  0  0  0  0  0
  153.6841  144.3651  158.8879 H   0  0  0  0  0  0  0  0  0  0  0  0
  152.2393  144.0697  157.9132 H   0  0  0  0  0  0  0  0  0  0  0  0
  152.4803  145.7996  160.3813 H   0  0  0  0  0  0  0  0  0  0  0  0
  151.6716  146.1946  158.8625 H   0  0  0  0  0  0  0  0  0  0  0  0
  150.4308  145.0602  161.1589 H   0  0  0  0  0  0  0  0  0  0  0  0
  149.7314  145.0089  159.5392 H   0  0  0  0  0  0  0  0  0  0  0  0
  149.4197  137.6239  153.2490 H   0  0  0  0  0  0  0  0  0  0  0  0
  1  2  1  0  0  0  0
  1 19  1  0  0  0  0
  1 20  1  0  0  0  0
  1 21  1  0  0  0  0
  2  3  1  0  0  0  0
  2  4  1  0  0  0  0
  2 22  1  0  0  0  0
  3 23  1  0  0  0  0
  3 24  1  0  0  0  0
  3 25  1  0  0  0  0
  4  8  1  0  0  0  0
  4  5  2  0  0  0  0
  5  6  1  0  0  0  0
  5 40  1  0  0  0  0
  6  7  2  0  0  0  0
  6 26  1  0  0  0  0
  7  8  1  0  0  0  0
  7 27  1  0  0  0  0
  8  9  1  0  0  0  0
  9 10  1  0  0  0  0
  9 28  1  0  0  0  0
  9 29  1  0  0  0  0
 10 11  2  0  0  0  0
 10 12  1  0  0  0  0
 12 13  1  0  0  0  0
 12 30  1  0  0  0  0
 13 14  1  0  0  0  0
 13 31  1  0  0  0  0
 13 32  1  0  0  0  0
 14 18  1  0  0  0  0
 14 15  1  0  0  0  0
 14 33  1  0  0  0  0
 15 16  1  0  0  0  0
 15 34  1  0  0  0  0
 15 35  1  0  0  0  0
 16 17  1  0  0  0  0
 16 36  1  0  0  0  0
 16 37  1  0  0  0  0
 17 18  1  0  0  0  0
 17 38  1  0  0  0  0
 17 39  1  0  0  0  0
M  CHG  1   5   1
M  END
> <s_m_source_file>
AV-unprocessed.smi

> <i_m_source_file_index>
3289

> <i_lp_mmshare_version>
43012

> <i_f3d_flags>
0

> <s_epik_input>
W0NIM11bQ0hdKFtDSDNdKWMxbltjSF1bY0hdbjFbQ0gyXUMoPU8pW05IXVtDSDJdW0NAQEhdMltDSDJdW0NIMl1bQ0gyXU8y

> <s_epik_cmdline>
J2VwaWtfcHl0aG9uJywgJy1waCcsICc3LjAnLCAnLXRuJywgJzgnLCAnLW1hJywgJzIwMCcsICctbWV0YWxfYmluZGluZycsICctaW1hZScsICc8aW5maWxlLm1hZT4nLCAnLW9tYWUnLCAnPG91dGZpbGUubWFlPic=

> <r_lp_tautomer_probability>
1

> <r_epik_Ionization_Penalty>
0.274547

> <r_epik_Ionization_Penalty_Charging>
0

> <r_epik_Ionization_Penalty_Neutral>
0.274547

> <r_epik_State_Penalty>
0.266843

> <r_epik_Charging_Adjusted_Penalty>
0.266843

> <i_epik_Tot_Q>
1

> <i_epik_Tot_abs_Q>
1

> <r_epik_Metal_State_Penalty>
0.55046

> <b_epik_Metal_Only>
0

> <s_lp_Force_Field>
OPLS_2005

> <r_lp_Energy>
22.2551

> <b_lp_Chiralities_Consistent>
1

> <s_lp_Variant>
AV-unprocessed.smi:3289-2

> <Gold.Version>
5.8.1

> <Gold.Id.Protein>
6NUR|6NUR_protein|mol2

> <Gold.PLP.Fitness>
49.3686

> <Gold.PLP.PLP>
-43.8864

> <Gold.PLP.part.hbond>
-2.2818

> <Gold.PLP.part.metal>
0.0000

> <Gold.PLP.part.buried>
-1.7716

> <Gold.PLP.part.nonpolar>
-39.2036

> <Gold.PLP.part.repulsive>
0.1918

> <Gold.PLP.ligand.clash>
0.0000

> <Gold.PLP.ligand.torsion>
0.2923

> <Gold.PLP.Chemscore.Hbond>
2.0000

> <Gold.PLP.Chemscore.CHOScore>
0.0000

> <Gold.PLP.Chemscore.Metal>
0.0000

> <Gold.Chemscore.Hbonds>
donor molecule, donor type, donor heavy atom, donor atom, acceptor molecule, acceptor atom, score
      L1  H     5    40       P1  7948  2.00

> <Gold.PLP.Chemscore.Internal.Correction>
0.0668

> <Gold.Rescore>
     Score         DG    S(hbond)    S(metal)    S(lipo)     H(rot)  DE(clash)    DE(int)     intcor
     15.66     -15.98       0.93        0.00     102.27       1.78       0.15       0.16       ----

> <Gold.Chemscore.Fitness>
15.6635

> <Gold.Chemscore.DG>
-15.9758

> <Gold.Chemscore.ZeroCoef>
-5.4800

> <Gold.Chemscore.Hbond>
0.9270

> <Gold.Chemscore.Metal>
0.0000

> <Gold.Chemscore.Lipo>
102.2699

> <Gold.Chemscore.Internal_Hbond>
0.0000

> <Gold.Chemscore.DEClash>
0.1506

> <Gold.Chemscore.DEInternal>
0.1617

> <Gold.Chemscore.Rot>
1.7835

> <Gold.Chemscore.Internal.Correction>
   9.000000E+99

> <Gold.Chemscore.Hbonds>
donor molecule, donor type, donor heavy atom, donor atom, acceptor molecule, acceptor atom, score
      L1  H     5    40       P1  7948  0.91

> <Gold.Chemscore.Hbond.Weighted>
-3.0960

> <Gold.Chemscore.Metal.Weighted>
-0.0000

> <Gold.Chemscore.Lipo.Weighted>
-11.9656

> <Gold.Chemscore.Internal_Hbond.Weighted>
0.0000

> <Gold.Chemscore.DEClash.Weighted>
0.1506

> <Gold.Chemscore.DEInternal.Weighted>
0.1617

> <Gold.Chemscore.Rot.Weighted>
4.5659

> <Gold.Chemscore.Internal.Correction.Weighted>
   9.000000E+99

> <Gold.Protein.RotatedTorsions>
[ 6907 6896 6895 6894 ] final   60.11 input  -60.11 | X-H torsion
[ 7974 7965 7964 7962 ] final -139.72 input  175.53 | X-H torsion
[ 8008 7997 7996 7995 ] final  -31.53 input   59.86 | X-H torsion
[ 10167 10162 10161 10158 ] final  132.21 input  -65.29 | X-H torsion
[ 10718 10713 10712 10709 ] final  168.87 input   66.30 | X-H torsion
[ 10763 10752 10751 10750 ] final  163.06 input  -60.55 | X-H torsion
[ 11005 11000 10999 10996 ] final   88.59 input  -57.11 | X-H torsion

> <Gold.Protein.ActiveResidues>
 VAL166  LYS551  ARG553  GLY616  TRP617  ASP618  TYR619  PRO620  LYS621  CYS622 
 ASP623  PHE694  ASN695  SER759  ASP760  ASP761  ALA762  ILE779  LEU786  VAL792 
 PHE793  MET794  SER795  GLU796  ALA797  LYS798  CYS799  TRP800  GLU811  SER814 

> <Gold.Protein.RotatedAtoms>
  152.3974  134.6343  160.0083 H   0  0  0  0  0  0  0  0  0  0  0  0  # atno 6907 bound_to 6896
  151.6558  133.3313  159.3170 H   0  0  0  0  0  0  0  0  0  0  0  0  # atno 6908 bound_to 6896
  150.7879  134.6923  159.6548 H   0  0  0  0  0  0  0  0  0  0  0  0  # atno 6909 bound_to 6896
  144.8654  140.6285  143.5301 H   0  0  0  0  0  0  0  0  0  0  0  0  # atno 7974 bound_to 7965
  154.4211  140.1762  156.1581 H   0  0  0  0  0  0  0  0  0  0  0  0  # atno 8008 bound_to 7997
  155.9860  140.3373  155.6684 H   0  0  0  0  0  0  0  0  0  0  0  0  # atno 8009 bound_to 7997
  155.6436  140.0682  157.2601 H   0  0  0  0  0  0  0  0  0  0  0  0  # atno 8010 bound_to 7997
  139.5349  144.6672  151.4819 H   0  0  0  0  0  0  0  0  0  0  0  0  # atno 10167 bound_to 10162
  157.0308  131.0259  151.2745 H   0  0  0  0  0  0  0  0  0  0  0  0  # atno 10718 bound_to 10713
  154.2880  135.2761  155.2667 H   0  0  0  0  0  0  0  0  0  0  0  0  # atno 10763 bound_to 10752
  154.5159  135.5769  153.6645 H   0  0  0  0  0  0  0  0  0  0  0  0  # atno 10764 bound_to 10752
  152.9918  135.6192  154.3043 H   0  0  0  0  0  0  0  0  0  0  0  0  # atno 10765 bound_to 10752
  139.8893  134.8497  156.3021 H   0  0  0  0  0  0  0  0  0  0  0  0  # atno 11005 bound_to 11000
  145.4232  139.1560  143.4063 LP  0  0  0  0  0  0  0  0  0  0  0  0  # atno 17320 bound_to 7965
  146.2892  140.4344  142.8746 LP  0  0  0  0  0  0  0  0  0  0  0  0  # atno 17321 bound_to 7965
  140.6550  143.8617  150.6826 LP  0  0  0  0  0  0  0  0  0  0  0  0  # atno 17342 bound_to 10162
  140.1994  143.3972  152.1803 LP  0  0  0  0  0  0  0  0  0  0  0  0  # atno 17343 bound_to 10162
  157.5179  130.7979  149.7776 LP  0  0  0  0  0  0  0  0  0  0  0  0  # atno 17370 bound_to 10713
  156.0070  130.3851  150.2396 LP  0  0  0  0  0  0  0  0  0  0  0  0  # atno 17371 bound_to 10713
  140.9906  133.7211  156.0808 LP  0  0  0  0  0  0  0  0  0  0  0  0  # atno 17394 bound_to 11000
  140.7630  134.3918  157.5522 LP  0  0  0  0  0  0  0  0  0  0  0  0  # atno 17395 bound_to 11000

$$$$
