AV-unprocessed.smi:1730|AV-procd|sdf|6972|dock1
  -GOLD-   22720 8183D 1   1.00000     0.00000
 Structure written by MMmdl.
 38 39  0  0  0  0  0  0  0  0  1 V2000
  151.6974  138.2534  154.4698 C   0  0  0  0  0  0  0  0  0  0  0  0
  150.3716  138.2637  153.9519 O   0  0  0  0  0  0  0  0  0  0  0  0
  149.6117  139.4075  154.1070 C   0  0  0  0  0  0  0  0  0  0  0  0
  150.1678  140.4713  154.7397 N   0  0  0  0  0  0  0  0  0  0  0  0
  149.4259  141.5873  154.8945 C   0  0  0  0  0  0  0  0  0  0  0  0
  148.1000  141.7008  154.4376 C   0  0  0  0  0  0  0  0  0  0  0  0
  147.5212  140.5993  153.7805 C   0  0  0  0  0  0  0  0  0  0  0  0
  148.2925  139.4264  153.5975 C   0  0  0  0  0  0  0  0  0  0  0  0
  147.7919  138.2542  152.9689 N   0  0  0  0  0  0  0  0  0  0  0  0
  146.5150  137.8491  152.8693 C   0  0  0  0  0  0  0  0  0  0  0  0
  145.5423  138.4575  153.3155 O   0  0  0  0  0  0  0  0  0  0  0  0
  146.4258  136.6961  152.1908 N   0  0  0  0  0  0  0  0  0  0  0  0
  145.1861  136.0035  151.8459 C   0  0  2  0  0  0  0  0  0  0  0  0
  144.5869  135.4023  153.1267 C   0  0  0  0  0  0  0  0  0  0  0  0
  145.4713  134.9350  150.7702 C   0  0  1  0  0  0  0  0  0  0  0  0
  146.4799  133.8630  151.1871 C   0  0  0  0  0  0  0  0  0  0  0  0
  146.1005  132.7146  150.2813 C   0  0  0  0  0  0  0  0  0  0  0  0
  144.5799  132.8250  150.2626 C   0  0  0  0  0  0  0  0  0  0  0  0
  144.2852  134.2054  150.4576 O   0  0  0  0  0  0  0  0  0  0  0  0
  152.1591  137.2888  154.2593 H   0  0  0  0  0  0  0  0  0  0  0  0
  151.7037  138.3941  155.5517 H   0  0  0  0  0  0  0  0  0  0  0  0
  152.3145  139.0235  154.0044 H   0  0  0  0  0  0  0  0  0  0  0  0
  149.9013  142.4122  155.4042 H   0  0  0  0  0  0  0  0  0  0  0  0
  147.5379  142.6096  154.5922 H   0  0  0  0  0  0  0  0  0  0  0  0
  146.4978  140.6673  153.4447 H   0  0  0  0  0  0  0  0  0  0  0  0
  148.4751  137.7065  152.4663 H   0  0  0  0  0  0  0  0  0  0  0  0
  147.2823  136.2769  151.8600 H   0  0  0  0  0  0  0  0  0  0  0  0
  144.4615  136.7155  151.4463 H   0  0  0  0  0  0  0  0  0  0  0  0
  143.6316  134.9160  152.9290 H   0  0  0  0  0  0  0  0  0  0  0  0
  144.4070  136.1757  153.8744 H   0  0  0  0  0  0  0  0  0  0  0  0
  145.2533  134.6607  153.5683 H   0  0  0  0  0  0  0  0  0  0  0  0
  145.8175  135.4091  149.8501 H   0  0  0  0  0  0  0  0  0  0  0  0
  147.5158  134.1792  151.0607 H   0  0  0  0  0  0  0  0  0  0  0  0
  146.3325  133.5783  152.2301 H   0  0  0  0  0  0  0  0  0  0  0  0
  146.5030  132.8785  149.2806 H   0  0  0  0  0  0  0  0  0  0  0  0
  146.4544  131.7475  150.6395 H   0  0  0  0  0  0  0  0  0  0  0  0
  144.1480  132.4529  149.3335 H   0  0  0  0  0  0  0  0  0  0  0  0
  144.1459  132.2601  151.0885 H   0  0  0  0  0  0  0  0  0  0  0  0
  1  2  1  0  0  0  0
  1 20  1  0  0  0  0
  1 21  1  0  0  0  0
  1 22  1  0  0  0  0
  2  3  1  0  0  0  0
  3  8  1  0  0  0  0
  3  4  2  0  0  0  0
  4  5  1  0  0  0  0
  5  6  2  0  0  0  0
  5 23  1  0  0  0  0
  6  7  1  0  0  0  0
  6 24  1  0  0  0  0
  7  8  2  0  0  0  0
  7 25  1  0  0  0  0
  8  9  1  0  0  0  0
  9 10  1  0  0  0  0
  9 26  1  0  0  0  0
 10 11  2  0  0  0  0
 10 12  1  0  0  0  0
 12 13  1  0  0  0  0
 12 27  1  0  0  0  0
 13 14  1  0  0  0  0
 13 15  1  0  0  0  0
 13 28  1  0  0  0  0
 14 29  1  0  0  0  0
 14 30  1  0  0  0  0
 14 31  1  0  0  0  0
 15 19  1  0  0  0  0
 15 16  1  0  0  0  0
 15 32  1  0  0  0  0
 16 17  1  0  0  0  0
 16 33  1  0  0  0  0
 16 34  1  0  0  0  0
 17 18  1  0  0  0  0
 17 35  1  0  0  0  0
 17 36  1  0  0  0  0
 18 19  1  0  0  0  0
 18 37  1  0  0  0  0
 18 38  1  0  0  0  0
M  END
> <s_m_source_file>
AV-unprocessed.smi

> <i_m_source_file_index>
1730

> <i_lp_mmshare_version>
43012

> <i_f3d_flags>
0

> <s_epik_input>
W0NIM11PYzFuW2NIXVtjSF1bY0hdYzFbTkhdQyg9TylbTkhdW0NASF0oW0NIM10pW0NAQEhdMltDSDJdW0NIMl1bQ0gyXU8y

> <s_epik_cmdline>
J2VwaWtfcHl0aG9uJywgJy1waCcsICc3LjAnLCAnLXRuJywgJzgnLCAnLW1hJywgJzIwMCcsICctbWV0YWxfYmluZGluZycsICctaW1hZScsICc8aW5maWxlLm1hZT4nLCAnLW9tYWUnLCAnPG91dGZpbGUubWFlPic=

> <r_lp_tautomer_probability>
1

> <r_epik_Ionization_Penalty>
9.187e-05

> <r_epik_Ionization_Penalty_Charging>
0

> <r_epik_Ionization_Penalty_Neutral>
9.187e-05

> <r_epik_State_Penalty>
-0

> <r_epik_Charging_Adjusted_Penalty>
0

> <i_epik_Tot_Q>
0

> <i_epik_Tot_abs_Q>
0

> <r_epik_Metal_State_Penalty>
-0

> <b_epik_Metal_Only>
0

> <s_lp_Force_Field>
OPLS_2005

> <r_lp_Energy>
20.4817

> <b_lp_Chiralities_Consistent>
1

> <s_lp_Variant>
AV-unprocessed.smi:1730-3

> <Gold.Version>
5.8.1

> <Gold.Id.Protein>
6NUR|6NUR_protein|mol2

> <Gold.PLP.Fitness>
42.9766

> <Gold.PLP.PLP>
-32.0132

> <Gold.PLP.part.hbond>
-3.7335

> <Gold.PLP.part.metal>
0.0000

> <Gold.PLP.part.buried>
-1.6779

> <Gold.PLP.part.nonpolar>
-29.1349

> <Gold.PLP.part.repulsive>
2.3632

> <Gold.PLP.ligand.clash>
0.0000

> <Gold.PLP.ligand.torsion>
0.3000

> <Gold.PLP.Chemscore.Hbond>
2.9600

> <Gold.PLP.Chemscore.CHOScore>
0.8895

> <Gold.PLP.Chemscore.Metal>
0.0000

> <Gold.Chemscore.Hbonds>
donor molecule, donor type, donor heavy atom, donor atom, acceptor molecule, acceptor atom, score
      L1  H     9    26       P1  7948  1.00
      L1  H    12    27       P1  7948  1.00
      P1  H  7989  7998       L1     4  0.96
      L1  C     5    23       P1  8028  0.89

> <Gold.PLP.Chemscore.Internal.Correction>
0.0150

> <Gold.Rescore>
     Score         DG    S(hbond)    S(metal)    S(lipo)     H(rot)  DE(clash)    DE(int)     intcor
     15.00     -16.50       2.02        0.00      68.54       1.47       0.05       1.45       ----

> <Gold.Chemscore.Fitness>
14.9976

> <Gold.Chemscore.DG>
-16.4984

> <Gold.Chemscore.ZeroCoef>
-5.4800

> <Gold.Chemscore.Hbond>
2.0241

> <Gold.Chemscore.Metal>
0.0000

> <Gold.Chemscore.Lipo>
68.5397

> <Gold.Chemscore.Internal_Hbond>
0.0000

> <Gold.Chemscore.DEClash>
0.0469

> <Gold.Chemscore.DEInternal>
1.4538

> <Gold.Chemscore.Rot>
1.4693

> <Gold.Chemscore.Internal.Correction>
   9.000000E+99

> <Gold.Chemscore.Hbonds>
donor molecule, donor type, donor heavy atom, donor atom, acceptor molecule, acceptor atom, score
      L1  H     9    26       P1  7948  0.94
      L1  H    12    27       P1  7948  0.95
      P1  H  7989  7998       L1     4  0.15

> <Gold.Chemscore.Hbond.Weighted>
-6.7606

> <Gold.Chemscore.Metal.Weighted>
-0.0000

> <Gold.Chemscore.Lipo.Weighted>
-8.0191

> <Gold.Chemscore.Internal_Hbond.Weighted>
0.0000

> <Gold.Chemscore.DEClash.Weighted>
0.0469

> <Gold.Chemscore.DEInternal.Weighted>
1.4538

> <Gold.Chemscore.Rot.Weighted>
3.7613

> <Gold.Chemscore.Internal.Correction.Weighted>
   9.000000E+99

> <Gold.Protein.RotatedTorsions>
[ 6907 6896 6895 6894 ] final  127.00 input  -60.11 | X-H torsion
[ 7974 7965 7964 7962 ] final   30.55 input  175.53 | X-H torsion
[ 8008 7997 7996 7995 ] final -133.86 input   59.86 | X-H torsion
[ 10167 10162 10161 10158 ] final   29.02 input  -65.29 | X-H torsion
[ 10718 10713 10712 10709 ] final -145.85 input   66.30 | X-H torsion
[ 10763 10752 10751 10750 ] final  -80.99 input  -60.55 | X-H torsion
[ 11005 11000 10999 10996 ] final  -46.24 input  -57.11 | X-H torsion

> <Gold.Protein.ActiveResidues>
 VAL166  LYS551  ARG553  GLY616  TRP617  ASP618  TYR619  PRO620  LYS621  CYS622 
 ASP623  PHE694  ASN695  SER759  ASP760  ASP761  ALA762  ILE779  LEU786  VAL792 
 PHE793  MET794  SER795  GLU796  ALA797  LYS798  CYS799  TRP800  GLU811  SER814 

> <Gold.Protein.RotatedAtoms>
  152.3853  133.6602  159.6193 H   0  0  0  0  0  0  0  0  0  0  0  0  # atno 6907 bound_to 6896
  150.7773  133.9046  159.3360 H   0  0  0  0  0  0  0  0  0  0  0  0  # atno 6908 bound_to 6896
  151.6844  135.0958  160.0273 H   0  0  0  0  0  0  0  0  0  0  0  0  # atno 6909 bound_to 6896
  146.1605  139.6774  142.9037 H   0  0  0  0  0  0  0  0  0  0  0  0  # atno 7974 bound_to 7965
  155.3526  140.0478  157.3046 H   0  0  0  0  0  0  0  0  0  0  0  0  # atno 8008 bound_to 7997
  154.5219  140.2228  155.8924 H   0  0  0  0  0  0  0  0  0  0  0  0  # atno 8009 bound_to 7997
  156.1699  140.3098  155.8961 H   0  0  0  0  0  0  0  0  0  0  0  0  # atno 8010 bound_to 7997
  140.4802  144.0628  150.6263 H   0  0  0  0  0  0  0  0  0  0  0  0  # atno 10167 bound_to 10162
  156.3876  130.7869  151.2068 H   0  0  0  0  0  0  0  0  0  0  0  0  # atno 10718 bound_to 10713
  154.5581  135.5642  153.6982 H   0  0  0  0  0  0  0  0  0  0  0  0  # atno 10763 bound_to 10752
  153.0009  135.6267  154.2282 H   0  0  0  0  0  0  0  0  0  0  0  0  # atno 10764 bound_to 10752
  154.2219  135.2869  155.2901 H   0  0  0  0  0  0  0  0  0  0  0  0  # atno 10765 bound_to 10752
  141.0566  133.6723  156.3126 H   0  0  0  0  0  0  0  0  0  0  0  0  # atno 11005 bound_to 11000
  145.4600  141.0432  143.2756 LP  0  0  0  0  0  0  0  0  0  0  0  0  # atno 17320 bound_to 7965
  144.8020  139.6122  143.7067 LP  0  0  0  0  0  0  0  0  0  0  0  0  # atno 17321 bound_to 7965
  140.3868  143.2773  152.0107 LP  0  0  0  0  0  0  0  0  0  0  0  0  # atno 17342 bound_to 10162
  139.4832  144.6110  151.7433 LP  0  0  0  0  0  0  0  0  0  0  0  0  # atno 17343 bound_to 10162
  157.7497  131.0325  150.4230 LP  0  0  0  0  0  0  0  0  0  0  0  0  # atno 17370 bound_to 10713
  156.4486  130.4006  149.6651 LP  0  0  0  0  0  0  0  0  0  0  0  0  # atno 17371 bound_to 10713
  140.5951  134.5611  157.5507 LP  0  0  0  0  0  0  0  0  0  0  0  0  # atno 17394 bound_to 11000
  139.9395  134.7812  156.0714 LP  0  0  0  0  0  0  0  0  0  0  0  0  # atno 17395 bound_to 11000

$$$$
