AV-unprocessed.smi:2787|AV-procd|sdf|10756|dock4
  -GOLD-   2272015183D 1   1.00000     0.00000
 Structure written by MMmdl.
 35 36  0  0  0  0  0  0  0  0  1 V2000
  150.0372  138.4871  153.4768 O   0  0  0  0  0  0  0  0  0  0  0  0
  150.9472  138.3729  154.5508 C   0  0  0  0  0  0  0  0  0  0  0  0
  151.0938  139.7178  155.2764 C   0  0  0  0  0  0  0  0  0  0  0  0
  151.5606  139.5701  156.7346 C   0  0  0  0  0  0  0  0  0  0  0  0
  151.7004  140.8904  157.4340 C   0  0  0  0  0  0  0  0  0  0  0  0
  151.2472  142.0158  156.8805 N   0  0  0  0  0  0  0  0  0  0  0  0
  151.5522  142.9697  157.8305 C   0  0  0  0  0  0  0  0  0  0  0  0
  151.3231  144.3641  157.8368 C   0  0  0  0  0  0  0  0  0  0  0  0
  151.7271  145.1487  158.9366 C   0  0  0  0  0  0  0  0  0  0  0  0
  152.3635  144.5513  160.0437 C   0  0  0  0  0  0  0  0  0  0  0  0
  152.6017  143.1634  160.0569 C   0  0  0  0  0  0  0  0  0  0  0  0
  152.1980  142.3841  158.9557 C   0  0  0  0  0  0  0  0  0  0  0  0
  152.2803  141.0266  158.6556 N   0  0  0  0  0  0  0  0  0  0  0  0
  152.8809  140.0006  159.5011 C   0  0  0  0  0  0  0  0  0  0  0  0
  154.4099  140.1495  159.6382 C   0  0  2  0  0  0  0  0  0  0  0  0
  155.0541  139.1991  158.8105 O   0  0  0  0  0  0  0  0  0  0  0  0
  154.9003  139.9794  161.0889 C   0  0  0  0  0  0  0  0  0  0  0  0
  156.2300  140.0636  161.1373 F   0  0  0  0  0  0  0  0  0  0  0  0
  154.3986  140.9576  161.8429 F   0  0  0  0  0  0  0  0  0  0  0  0
  154.5078  138.8089  161.5933 F   0  0  0  0  0  0  0  0  0  0  0  0
  150.0697  137.6904  152.9694 H   0  0  0  0  0  0  0  0  0  0  0  0
  150.6081  137.5957  155.2365 H   0  0  0  0  0  0  0  0  0  0  0  0
  151.9115  138.0550  154.1537 H   0  0  0  0  0  0  0  0  0  0  0  0
  151.8158  140.3303  154.7352 H   0  0  0  0  0  0  0  0  0  0  0  0
  150.1494  140.2605  155.2331 H   0  0  0  0  0  0  0  0  0  0  0  0
  150.8806  138.9197  157.2813 H   0  0  0  0  0  0  0  0  0  0  0  0
  152.5293  139.0692  156.7572 H   0  0  0  0  0  0  0  0  0  0  0  0
  150.8354  144.8307  156.9938 H   0  0  0  0  0  0  0  0  0  0  0  0
  151.5468  146.2138  158.9309 H   0  0  0  0  0  0  0  0  0  0  0  0
  152.6684  145.1591  160.8830 H   0  0  0  0  0  0  0  0  0  0  0  0
  153.0871  142.7049  160.9055 H   0  0  0  0  0  0  0  0  0  0  0  0
  152.3992  140.0182  160.4781 H   0  0  0  0  0  0  0  0  0  0  0  0
  152.6420  139.0244  159.0789 H   0  0  0  0  0  0  0  0  0  0  0  0
  154.7064  141.1388  159.2920 H   0  0  0  0  0  0  0  0  0  0  0  0
  155.1364  138.3899  159.2917 H   0  0  0  0  0  0  0  0  0  0  0  0
  1  2  1  0  0  0  0
  1 21  1  0  0  0  0
  2  3  1  0  0  0  0
  2 22  1  0  0  0  0
  2 23  1  0  0  0  0
  3  4  1  0  0  0  0
  3 24  1  0  0  0  0
  3 25  1  0  0  0  0
  4  5  1  0  0  0  0
  4 26  1  0  0  0  0
  4 27  1  0  0  0  0
  5 13  1  0  0  0  0
  5  6  2  0  0  0  0
  6  7  1  0  0  0  0
  7 12  2  0  0  0  0
  7  8  1  0  0  0  0
  8  9  2  0  0  0  0
  8 28  1  0  0  0  0
  9 10  1  0  0  0  0
  9 29  1  0  0  0  0
 10 11  2  0  0  0  0
 10 30  1  0  0  0  0
 11 12  1  0  0  0  0
 11 31  1  0  0  0  0
 12 13  1  0  0  0  0
 13 14  1  0  0  0  0
 14 15  1  0  0  0  0
 14 32  1  0  0  0  0
 14 33  1  0  0  0  0
 15 16  1  0  0  0  0
 15 17  1  0  0  0  0
 15 34  1  0  0  0  0
 16 35  1  0  0  0  0
 17 18  1  0  0  0  0
 17 19  1  0  0  0  0
 17 20  1  0  0  0  0
M  END
> <s_m_source_file>
AV-unprocessed.smi

> <i_m_source_file_index>
2787

> <i_lp_mmshare_version>
43012

> <i_f3d_flags>
0

> <s_epik_input>
W09IXVtDSDJdW0NIMl1bQ0gyXWMobjEpbihbQ0gyXVtDQEhdKFtPSF0pQyhGKShGKUYpYyhjMTIpW2NIXVtjSF1bY0hdW2NIXTI=

> <s_epik_cmdline>
J2VwaWtfcHl0aG9uJywgJy1waCcsICc3LjAnLCAnLXRuJywgJzgnLCAnLW1hJywgJzIwMCcsICctbWV0YWxfYmluZGluZycsICctaW1hZScsICc8aW5maWxlLm1hZT4nLCAnLW9tYWUnLCAnPG91dGZpbGUubWFlPic=

> <r_epik_Ionization_Penalty>
0.137914

> <r_epik_Ionization_Penalty_Charging>
0

> <r_epik_Ionization_Penalty_Neutral>
0.137914

> <r_epik_State_Penalty>
0.107668

> <r_epik_Charging_Adjusted_Penalty>
0.107668

> <i_epik_Tot_Q>
0

> <i_epik_Tot_abs_Q>
0

> <r_epik_Metal_State_Penalty>
0.000111872

> <b_epik_Metal_Only>
0

> <s_lp_Force_Field>
OPLS_2005

> <r_lp_Energy>
10.5181

> <b_lp_Chiralities_Consistent>
1

> <s_lp_Variant>
AV-unprocessed.smi:2787-1

> <Gold.Version>
5.8.1

> <Gold.Id.Protein>
6NUR|6NUR_protein|mol2

> <Gold.PLP.Fitness>
50.1984

> <Gold.PLP.PLP>
-46.0176

> <Gold.PLP.part.hbond>
-3.0000

> <Gold.PLP.part.metal>
0.0000

> <Gold.PLP.part.buried>
-4.5154

> <Gold.PLP.part.nonpolar>
-39.0780

> <Gold.PLP.part.repulsive>
0.0691

> <Gold.PLP.ligand.clash>
0.0000

> <Gold.PLP.ligand.torsion>
0.9440

> <Gold.PLP.Chemscore.Hbond>
2.0000

> <Gold.PLP.Chemscore.CHOScore>
0.0000

> <Gold.PLP.Chemscore.Metal>
0.0000

> <Gold.Chemscore.Hbonds>
donor molecule, donor type, donor heavy atom, donor atom, acceptor molecule, acceptor atom, score
      L1  H     1    21       P1  7948  0.73
      P1  H  7997  8008       L1    16  1.00

> <Gold.PLP.Chemscore.Internal.Correction>
0.0688

> <Gold.Rescore>
     Score         DG    S(hbond)    S(metal)    S(lipo)     H(rot)  DE(clash)    DE(int)     intcor
     14.78     -15.80       1.92        0.00     108.59       3.44       0.15       0.86       ----

> <Gold.Chemscore.Fitness>
14.7847

> <Gold.Chemscore.DG>
-15.7955

> <Gold.Chemscore.ZeroCoef>
-5.4800

> <Gold.Chemscore.Hbond>
1.9189

> <Gold.Chemscore.Metal>
0.0000

> <Gold.Chemscore.Lipo>
108.5878

> <Gold.Chemscore.Internal_Hbond>
0.0000

> <Gold.Chemscore.DEClash>
0.1461

> <Gold.Chemscore.DEInternal>
0.8647

> <Gold.Chemscore.Rot>
3.4369

> <Gold.Chemscore.Internal.Correction>
   9.000000E+99

> <Gold.Chemscore.Hbonds>
donor molecule, donor type, donor heavy atom, donor atom, acceptor molecule, acceptor atom, score
      L1  H     1    21       P1  7948  0.14
      P1  H  7997  8008       L1    16  0.50

> <Gold.Chemscore.Hbond.Weighted>
-6.4091

> <Gold.Chemscore.Metal.Weighted>
-0.0000

> <Gold.Chemscore.Lipo.Weighted>
-12.7048

> <Gold.Chemscore.Internal_Hbond.Weighted>
0.0000

> <Gold.Chemscore.DEClash.Weighted>
0.1461

> <Gold.Chemscore.DEInternal.Weighted>
0.8647

> <Gold.Chemscore.Rot.Weighted>
8.7984

> <Gold.Chemscore.Internal.Correction.Weighted>
   9.000000E+99

> <Gold.Protein.RotatedTorsions>
[ 6907 6896 6895 6894 ] final -176.89 input  -60.11 | X-H torsion
[ 7974 7965 7964 7962 ] final  -28.68 input  175.53 | X-H torsion
[ 8008 7997 7996 7995 ] final -134.13 input   59.86 | X-H torsion
[ 10167 10162 10161 10158 ] final   89.67 input  -65.29 | X-H torsion
[ 10718 10713 10712 10709 ] final  -78.74 input   66.30 | X-H torsion
[ 10763 10752 10751 10750 ] final  -44.62 input  -60.55 | X-H torsion
[ 11005 11000 10999 10996 ] final -141.05 input  -57.11 | X-H torsion

> <Gold.Protein.ActiveResidues>
 VAL166  LYS551  ARG553  GLY616  TRP617  ASP618  TYR619  PRO620  LYS621  CYS622 
 ASP623  PHE694  ASN695  SER759  ASP760  ASP761  ALA762  ILE779  LEU786  VAL792 
 PHE793  MET794  SER795  GLU796  ALA797  LYS798  CYS799  TRP800  GLU811  SER814 

> <Gold.Protein.RotatedAtoms>
  151.6121  133.3346  159.3069 H   0  0  0  0  0  0  0  0  0  0  0  0  # atno 6907 bound_to 6896
  150.8151  134.7331  159.6734 H   0  0  0  0  0  0  0  0  0  0  0  0  # atno 6908 bound_to 6896
  152.4247  134.5896  160.0022 H   0  0  0  0  0  0  0  0  0  0  0  0  # atno 6909 bound_to 6896
  146.1271  140.5314  142.8710 H   0  0  0  0  0  0  0  0  0  0  0  0  # atno 7974 bound_to 7965
  155.3570  140.0480  157.3046 H   0  0  0  0  0  0  0  0  0  0  0  0  # atno 8008 bound_to 7997
  154.5198  140.2221  155.8962 H   0  0  0  0  0  0  0  0  0  0  0  0  # atno 8009 bound_to 7997
  156.1676  140.3103  155.8923 H   0  0  0  0  0  0  0  0  0  0  0  0  # atno 8010 bound_to 7997
  139.8549  144.6574  150.9126 H   0  0  0  0  0  0  0  0  0  0  0  0  # atno 10167 bound_to 10162
  156.0110  130.4526  150.3542 H   0  0  0  0  0  0  0  0  0  0  0  0  # atno 10718 bound_to 10713
  154.0151  135.6676  153.4768 H   0  0  0  0  0  0  0  0  0  0  0  0  # atno 10763 bound_to 10752
  153.0604  135.5031  154.8076 H   0  0  0  0  0  0  0  0  0  0  0  0  # atno 10764 bound_to 10752
  154.6972  135.3072  154.9359 H   0  0  0  0  0  0  0  0  0  0  0  0  # atno 10765 bound_to 10752
  140.8363  134.2456  157.4832 H   0  0  0  0  0  0  0  0  0  0  0  0  # atno 11005 bound_to 11000
  144.7653  140.5515  143.6707 LP  0  0  0  0  0  0  0  0  0  0  0  0  # atno 17320 bound_to 7965
  145.5342  139.1475  143.3482 LP  0  0  0  0  0  0  0  0  0  0  0  0  # atno 17321 bound_to 7965
  140.7783  143.3794  151.1503 LP  0  0  0  0  0  0  0  0  0  0  0  0  # atno 17342 bound_to 10162
  139.7429  143.8896  152.3055 LP  0  0  0  0  0  0  0  0  0  0  0  0  # atno 17343 bound_to 10162
  157.1633  131.0350  151.2830 LP  0  0  0  0  0  0  0  0  0  0  0  0  # atno 17370 bound_to 10713
  157.4292  130.7481  149.6976 LP  0  0  0  0  0  0  0  0  0  0  0  0  # atno 17371 bound_to 10713
  139.8704  134.9612  156.4389 LP  0  0  0  0  0  0  0  0  0  0  0  0  # atno 17394 bound_to 11000
  140.8944  133.7825  155.9608 LP  0  0  0  0  0  0  0  0  0  0  0  0  # atno 17395 bound_to 11000

$$$$
