AV-unprocessed.smi:1209|AV-procd|sdf|5071|dock4
  -GOLD-   22720 4113D 1   1.00000     0.00000
 Structure written by MMmdl.
 49 51  0  0  0  0  0  0  0  0  2 V2000
  156.8718  137.8014  152.1712 C   0  0  0  0  0  0  0  0  0  0  0  0
  156.5111  137.6200  153.6057 C   0  0  0  0  0  0  0  0  0  0  0  0
  157.1201  137.9852  154.7722 C   0  0  0  0  0  0  0  0  0  0  0  0
  156.2380  137.5019  155.7781 C   0  0  0  0  0  0  0  0  0  0  0  0
  156.3754  137.6063  157.2744 C   0  0  0  0  0  0  0  0  0  0  0  0
  155.2818  138.3417  157.9136 N   0  0  0  0  0  0  0  0  0  0  0  0
  154.0227  137.6038  157.8064 C   0  0  0  0  0  0  0  0  0  0  0  0
  155.6182  138.6401  159.3086 C   0  0  0  0  0  0  0  0  0  0  0  0
  155.1215  139.9984  159.8445 C   0  0  2  0  0  0  0  0  0  0  0  0
  156.2322  140.8667  159.9522 O   0  0  0  0  0  0  0  0  0  0  0  0
  154.4504  139.8433  161.2236 C   0  0  0  0  0  0  0  0  0  0  0  0
  153.9364  141.1108  161.7632 N   0  0  0  0  0  0  0  0  0  0  0  0
  154.1688  141.6995  162.9675 C   0  0  0  0  0  0  0  0  0  0  0  0
  153.4754  142.8712  162.9932 N   0  3  0  0  0  0  0  0  0  0  0  0
  152.7875  143.0323  161.7887 C   0  0  0  0  0  0  0  0  0  0  0  0
  151.9553  144.0535  161.3459 C   0  0  0  0  0  0  0  0  0  0  0  0
  151.3985  143.9173  160.0543 C   0  0  0  0  0  0  0  0  0  0  0  0
  150.4831  145.0152  159.5394 C   0  0  0  0  0  0  0  0  0  0  0  0
  151.6828  142.7812  159.2529 C   0  0  0  0  0  0  0  0  0  0  0  0
  151.0735  142.6408  157.8684 C   0  0  0  0  0  0  0  0  0  0  0  0
  152.5341  141.7549  159.7208 C   0  0  0  0  0  0  0  0  0  0  0  0
  153.0764  141.9053  160.9950 C   0  0  0  0  0  0  0  0  0  0  0  0
  155.1864  136.8922  155.2557 N   0  0  0  0  0  0  0  0  0  0  0  0
  155.3521  136.9627  153.8680 O   0  0  0  0  0  0  0  0  0  0  0  0
  157.5775  138.6230  152.0491 H   0  0  0  0  0  0  0  0  0  0  0  0
  155.9882  138.0242  151.5725 H   0  0  0  0  0  0  0  0  0  0  0  0
  157.3327  136.8975  151.7726 H   0  0  0  0  0  0  0  0  0  0  0  0
  158.0515  138.5187  154.8906 H   0  0  0  0  0  0  0  0  0  0  0  0
  156.4593  136.6131  157.7192 H   0  0  0  0  0  0  0  0  0  0  0  0
  157.3202  138.1065  157.4896 H   0  0  0  0  0  0  0  0  0  0  0  0
  153.1864  138.1802  158.1987 H   0  0  0  0  0  0  0  0  0  0  0  0
  154.0723  136.6593  158.3500 H   0  0  0  0  0  0  0  0  0  0  0  0
  153.7827  137.3800  156.7668 H   0  0  0  0  0  0  0  0  0  0  0  0
  155.2331  137.8415  159.9447 H   0  0  0  0  0  0  0  0  0  0  0  0
  156.7022  138.6151  159.4316 H   0  0  0  0  0  0  0  0  0  0  0  0
  154.3997  140.4459  159.1625 H   0  0  0  0  0  0  0  0  0  0  0  0
  156.8245  140.5105  160.5976 H   0  0  0  0  0  0  0  0  0  0  0  0
  153.6000  139.1649  161.1440 H   0  0  0  0  0  0  0  0  0  0  0  0
  155.1296  139.3934  161.9485 H   0  0  0  0  0  0  0  0  0  0  0  0
  154.7934  141.3102  163.7585 H   0  0  0  0  0  0  0  0  0  0  0  0
  151.7417  144.9142  161.9629 H   0  0  0  0  0  0  0  0  0  0  0  0
  150.8785  145.4435  158.6177 H   0  0  0  0  0  0  0  0  0  0  0  0
  150.3815  145.8235  160.2641 H   0  0  0  0  0  0  0  0  0  0  0  0
  149.4872  144.6196  159.3387 H   0  0  0  0  0  0  0  0  0  0  0  0
  151.4014  141.7225  157.3797 H   0  0  0  0  0  0  0  0  0  0  0  0
  151.3655  143.4777  157.2339 H   0  0  0  0  0  0  0  0  0  0  0  0
  149.9853  142.6145  157.9305 H   0  0  0  0  0  0  0  0  0  0  0  0
  152.7447  140.8874  159.1131 H   0  0  0  0  0  0  0  0  0  0  0  0
  153.4738  143.5121  163.7762 H   0  0  0  0  0  0  0  0  0  0  0  0
  1  2  1  0  0  0  0
  1 25  1  0  0  0  0
  1 26  1  0  0  0  0
  1 27  1  0  0  0  0
  2 24  1  0  0  0  0
  2  3  2  0  0  0  0
  3  4  1  0  0  0  0
  3 28  1  0  0  0  0
  4  5  1  0  0  0  0
  4 23  2  0  0  0  0
  5  6  1  0  0  0  0
  5 29  1  0  0  0  0
  5 30  1  0  0  0  0
  6  7  1  0  0  0  0
  6  8  1  0  0  0  0
  7 31  1  0  0  0  0
  7 32  1  0  0  0  0
  7 33  1  0  0  0  0
  8  9  1  0  0  0  0
  8 34  1  0  0  0  0
  8 35  1  0  0  0  0
  9 10  1  0  0  0  0
  9 11  1  0  0  0  0
  9 36  1  0  0  0  0
 10 37  1  0  0  0  0
 11 12  1  0  0  0  0
 11 38  1  0  0  0  0
 11 39  1  0  0  0  0
 12 22  1  0  0  0  0
 12 13  1  0  0  0  0
 13 14  2  0  0  0  0
 13 40  1  0  0  0  0
 14 15  1  0  0  0  0
 14 49  1  0  0  0  0
 15 22  2  0  0  0  0
 15 16  1  0  0  0  0
 16 17  2  0  0  0  0
 16 41  1  0  0  0  0
 17 18  1  0  0  0  0
 17 19  1  0  0  0  0
 18 42  1  0  0  0  0
 18 43  1  0  0  0  0
 18 44  1  0  0  0  0
 19 20  1  0  0  0  0
 19 21  2  0  0  0  0
 20 45  1  0  0  0  0
 20 46  1  0  0  0  0
 20 47  1  0  0  0  0
 21 22  1  0  0  0  0
 21 48  1  0  0  0  0
 23 24  1  0  0  0  0
M  CHG  1  14   1
M  END
> <s_m_source_file>
AV-unprocessed.smi

> <i_m_source_file_index>
1209

> <i_lp_mmshare_version>
43012

> <i_f3d_flags>
0

> <s_epik_input>
W0NIM11jMVtjSF1jKG5vMSlbQ0gyXU4oW0NIM10pW0NIMl1bQ0BIXShbT0hdKVtDSDJdbihbY0hdbjIpYyhjMjMpW2NIXWMoW0NIM10pYyhbY0hdMylbQ0gzXQ==

> <s_epik_cmdline>
J2VwaWtfcHl0aG9uJywgJy1waCcsICc3LjAnLCAnLXRuJywgJzgnLCAnLW1hJywgJzIwMCcsICctbWV0YWxfYmluZGluZycsICctaW1hZScsICc8aW5maWxlLm1hZT4nLCAnLW9tYWUnLCAnPG91dGZpbGUubWFlPic=

> <r_epik_Ionization_Penalty>
1.23608

> <r_epik_Ionization_Penalty_Charging>
1.21624

> <r_epik_Ionization_Penalty_Neutral>
0.0198409

> <r_epik_State_Penalty>
1.27749

> <r_epik_Charging_Adjusted_Penalty>
2.49372

> <i_epik_Tot_Q>
1

> <i_epik_Tot_abs_Q>
1

> <r_epik_Metal_State_Penalty>
1.34809

> <b_epik_Metal_Only>
0

> <s_lp_Force_Field>
OPLS_2005

> <r_lp_Energy>
23.9348

> <b_lp_Chiralities_Consistent>
1

> <s_lp_Variant>
AV-unprocessed.smi:1209-3

> <Gold.Version>
5.8.1

> <Gold.Id.Protein>
6NUR|6NUR_protein|mol2

> <Gold.PLP.Fitness>
52.2474

> <Gold.PLP.PLP>
-51.3275

> <Gold.PLP.part.hbond>
-4.0000

> <Gold.PLP.part.metal>
0.0000

> <Gold.PLP.part.buried>
-3.8504

> <Gold.PLP.part.nonpolar>
-42.7638

> <Gold.PLP.part.repulsive>
0.0901

> <Gold.PLP.ligand.clash>
0.0000

> <Gold.PLP.ligand.torsion>
1.2088

> <Gold.PLP.Chemscore.Hbond>
1.0902

> <Gold.PLP.Chemscore.CHOScore>
0.0000

> <Gold.PLP.Chemscore.Metal>
0.0000

> <Gold.Chemscore.Hbonds>
donor molecule, donor type, donor heavy atom, donor atom, acceptor molecule, acceptor atom, score
      P1  H  7997  8008       L1     6  0.69
      P1  H 10752 10764       L1    23  0.09
      P1  H 10752 10765       L1    24  0.10

> <Gold.PLP.Chemscore.Internal.Correction>
0.0669

> <Gold.Rescore>
     Score         DG    S(hbond)    S(metal)    S(lipo)     H(rot)  DE(clash)    DE(int)     intcor
     17.12     -18.69       0.34        0.00     158.54       2.53       0.10       1.48       ----

> <Gold.Chemscore.Fitness>
17.1205

> <Gold.Chemscore.DG>
-18.6939

> <Gold.Chemscore.ZeroCoef>
-5.4800

> <Gold.Chemscore.Hbond>
0.3392

> <Gold.Chemscore.Metal>
0.0000

> <Gold.Chemscore.Lipo>
158.5356

> <Gold.Chemscore.Internal_Hbond>
0.0000

> <Gold.Chemscore.DEClash>
0.0954

> <Gold.Chemscore.DEInternal>
1.4780

> <Gold.Chemscore.Rot>
2.5265

> <Gold.Chemscore.Internal.Correction>
   9.000000E+99

> <Gold.Chemscore.Hbonds>
donor molecule, donor type, donor heavy atom, donor atom, acceptor molecule, acceptor atom, score
      P1  H  7997  8008       L1     6  0.09
      P1  H 10752 10765       L1    24  0.01

> <Gold.Chemscore.Hbond.Weighted>
-1.1329

> <Gold.Chemscore.Metal.Weighted>
-0.0000

> <Gold.Chemscore.Lipo.Weighted>
-18.5487

> <Gold.Chemscore.Internal_Hbond.Weighted>
0.0000

> <Gold.Chemscore.DEClash.Weighted>
0.0954

> <Gold.Chemscore.DEInternal.Weighted>
1.4780

> <Gold.Chemscore.Rot.Weighted>
6.4677

> <Gold.Chemscore.Internal.Correction.Weighted>
   9.000000E+99

> <Gold.Protein.RotatedTorsions>
[ 6907 6896 6895 6894 ] final   41.29 input  -60.11 | X-H torsion
[ 7974 7965 7964 7962 ] final   93.49 input  175.53 | X-H torsion
[ 8008 7997 7996 7995 ] final -128.43 input   59.86 | X-H torsion
[ 10167 10162 10161 10158 ] final -161.09 input  -65.29 | X-H torsion
[ 10718 10713 10712 10709 ] final   57.41 input   66.30 | X-H torsion
[ 10763 10752 10751 10750 ] final   72.89 input  -60.55 | X-H torsion
[ 11005 11000 10999 10996 ] final  -63.30 input  -57.11 | X-H torsion

> <Gold.Protein.ActiveResidues>
 VAL166  LYS551  ARG553  GLY616  TRP617  ASP618  TYR619  PRO620  LYS621  CYS622 
 ASP623  PHE694  ASN695  SER759  ASP760  ASP761  ALA762  ILE779  LEU786  VAL792 
 PHE793  MET794  SER795  GLU796  ALA797  LYS798  CYS799  TRP800  GLU811  SER814 

> <Gold.Protein.RotatedAtoms>
  152.1933  134.8652  160.0515 H   0  0  0  0  0  0  0  0  0  0  0  0  # atno 6907 bound_to 6896
  151.9533  133.3667  159.4016 H   0  0  0  0  0  0  0  0  0  0  0  0  # atno 6908 bound_to 6896
  150.6939  134.4241  159.5262 H   0  0  0  0  0  0  0  0  0  0  0  0  # atno 6909 bound_to 6896
  145.4782  139.2279  143.2897 H   0  0  0  0  0  0  0  0  0  0  0  0  # atno 7974 bound_to 7965
  155.2625  140.0436  157.2999 H   0  0  0  0  0  0  0  0  0  0  0  0  # atno 8008 bound_to 7997
  154.5702  140.2371  155.8172 H   0  0  0  0  0  0  0  0  0  0  0  0  # atno 8009 bound_to 7997
  156.2116  140.2997  155.9754 H   0  0  0  0  0  0  0  0  0  0  0  0  # atno 8010 bound_to 7997
  139.6491  144.0117  152.2148 H   0  0  0  0  0  0  0  0  0  0  0  0  # atno 10167 bound_to 10162
  157.5512  130.8767  149.8967 H   0  0  0  0  0  0  0  0  0  0  0  0  # atno 10718 bound_to 10713
  153.0487  135.5083  154.7812 H   0  0  0  0  0  0  0  0  0  0  0  0  # atno 10763 bound_to 10752
  154.6691  135.2950  154.9767 H   0  0  0  0  0  0  0  0  0  0  0  0  # atno 10764 bound_to 10752
  154.0592  135.6693  153.4862 H   0  0  0  0  0  0  0  0  0  0  0  0  # atno 10765 bound_to 10752
  141.1388  133.6650  156.5659 H   0  0  0  0  0  0  0  0  0  0  0  0  # atno 11005 bound_to 11000
  146.2357  140.5566  142.8956 LP  0  0  0  0  0  0  0  0  0  0  0  0  # atno 17320 bound_to 7965
  144.7905  140.6021  143.6545 LP  0  0  0  0  0  0  0  0  0  0  0  0  # atno 17321 bound_to 7965
  139.9827  144.6417  150.7886 LP  0  0  0  0  0  0  0  0  0  0  0  0  # atno 17342 bound_to 10162
  140.7529  143.2998  151.3109 LP  0  0  0  0  0  0  0  0  0  0  0  0  # atno 17343 bound_to 10162
  156.0579  130.3705  150.1049 LP  0  0  0  0  0  0  0  0  0  0  0  0  # atno 17370 bound_to 10713
  156.9222  130.9686  151.3546 LP  0  0  0  0  0  0  0  0  0  0  0  0  # atno 17371 bound_to 10713
  140.3951  134.7406  157.4745 LP  0  0  0  0  0  0  0  0  0  0  0  0  # atno 17394 bound_to 11000
  140.0537  134.6093  155.8830 LP  0  0  0  0  0  0  0  0  0  0  0  0  # atno 17395 bound_to 11000

$$$$
