AV-unprocessed.smi:3275|AV-procd|sdf|12532|dock6
  -GOLD-   2272018443D 1   1.00000     0.00000
 Structure written by MMmdl.
 34 35  0  0  0  0  0  0  0  0  1 V2000
  149.4215  141.2423  153.2208 O   0  0  0  0  0  0  0  0  0  0  0  0
  148.8428  140.7328  154.4027 C   0  0  0  0  0  0  0  0  0  0  0  0
  149.5441  139.4322  154.8074 C   0  0  0  0  0  0  0  0  0  0  0  0
  150.9493  139.6463  154.7516 O   0  0  0  0  0  0  0  0  0  0  0  0
  151.6353  139.8379  155.9887 C   0  0  2  0  0  0  0  0  0  0  0  0
  151.6384  138.5830  156.8859 C   0  0  0  0  0  0  0  0  0  0  0  0
  152.4695  138.8512  158.1518 C   0  0  0  0  0  0  0  0  0  0  0  0
  151.9716  140.1111  158.8828 C   0  0  0  0  0  0  0  0  0  0  0  0
  151.9434  141.2594  157.9809 N   0  0  0  0  0  0  0  0  0  0  0  0
  151.6987  142.4707  158.6454 C   0  0  0  0  0  0  0  0  0  0  0  0
  150.5885  143.2811  158.3157 C   0  0  0  0  0  0  0  0  0  0  0  0
  150.3958  144.4847  159.0222 C   0  0  0  0  0  0  0  0  0  0  0  0
  151.2184  144.9082  160.0048 N   0  0  0  0  0  0  0  0  0  0  0  0
  152.2759  144.1303  160.3197 C   0  0  0  0  0  0  0  0  0  0  0  0
  152.5606  142.9082  159.6771 C   0  0  0  0  0  0  0  0  0  0  0  0
  153.9420  141.9850  160.1554 Cl  0  0  0  0  0  0  0  0  0  0  0  0
  151.1440  141.0727  156.7727 C   0  0  0  0  0  0  0  0  0  0  0  0
  149.5146  140.5338  152.6025 H   0  0  0  0  0  0  0  0  0  0  0  0
  148.9307  141.4780  155.1939 H   0  0  0  0  0  0  0  0  0  0  0  0
  147.7799  140.5584  154.2328 H   0  0  0  0  0  0  0  0  0  0  0  0
  149.2332  139.1524  155.8139 H   0  0  0  0  0  0  0  0  0  0  0  0
  149.2442  138.6332  154.1297 H   0  0  0  0  0  0  0  0  0  0  0  0
  152.6702  140.0297  155.7011 H   0  0  0  0  0  0  0  0  0  0  0  0
  150.6246  138.3171  157.1841 H   0  0  0  0  0  0  0  0  0  0  0  0
  152.0442  137.7292  156.3427 H   0  0  0  0  0  0  0  0  0  0  0  0
  152.4258  137.9899  158.8186 H   0  0  0  0  0  0  0  0  0  0  0  0
  153.5179  138.9791  157.8797 H   0  0  0  0  0  0  0  0  0  0  0  0
  150.9704  139.9381  159.2806 H   0  0  0  0  0  0  0  0  0  0  0  0
  152.6209  140.3259  159.7326 H   0  0  0  0  0  0  0  0  0  0  0  0
  149.8936  142.9903  157.5417 H   0  0  0  0  0  0  0  0  0  0  0  0
  149.5564  145.1240  158.7925 H   0  0  0  0  0  0  0  0  0  0  0  0
  152.9159  144.4951  161.1095 H   0  0  0  0  0  0  0  0  0  0  0  0
  151.2120  141.9629  156.1460 H   0  0  0  0  0  0  0  0  0  0  0  0
  150.0989  140.9538  157.0575 H   0  0  0  0  0  0  0  0  0  0  0  0
  1  2  1  0  0  0  0
  1 18  1  0  0  0  0
  2  3  1  0  0  0  0
  2 19  1  0  0  0  0
  2 20  1  0  0  0  0
  3  4  1  0  0  0  0
  3 21  1  0  0  0  0
  3 22  1  0  0  0  0
  4  5  1  0  0  0  0
  5 17  1  0  0  0  0
  5  6  1  0  0  0  0
  5 23  1  0  0  0  0
  6  7  1  0  0  0  0
  6 24  1  0  0  0  0
  6 25  1  0  0  0  0
  7  8  1  0  0  0  0
  7 26  1  0  0  0  0
  7 27  1  0  0  0  0
  8  9  1  0  0  0  0
  8 28  1  0  0  0  0
  8 29  1  0  0  0  0
  9 10  1  0  0  0  0
  9 17  1  0  0  0  0
 10 15  1  0  0  0  0
 10 11  2  0  0  0  0
 11 12  1  0  0  0  0
 11 30  1  0  0  0  0
 12 13  2  0  0  0  0
 12 31  1  0  0  0  0
 13 14  1  0  0  0  0
 14 15  2  0  0  0  0
 14 32  1  0  0  0  0
 15 16  1  0  0  0  0
 17 33  1  0  0  0  0
 17 34  1  0  0  0  0
M  END
> <s_m_source_file>
AV-unprocessed.smi

> <i_m_source_file_index>
3275

> <i_lp_mmshare_version>
43012

> <i_f3d_flags>
0

> <s_epik_input>
W09IXVtDSDJdW0NIMl1PW0NAQEhdMVtDSDJdW0NIMl1bQ0gyXU4oW0NIMl0xKWMyW2NIXVtjSF1uW2NIXWMyQ2w=

> <s_epik_cmdline>
J2VwaWtfcHl0aG9uJywgJy1waCcsICc3LjAnLCAnLXRuJywgJzgnLCAnLW1hJywgJzIwMCcsICctbWV0YWxfYmluZGluZycsICctaW1hZScsICc8aW5maWxlLm1hZT4nLCAnLW9tYWUnLCAnPG91dGZpbGUubWFlPic=

> <r_lp_tautomer_probability>
1

> <r_epik_Ionization_Penalty>
1.24095

> <r_epik_Ionization_Penalty_Charging>
0

> <r_epik_Ionization_Penalty_Neutral>
1.24095

> <r_epik_State_Penalty>
1.30987

> <r_epik_Charging_Adjusted_Penalty>
1.30987

> <i_epik_Tot_Q>
0

> <i_epik_Tot_abs_Q>
0

> <r_epik_Metal_State_Penalty>
0.00479332

> <b_epik_Metal_Only>
0

> <s_lp_Force_Field>
OPLS_2005

> <r_lp_Energy>
21.9158

> <b_lp_Chiralities_Consistent>
1

> <s_lp_Variant>
AV-unprocessed.smi:3275-3

> <Gold.Version>
5.8.1

> <Gold.Id.Protein>
6NUR|6NUR_protein|mol2

> <Gold.PLP.Fitness>
46.5868

> <Gold.PLP.PLP>
-35.4562

> <Gold.PLP.part.hbond>
-3.4142

> <Gold.PLP.part.metal>
0.0000

> <Gold.PLP.part.buried>
-5.7230

> <Gold.PLP.part.nonpolar>
-27.1171

> <Gold.PLP.part.repulsive>
0.1979

> <Gold.PLP.ligand.clash>
0.0000

> <Gold.PLP.ligand.torsion>
0.4870

> <Gold.PLP.Chemscore.Hbond>
2.9675

> <Gold.PLP.Chemscore.CHOScore>
1.0000

> <Gold.PLP.Chemscore.Metal>
0.0000

> <Gold.Chemscore.Hbonds>
donor molecule, donor type, donor heavy atom, donor atom, acceptor molecule, acceptor atom, score
      L1  H     1    18       P1  7957  0.97
      P1  H  7989  7998       L1     4  1.00
      P1  H  8011  8017       L1     1  0.91
      L1  C    12    31       P1  8029  1.00

> <Gold.PLP.Chemscore.Internal.Correction>
0.2022

> <Gold.Rescore>
     Score         DG    S(hbond)    S(metal)    S(lipo)     H(rot)  DE(clash)    DE(int)     intcor
     18.70     -19.45       2.14        0.00     103.17       2.06       0.07       0.67       ----

> <Gold.Chemscore.Fitness>
18.6977

> <Gold.Chemscore.DG>
-19.4453

> <Gold.Chemscore.ZeroCoef>
-5.4800

> <Gold.Chemscore.Hbond>
2.1437

> <Gold.Chemscore.Metal>
0.0000

> <Gold.Chemscore.Lipo>
103.1729

> <Gold.Chemscore.Internal_Hbond>
0.0000

> <Gold.Chemscore.DEClash>
0.0750

> <Gold.Chemscore.DEInternal>
0.6726

> <Gold.Chemscore.Rot>
2.0570

> <Gold.Chemscore.Internal.Correction>
   9.000000E+99

> <Gold.Chemscore.Hbonds>
donor molecule, donor type, donor heavy atom, donor atom, acceptor molecule, acceptor atom, score
      L1  H     1    18       P1  7957  0.86
      P1  H  7989  7998       L1     4  0.68
      P1  H  8011  8017       L1     1  0.19

> <Gold.Chemscore.Hbond.Weighted>
-7.1600

> <Gold.Chemscore.Metal.Weighted>
-0.0000

> <Gold.Chemscore.Lipo.Weighted>
-12.0712

> <Gold.Chemscore.Internal_Hbond.Weighted>
0.0000

> <Gold.Chemscore.DEClash.Weighted>
0.0750

> <Gold.Chemscore.DEInternal.Weighted>
0.6726

> <Gold.Chemscore.Rot.Weighted>
5.2660

> <Gold.Chemscore.Internal.Correction.Weighted>
   9.000000E+99

> <Gold.Protein.RotatedTorsions>
[ 6907 6896 6895 6894 ] final   24.25 input  -60.11 | X-H torsion
[ 7974 7965 7964 7962 ] final -174.93 input  175.53 | X-H torsion
[ 8008 7997 7996 7995 ] final  -47.34 input   59.86 | X-H torsion
[ 10167 10162 10161 10158 ] final  -51.76 input  -65.29 | X-H torsion
[ 10718 10713 10712 10709 ] final  -26.76 input   66.30 | X-H torsion
[ 10763 10752 10751 10750 ] final  170.45 input  -60.55 | X-H torsion
[ 11005 11000 10999 10996 ] final  133.23 input  -57.11 | X-H torsion

> <Gold.Protein.ActiveResidues>
 VAL166  LYS551  ARG553  GLY616  TRP617  ASP618  TYR619  PRO620  LYS621  CYS622 
 ASP623  PHE694  ASN695  SER759  ASP760  ASP761  ALA762  ILE779  LEU786  VAL792 
 PHE793  MET794  SER795  GLU796  ALA797  LYS798  CYS799  TRP800  GLU811  SER814 

> <Gold.Protein.RotatedAtoms>
  151.9546  135.0153  160.0543 H   0  0  0  0  0  0  0  0  0  0  0  0  # atno 6907 bound_to 6896
  152.1922  133.4777  159.5022 H   0  0  0  0  0  0  0  0  0  0  0  0  # atno 6908 bound_to 6896
  150.6937  134.1615  159.4220 H   0  0  0  0  0  0  0  0  0  0  0  0  # atno 6909 bound_to 6896
  144.7130  140.1398  143.6392 H   0  0  0  0  0  0  0  0  0  0  0  0  # atno 7974 bound_to 7965
  154.4016  140.1349  156.4160 H   0  0  0  0  0  0  0  0  0  0  0  0  # atno 8008 bound_to 7997
  155.7688  140.3484  155.5216 H   0  0  0  0  0  0  0  0  0  0  0  0  # atno 8009 bound_to 7997
  155.8787  140.0984  157.1491 H   0  0  0  0  0  0  0  0  0  0  0  0  # atno 8010 bound_to 7997
  140.6572  143.2608  151.4550 H   0  0  0  0  0  0  0  0  0  0  0  0  # atno 10167 bound_to 10162
  156.4470  130.4476  149.7015 H   0  0  0  0  0  0  0  0  0  0  0  0  # atno 10718 bound_to 10713
  154.3978  135.2754  155.2115 H   0  0  0  0  0  0  0  0  0  0  0  0  # atno 10763 bound_to 10752
  154.4154  135.6012  153.5981 H   0  0  0  0  0  0  0  0  0  0  0  0  # atno 10764 bound_to 10752
  152.9831  135.5959  154.4241 H   0  0  0  0  0  0  0  0  0  0  0  0  # atno 10765 bound_to 10752
  139.9839  134.9539  156.9695 H   0  0  0  0  0  0  0  0  0  0  0  0  # atno 11005 bound_to 11000
  145.9212  139.2547  143.1380 LP  0  0  0  0  0  0  0  0  0  0  0  0  # atno 17320 bound_to 7965
  145.9618  140.8829  143.0207 LP  0  0  0  0  0  0  0  0  0  0  0  0  # atno 17321 bound_to 7965
  139.5797  144.1738  152.1951 LP  0  0  0  0  0  0  0  0  0  0  0  0  # atno 17342 bound_to 10162
  140.1059  144.5499  150.6957 LP  0  0  0  0  0  0  0  0  0  0  0  0  # atno 17343 bound_to 10162
  156.3857  130.7601  151.2598 LP  0  0  0  0  0  0  0  0  0  0  0  0  # atno 17370 bound_to 10713
  157.7504  131.0283  150.4041 LP  0  0  0  0  0  0  0  0  0  0  0  0  # atno 17371 bound_to 10713
  140.5042  134.1067  155.7256 LP  0  0  0  0  0  0  0  0  0  0  0  0  # atno 17394 bound_to 11000
  141.1507  133.8974  157.2105 LP  0  0  0  0  0  0  0  0  0  0  0  0  # atno 17395 bound_to 11000

$$$$
