AV-unprocessed.smi:194|AV-procd|sdf|1520|dock2
  -GOLD-   2262019363D 1   1.00000     0.00000
 Structure written by MMmdl.
 53 55  0  0  0  0  0  0  0  0  1 V2000
  152.7670  139.0453  159.8400 C   0  0  0  0  0  0  0  0  0  0  0  0
  153.9129  140.0592  159.6918 C   0  0  2  0  0  0  0  0  0  0  0  0
  154.9406  139.9218  160.8334 C   0  0  0  0  0  0  0  0  0  0  0  0
  156.6518  139.9191  160.1119 S   0  0  1  0  0  0  0  0  0  0  0  0
  157.3154  138.5261  161.1389 C   0  0  0  0  0  0  0  0  0  0  0  0
  156.5263  139.3942  158.6804 O   0  0  0  0  0  0  0  0  0  0  0  0
  153.3864  141.4261  159.5681 N   0  0  0  0  0  0  0  0  0  0  0  0
  153.4835  142.3693  160.6782 C   0  0  0  0  0  0  0  0  0  0  0  0
  152.5435  141.7174  158.5418 C   0  0  0  0  0  0  0  0  0  0  0  0
  151.9572  142.9431  158.5217 N   0  0  0  0  0  0  0  0  0  0  0  0
  151.1106  143.2767  157.5448 C   0  0  0  0  0  0  0  0  0  0  0  0
  150.7135  142.5473  156.5018 N   0  0  0  0  0  0  0  0  0  0  0  0
  151.2940  141.3135  156.5109 C   0  0  0  0  0  0  0  0  0  0  0  0
  152.2153  140.8213  157.4807 C   0  0  0  0  0  0  0  0  0  0  0  0
  152.6088  139.5326  157.1361 N   0  0  0  0  0  0  0  0  0  0  0  0
  151.9565  139.2783  156.0358 C   0  0  0  0  0  0  0  0  0  0  0  0
  151.1270  140.2853  155.5984 N   0  0  0  0  0  0  0  0  0  0  0  0
  150.2963  140.2660  154.4029 C   0  0  0  0  0  0  0  0  0  0  0  0
  148.7564  140.2296  154.6448 C   0  0  0  0  0  0  0  0  0  0  0  0
  148.1526  138.8622  154.2037 C   0  0  0  0  0  0  0  0  0  0  0  0
  148.2449  138.6175  152.8145 O   0  0  0  0  0  0  0  0  0  0  0  0
  148.4159  140.5606  156.1206 C   0  0  0  0  0  0  0  0  0  0  0  0
  146.9213  140.8557  156.3317 C   0  0  0  0  0  0  0  0  0  0  0  0
  146.5250  141.9415  155.5044 O   0  0  0  0  0  0  0  0  0  0  0  0
  146.6659  141.6586  154.1187 C   0  0  0  0  0  0  0  0  0  0  0  0
  148.1408  141.3617  153.7824 C   0  0  0  0  0  0  0  0  0  0  0  0
  153.1467  138.0233  159.8421 H   0  0  0  0  0  0  0  0  0  0  0  0
  152.0599  139.1301  159.0141 H   0  0  0  0  0  0  0  0  0  0  0  0
  152.2151  139.1937  160.7687 H   0  0  0  0  0  0  0  0  0  0  0  0
  154.4299  139.7827  158.7727 H   0  0  0  0  0  0  0  0  0  0  0  0
  154.8464  140.7204  161.5686 H   0  0  0  0  0  0  0  0  0  0  0  0
  154.7907  138.9801  161.3623 H   0  0  0  0  0  0  0  0  0  0  0  0
  157.2435  138.7664  162.1996 H   0  0  0  0  0  0  0  0  0  0  0  0
  158.3621  138.3458  160.8945 H   0  0  0  0  0  0  0  0  0  0  0  0
  156.7530  137.6118  160.9487 H   0  0  0  0  0  0  0  0  0  0  0  0
  153.4340  143.3986  160.3211 H   0  0  0  0  0  0  0  0  0  0  0  0
  154.4241  142.2558  161.2150 H   0  0  0  0  0  0  0  0  0  0  0  0
  152.6724  142.2092  161.3890 H   0  0  0  0  0  0  0  0  0  0  0  0
  150.6902  144.2695  157.6101 H   0  0  0  0  0  0  0  0  0  0  0  0
  152.0545  138.3374  155.5144 H   0  0  0  0  0  0  0  0  0  0  0  0
  150.5618  141.1416  153.8088 H   0  0  0  0  0  0  0  0  0  0  0  0
  150.5959  139.4045  153.8042 H   0  0  0  0  0  0  0  0  0  0  0  0
  148.6527  138.0285  154.6927 H   0  0  0  0  0  0  0  0  0  0  0  0
  147.1047  138.7997  154.4981 H   0  0  0  0  0  0  0  0  0  0  0  0
  148.4429  137.7029  152.6826 H   0  0  0  0  0  0  0  0  0  0  0  0
  148.7289  139.7584  156.7888 H   0  0  0  0  0  0  0  0  0  0  0  0
  148.9788  141.4419  156.4304 H   0  0  0  0  0  0  0  0  0  0  0  0
  146.3075  139.9774  156.1282 H   0  0  0  0  0  0  0  0  0  0  0  0
  146.7419  141.1295  157.3713 H   0  0  0  0  0  0  0  0  0  0  0  0
  146.0089  140.8364  153.8354 H   0  0  0  0  0  0  0  0  0  0  0  0
  146.3283  142.5274  153.5535 H   0  0  0  0  0  0  0  0  0  0  0  0
  148.7048  142.2830  153.9362 H   0  0  0  0  0  0  0  0  0  0  0  0
  148.2369  141.1260  152.7217 H   0  0  0  0  0  0  0  0  0  0  0  0
  1  2  1  0  0  0  0
  1 27  1  0  0  0  0
  1 28  1  0  0  0  0
  1 29  1  0  0  0  0
  2  3  1  0  0  0  0
  2  7  1  0  0  0  0
  2 30  1  0  0  0  0
  3  4  1  0  0  0  0
  3 31  1  0  0  0  0
  3 32  1  0  0  0  0
  4  5  1  0  0  0  0
  4  6  2  0  0  0  0
  5 33  1  0  0  0  0
  5 34  1  0  0  0  0
  5 35  1  0  0  0  0
  7  8  1  0  0  0  0
  7  9  1  0  0  0  0
  8 36  1  0  0  0  0
  8 37  1  0  0  0  0
  8 38  1  0  0  0  0
  9 14  1  0  0  0  0
  9 10  2  0  0  0  0
 10 11  1  0  0  0  0
 11 12  2  0  0  0  0
 11 39  1  0  0  0  0
 12 13  1  0  0  0  0
 13 17  1  0  0  0  0
 13 14  2  0  0  0  0
 14 15  1  0  0  0  0
 15 16  2  0  0  0  0
 16 17  1  0  0  0  0
 16 40  1  0  0  0  0
 17 18  1  0  0  0  0
 18 19  1  0  0  0  0
 18 41  1  0  0  0  0
 18 42  1  0  0  0  0
 19 26  1  0  0  0  0
 19 20  1  0  0  0  0
 19 22  1  0  0  0  0
 20 21  1  0  0  0  0
 20 43  1  0  0  0  0
 20 44  1  0  0  0  0
 21 45  1  0  0  0  0
 22 23  1  0  0  0  0
 22 46  1  0  0  0  0
 22 47  1  0  0  0  0
 23 24  1  0  0  0  0
 23 48  1  0  0  0  0
 23 49  1  0  0  0  0
 24 25  1  0  0  0  0
 25 26  1  0  0  0  0
 25 50  1  0  0  0  0
 25 51  1  0  0  0  0
 26 52  1  0  0  0  0
 26 53  1  0  0  0  0
M  END
> <s_m_source_file>
AV-unprocessed.smi

> <i_m_source_file_index>
194

> <i_lp_mmshare_version>
43012

> <i_f3d_flags>
0

> <s_epik_input>
W0NIM11bU0BAXSg9TylbQ0gyXVtDQEBIXShbQ0gzXSlOKFtDSDNdKWMobltjSF1uMSljKGMxMiluW2NIXW4yW0NIMl1DMyhbQ0gyXVtPSF0pW0NIMl1bQ0gyXU9bQ0gyXVtDSDJdMw==

> <s_epik_cmdline>
J2VwaWtfcHl0aG9uJywgJy1waCcsICc3LjAnLCAnLXRuJywgJzgnLCAnLW1hJywgJzIwMCcsICctbWV0YWxfYmluZGluZycsICctaW1hZScsICc8aW5maWxlLm1hZT4nLCAnLW9tYWUnLCAnPG91dGZpbGUubWFlPic=

> <r_lp_tautomer_probability>
1

> <r_epik_Ionization_Penalty>
0.00101625

> <r_epik_Ionization_Penalty_Charging>
0

> <r_epik_Ionization_Penalty_Neutral>
0.00101625

> <r_epik_State_Penalty>
0.000568005

> <r_epik_Charging_Adjusted_Penalty>
0.000568005

> <i_epik_Tot_Q>
0

> <i_epik_Tot_abs_Q>
0

> <r_epik_Metal_State_Penalty>
-0

> <b_epik_Metal_Only>
0

> <s_lp_Force_Field>
OPLS_2005

> <r_lp_Energy>
28.4609

> <b_lp_Chiralities_Consistent>
1

> <s_lp_Variant>
AV-unprocessed.smi:194-1

> <Gold.Version>
5.8.1

> <Gold.Id.Protein>
6NUR|6NUR_protein|mol2

> <Gold.PLP.Fitness>
47.6466

> <Gold.PLP.PLP>
-41.7308

> <Gold.PLP.part.hbond>
-3.5941

> <Gold.PLP.part.metal>
0.0000

> <Gold.PLP.part.buried>
-1.5006

> <Gold.PLP.part.nonpolar>
-35.3740

> <Gold.PLP.part.repulsive>
1.6029

> <Gold.PLP.ligand.clash>
0.0000

> <Gold.PLP.ligand.torsion>
2.3414

> <Gold.PLP.Chemscore.Hbond>
3.0000

> <Gold.PLP.Chemscore.CHOScore>
0.3374

> <Gold.PLP.Chemscore.Metal>
0.0000

> <Gold.Chemscore.Hbonds>
donor molecule, donor type, donor heavy atom, donor atom, acceptor molecule, acceptor atom, score
      L1  H    21    45       P1  7948  1.00
      P1  H  7997  8009       L1     6  1.00
      P1  H  7997  8010       L1    15  0.70
      L1  C    11    39       P1  8028  0.44

> <Gold.PLP.Chemscore.Internal.Correction>
0.5862

> <Gold.Rescore>
     Score         DG    S(hbond)    S(metal)    S(lipo)     H(rot)  DE(clash)    DE(int)     intcor
      5.99     -13.64       2.07        0.00      76.96       3.03       2.61       5.03       ----

> <Gold.Chemscore.Fitness>
5.9932

> <Gold.Chemscore.DG>
-13.6402

> <Gold.Chemscore.ZeroCoef>
-5.4800

> <Gold.Chemscore.Hbond>
2.0694

> <Gold.Chemscore.Metal>
0.0000

> <Gold.Chemscore.Lipo>
76.9578

> <Gold.Chemscore.Internal_Hbond>
0.0000

> <Gold.Chemscore.DEClash>
2.6137

> <Gold.Chemscore.DEInternal>
5.0333

> <Gold.Chemscore.Rot>
3.0295

> <Gold.Chemscore.Internal.Correction>
   9.000000E+99

> <Gold.Chemscore.Hbonds>
donor molecule, donor type, donor heavy atom, donor atom, acceptor molecule, acceptor atom, score
      L1  H    21    45       P1  7948  0.99
      P1  H  7997  8009       L1     6  1.00
      P1  H  7997  8010       L1    15  0.02

> <Gold.Chemscore.Hbond.Weighted>
-6.9117

> <Gold.Chemscore.Metal.Weighted>
-0.0000

> <Gold.Chemscore.Lipo.Weighted>
-9.0041

> <Gold.Chemscore.Internal_Hbond.Weighted>
0.0000

> <Gold.Chemscore.DEClash.Weighted>
2.6137

> <Gold.Chemscore.DEInternal.Weighted>
5.0333

> <Gold.Chemscore.Rot.Weighted>
7.7555

> <Gold.Chemscore.Internal.Correction.Weighted>
   9.000000E+99

> <Gold.Protein.RotatedTorsions>
[ 6907 6896 6895 6894 ] final  150.30 input  -60.11 | X-H torsion
[ 7974 7965 7964 7962 ] final  111.11 input  175.53 | X-H torsion
[ 8008 7997 7996 7995 ] final   75.74 input   59.86 | X-H torsion
[ 10167 10162 10161 10158 ] final  -71.84 input  -65.29 | X-H torsion
[ 10718 10713 10712 10709 ] final -113.96 input   66.30 | X-H torsion
[ 10763 10752 10751 10750 ] final -143.16 input  -60.55 | X-H torsion
[ 11005 11000 10999 10996 ] final   17.40 input  -57.11 | X-H torsion

> <Gold.Protein.ActiveResidues>
 VAL166  LYS551  ARG553  GLY616  TRP617  ASP618  TYR619  PRO620  LYS621  CYS622 
 ASP623  PHE694  ASN695  SER759  ASP760  ASP761  ALA762  ILE779  LEU786  VAL792 
 PHE793  MET794  SER795  GLU796  ALA797  LYS798  CYS799  TRP800  GLU811  SER814 

> <Gold.Protein.RotatedAtoms>
  152.1163  133.4328  159.4654 H   0  0  0  0  0  0  0  0  0  0  0  0  # atno 6907 bound_to 6896
  150.6869  134.2588  159.4550 H   0  0  0  0  0  0  0  0  0  0  0  0  # atno 6908 bound_to 6896
  152.0461  134.9682  160.0625 H   0  0  0  0  0  0  0  0  0  0  0  0  # atno 6909 bound_to 6896
  145.2463  139.2758  143.4091 H   0  0  0  0  0  0  0  0  0  0  0  0  # atno 7974 bound_to 7965
  155.8172  140.3471  155.5492 H   0  0  0  0  0  0  0  0  0  0  0  0  # atno 8008 bound_to 7997
  155.8379  140.0937  157.1772 H   0  0  0  0  0  0  0  0  0  0  0  0  # atno 8009 bound_to 7997
  154.4004  140.1400  156.3681 H   0  0  0  0  0  0  0  0  0  0  0  0  # atno 8010 bound_to 7997
  140.5241  143.2328  151.7379 H   0  0  0  0  0  0  0  0  0  0  0  0  # atno 10167 bound_to 10162
  156.0799  130.6001  150.8711 H   0  0  0  0  0  0  0  0  0  0  0  0  # atno 10718 bound_to 10713
  154.8481  135.3476  154.6143 H   0  0  0  0  0  0  0  0  0  0  0  0  # atno 10763 bound_to 10752
  153.6751  135.6983  153.5139 H   0  0  0  0  0  0  0  0  0  0  0  0  # atno 10764 bound_to 10752
  153.2712  135.4292  155.0945 H   0  0  0  0  0  0  0  0  0  0  0  0  # atno 10765 bound_to 10752
  140.4364  134.1367  155.7685 H   0  0  0  0  0  0  0  0  0  0  0  0  # atno 11005 bound_to 11000
  146.3315  140.2841  142.8612 LP  0  0  0  0  0  0  0  0  0  0  0  0  # atno 17320 bound_to 7965
  144.9543  140.8210  143.5553 LP  0  0  0  0  0  0  0  0  0  0  0  0  # atno 17321 bound_to 7965
  139.4932  144.4212  151.9975 LP  0  0  0  0  0  0  0  0  0  0  0  0  # atno 17342 bound_to 10162
  140.3310  144.3316  150.5987 LP  0  0  0  0  0  0  0  0  0  0  0  0  # atno 17343 bound_to 10162
  157.5911  131.0944  150.9116 LP  0  0  0  0  0  0  0  0  0  0  0  0  # atno 17370 bound_to 10713
  156.9292  130.5343  149.5279 LP  0  0  0  0  0  0  0  0  0  0  0  0  # atno 17371 bound_to 10713
  141.1724  133.8582  157.1529 LP  0  0  0  0  0  0  0  0  0  0  0  0  # atno 17394 bound_to 11000
  140.0099  134.9992  157.0373 LP  0  0  0  0  0  0  0  0  0  0  0  0  # atno 17395 bound_to 11000

$$$$
