AV-unprocessed.smi:2242|AV-procd|sdf|9060|dock4
  -GOLD-   2272012263D 1   1.00000     0.00000
 Structure written by MMmdl.
 43 44  0  0  0  0  0  0  0  0  1 V2000
  145.4230  132.2174  150.0747 C   0  0  0  0  0  0  0  0  0  0  0  0
  144.9595  133.3154  151.0084 C   0  0  0  0  0  0  0  0  0  0  0  0
  143.6347  133.3500  151.4841 C   0  0  0  0  0  0  0  0  0  0  0  0
  143.2665  134.3996  152.3486 C   0  0  0  0  0  0  0  0  0  0  0  0
  141.8597  134.4993  152.8997 C   0  0  0  0  0  0  0  0  0  0  0  0
  144.1226  135.3684  152.7378 N   0  0  0  0  0  0  0  0  0  0  0  0
  145.4006  135.3455  152.2850 C   0  0  0  0  0  0  0  0  0  0  0  0
  146.3767  136.3170  152.6309 N   0  0  0  0  0  0  0  0  0  0  0  0
  146.2364  137.3893  153.4299 C   0  0  0  0  0  0  0  0  0  0  0  0
  145.2013  137.7103  154.0146 O   0  0  0  0  0  0  0  0  0  0  0  0
  147.3852  138.0769  153.5178 N   0  0  0  0  0  0  0  0  0  0  0  0
  147.6034  139.2938  154.3009 C   0  0  2  0  0  0  0  0  0  0  0  0
  147.3771  140.5015  153.3753 C   0  0  0  0  0  0  0  0  0  0  0  0
  149.0113  139.2730  154.9538 C   0  0  0  0  0  0  0  0  0  0  0  0
  149.5123  140.6852  155.3263 C   0  0  0  0  0  0  0  0  0  0  0  0
  150.9373  140.6414  155.9001 C   0  0  0  0  0  0  0  0  0  0  0  0
  151.8188  140.0285  154.9677 O   0  0  0  0  0  0  0  0  0  0  0  0
  151.4703  138.6778  154.6926 C   0  0  0  0  0  0  0  0  0  0  0  0
  150.0740  138.6122  154.0524 C   0  0  0  0  0  0  0  0  0  0  0  0
  145.8523  134.3266  151.4167 C   0  0  0  0  0  0  0  0  0  0  0  0
  144.6169  131.5168  149.8544 H   0  0  0  0  0  0  0  0  0  0  0  0
  146.2456  131.6613  150.5248 H   0  0  0  0  0  0  0  0  0  0  0  0
  145.7704  132.6446  149.1337 H   0  0  0  0  0  0  0  0  0  0  0  0
  142.9202  132.5932  151.1942 H   0  0  0  0  0  0  0  0  0  0  0  0
  141.2322  133.6857  152.5346 H   0  0  0  0  0  0  0  0  0  0  0  0
  141.4018  135.4424  152.6007 H   0  0  0  0  0  0  0  0  0  0  0  0
  141.8753  134.4548  153.9891 H   0  0  0  0  0  0  0  0  0  0  0  0
  147.2880  136.1809  152.2191 H   0  0  0  0  0  0  0  0  0  0  0  0
  148.1793  137.7296  153.0003 H   0  0  0  0  0  0  0  0  0  0  0  0
  146.8633  139.3553  155.1005 H   0  0  0  0  0  0  0  0  0  0  0  0
  147.3906  141.4410  153.9268 H   0  0  0  0  0  0  0  0  0  0  0  0
  146.4058  140.4392  152.8831 H   0  0  0  0  0  0  0  0  0  0  0  0
  148.1398  140.5562  152.5979 H   0  0  0  0  0  0  0  0  0  0  0  0
  148.9471  138.6916  155.8751 H   0  0  0  0  0  0  0  0  0  0  0  0
  149.4968  141.3258  154.4434 H   0  0  0  0  0  0  0  0  0  0  0  0
  148.8531  141.1508  156.0590 H   0  0  0  0  0  0  0  0  0  0  0  0
  151.2894  141.6529  156.1036 H   0  0  0  0  0  0  0  0  0  0  0  0
  150.9581  140.1012  156.8478 H   0  0  0  0  0  0  0  0  0  0  0  0
  152.2122  138.2552  154.0150 H   0  0  0  0  0  0  0  0  0  0  0  0
  151.5057  138.0876  155.6097 H   0  0  0  0  0  0  0  0  0  0  0  0
  149.8261  137.5686  153.8624 H   0  0  0  0  0  0  0  0  0  0  0  0
  150.0979  139.1105  153.0822 H   0  0  0  0  0  0  0  0  0  0  0  0
  146.8734  134.3188  151.0633 H   0  0  0  0  0  0  0  0  0  0  0  0
  1  2  1  0  0  0  0
  1 21  1  0  0  0  0
  1 22  1  0  0  0  0
  1 23  1  0  0  0  0
  2 20  1  0  0  0  0
  2  3  2  0  0  0  0
  3  4  1  0  0  0  0
  3 24  1  0  0  0  0
  4  5  1  0  0  0  0
  4  6  2  0  0  0  0
  5 25  1  0  0  0  0
  5 26  1  0  0  0  0
  5 27  1  0  0  0  0
  6  7  1  0  0  0  0
  7  8  1  0  0  0  0
  7 20  2  0  0  0  0
  8  9  1  0  0  0  0
  8 28  1  0  0  0  0
  9 10  2  0  0  0  0
  9 11  1  0  0  0  0
 11 12  1  0  0  0  0
 11 29  1  0  0  0  0
 12 13  1  0  0  0  0
 12 14  1  0  0  0  0
 12 30  1  0  0  0  0
 13 31  1  0  0  0  0
 13 32  1  0  0  0  0
 13 33  1  0  0  0  0
 14 19  1  0  0  0  0
 14 15  1  0  0  0  0
 14 34  1  0  0  0  0
 15 16  1  0  0  0  0
 15 35  1  0  0  0  0
 15 36  1  0  0  0  0
 16 17  1  0  0  0  0
 16 37  1  0  0  0  0
 16 38  1  0  0  0  0
 17 18  1  0  0  0  0
 18 19  1  0  0  0  0
 18 39  1  0  0  0  0
 18 40  1  0  0  0  0
 19 41  1  0  0  0  0
 19 42  1  0  0  0  0
 20 43  1  0  0  0  0
M  END
> <s_m_source_file>
AV-unprocessed.smi

> <i_m_source_file_index>
2242

> <i_lp_mmshare_version>
43012

> <i_f3d_flags>
0

> <s_epik_input>
W0NIM11jMVtjSF1jKFtDSDNdKW5jKFtjSF0xKVtOSF1DKD1PKVtOSF1bQ0BIXShbQ0gzXSlbQ0hdMltDSDJdW0NIMl1PW0NIMl1bQ0gyXTI=

> <s_epik_cmdline>
J2VwaWtfcHl0aG9uJywgJy1waCcsICc3LjAnLCAnLXRuJywgJzgnLCAnLW1hJywgJzIwMCcsICctbWV0YWxfYmluZGluZycsICctaW1hZScsICc8aW5maWxlLm1hZT4nLCAnLW9tYWUnLCAnPG91dGZpbGUubWFlPic=

> <r_lp_tautomer_probability>
1

> <r_epik_Ionization_Penalty>
0.000270135

> <r_epik_Ionization_Penalty_Charging>
0

> <r_epik_Ionization_Penalty_Neutral>
0.000270135

> <r_epik_State_Penalty>
-0

> <r_epik_Charging_Adjusted_Penalty>
0

> <i_epik_Tot_Q>
0

> <i_epik_Tot_abs_Q>
0

> <r_epik_Metal_State_Penalty>
-0

> <b_epik_Metal_Only>
0

> <s_lp_Force_Field>
OPLS_2005

> <r_lp_Energy>
14.1079

> <b_lp_Chiralities_Consistent>
1

> <s_lp_Variant>
AV-unprocessed.smi:2242-1

> <Gold.Version>
5.8.1

> <Gold.Id.Protein>
6NUR|6NUR_protein|mol2

> <Gold.PLP.Fitness>
42.8367

> <Gold.PLP.PLP>
-35.7788

> <Gold.PLP.part.hbond>
-3.0000

> <Gold.PLP.part.metal>
0.0000

> <Gold.PLP.part.buried>
-6.5682

> <Gold.PLP.part.nonpolar>
-28.0752

> <Gold.PLP.part.repulsive>
0.2904

> <Gold.PLP.ligand.clash>
0.0000

> <Gold.PLP.ligand.torsion>
0.8361

> <Gold.PLP.Chemscore.Hbond>
2.9040

> <Gold.PLP.Chemscore.CHOScore>
0.0000

> <Gold.PLP.Chemscore.Metal>
0.0000

> <Gold.Chemscore.Hbonds>
donor molecule, donor type, donor heavy atom, donor atom, acceptor molecule, acceptor atom, score
      L1  H     8    28       P1  7948  1.00
      L1  H    11    29       P1  7948  0.96
      P1  H  7989  7998       L1    17  0.94

> <Gold.PLP.Chemscore.Internal.Correction>
0.0181

> <Gold.Rescore>
     Score         DG    S(hbond)    S(metal)    S(lipo)     H(rot)  DE(clash)    DE(int)     intcor
     19.78     -21.94       2.74        0.00      88.50       1.19       0.10       2.06       ----

> <Gold.Chemscore.Fitness>
19.7848

> <Gold.Chemscore.DG>
-21.9418

> <Gold.Chemscore.ZeroCoef>
-5.4800

> <Gold.Chemscore.Hbond>
2.7414

> <Gold.Chemscore.Metal>
0.0000

> <Gold.Chemscore.Lipo>
88.4976

> <Gold.Chemscore.Internal_Hbond>
0.0000

> <Gold.Chemscore.DEClash>
0.0979

> <Gold.Chemscore.DEInternal>
2.0591

> <Gold.Chemscore.Rot>
1.1909

> <Gold.Chemscore.Internal.Correction>
   9.000000E+99

> <Gold.Chemscore.Hbonds>
donor molecule, donor type, donor heavy atom, donor atom, acceptor molecule, acceptor atom, score
      L1  H     8    28       P1  7948  1.00
      L1  H    11    29       P1  7948  0.87
      P1  H  7989  7998       L1    17  0.30

> <Gold.Chemscore.Hbond.Weighted>
-9.1563

> <Gold.Chemscore.Metal.Weighted>
-0.0000

> <Gold.Chemscore.Lipo.Weighted>
-10.3542

> <Gold.Chemscore.Internal_Hbond.Weighted>
0.0000

> <Gold.Chemscore.DEClash.Weighted>
0.0979

> <Gold.Chemscore.DEInternal.Weighted>
2.0591

> <Gold.Chemscore.Rot.Weighted>
3.0487

> <Gold.Chemscore.Internal.Correction.Weighted>
   9.000000E+99

> <Gold.Protein.RotatedTorsions>
[ 6907 6896 6895 6894 ] final  -55.48 input  -60.11 | X-H torsion
[ 7974 7965 7964 7962 ] final -107.15 input  175.53 | X-H torsion
[ 8008 7997 7996 7995 ] final  121.05 input   59.86 | X-H torsion
[ 10167 10162 10161 10158 ] final  -89.93 input  -65.29 | X-H torsion
[ 10718 10713 10712 10709 ] final   63.24 input   66.30 | X-H torsion
[ 10763 10752 10751 10750 ] final -104.68 input  -60.55 | X-H torsion
[ 11005 11000 10999 10996 ] final -109.92 input  -57.11 | X-H torsion

> <Gold.Protein.ActiveResidues>
 VAL166  LYS551  ARG553  GLY616  TRP617  ASP618  TYR619  PRO620  LYS621  CYS622 
 ASP623  PHE694  ASN695  SER759  ASP760  ASP761  ALA762  ILE779  LEU786  VAL792 
 PHE793  MET794  SER795  GLU796  ALA797  LYS798  CYS799  TRP800  GLU811  SER814 

> <Gold.Protein.RotatedAtoms>
  150.8248  134.7474  159.6803 H   0  0  0  0  0  0  0  0  0  0  0  0  # atno 6907 bound_to 6896
  152.4360  134.5682  159.9923 H   0  0  0  0  0  0  0  0  0  0  0  0  # atno 6908 bound_to 6896
  151.5857  133.3335  159.3053 H   0  0  0  0  0  0  0  0  0  0  0  0  # atno 6909 bound_to 6896
  145.2089  140.9088  143.3326 H   0  0  0  0  0  0  0  0  0  0  0  0  # atno 7974 bound_to 7965
  156.2669  140.2817  156.1246 H   0  0  0  0  0  0  0  0  0  0  0  0  # atno 8008 bound_to 7997
  155.1119  140.0391  157.2744 H   0  0  0  0  0  0  0  0  0  0  0  0  # atno 8009 bound_to 7997
  154.6736  140.2593  155.6987 H   0  0  0  0  0  0  0  0  0  0  0  0  # atno 8010 bound_to 7997
  140.3600  143.2847  151.9626 H   0  0  0  0  0  0  0  0  0  0  0  0  # atno 10167 bound_to 10162
  157.5958  130.9094  149.9691 H   0  0  0  0  0  0  0  0  0  0  0  0  # atno 10718 bound_to 10713
  154.7895  135.4777  154.0021 H   0  0  0  0  0  0  0  0  0  0  0  0  # atno 10763 bound_to 10752
  153.1610  135.6808  153.8750 H   0  0  0  0  0  0  0  0  0  0  0  0  # atno 10764 bound_to 10752
  153.8364  135.3185  155.3401 H   0  0  0  0  0  0  0  0  0  0  0  0  # atno 10765 bound_to 10752
  141.0821  133.9203  157.2267 H   0  0  0  0  0  0  0  0  0  0  0  0  # atno 11005 bound_to 11000
  144.9875  139.3722  143.6231 LP  0  0  0  0  0  0  0  0  0  0  0  0  # atno 17320 bound_to 7965
  146.3402  139.9044  142.8789 LP  0  0  0  0  0  0  0  0  0  0  0  0  # atno 17321 bound_to 7965
  139.4815  144.6001  151.7620 LP  0  0  0  0  0  0  0  0  0  0  0  0  # atno 17342 bound_to 10162
  140.5137  144.0986  150.6002 LP  0  0  0  0  0  0  0  0  0  0  0  0  # atno 17343 bound_to 10162
  156.1020  130.3655  150.0201 LP  0  0  0  0  0  0  0  0  0  0  0  0  # atno 17370 bound_to 10713
  156.8315  130.9394  151.3637 LP  0  0  0  0  0  0  0  0  0  0  0  0  # atno 17371 bound_to 10713
  139.9635  135.0148  156.9325 LP  0  0  0  0  0  0  0  0  0  0  0  0  # atno 17394 bound_to 11000
  140.5446  134.0686  155.7351 LP  0  0  0  0  0  0  0  0  0  0  0  0  # atno 17395 bound_to 11000

$$$$
