AV-unprocessed.smi:3191|AV-procd|sdf|12197|dock5
  -GOLD-   2272018 33D 1   1.00000     0.00000
 Structure written by MMmdl.
 36 37  0  0  0  0  0  0  0  0  2 V2000
  146.5835  141.9018  153.8172 C   0  0  0  0  0  0  0  0  0  0  0  0
  147.4380  140.7251  153.6424 N   0  0  0  0  0  0  0  0  0  0  0  0
  147.0027  139.6129  153.0373 C   0  0  0  0  0  0  0  0  0  0  0  0
  148.0186  138.7474  153.0429 N   0  3  0  0  0  0  0  0  0  0  0  0
  149.1077  139.3069  153.6523 C   0  0  0  0  0  0  0  0  0  0  0  0
  148.7472  140.5757  154.0402 C   0  0  0  0  0  0  0  0  0  0  0  0
  149.5053  141.6596  154.7437 C   0  0  0  0  0  0  0  0  0  0  0  0
  149.4883  141.5075  156.2756 C   0  0  0  0  0  0  0  0  0  0  0  0
  149.9858  142.7073  156.9384 N   0  0  0  0  0  0  0  0  0  0  0  0
  151.0371  142.7484  157.7715 C   0  0  0  0  0  0  0  0  0  0  0  0
  151.6976  141.7491  158.0580 O   0  0  0  0  0  0  0  0  0  0  0  0
  151.3313  144.1182  158.3009 C   0  0  2  0  0  0  0  0  0  0  0  0
  152.6849  144.7233  157.9895 C   0  0  0  0  0  0  0  0  0  0  0  0
  152.3622  144.3172  159.4103 C   0  0  0  0  0  0  0  0  0  0  0  0
  152.0867  145.3881  160.4512 C   0  0  0  0  0  0  0  0  0  0  0  0
  153.1261  143.1641  160.0497 C   0  0  0  0  0  0  0  0  0  0  0  0
  150.4836  144.8021  158.3152 H   0  0  0  0  0  0  0  0  0  0  0  0
  145.5809  141.7006  153.4372 H   0  0  0  0  0  0  0  0  0  0  0  0
  147.0156  142.7405  153.2708 H   0  0  0  0  0  0  0  0  0  0  0  0
  146.5247  142.1476  154.8777 H   0  0  0  0  0  0  0  0  0  0  0  0
  146.0240  139.4452  152.6240 H   0  0  0  0  0  0  0  0  0  0  0  0
  150.0403  138.7725  153.7617 H   0  0  0  0  0  0  0  0  0  0  0  0
  150.5328  141.6535  154.3782 H   0  0  0  0  0  0  0  0  0  0  0  0
  149.0771  142.6227  154.4631 H   0  0  0  0  0  0  0  0  0  0  0  0
  148.4702  141.3303  156.6233 H   0  0  0  0  0  0  0  0  0  0  0  0
  150.0801  140.6439  156.5842 H   0  0  0  0  0  0  0  0  0  0  0  0
  149.4940  143.5700  156.7535 H   0  0  0  0  0  0  0  0  0  0  0  0
  153.4119  144.1234  157.4449 H   0  0  0  0  0  0  0  0  0  0  0  0
  152.7046  145.7847  157.7509 H   0  0  0  0  0  0  0  0  0  0  0  0
  153.0220  145.7755  160.8563 H   0  0  0  0  0  0  0  0  0  0  0  0
  151.4947  144.9778  161.2698 H   0  0  0  0  0  0  0  0  0  0  0  0
  151.5354  146.2210  160.0140 H   0  0  0  0  0  0  0  0  0  0  0  0
  153.9609  143.5419  160.6407 H   0  0  0  0  0  0  0  0  0  0  0  0
  153.5395  142.4902  159.3005 H   0  0  0  0  0  0  0  0  0  0  0  0
  152.4685  142.5940  160.7063 H   0  0  0  0  0  0  0  0  0  0  0  0
  147.9851  137.8145  152.6509 H   0  0  0  0  0  0  0  0  0  0  0  0
  1  2  1  0  0  0  0
  1 18  1  0  0  0  0
  1 19  1  0  0  0  0
  1 20  1  0  0  0  0
  2  6  1  0  0  0  0
  2  3  1  0  0  0  0
  3  4  2  0  0  0  0
  3 21  1  0  0  0  0
  4  5  1  0  0  0  0
  4 36  1  0  0  0  0
  5  6  2  0  0  0  0
  5 22  1  0  0  0  0
  6  7  1  0  0  0  0
  7  8  1  0  0  0  0
  7 23  1  0  0  0  0
  7 24  1  0  0  0  0
  8  9  1  0  0  0  0
  8 25  1  0  0  0  0
  8 26  1  0  0  0  0
  9 10  1  0  0  0  0
  9 27  1  0  0  0  0
 10 11  2  0  0  0  0
 10 12  1  0  0  0  0
 12 17  1  0  0  0  0
 12 14  1  0  0  0  0
 12 13  1  0  0  0  0
 13 14  1  0  0  0  0
 13 28  1  0  0  0  0
 13 29  1  0  0  0  0
 14 15  1  0  0  0  0
 14 16  1  0  0  0  0
 15 30  1  0  0  0  0
 15 31  1  0  0  0  0
 15 32  1  0  0  0  0
 16 33  1  0  0  0  0
 16 34  1  0  0  0  0
 16 35  1  0  0  0  0
M  CHG  1   4   1
M  END
> <s_m_source_file>
AV-unprocessed.smi

> <i_m_source_file_index>
3191

> <i_lp_mmshare_version>
43012

> <i_f3d_flags>
0

> <s_epik_input>
W0NIM11uMVtjSF1uW2NIXWMxW0NIMl1bQ0gyXVtOSF1DKD1PKVtDQEBIXShbQ0gyXTIpQzIoW0NIM10pW0NIM10=

> <s_epik_cmdline>
J2VwaWtfcHl0aG9uJywgJy1waCcsICc3LjAnLCAnLXRuJywgJzgnLCAnLW1hJywgJzIwMCcsICctbWV0YWxfYmluZGluZycsICctaW1hZScsICc8aW5maWxlLm1hZT4nLCAnLW9tYWUnLCAnPG91dGZpbGUubWFlPic=

> <r_lp_tautomer_probability>
1

> <r_epik_Ionization_Penalty>
0.153817

> <r_epik_Ionization_Penalty_Charging>
0

> <r_epik_Ionization_Penalty_Neutral>
0.153817

> <r_epik_State_Penalty>
0.14311

> <r_epik_Charging_Adjusted_Penalty>
0.14311

> <i_epik_Tot_Q>
1

> <i_epik_Tot_abs_Q>
1

> <r_epik_Metal_State_Penalty>
0.464688

> <b_epik_Metal_Only>
0

> <s_lp_Force_Field>
OPLS_2005

> <r_lp_Energy>
13.3662

> <b_lp_Chiralities_Consistent>
1

> <s_lp_Variant>
AV-unprocessed.smi:3191-2

> <Gold.Version>
5.8.1

> <Gold.Id.Protein>
6NUR|6NUR_protein|mol2

> <Gold.PLP.Fitness>
51.8666

> <Gold.PLP.PLP>
-41.0397

> <Gold.PLP.part.hbond>
-3.0000

> <Gold.PLP.part.metal>
0.0000

> <Gold.PLP.part.buried>
1.1382

> <Gold.PLP.part.nonpolar>
-38.5251

> <Gold.PLP.part.repulsive>
0.0712

> <Gold.PLP.ligand.clash>
0.0000

> <Gold.PLP.ligand.torsion>
0.4580

> <Gold.PLP.Chemscore.Hbond>
2.8880

> <Gold.PLP.Chemscore.CHOScore>
0.9948

> <Gold.PLP.Chemscore.Metal>
0.0000

> <Gold.Chemscore.Hbonds>
donor molecule, donor type, donor heavy atom, donor atom, acceptor molecule, acceptor atom, score
      L1  H     4    36       P1  7948  1.95
      L1  H     9    27       P1  8028  1.00
      L1  C     3    21       P1 10175  0.93

> <Gold.PLP.Chemscore.Internal.Correction>
0.0944

> <Gold.Rescore>
     Score         DG    S(hbond)    S(metal)    S(lipo)     H(rot)  DE(clash)    DE(int)     intcor
     16.62     -19.36       1.91        0.00     102.40       1.76       0.94       1.79       ----

> <Gold.Chemscore.Fitness>
16.6208

> <Gold.Chemscore.DG>
-19.3558

> <Gold.Chemscore.ZeroCoef>
-5.4800

> <Gold.Chemscore.Hbond>
1.9134

> <Gold.Chemscore.Metal>
0.0000

> <Gold.Chemscore.Lipo>
102.3975

> <Gold.Chemscore.Internal_Hbond>
0.0000

> <Gold.Chemscore.DEClash>
0.9420

> <Gold.Chemscore.DEInternal>
1.7930

> <Gold.Chemscore.Rot>
1.7561

> <Gold.Chemscore.Internal.Correction>
   9.000000E+99

> <Gold.Chemscore.Hbonds>
donor molecule, donor type, donor heavy atom, donor atom, acceptor molecule, acceptor atom, score
      L1  H     4    36       P1  7948  0.90
      L1  H     9    27       P1  8028  0.94

> <Gold.Chemscore.Hbond.Weighted>
-6.3909

> <Gold.Chemscore.Metal.Weighted>
-0.0000

> <Gold.Chemscore.Lipo.Weighted>
-11.9805

> <Gold.Chemscore.Internal_Hbond.Weighted>
0.0000

> <Gold.Chemscore.DEClash.Weighted>
0.9420

> <Gold.Chemscore.DEInternal.Weighted>
1.7930

> <Gold.Chemscore.Rot.Weighted>
4.4956

> <Gold.Chemscore.Internal.Correction.Weighted>
   9.000000E+99

> <Gold.Protein.RotatedTorsions>
[ 6907 6896 6895 6894 ] final -109.68 input  -60.11 | X-H torsion
[ 7974 7965 7964 7962 ] final  152.21 input  175.53 | X-H torsion
[ 8008 7997 7996 7995 ] final  -75.27 input   59.86 | X-H torsion
[ 10167 10162 10161 10158 ] final -136.89 input  -65.29 | X-H torsion
[ 10718 10713 10712 10709 ] final  -85.07 input   66.30 | X-H torsion
[ 10763 10752 10751 10750 ] final   33.40 input  -60.55 | X-H torsion
[ 11005 11000 10999 10996 ] final  124.67 input  -57.11 | X-H torsion

> <Gold.Protein.ActiveResidues>
 VAL166  LYS551  ARG553  GLY616  TRP617  ASP618  TYR619  PRO620  LYS621  CYS622 
 ASP623  PHE694  ASN695  SER759  ASP760  ASP761  ALA762  ILE779  LEU786  VAL792 
 PHE793  MET794  SER795  GLU796  ALA797  LYS798  CYS799  TRP800  GLU811  SER814 

> <Gold.Protein.RotatedAtoms>
  150.7577  133.9494  159.3480 H   0  0  0  0  0  0  0  0  0  0  0  0  # atno 6907 bound_to 6896
  151.7410  135.0852  160.0325 H   0  0  0  0  0  0  0  0  0  0  0  0  # atno 6908 bound_to 6896
  152.3529  133.6164  159.5993 H   0  0  0  0  0  0  0  0  0  0  0  0  # atno 6909 bound_to 6896
  144.8238  139.6638  143.6089 H   0  0  0  0  0  0  0  0  0  0  0  0  # atno 7974 bound_to 7965
  154.5402  140.0747  156.8496 H   0  0  0  0  0  0  0  0  0  0  0  0  # atno 8008 bound_to 7997
  155.3197  140.3395  155.4223 H   0  0  0  0  0  0  0  0  0  0  0  0  # atno 8009 bound_to 7997
  156.1867  140.1671  156.8158 H   0  0  0  0  0  0  0  0  0  0  0  0  # atno 8010 bound_to 7997
  139.8632  143.7050  152.2648 H   0  0  0  0  0  0  0  0  0  0  0  0  # atno 10167 bound_to 10162
  156.0000  130.4719  150.4506 H   0  0  0  0  0  0  0  0  0  0  0  0  # atno 10718 bound_to 10713
  153.0214  135.6388  154.1505 H   0  0  0  0  0  0  0  0  0  0  0  0  # atno 10763 bound_to 10752
  154.1239  135.2845  155.3203 H   0  0  0  0  0  0  0  0  0  0  0  0  # atno 10764 bound_to 10752
  154.6243  135.5514  153.7672 H   0  0  0  0  0  0  0  0  0  0  0  0  # atno 10765 bound_to 10752
  139.9369  134.9639  156.8443 H   0  0  0  0  0  0  0  0  0  0  0  0  # atno 11005 bound_to 11000
  146.2544  139.6269  142.9405 LP  0  0  0  0  0  0  0  0  0  0  0  0  # atno 17320 bound_to 7965
  145.5045  141.0437  143.2522 LP  0  0  0  0  0  0  0  0  0  0  0  0  # atno 17321 bound_to 7965
  139.7354  144.7572  151.0736 LP  0  0  0  0  0  0  0  0  0  0  0  0  # atno 17342 bound_to 10162
  140.7772  143.5037  150.9739 LP  0  0  0  0  0  0  0  0  0  0  0  0  # atno 17343 bound_to 10162
  157.2539  131.0552  151.2362 LP  0  0  0  0  0  0  0  0  0  0  0  0  # atno 17370 bound_to 10713
  157.3501  130.7078  149.6435 LP  0  0  0  0  0  0  0  0  0  0  0  0  # atno 17371 bound_to 10713
  140.6051  134.0135  155.7553 LP  0  0  0  0  0  0  0  0  0  0  0  0  # atno 17394 bound_to 11000
  141.0987  133.9802  157.3116 LP  0  0  0  0  0  0  0  0  0  0  0  0  # atno 17395 bound_to 11000

$$$$
