AV-unprocessed.smi:1901|AV-procd|sdf|7719|dock6
  -GOLD-   22720 9463D 1   1.00000     0.00000
 Structure written by MMmdl.
 27 28  0  0  0  0  0  0  0  0  2 V2000
  151.0028  140.7548  155.4541 O   0  0  0  0  0  0  0  0  0  0  0  0
  150.2223  141.7083  155.5078 C   0  0  0  0  0  0  0  0  0  0  0  0
  150.2749  142.5542  156.5452 N   0  0  0  0  0  0  0  0  0  0  0  0
  151.2031  142.4514  157.6644 C   0  0  0  0  0  0  0  0  0  0  0  0
  151.1104  143.6865  158.5753 C   0  0  1  0  0  0  0  0  0  0  0  0
  151.7632  143.5007  159.9292 C   0  0  0  0  0  0  0  0  0  0  0  0
  151.9364  144.9433  160.3929 C   0  0  0  0  0  0  0  0  0  0  0  0
  152.1604  145.7043  159.2098 O   0  0  0  0  0  0  0  0  0  0  0  0
  151.8485  144.9234  158.0585 C   0  0  0  0  0  0  0  0  0  0  0  0
  149.2691  142.0174  154.5991 N   0  5  0  0  0  0  0  0  0  0  0  0
  148.5052  141.0467  154.0716 C   0  0  0  0  0  0  0  0  0  0  0  0
  148.8692  139.7593  154.0528 N   0  0  0  0  0  0  0  0  0  0  0  0
  147.9258  138.9242  153.4514 C   0  0  0  0  0  0  0  0  0  0  0  0
  146.8222  139.5928  152.9920 C   0  0  0  0  0  0  0  0  0  0  0  0
  146.9351  141.3013  153.3048 S   0  0  0  0  0  0  0  0  0  0  0  0
  149.6207  143.3228  156.5556 H   0  0  0  0  0  0  0  0  0  0  0  0
  150.9748  141.5526  158.2390 H   0  0  0  0  0  0  0  0  0  0  0  0
  152.2184  142.3375  157.2807 H   0  0  0  0  0  0  0  0  0  0  0  0
  150.0612  143.9440  158.7316 H   0  0  0  0  0  0  0  0  0  0  0  0
  151.1633  142.9031  160.6162 H   0  0  0  0  0  0  0  0  0  0  0  0
  152.7383  143.0230  159.8210 H   0  0  0  0  0  0  0  0  0  0  0  0
  151.0221  145.3014  160.8680 H   0  0  0  0  0  0  0  0  0  0  0  0
  152.7551  145.0584  161.1035 H   0  0  0  0  0  0  0  0  0  0  0  0
  152.7838  144.6423  157.5724 H   0  0  0  0  0  0  0  0  0  0  0  0
  151.2551  145.4925  157.3425 H   0  0  0  0  0  0  0  0  0  0  0  0
  148.1235  137.8644  153.3915 H   0  0  0  0  0  0  0  0  0  0  0  0
  145.9555  139.1883  152.4916 H   0  0  0  0  0  0  0  0  0  0  0  0
  1  2  2  0  0  0  0
  2  3  1  0  0  0  0
  2 10  1  0  0  0  0
  3  4  1  0  0  0  0
  3 16  1  0  0  0  0
  4  5  1  0  0  0  0
  4 17  1  0  0  0  0
  4 18  1  0  0  0  0
  5  9  1  0  0  0  0
  5  6  1  0  0  0  0
  5 19  1  0  0  0  0
  6  7  1  0  0  0  0
  6 20  1  0  0  0  0
  6 21  1  0  0  0  0
  7  8  1  0  0  0  0
  7 22  1  0  0  0  0
  7 23  1  0  0  0  0
  8  9  1  0  0  0  0
  9 24  1  0  0  0  0
  9 25  1  0  0  0  0
 10 11  1  0  0  0  0
 11 15  1  0  0  0  0
 11 12  2  0  0  0  0
 12 13  1  0  0  0  0
 13 14  2  0  0  0  0
 13 26  1  0  0  0  0
 14 15  1  0  0  0  0
 14 27  1  0  0  0  0
M  CHG  1  10  -1
M  END
> <s_m_source_file>
AV-unprocessed.smi

> <i_m_source_file_index>
1901

> <i_lp_mmshare_version>
43012

> <i_f3d_flags>
0

> <s_epik_input>
czFbY0hdW2NIXW5jMVtOSF1DKD1PKVtOSF1bQ0gyXVtDQEBIXTJbQ0gyXVtDSDJdT1tDSDJdMg==

> <s_epik_cmdline>
J2VwaWtfcHl0aG9uJywgJy1waCcsICc3LjAnLCAnLXRuJywgJzgnLCAnLW1hJywgJzIwMCcsICctbWV0YWxfYmluZGluZycsICctaW1hZScsICc8aW5maWxlLm1hZT4nLCAnLW9tYWUnLCAnPG91dGZpbGUubWFlPic=

> <r_lp_tautomer_probability>
0.999

> <r_epik_Ionization_Penalty>
8.4411

> <r_epik_Ionization_Penalty_Charging>
6.72681

> <r_epik_Ionization_Penalty_Neutral>
1.71429

> <r_epik_State_Penalty>
6.72698

> <r_epik_Charging_Adjusted_Penalty>
13.4538

> <i_epik_Tot_Q>
-1

> <i_epik_Tot_abs_Q>
1

> <r_epik_Metal_State_Penalty>
2.64812

> <b_epik_Metal_Only>
1

> <s_lp_Force_Field>
OPLS_2005

> <r_lp_Energy>
14.3262

> <b_lp_Chiralities_Consistent>
1

> <s_lp_Variant>
AV-unprocessed.smi:1901-4

> <Gold.Version>
5.8.1

> <Gold.Id.Protein>
6NUR|6NUR_protein|mol2

> <Gold.PLP.Fitness>
39.5349

> <Gold.PLP.PLP>
-30.1844

> <Gold.PLP.part.hbond>
-3.8527

> <Gold.PLP.part.metal>
0.0000

> <Gold.PLP.part.buried>
-3.0989

> <Gold.PLP.part.nonpolar>
-23.7401

> <Gold.PLP.part.repulsive>
2.3127

> <Gold.PLP.ligand.clash>
0.0000

> <Gold.PLP.ligand.torsion>
0.6120

> <Gold.PLP.Chemscore.Hbond>
1.6861

> <Gold.PLP.Chemscore.CHOScore>
1.8366

> <Gold.PLP.Chemscore.Metal>
0.0000

> <Gold.Chemscore.Hbonds>
donor molecule, donor type, donor heavy atom, donor atom, acceptor molecule, acceptor atom, score
      L1  H     3    16       P1  8028  0.96
      P1  H  7989  7998       L1     1  0.78
      P1  H  8011  8017       L1    10  0.01
      L1  C    13    26       P1  7948  1.00
      L1  C    14    27       P1 10175  0.68

> <Gold.PLP.Chemscore.Internal.Correction>
0.0063

> <Gold.Rescore>
     Score         DG    S(hbond)    S(metal)    S(lipo)     H(rot)  DE(clash)    DE(int)     intcor
     11.68     -15.21       1.27        0.00      75.42       1.30       1.40       2.14       ----

> <Gold.Chemscore.Fitness>
11.6752

> <Gold.Chemscore.DG>
-15.2078

> <Gold.Chemscore.ZeroCoef>
-5.4800

> <Gold.Chemscore.Hbond>
1.2670

> <Gold.Chemscore.Metal>
0.0000

> <Gold.Chemscore.Lipo>
75.4184

> <Gold.Chemscore.Internal_Hbond>
0.0000

> <Gold.Chemscore.DEClash>
1.3952

> <Gold.Chemscore.DEInternal>
2.1374

> <Gold.Chemscore.Rot>
1.3000

> <Gold.Chemscore.Internal.Correction>
   9.000000E+99

> <Gold.Chemscore.Hbonds>
donor molecule, donor type, donor heavy atom, donor atom, acceptor molecule, acceptor atom, score
      L1  H     3    16       P1  8028  0.92
      P1  H  7989  7998       L1     1  0.22

> <Gold.Chemscore.Hbond.Weighted>
-4.2318

> <Gold.Chemscore.Metal.Weighted>
-0.0000

> <Gold.Chemscore.Lipo.Weighted>
-8.8240

> <Gold.Chemscore.Internal_Hbond.Weighted>
0.0000

> <Gold.Chemscore.DEClash.Weighted>
1.3952

> <Gold.Chemscore.DEInternal.Weighted>
2.1374

> <Gold.Chemscore.Rot.Weighted>
3.3280

> <Gold.Chemscore.Internal.Correction.Weighted>
   9.000000E+99

> <Gold.Protein.RotatedTorsions>
[ 6907 6896 6895 6894 ] final -168.67 input  -60.11 | X-H torsion
[ 7974 7965 7964 7962 ] final  124.10 input  175.53 | X-H torsion
[ 8008 7997 7996 7995 ] final   23.56 input   59.86 | X-H torsion
[ 10167 10162 10161 10158 ] final -160.38 input  -65.29 | X-H torsion
[ 10718 10713 10712 10709 ] final   22.62 input   66.30 | X-H torsion
[ 10763 10752 10751 10750 ] final   58.72 input  -60.55 | X-H torsion
[ 11005 11000 10999 10996 ] final   90.07 input  -57.11 | X-H torsion

> <Gold.Protein.ActiveResidues>
 VAL166  LYS551  ARG553  GLY616  TRP617  ASP618  TYR619  PRO620  LYS621  CYS622 
 ASP623  PHE694  ASN695  SER759  ASP760  ASP761  ALA762  ILE779  LEU786  VAL792 
 PHE793  MET794  SER795  GLU796  ALA797  LYS798  CYS799  TRP800  GLU811  SER814 

> <Gold.Protein.RotatedAtoms>
  151.4793  133.3550  159.2835 H   0  0  0  0  0  0  0  0  0  0  0  0  # atno 6907 bound_to 6896
  150.8908  134.8313  159.7303 H   0  0  0  0  0  0  0  0  0  0  0  0  # atno 6908 bound_to 6896
  152.4821  134.4702  159.9685 H   0  0  0  0  0  0  0  0  0  0  0  0  # atno 6909 bound_to 6896
  145.0882  139.3606  143.4874 H   0  0  0  0  0  0  0  0  0  0  0  0  # atno 7974 bound_to 7965
  154.9829  140.3104  155.4939 H   0  0  0  0  0  0  0  0  0  0  0  0  # atno 8008 bound_to 7997
  156.2951  140.2263  156.4868 H   0  0  0  0  0  0  0  0  0  0  0  0  # atno 8009 bound_to 7997
  154.7773  140.0448  157.1088 H   0  0  0  0  0  0  0  0  0  0  0  0  # atno 8010 bound_to 7997
  139.6544  144.0025  152.2184 H   0  0  0  0  0  0  0  0  0  0  0  0  # atno 10167 bound_to 10162
  157.1549  130.6691  149.6024 H   0  0  0  0  0  0  0  0  0  0  0  0  # atno 10718 bound_to 10713
  152.9877  135.5597  154.5598 H   0  0  0  0  0  0  0  0  0  0  0  0  # atno 10763 bound_to 10752
  154.5019  135.2798  155.1415 H   0  0  0  0  0  0  0  0  0  0  0  0  # atno 10764 bound_to 10752
  154.2842  135.6339  153.5412 H   0  0  0  0  0  0  0  0  0  0  0  0  # atno 10765 bound_to 10752
  139.8863  134.8591  156.3232 H   0  0  0  0  0  0  0  0  0  0  0  0  # atno 11005 bound_to 11000
  146.3531  140.0705  142.8623 LP  0  0  0  0  0  0  0  0  0  0  0  0  # atno 17320 bound_to 7965
  145.1097  140.9397  143.4664 LP  0  0  0  0  0  0  0  0  0  0  0  0  # atno 17321 bound_to 7965
  139.9748  144.6469  150.7955 LP  0  0  0  0  0  0  0  0  0  0  0  0  # atno 17342 bound_to 10162
  140.7552  143.3042  151.3003 LP  0  0  0  0  0  0  0  0  0  0  0  0  # atno 17343 bound_to 10162
  155.9764  130.4732  150.6525 LP  0  0  0  0  0  0  0  0  0  0  0  0  # atno 17370 bound_to 10713
  157.4186  131.0833  151.1152 LP  0  0  0  0  0  0  0  0  0  0  0  0  # atno 17371 bound_to 10713
  140.9773  133.7290  156.0620 LP  0  0  0  0  0  0  0  0  0  0  0  0  # atno 17394 bound_to 11000
  140.7795  134.3742  157.5490 LP  0  0  0  0  0  0  0  0  0  0  0  0  # atno 17395 bound_to 11000

$$$$
