AV-unprocessed.smi:1809|AV-procd|sdf|7309|dock3
  -GOLD-   22720 8563D 1   1.00000     0.00000
 Structure written by MMmdl.
 40 42  0  0  0  0  0  0  0  0  2 V2000
  150.6173  141.8228  156.2664 C   0  0  0  0  0  0  0  0  0  0  0  0
  150.6743  140.4744  155.6343 C   0  0  0  0  0  0  0  0  0  0  0  0
  151.7657  140.0137  155.0114 N   0  0  0  0  0  0  0  0  0  0  0  0
  151.5828  138.7339  154.5070 N   0  0  0  0  0  0  0  0  0  0  0  0
  150.3543  138.2653  154.7667 C   0  0  0  0  0  0  0  0  0  0  0  0
  149.8996  136.9808  154.3670 N   0  0  0  0  0  0  0  0  0  0  0  0
  149.9395  135.8310  155.0626 C   0  0  0  0  0  0  0  0  0  0  0  0
  150.4012  135.6985  156.1963 O   0  0  0  0  0  0  0  0  0  0  0  0
  149.4031  134.8196  154.3651 N   0  0  0  0  0  0  0  0  0  0  0  0
  149.3032  133.4429  154.8381 C   0  0  0  0  0  0  0  0  0  0  0  0
  148.7126  132.5060  153.7691 C   0  0  2  0  0  0  0  0  0  0  0  0
  147.7707  133.2600  152.8020 C   0  0  0  0  0  0  0  0  0  0  0  0
  147.1696  132.2753  151.8844 N   0  3  2  0  0  0  0  0  0  0  0  0
  146.2439  132.7595  150.8459 C   0  0  0  0  0  0  0  0  0  0  0  0
  145.3618  131.5411  150.5051 C   0  0  0  0  0  0  0  0  0  0  0  0
  145.7529  130.4465  151.5150 C   0  0  0  0  0  0  0  0  0  0  0  0
  146.4489  131.2340  152.6201 C   0  0  1  0  0  0  0  0  0  0  0  0
  147.4335  130.4931  153.5344 C   0  0  0  0  0  0  0  0  0  0  0  0
  147.9966  131.4550  154.4288 O   0  0  0  0  0  0  0  0  0  0  0  0
  149.3121  139.3608  155.6583 S   0  0  0  0  0  0  0  0  0  0  0  0
  151.2564  142.5231  155.7277 H   0  0  0  0  0  0  0  0  0  0  0  0
  150.9551  141.7626  157.3009 H   0  0  0  0  0  0  0  0  0  0  0  0
  149.5957  142.2028  156.2525 H   0  0  0  0  0  0  0  0  0  0  0  0
  149.4947  136.9337  153.4438 H   0  0  0  0  0  0  0  0  0  0  0  0
  149.0450  135.0117  153.4409 H   0  0  0  0  0  0  0  0  0  0  0  0
  150.2992  133.1039  155.1250 H   0  0  0  0  0  0  0  0  0  0  0  0
  148.6954  133.4160  155.7439 H   0  0  0  0  0  0  0  0  0  0  0  0
  149.5231  132.0623  153.1882 H   0  0  0  0  0  0  0  0  0  0  0  0
  146.9883  133.7848  153.3525 H   0  0  0  0  0  0  0  0  0  0  0  0
  148.3244  134.0050  152.2294 H   0  0  0  0  0  0  0  0  0  0  0  0
  145.6290  133.5698  151.2410 H   0  0  0  0  0  0  0  0  0  0  0  0
  146.7900  133.1369  149.9810 H   0  0  0  0  0  0  0  0  0  0  0  0
  144.3076  131.8025  150.6059 H   0  0  0  0  0  0  0  0  0  0  0  0
  145.5191  131.2014  149.4807 H   0  0  0  0  0  0  0  0  0  0  0  0
  144.8958  129.8777  151.8769 H   0  0  0  0  0  0  0  0  0  0  0  0
  146.4511  129.7471  151.0524 H   0  0  0  0  0  0  0  0  0  0  0  0
  145.6824  131.7094  153.2363 H   0  0  0  0  0  0  0  0  0  0  0  0
  146.9178  129.7251  154.1110 H   0  0  0  0  0  0  0  0  0  0  0  0
  148.2202  129.9990  152.9619 H   0  0  0  0  0  0  0  0  0  0  0  0
  147.9267  131.8126  151.4011 H   0  0  0  0  0  0  0  0  0  0  0  0
  1  2  1  0  0  0  0
  1 21  1  0  0  0  0
  1 22  1  0  0  0  0
  1 23  1  0  0  0  0
  2 20  1  0  0  0  0
  2  3  2  0  0  0  0
  3  4  1  0  0  0  0
  4  5  2  0  0  0  0
  5  6  1  0  0  0  0
  5 20  1  0  0  0  0
  6  7  1  0  0  0  0
  6 24  1  0  0  0  0
  7  8  2  0  0  0  0
  7  9  1  0  0  0  0
  9 10  1  0  0  0  0
  9 25  1  0  0  0  0
 10 11  1  0  0  0  0
 10 26  1  0  0  0  0
 10 27  1  0  0  0  0
 11 19  1  0  0  0  0
 11 12  1  0  0  0  0
 11 28  1  0  0  0  0
 12 13  1  0  0  0  0
 12 29  1  0  0  0  0
 12 30  1  0  0  0  0
 13 17  1  0  0  0  0
 13 14  1  0  0  0  0
 13 40  1  0  0  0  0
 14 15  1  0  0  0  0
 14 31  1  0  0  0  0
 14 32  1  0  0  0  0
 15 16  1  0  0  0  0
 15 33  1  0  0  0  0
 15 34  1  0  0  0  0
 16 17  1  0  0  0  0
 16 35  1  0  0  0  0
 16 36  1  0  0  0  0
 17 18  1  0  0  0  0
 17 37  1  0  0  0  0
 18 19  1  0  0  0  0
 18 38  1  0  0  0  0
 18 39  1  0  0  0  0
M  CHG  1  13   1
M  END
> <s_m_source_file>
AV-unprocessed.smi

> <i_m_source_file_index>
1809

> <i_lp_mmshare_version>
43012

> <i_f3d_flags>
0

> <s_epik_input>
W0NIM11jMW5uYyhzMSlbTkhdQyg9TylbTkhdW0NIMl1bQ0BIXShbQ0gyXTIpT1tDSDJdW0NAQEhdKE4yMylbQ0gyXVtDSDJdW0NIMl0z

> <s_epik_cmdline>
J2VwaWtfcHl0aG9uJywgJy1waCcsICc3LjAnLCAnLXRuJywgJzgnLCAnLW1hJywgJzIwMCcsICctbWV0YWxfYmluZGluZycsICctaW1hZScsICc8aW5maWxlLm1hZT4nLCAnLW9tYWUnLCAnPG91dGZpbGUubWFlPic=

> <r_lp_tautomer_probability>
1

> <r_epik_Ionization_Penalty>
0.112474

> <r_epik_Ionization_Penalty_Charging>
0.108916

> <r_epik_Ionization_Penalty_Neutral>
0.00355844

> <r_epik_State_Penalty>
0.0565397

> <r_epik_Charging_Adjusted_Penalty>
0.165456

> <i_epik_Tot_Q>
1

> <i_epik_Tot_abs_Q>
1

> <r_epik_Metal_State_Penalty>
0.422831

> <b_epik_Metal_Only>
0

> <s_lp_Force_Field>
OPLS_2005

> <r_lp_Energy>
33.7351

> <b_lp_Chiralities_Consistent>
1

> <s_lp_Variant>
AV-unprocessed.smi:1809-1

> <Gold.Version>
5.8.1

> <Gold.Id.Protein>
6NUR|6NUR_protein|mol2

> <Gold.PLP.Fitness>
45.2933

> <Gold.PLP.PLP>
-36.2194

> <Gold.PLP.part.hbond>
-4.5123

> <Gold.PLP.part.metal>
0.0000

> <Gold.PLP.part.buried>
-5.9095

> <Gold.PLP.part.nonpolar>
-27.0949

> <Gold.PLP.part.repulsive>
0.3145

> <Gold.PLP.ligand.clash>
0.1468

> <Gold.PLP.ligand.torsion>
1.1563

> <Gold.PLP.Chemscore.Hbond>
3.8440

> <Gold.PLP.Chemscore.CHOScore>
0.0000

> <Gold.PLP.Chemscore.Metal>
0.0000

> <Gold.Chemscore.Hbonds>
donor molecule, donor type, donor heavy atom, donor atom, acceptor molecule, acceptor atom, score
      L1  H     6    24       P1  7948  1.00
      L1  H     9    25       P1  7948  0.98
      L1  H    13    40       P1 10747  1.00
      P1  H  7989  7998       L1     3  0.86

> <Gold.PLP.Chemscore.Internal.Correction>
0.0014

> <Gold.Rescore>
     Score         DG    S(hbond)    S(metal)    S(lipo)     H(rot)  DE(clash)    DE(int)     intcor
     18.01     -19.29       2.57        0.00      73.97       1.34       0.06       1.23       ----

> <Gold.Chemscore.Fitness>
18.0071

> <Gold.Chemscore.DG>
-19.2925

> <Gold.Chemscore.ZeroCoef>
-5.4800

> <Gold.Chemscore.Hbond>
2.5706

> <Gold.Chemscore.Metal>
0.0000

> <Gold.Chemscore.Lipo>
73.9722

> <Gold.Chemscore.Internal_Hbond>
0.0000

> <Gold.Chemscore.DEClash>
0.0580

> <Gold.Chemscore.DEInternal>
1.2275

> <Gold.Chemscore.Rot>
1.3391

> <Gold.Chemscore.Internal.Correction>
   9.000000E+99

> <Gold.Chemscore.Hbonds>
donor molecule, donor type, donor heavy atom, donor atom, acceptor molecule, acceptor atom, score
      L1  H     6    24       P1  7948  0.85
      L1  H     9    25       P1  7948  0.28
      L1  H    13    40       P1 10747  1.00
      P1  H  7989  7998       L1     3  0.05

> <Gold.Chemscore.Hbond.Weighted>
-8.5859

> <Gold.Chemscore.Metal.Weighted>
-0.0000

> <Gold.Chemscore.Lipo.Weighted>
-8.6547

> <Gold.Chemscore.Internal_Hbond.Weighted>
0.0000

> <Gold.Chemscore.DEClash.Weighted>
0.0580

> <Gold.Chemscore.DEInternal.Weighted>
1.2275

> <Gold.Chemscore.Rot.Weighted>
3.4281

> <Gold.Chemscore.Internal.Correction.Weighted>
   9.000000E+99

> <Gold.Protein.RotatedTorsions>
[ 6907 6896 6895 6894 ] final -134.94 input  -60.11 | X-H torsion
[ 7974 7965 7964 7962 ] final -170.41 input  175.53 | X-H torsion
[ 8008 7997 7996 7995 ] final  -14.00 input   59.86 | X-H torsion
[ 10167 10162 10161 10158 ] final -148.08 input  -65.29 | X-H torsion
[ 10718 10713 10712 10709 ] final   58.13 input   66.30 | X-H torsion
[ 10763 10752 10751 10750 ] final   39.97 input  -60.55 | X-H torsion
[ 11005 11000 10999 10996 ] final  -42.82 input  -57.11 | X-H torsion

> <Gold.Protein.ActiveResidues>
 VAL166  LYS551  ARG553  GLY616  TRP617  ASP618  TYR619  PRO620  LYS621  CYS622 
 ASP623  PHE694  ASN695  SER759  ASP760  ASP761  ALA762  ILE779  LEU786  VAL792 
 PHE793  MET794  SER795  GLU796  ALA797  LYS798  CYS799  TRP800  GLU811  SER814 

> <Gold.Protein.RotatedAtoms>
  150.9918  133.6142  159.2706 H   0  0  0  0  0  0  0  0  0  0  0  0  # atno 6907 bound_to 6896
  151.3360  135.0851  159.9364 H   0  0  0  0  0  0  0  0  0  0  0  0  # atno 6908 bound_to 6896
  152.5248  133.9539  159.7739 H   0  0  0  0  0  0  0  0  0  0  0  0  # atno 6909 bound_to 6896
  144.7170  140.2076  143.6331 H   0  0  0  0  0  0  0  0  0  0  0  0  # atno 7974 bound_to 7965
  154.5246  140.2234  155.8914 H   0  0  0  0  0  0  0  0  0  0  0  0  # atno 8008 bound_to 7997
  156.1699  140.3124  155.8919 H   0  0  0  0  0  0  0  0  0  0  0  0  # atno 8009 bound_to 7997
  155.3580  140.0459  157.3037 H   0  0  0  0  0  0  0  0  0  0  0  0  # atno 8010 bound_to 7997
  139.7564  143.8442  152.2598 H   0  0  0  0  0  0  0  0  0  0  0  0  # atno 10167 bound_to 10162
  157.5571  130.8808  149.9052 H   0  0  0  0  0  0  0  0  0  0  0  0  # atno 10718 bound_to 10713
  152.9950  135.6205  154.2550 H   0  0  0  0  0  0  0  0  0  0  0  0  # atno 10763 bound_to 10752
  154.2288  135.2793  155.2899 H   0  0  0  0  0  0  0  0  0  0  0  0  # atno 10764 bound_to 10752
  154.5467  135.5745  153.6944 H   0  0  0  0  0  0  0  0  0  0  0  0  # atno 10765 bound_to 10752
  141.0342  133.6807  156.2648 H   0  0  0  0  0  0  0  0  0  0  0  0  # atno 11005 bound_to 11000
  145.8621  139.2228  143.1710 LP  0  0  0  0  0  0  0  0  0  0  0  0  # atno 17320 bound_to 7965
  146.0164  140.8389  142.9945 LP  0  0  0  0  0  0  0  0  0  0  0  0  # atno 17321 bound_to 7965
  139.8435  144.7198  150.9301 LP  0  0  0  0  0  0  0  0  0  0  0  0  # atno 17342 bound_to 10162
  140.7803  143.3962  151.1226 LP  0  0  0  0  0  0  0  0  0  0  0  0  # atno 17343 bound_to 10162
  156.0628  130.3697  150.0944 LP  0  0  0  0  0  0  0  0  0  0  0  0  # atno 17370 bound_to 10713
  156.9111  130.9652  151.3563 LP  0  0  0  0  0  0  0  0  0  0  0  0  # atno 17371 bound_to 10713
  140.6352  134.5222  157.5564 LP  0  0  0  0  0  0  0  0  0  0  0  0  # atno 17394 bound_to 11000
  139.9229  134.8113  156.1157 LP  0  0  0  0  0  0  0  0  0  0  0  0  # atno 17395 bound_to 11000

$$$$
