AV-unprocessed.smi:2336|AV-procd|sdf|9330|dock9
  -GOLD-   2272012553D 1   1.00000     0.00000
 Structure written by MMmdl.
 50 51  0  0  0  0  0  0  0  0  2 V2000
  148.7866  133.9202  157.5467 C   0  0  0  0  0  0  0  0  0  0  0  0
  148.8837  135.2714  156.8099 C   0  0  0  0  0  0  0  0  0  0  0  0
  147.5503  135.5347  156.0838 C   0  0  0  0  0  0  0  0  0  0  0  0
  150.1163  135.3345  155.8597 C   0  0  1  0  0  0  0  0  0  0  0  0
  150.1104  134.1945  154.7992 C   0  0  0  0  0  0  0  0  0  0  0  0
  149.1047  134.3773  153.7556 N   0  0  0  0  0  0  0  0  0  0  0  0
  148.2130  133.4593  153.3548 C   0  0  0  0  0  0  0  0  0  0  0  0
  148.1518  132.3222  153.8207 O   0  0  0  0  0  0  0  0  0  0  0  0
  147.4156  133.9492  152.3906 N   0  0  0  0  0  0  0  0  0  0  0  0
  146.3112  133.3283  151.7446 C   0  0  0  0  0  0  0  0  0  0  0  0
  146.1468  131.9273  151.6189 C   0  0  0  0  0  0  0  0  0  0  0  0
  144.9936  131.4392  150.9716 C   0  0  0  0  0  0  0  0  0  0  0  0
  144.0280  132.2371  150.4689 N   0  0  0  0  0  0  0  0  0  0  0  0
  144.1814  133.5714  150.6026 C   0  0  0  0  0  0  0  0  0  0  0  0
  145.2947  134.1625  151.2331 C   0  0  0  0  0  0  0  0  0  0  0  0
  145.3842  135.5103  151.3410 F   0  0  0  0  0  0  0  0  0  0  0  0
  150.2417  136.7090  155.2781 N   0  3  0  0  0  0  0  0  0  0  0  0
  151.5308  137.0275  154.6127 C   0  0  0  0  0  0  0  0  0  0  0  0
  151.4202  138.3624  153.8481 C   0  0  0  0  0  0  0  0  0  0  0  0
  151.0046  139.4641  154.7187 N   0  0  0  0  0  0  0  0  0  0  0  0
  152.0388  139.8700  155.6647 C   0  0  0  0  0  0  0  0  0  0  0  0
  149.7309  139.1380  155.3630 C   0  0  0  0  0  0  0  0  0  0  0  0
  149.8039  137.8199  156.1609 C   0  0  0  0  0  0  0  0  0  0  0  0
  148.7210  133.0890  156.8440 H   0  0  0  0  0  0  0  0  0  0  0  0
  147.9023  133.8834  158.1838 H   0  0  0  0  0  0  0  0  0  0  0  0
  149.6449  133.7436  158.1950 H   0  0  0  0  0  0  0  0  0  0  0  0
  148.9895  136.0478  157.5683 H   0  0  0  0  0  0  0  0  0  0  0  0
  147.4151  134.8559  155.2410 H   0  0  0  0  0  0  0  0  0  0  0  0
  147.4805  136.5559  155.7111 H   0  0  0  0  0  0  0  0  0  0  0  0
  146.7035  135.3954  156.7567 H   0  0  0  0  0  0  0  0  0  0  0  0
  150.9911  135.1780  156.4929 H   0  0  0  0  0  0  0  0  0  0  0  0
  151.0629  134.1662  154.2728 H   0  0  0  0  0  0  0  0  0  0  0  0
  150.0152  133.2239  155.2884 H   0  0  0  0  0  0  0  0  0  0  0  0
  149.0881  135.2778  153.2989 H   0  0  0  0  0  0  0  0  0  0  0  0
  147.6483  134.8693  152.0458 H   0  0  0  0  0  0  0  0  0  0  0  0
  146.8645  131.2233  152.0102 H   0  0  0  0  0  0  0  0  0  0  0  0
  144.8395  130.3761  150.8609 H   0  0  0  0  0  0  0  0  0  0  0  0
  143.3917  134.1867  150.1973 H   0  0  0  0  0  0  0  0  0  0  0  0
  152.3438  137.0757  155.3333 H   0  0  0  0  0  0  0  0  0  0  0  0
  151.7878  136.2364  153.9089 H   0  0  0  0  0  0  0  0  0  0  0  0
  152.3711  138.6089  153.3741 H   0  0  0  0  0  0  0  0  0  0  0  0
  150.6907  138.2622  153.0432 H   0  0  0  0  0  0  0  0  0  0  0  0
  151.7028  140.7314  156.2428 H   0  0  0  0  0  0  0  0  0  0  0  0
  152.9434  140.1636  155.1311 H   0  0  0  0  0  0  0  0  0  0  0  0
  152.3042  139.0786  156.3648 H   0  0  0  0  0  0  0  0  0  0  0  0
  149.4276  139.9599  156.0126 H   0  0  0  0  0  0  0  0  0  0  0  0
  148.9631  139.0556  154.5925 H   0  0  0  0  0  0  0  0  0  0  0  0
  148.8150  137.5978  156.5630 H   0  0  0  0  0  0  0  0  0  0  0  0
  150.4667  137.9358  157.0157 H   0  0  0  0  0  0  0  0  0  0  0  0
  149.5602  136.7156  154.5327 H   0  0  0  0  0  0  0  0  0  0  0  0
  1  2  1  0  0  0  0
  1 24  1  0  0  0  0
  1 25  1  0  0  0  0
  1 26  1  0  0  0  0
  2  3  1  0  0  0  0
  2  4  1  0  0  0  0
  2 27  1  0  0  0  0
  3 28  1  0  0  0  0
  3 29  1  0  0  0  0
  3 30  1  0  0  0  0
  4  5  1  0  0  0  0
  4 17  1  0  0  0  0
  4 31  1  0  0  0  0
  5  6  1  0  0  0  0
  5 32  1  0  0  0  0
  5 33  1  0  0  0  0
  6  7  1  0  0  0  0
  6 34  1  0  0  0  0
  7  8  2  0  0  0  0
  7  9  1  0  0  0  0
  9 10  1  0  0  0  0
  9 35  1  0  0  0  0
 10 15  1  0  0  0  0
 10 11  2  0  0  0  0
 11 12  1  0  0  0  0
 11 36  1  0  0  0  0
 12 13  2  0  0  0  0
 12 37  1  0  0  0  0
 13 14  1  0  0  0  0
 14 15  2  0  0  0  0
 14 38  1  0  0  0  0
 15 16  1  0  0  0  0
 17 23  1  0  0  0  0
 17 18  1  0  0  0  0
 17 50  1  0  0  0  0
 18 19  1  0  0  0  0
 18 39  1  0  0  0  0
 18 40  1  0  0  0  0
 19 20  1  0  0  0  0
 19 41  1  0  0  0  0
 19 42  1  0  0  0  0
 20 21  1  0  0  0  0
 20 22  1  0  0  0  0
 21 43  1  0  0  0  0
 21 44  1  0  0  0  0
 21 45  1  0  0  0  0
 22 23  1  0  0  0  0
 22 46  1  0  0  0  0
 22 47  1  0  0  0  0
 23 48  1  0  0  0  0
 23 49  1  0  0  0  0
M  CHG  1  17   1
M  END
> <s_m_source_file>
AV-unprocessed.smi

> <i_m_source_file_index>
2336

> <i_lp_mmshare_version>
43012

> <i_f3d_flags>
0

> <s_epik_input>
W0NIMl0xW0NIMl1OKFtDSDNdKVtDSDJdW0NIMl1OMVtDQEhdKFtDSF0oW0NIM10pW0NIM10pW0NIMl1bTkhdQyg9TylbTkhdYzJbY0hdW2NIXW5bY0hdYzJG

> <s_epik_cmdline>
J2VwaWtfcHl0aG9uJywgJy1waCcsICc3LjAnLCAnLXRuJywgJzgnLCAnLW1hJywgJzIwMCcsICctbWV0YWxfYmluZGluZycsICctaW1hZScsICc8aW5maWxlLm1hZT4nLCAnLW9tYWUnLCAnPG91dGZpbGUubWFlPic=

> <r_epik_Ionization_Penalty>
0.204575

> <r_epik_Ionization_Penalty_Charging>
0.20006

> <r_epik_Ionization_Penalty_Neutral>
0.00451444

> <r_epik_State_Penalty>
1.43207

> <r_epik_Charging_Adjusted_Penalty>
1.63213

> <i_epik_Tot_Q>
1

> <i_epik_Tot_abs_Q>
1

> <r_epik_Metal_State_Penalty>
1.43277

> <b_epik_Metal_Only>
0

> <s_lp_Force_Field>
OPLS_2005

> <r_lp_Energy>
38.4551

> <b_lp_Chiralities_Consistent>
1

> <s_lp_Variant>
AV-unprocessed.smi:2336-4

> <Gold.Version>
5.8.1

> <Gold.Id.Protein>
6NUR|6NUR_protein|mol2

> <Gold.PLP.Fitness>
42.0104

> <Gold.PLP.PLP>
-32.4736

> <Gold.PLP.part.hbond>
-3.0000

> <Gold.PLP.part.metal>
0.0000

> <Gold.PLP.part.buried>
-4.5826

> <Gold.PLP.part.nonpolar>
-24.9556

> <Gold.PLP.part.repulsive>
0.3885

> <Gold.PLP.ligand.clash>
0.0000

> <Gold.PLP.ligand.torsion>
0.5741

> <Gold.PLP.Chemscore.Hbond>
2.4595

> <Gold.PLP.Chemscore.CHOScore>
1.0000

> <Gold.PLP.Chemscore.Metal>
0.0000

> <Gold.Chemscore.Hbonds>
donor molecule, donor type, donor heavy atom, donor atom, acceptor molecule, acceptor atom, score
      L1  H     6    34       P1  7948  0.98
      L1  H     9    35       P1  7948  0.94
      P1  H  7989  7998       L1    20  0.32
      L1  C    14    38       P1 10186  1.00

> <Gold.PLP.Chemscore.Internal.Correction>
0.3066

> <Gold.Rescore>
     Score         DG    S(hbond)    S(metal)    S(lipo)     H(rot)  DE(clash)    DE(int)     intcor
     13.21     -14.73       1.42        0.00      75.17       1.67       0.04       1.47       ----

> <Gold.Chemscore.Fitness>
13.2096

> <Gold.Chemscore.DG>
-14.7252

> <Gold.Chemscore.ZeroCoef>
-5.4800

> <Gold.Chemscore.Hbond>
1.4177

> <Gold.Chemscore.Metal>
0.0000

> <Gold.Chemscore.Lipo>
75.1741

> <Gold.Chemscore.Internal_Hbond>
0.0000

> <Gold.Chemscore.DEClash>
0.0449

> <Gold.Chemscore.DEInternal>
1.4707

> <Gold.Chemscore.Rot>
1.6739

> <Gold.Chemscore.Internal.Correction>
   9.000000E+99

> <Gold.Chemscore.Hbonds>
donor molecule, donor type, donor heavy atom, donor atom, acceptor molecule, acceptor atom, score
      L1  H     6    34       P1  7948  0.32
      L1  H     9    35       P1  7948  0.71

> <Gold.Chemscore.Hbond.Weighted>
-4.7350

> <Gold.Chemscore.Metal.Weighted>
-0.0000

> <Gold.Chemscore.Lipo.Weighted>
-8.7954

> <Gold.Chemscore.Internal_Hbond.Weighted>
0.0000

> <Gold.Chemscore.DEClash.Weighted>
0.0449

> <Gold.Chemscore.DEInternal.Weighted>
1.4707

> <Gold.Chemscore.Rot.Weighted>
4.2851

> <Gold.Chemscore.Internal.Correction.Weighted>
   9.000000E+99

> <Gold.Protein.RotatedTorsions>
[ 6907 6896 6895 6894 ] final -142.58 input  -60.11 | X-H torsion
[ 7974 7965 7964 7962 ] final -119.86 input  175.53 | X-H torsion
[ 8008 7997 7996 7995 ] final  154.76 input   59.86 | X-H torsion
[ 10167 10162 10161 10158 ] final -121.69 input  -65.29 | X-H torsion
[ 10718 10713 10712 10709 ] final  -23.63 input   66.30 | X-H torsion
[ 10763 10752 10751 10750 ] final -171.05 input  -60.55 | X-H torsion
[ 11005 11000 10999 10996 ] final   95.66 input  -57.11 | X-H torsion

> <Gold.Protein.ActiveResidues>
 VAL166  LYS551  ARG553  GLY616  TRP617  ASP618  TYR619  PRO620  LYS621  CYS622 
 ASP623  PHE694  ASN695  SER759  ASP760  ASP761  ALA762  ILE779  LEU786  VAL792 
 PHE793  MET794  SER795  GLU796  ALA797  LYS798  CYS799  TRP800  GLU811  SER814 

> <Gold.Protein.RotatedAtoms>
  151.0890  133.5330  159.2615 H   0  0  0  0  0  0  0  0  0  0  0  0  # atno 6907 bound_to 6896
  151.2205  135.0516  159.8957 H   0  0  0  0  0  0  0  0  0  0  0  0  # atno 6908 bound_to 6896
  152.5432  134.0693  159.8240 H   0  0  0  0  0  0  0  0  0  0  0  0  # atno 6909 bound_to 6896
  145.0578  140.8267  143.4171 H   0  0  0  0  0  0  0  0  0  0  0  0  # atno 7974 bound_to 7965
  156.2514  140.1958  156.6696 H   0  0  0  0  0  0  0  0  0  0  0  0  # atno 8008 bound_to 7997
  154.6403  140.0584  156.9863 H   0  0  0  0  0  0  0  0  0  0  0  0  # atno 8009 bound_to 7997
  155.1574  140.3257  155.4421 H   0  0  0  0  0  0  0  0  0  0  0  0  # atno 8010 bound_to 7997
  140.0223  143.5332  152.2215 H   0  0  0  0  0  0  0  0  0  0  0  0  # atno 10167 bound_to 10162
  156.4885  130.4561  149.6769 H   0  0  0  0  0  0  0  0  0  0  0  0  # atno 10718 bound_to 10713
  154.6348  135.2891  155.0174 H   0  0  0  0  0  0  0  0  0  0  0  0  # atno 10763 bound_to 10752
  154.1321  135.6532  153.4928 H   0  0  0  0  0  0  0  0  0  0  0  0  # atno 10764 bound_to 10752
  153.0297  135.5313  154.7190 H   0  0  0  0  0  0  0  0  0  0  0  0  # atno 10765 bound_to 10752
  139.8787  134.8910  156.4044 H   0  0  0  0  0  0  0  0  0  0  0  0  # atno 11005 bound_to 11000
  145.1447  139.2551  143.5472 LP  0  0  0  0  0  0  0  0  0  0  0  0  # atno 17320 bound_to 7965
  146.3522  140.1133  142.8603 LP  0  0  0  0  0  0  0  0  0  0  0  0  # atno 17321 bound_to 7965
  139.6132  144.7613  151.2906 LP  0  0  0  0  0  0  0  0  0  0  0  0  # atno 17342 bound_to 10162
  140.7337  143.6786  150.8020 LP  0  0  0  0  0  0  0  0  0  0  0  0  # atno 17343 bound_to 10162
  156.3450  130.7402  151.2353 LP  0  0  0  0  0  0  0  0  0  0  0  0  # atno 17370 bound_to 10713
  157.7476  131.0393  150.4544 LP  0  0  0  0  0  0  0  0  0  0  0  0  # atno 17371 bound_to 10713
  140.9244  133.7622  155.9947 LP  0  0  0  0  0  0  0  0  0  0  0  0  # atno 17394 bound_to 11000
  140.8402  134.3075  157.5316 LP  0  0  0  0  0  0  0  0  0  0  0  0  # atno 17395 bound_to 11000

$$$$
