AV-unprocessed.smi:2734|AV-procd|sdf|10539|dock8
  -GOLD-   2272014583D 1   1.00000     0.00000
 Structure written by MMmdl.
 41 43  0  0  0  0  0  0  0  0  2 V2000
  152.5274  142.9102  160.5078 C   0  0  0  0  0  0  0  0  0  0  0  0
  152.1796  142.1546  159.2365 C   0  0  0  0  0  0  0  0  0  0  0  0
  151.2021  142.7007  158.3740 C   0  0  0  0  0  0  0  0  0  0  0  0
  150.9080  141.9888  157.2172 C   0  0  0  0  0  0  0  0  0  0  0  0
  150.0110  142.2557  156.1804 N   0  3  0  0  0  0  0  0  0  0  0  0
  150.0788  141.2603  155.2533 C   0  0  0  0  0  0  0  0  0  0  0  0
  151.0058  140.3624  155.6840 N   0  0  0  0  0  0  0  0  0  0  0  0
  151.4730  139.1161  155.0631 C   0  0  0  0  0  0  0  0  0  0  0  0
  150.3660  138.0487  154.9619 C   0  0  2  0  0  0  0  0  0  0  0  0
  149.4995  138.3696  153.8902 O   0  0  0  0  0  0  0  0  0  0  0  0
  149.5506  137.9415  156.2600 C   0  0  0  0  0  0  0  0  0  0  0  0
  149.7337  136.3114  157.0470 S   0  0  0  0  0  0  0  0  0  0  0  0
  149.0114  136.6530  158.6223 C   0  0  0  0  0  0  0  0  0  0  0  0
  149.5498  136.4087  159.8117 N   0  0  0  0  0  0  0  0  0  0  0  0
  148.5971  136.8537  160.7084 N   0  0  0  0  0  0  0  0  0  0  0  0
  147.5560  137.3322  160.0915 N   0  0  0  0  0  0  0  0  0  0  0  0
  147.8032  137.2123  158.7644 N   0  0  0  0  0  0  0  0  0  0  0  0
  146.8370  137.6560  157.7794 C   0  0  0  0  0  0  0  0  0  0  0  0
  151.5483  140.7740  156.9052 C   0  0  0  0  0  0  0  0  0  0  0  0
  152.5120  140.2203  157.7440 C   0  0  0  0  0  0  0  0  0  0  0  0
  152.8247  140.9289  158.9264 C   0  0  0  0  0  0  0  0  0  0  0  0
  153.8731  140.3502  159.8613 C   0  0  0  0  0  0  0  0  0  0  0  0
  151.9902  143.8572  160.5689 H   0  0  0  0  0  0  0  0  0  0  0  0
  153.5943  143.1310  160.5443 H   0  0  0  0  0  0  0  0  0  0  0  0
  152.2646  142.3204  161.3861 H   0  0  0  0  0  0  0  0  0  0  0  0
  150.7064  143.6324  158.6042 H   0  0  0  0  0  0  0  0  0  0  0  0
  149.5065  141.1974  154.3389 H   0  0  0  0  0  0  0  0  0  0  0  0
  151.8817  139.3525  154.0798 H   0  0  0  0  0  0  0  0  0  0  0  0
  152.3048  138.7436  155.6628 H   0  0  0  0  0  0  0  0  0  0  0  0
  150.8200  137.0804  154.7480 H   0  0  0  0  0  0  0  0  0  0  0  0
  149.4547  137.6251  153.3090 H   0  0  0  0  0  0  0  0  0  0  0  0
  149.8874  138.7014  156.9660 H   0  0  0  0  0  0  0  0  0  0  0  0
  148.4951  138.1324  156.0606 H   0  0  0  0  0  0  0  0  0  0  0  0
  146.5732  136.8251  157.1250 H   0  0  0  0  0  0  0  0  0  0  0  0
  147.2678  138.4590  157.1808 H   0  0  0  0  0  0  0  0  0  0  0  0
  145.9329  138.0229  158.2671 H   0  0  0  0  0  0  0  0  0  0  0  0
  153.0044  139.2895  157.5048 H   0  0  0  0  0  0  0  0  0  0  0  0
  154.2098  139.3693  159.5244 H   0  0  0  0  0  0  0  0  0  0  0  0
  153.4708  140.2340  160.8680 H   0  0  0  0  0  0  0  0  0  0  0  0
  154.7439  141.0046  159.9088 H   0  0  0  0  0  0  0  0  0  0  0  0
  149.3989  143.0582  156.1061 H   0  0  0  0  0  0  0  0  0  0  0  0
  1  2  1  0  0  0  0
  1 23  1  0  0  0  0
  1 24  1  0  0  0  0
  1 25  1  0  0  0  0
  2 21  1  0  0  0  0
  2  3  2  0  0  0  0
  3  4  1  0  0  0  0
  3 26  1  0  0  0  0
  4 19  2  0  0  0  0
  4  5  1  0  0  0  0
  5  6  2  0  0  0  0
  5 41  1  0  0  0  0
  6  7  1  0  0  0  0
  6 27  1  0  0  0  0
  7  8  1  0  0  0  0
  7 19  1  0  0  0  0
  8  9  1  0  0  0  0
  8 28  1  0  0  0  0
  8 29  1  0  0  0  0
  9 10  1  0  0  0  0
  9 11  1  0  0  0  0
  9 30  1  0  0  0  0
 10 31  1  0  0  0  0
 11 12  1  0  0  0  0
 11 32  1  0  0  0  0
 11 33  1  0  0  0  0
 12 13  1  0  0  0  0
 13 17  1  0  0  0  0
 13 14  2  0  0  0  0
 14 15  1  0  0  0  0
 15 16  2  0  0  0  0
 16 17  1  0  0  0  0
 17 18  1  0  0  0  0
 18 34  1  0  0  0  0
 18 35  1  0  0  0  0
 18 36  1  0  0  0  0
 19 20  1  0  0  0  0
 20 21  2  0  0  0  0
 20 37  1  0  0  0  0
 21 22  1  0  0  0  0
 22 38  1  0  0  0  0
 22 39  1  0  0  0  0
 22 40  1  0  0  0  0
M  CHG  1   5   1
M  END
> <s_m_source_file>
AV-unprocessed.smi

> <i_m_source_file_index>
2734

> <i_lp_mmshare_version>
43012

> <i_f3d_flags>
0

> <s_epik_input>
W0NIM11jKFtjSF0xKWMoW0NIM10pW2NIXWMoYzEyKW4oW2NIXW4yKVtDSDJdW0NASF0oW09IXSlbQ0gyXVNjM25ubm4zW0NIM10=

> <s_epik_cmdline>
J2VwaWtfcHl0aG9uJywgJy1waCcsICc3LjAnLCAnLXRuJywgJzgnLCAnLW1hJywgJzIwMCcsICctbWV0YWxfYmluZGluZycsICctaW1hZScsICc8aW5maWxlLm1hZT4nLCAnLW9tYWUnLCAnPG91dGZpbGUubWFlPic=

> <r_lp_tautomer_probability>
1

> <r_epik_Ionization_Penalty>
1.07429

> <r_epik_Ionization_Penalty_Charging>
1.07429

> <r_epik_Ionization_Penalty_Neutral>
3.30514e-06

> <r_epik_State_Penalty>
1.12915

> <r_epik_Charging_Adjusted_Penalty>
2.20344

> <i_epik_Tot_Q>
1

> <i_epik_Tot_abs_Q>
1

> <r_epik_Metal_State_Penalty>
1.22002

> <b_epik_Metal_Only>
0

> <s_lp_Force_Field>
OPLS_2005

> <r_lp_Energy>
14.6731

> <b_lp_Chiralities_Consistent>
1

> <s_lp_Variant>
AV-unprocessed.smi:2734-3

> <Gold.Version>
5.8.1

> <Gold.Id.Protein>
6NUR|6NUR_protein|mol2

> <Gold.PLP.Fitness>
53.0948

> <Gold.PLP.PLP>
-37.4463

> <Gold.PLP.part.hbond>
-5.7035

> <Gold.PLP.part.metal>
0.0000

> <Gold.PLP.part.buried>
-4.0055

> <Gold.PLP.part.nonpolar>
-28.0040

> <Gold.PLP.part.repulsive>
0.0974

> <Gold.PLP.ligand.clash>
0.0000

> <Gold.PLP.ligand.torsion>
0.9999

> <Gold.PLP.Chemscore.Hbond>
5.8793

> <Gold.PLP.Chemscore.CHOScore>
0.0000

> <Gold.PLP.Chemscore.Metal>
0.0000

> <Gold.Chemscore.Hbonds>
donor molecule, donor type, donor heavy atom, donor atom, acceptor molecule, acceptor atom, score
      L1  H     5    41       P1  8028  2.00
      L1  H    10    31       P1  7948  0.98
      P1  H  6896  6908       L1    14  1.00
      P1  H  6931  6943       L1    15  0.93
      P1  H  6934  6947       L1    16  0.91

> <Gold.PLP.Chemscore.Internal.Correction>
0.0106

> <Gold.Rescore>
     Score         DG    S(hbond)    S(metal)    S(lipo)     H(rot)  DE(clash)    DE(int)     intcor
     18.58     -19.58       3.60        0.00      81.56       2.92       0.01       0.99       ----

> <Gold.Chemscore.Fitness>
18.5815

> <Gold.Chemscore.DG>
-19.5765

> <Gold.Chemscore.ZeroCoef>
-5.4800

> <Gold.Chemscore.Hbond>
3.5988

> <Gold.Chemscore.Metal>
0.0000

> <Gold.Chemscore.Lipo>
81.5586

> <Gold.Chemscore.Internal_Hbond>
0.0000

> <Gold.Chemscore.DEClash>
0.0093

> <Gold.Chemscore.DEInternal>
0.9857

> <Gold.Chemscore.Rot>
2.9164

> <Gold.Chemscore.Internal.Correction>
   9.000000E+99

> <Gold.Chemscore.Hbonds>
donor molecule, donor type, donor heavy atom, donor atom, acceptor molecule, acceptor atom, score
      L1  H     5    41       P1  8028  0.99
      L1  H    10    31       P1  7948  0.86
      P1  H  6896  6908       L1    14  0.75
      P1  H  6931  6943       L1    15  0.35
      P1  H  6934  6947       L1    16  0.49

> <Gold.Chemscore.Hbond.Weighted>
-12.0201

> <Gold.Chemscore.Metal.Weighted>
-0.0000

> <Gold.Chemscore.Lipo.Weighted>
-9.5424

> <Gold.Chemscore.Internal_Hbond.Weighted>
0.0000

> <Gold.Chemscore.DEClash.Weighted>
0.0093

> <Gold.Chemscore.DEInternal.Weighted>
0.9857

> <Gold.Chemscore.Rot.Weighted>
7.4660

> <Gold.Chemscore.Internal.Correction.Weighted>
   9.000000E+99

> <Gold.Protein.RotatedTorsions>
[ 6907 6896 6895 6894 ] final -171.33 input  -60.11 | X-H torsion
[ 7974 7965 7964 7962 ] final  -60.36 input  175.53 | X-H torsion
[ 8008 7997 7996 7995 ] final -173.42 input   59.86 | X-H torsion
[ 10167 10162 10161 10158 ] final  -78.94 input  -65.29 | X-H torsion
[ 10718 10713 10712 10709 ] final  -66.69 input   66.30 | X-H torsion
[ 10763 10752 10751 10750 ] final   28.72 input  -60.55 | X-H torsion
[ 11005 11000 10999 10996 ] final -107.25 input  -57.11 | X-H torsion

> <Gold.Protein.ActiveResidues>
 VAL166  LYS551  ARG553  GLY616  TRP617  ASP618  TYR619  PRO620  LYS621  CYS622 
 ASP623  PHE694  ASN695  SER759  ASP760  ASP761  ALA762  ILE779  LEU786  VAL792 
 PHE793  MET794  SER795  GLU796  ALA797  LYS798  CYS799  TRP800  GLU811  SER814 

> <Gold.Protein.RotatedAtoms>
  151.5221  133.3464  159.2902 H   0  0  0  0  0  0  0  0  0  0  0  0  # atno 6907 bound_to 6896
  150.8646  134.8008  159.7120 H   0  0  0  0  0  0  0  0  0  0  0  0  # atno 6908 bound_to 6896
  152.4655  134.5095  159.9801 H   0  0  0  0  0  0  0  0  0  0  0  0  # atno 6909 bound_to 6896
  145.8165  140.8567  143.0155 H   0  0  0  0  0  0  0  0  0  0  0  0  # atno 7974 bound_to 7965
  155.9572  140.1137  157.0926 H   0  0  0  0  0  0  0  0  0  0  0  0  # atno 8008 bound_to 7997
  154.4123  140.1189  156.5198 H   0  0  0  0  0  0  0  0  0  0  0  0  # atno 8009 bound_to 7997
  155.6766  140.3473  155.4841 H   0  0  0  0  0  0  0  0  0  0  0  0  # atno 8010 bound_to 7997
  140.4638  143.2446  151.8309 H   0  0  0  0  0  0  0  0  0  0  0  0  # atno 10167 bound_to 10162
  156.0598  130.4266  150.1746 H   0  0  0  0  0  0  0  0  0  0  0  0  # atno 10718 bound_to 10713
  153.0474  135.6506  154.0781 H   0  0  0  0  0  0  0  0  0  0  0  0  # atno 10763 bound_to 10752
  154.0476  135.2898  155.3347 H   0  0  0  0  0  0  0  0  0  0  0  0  # atno 10764 bound_to 10752
  154.6741  135.5345  153.8242 H   0  0  0  0  0  0  0  0  0  0  0  0  # atno 10765 bound_to 10752
  141.0963  133.8964  157.1954 H   0  0  0  0  0  0  0  0  0  0  0  0  # atno 11005 bound_to 11000
  144.6752  140.0471  143.7479 LP  0  0  0  0  0  0  0  0  0  0  0  0  # atno 17320 bound_to 7965
  145.9721  139.2878  143.1092 LP  0  0  0  0  0  0  0  0  0  0  0  0  # atno 17321 bound_to 7965
  139.4809  144.4976  151.9103 LP  0  0  0  0  0  0  0  0  0  0  0  0  # atno 17342 bound_to 10162
  140.4061  144.2430  150.5890 LP  0  0  0  0  0  0  0  0  0  0  0  0  # atno 17343 bound_to 10162
  156.9816  130.9866  151.3436 LP  0  0  0  0  0  0  0  0  0  0  0  0  # atno 17370 bound_to 10713
  157.5598  130.8238  149.8251 LP  0  0  0  0  0  0  0  0  0  0  0  0  # atno 17371 bound_to 10713
  139.9801  135.0101  156.9729 LP  0  0  0  0  0  0  0  0  0  0  0  0  # atno 17394 bound_to 11000
  140.5131  134.0982  155.7275 LP  0  0  0  0  0  0  0  0  0  0  0  0  # atno 17395 bound_to 11000

$$$$
