AV-unprocessed.smi:876|AV-procd|sdf|4025|dock9
  -GOLD-   22720 1513D 1   1.00000     0.00000
 Structure written by MMmdl.
 40 41  0  0  0  0  0  0  0  0  1 V2000
  152.5409  130.7349  158.5119 C   0  0  0  0  0  0  0  0  0  0  0  0
  152.2807  129.8874  157.3549 N   0  0  0  0  0  0  0  0  0  0  0  0
  152.8940  128.5659  157.2688 C   0  0  0  0  0  0  0  0  0  0  0  0
  151.4092  130.3265  156.3320 C   0  0  0  0  0  0  0  0  0  0  0  0
  150.6347  131.5047  156.4744 C   0  0  0  0  0  0  0  0  0  0  0  0
  149.7821  131.9028  155.4265 C   0  0  0  0  0  0  0  0  0  0  0  0
  149.7260  131.1181  154.2518 C   0  0  0  0  0  0  0  0  0  0  0  0
  148.8963  131.3995  153.1326 N   0  0  0  0  0  0  0  0  0  0  0  0
  147.8097  132.1880  153.0679 C   0  0  0  0  0  0  0  0  0  0  0  0
  147.3433  132.8405  154.0014 O   0  0  0  0  0  0  0  0  0  0  0  0
  147.2918  132.1951  151.8317 N   0  0  0  0  0  0  0  0  0  0  0  0
  146.1174  132.9579  151.4236 C   0  0  2  0  0  0  0  0  0  0  0  0
  144.8636  132.3199  151.9549 C   0  0  0  0  0  0  0  0  0  0  0  0
  144.0080  131.9863  150.9916 C   0  0  0  0  0  0  0  0  0  0  0  0
  144.5223  132.3113  149.6123 C   0  0  1  0  0  0  0  0  0  0  0  0
  143.5702  133.2257  148.8222 C   0  0  0  0  0  0  0  0  0  0  0  0
  143.9556  133.2921  147.4649 O   0  0  0  0  0  0  0  0  0  0  0  0
  145.9034  132.9600  149.8867 C   0  0  0  0  0  0  0  0  0  0  0  0
  150.5218  129.9571  154.2067 C   0  0  0  0  0  0  0  0  0  0  0  0
  151.3402  129.5727  155.2076 N   0  0  0  0  0  0  0  0  0  0  0  0
  146.1767  133.9771  151.8097 H   0  0  0  0  0  0  0  0  0  0  0  0
  144.6623  131.3729  149.0736 H   0  0  0  0  0  0  0  0  0  0  0  0
  151.6130  130.9631  159.0370 H   0  0  0  0  0  0  0  0  0  0  0  0
  153.0088  131.6708  158.2046 H   0  0  0  0  0  0  0  0  0  0  0  0
  153.2102  130.2458  159.2198 H   0  0  0  0  0  0  0  0  0  0  0  0
  153.4804  128.4734  156.3543 H   0  0  0  0  0  0  0  0  0  0  0  0
  152.1294  127.7885  157.2705 H   0  0  0  0  0  0  0  0  0  0  0  0
  153.5608  128.3805  158.1108 H   0  0  0  0  0  0  0  0  0  0  0  0
  150.6738  132.1105  157.3670 H   0  0  0  0  0  0  0  0  0  0  0  0
  149.1831  132.7907  155.5544 H   0  0  0  0  0  0  0  0  0  0  0  0
  149.1970  130.9893  152.2607 H   0  0  0  0  0  0  0  0  0  0  0  0
  147.7413  131.6360  151.1215 H   0  0  0  0  0  0  0  0  0  0  0  0
  144.6966  132.1722  153.0118 H   0  0  0  0  0  0  0  0  0  0  0  0
  143.0476  131.5182  151.1503 H   0  0  0  0  0  0  0  0  0  0  0  0
  142.5425  132.8656  148.8864 H   0  0  0  0  0  0  0  0  0  0  0  0
  143.5859  134.2350  149.2345 H   0  0  0  0  0  0  0  0  0  0  0  0
  143.1759  133.3318  146.9324 H   0  0  0  0  0  0  0  0  0  0  0  0
  145.9428  133.9827  149.5094 H   0  0  0  0  0  0  0  0  0  0  0  0
  146.6879  132.4081  149.3666 H   0  0  0  0  0  0  0  0  0  0  0  0
  150.5064  129.3150  153.3380 H   0  0  0  0  0  0  0  0  0  0  0  0
  1  2  1  0  0  0  0
  1 23  1  0  0  0  0
  1 24  1  0  0  0  0
  1 25  1  0  0  0  0
  2  3  1  0  0  0  0
  2  4  1  0  0  0  0
  3 26  1  0  0  0  0
  3 27  1  0  0  0  0
  3 28  1  0  0  0  0
  4 20  1  0  0  0  0
  4  5  2  0  0  0  0
  5  6  1  0  0  0  0
  5 29  1  0  0  0  0
  6  7  2  0  0  0  0
  6 30  1  0  0  0  0
  7  8  1  0  0  0  0
  7 19  1  0  0  0  0
  8  9  1  0  0  0  0
  8 31  1  0  0  0  0
  9 10  2  0  0  0  0
  9 11  1  0  0  0  0
 11 12  1  0  0  0  0
 11 32  1  0  0  0  0
 12 21  1  0  0  0  0
 12 18  1  0  0  0  0
 12 13  1  0  0  0  0
 13 14  2  0  0  0  0
 13 33  1  0  0  0  0
 14 15  1  0  0  0  0
 14 34  1  0  0  0  0
 15 22  1  0  0  0  0
 15 16  1  0  0  0  0
 15 18  1  0  0  0  0
 16 17  1  0  0  0  0
 16 35  1  0  0  0  0
 16 36  1  0  0  0  0
 17 37  1  0  0  0  0
 18 38  1  0  0  0  0
 18 39  1  0  0  0  0
 19 20  2  0  0  0  0
 19 40  1  0  0  0  0
M  END
> <s_m_source_file>
AV-unprocessed.smi

> <i_m_source_file_index>
876

> <i_lp_mmshare_version>
43012

> <i_f3d_flags>
0

> <s_epik_input>
W0NIM11OKFtDSDNdKWMxW2NIXVtjSF1jKFtjSF1uMSlbTkhdQyg9TylbTkhdW0NAQEhdMltDSF09W0NIXVtDQEBIXShbQ0gyXTIpW0NIMl1bT0hd

> <s_epik_cmdline>
J2VwaWtfcHl0aG9uJywgJy1waCcsICc3LjAnLCAnLXRuJywgJzgnLCAnLW1hJywgJzIwMCcsICctbWV0YWxfYmluZGluZycsICctaW1hZScsICc8aW5maWxlLm1hZT4nLCAnLW9tYWUnLCAnPG91dGZpbGUubWFlPic=

> <r_lp_tautomer_probability>
1

> <r_epik_Ionization_Penalty>
0.617998

> <r_epik_Ionization_Penalty_Charging>
0

> <r_epik_Ionization_Penalty_Neutral>
0.617998

> <r_epik_State_Penalty>
0.632637

> <r_epik_Charging_Adjusted_Penalty>
0.632637

> <i_epik_Tot_Q>
0

> <i_epik_Tot_abs_Q>
0

> <r_epik_Metal_State_Penalty>
0.305596

> <b_epik_Metal_Only>
0

> <s_lp_Force_Field>
OPLS_2005

> <r_lp_Energy>
20.6099

> <b_lp_Chiralities_Consistent>
1

> <s_lp_Variant>
AV-unprocessed.smi:876-7

> <Gold.Version>
5.8.1

> <Gold.Id.Protein>
6NUR|6NUR_protein|mol2

> <Gold.PLP.Fitness>
43.0793

> <Gold.PLP.PLP>
-30.8573

> <Gold.PLP.part.hbond>
-5.0000

> <Gold.PLP.part.metal>
0.0000

> <Gold.PLP.part.buried>
0.3470

> <Gold.PLP.part.nonpolar>
-24.3027

> <Gold.PLP.part.repulsive>
0.1648

> <Gold.PLP.ligand.clash>
0.0000

> <Gold.PLP.ligand.torsion>
0.3374

> <Gold.PLP.Chemscore.Hbond>
3.6124

> <Gold.PLP.Chemscore.CHOScore>
0.6815

> <Gold.PLP.Chemscore.Metal>
0.0000

> <Gold.Chemscore.Hbonds>
donor molecule, donor type, donor heavy atom, donor atom, acceptor molecule, acceptor atom, score
      L1  H     8    31       P1 10747  0.94
      L1  H    11    32       P1 10747  1.00
      L1  H    17    37       P1 10195  1.00
      P1  H  7918  7932       L1    17  0.61
      L1  C    19    40       P1 10737  0.50

> <Gold.PLP.Chemscore.Internal.Correction>
0.0152

> <Gold.Rescore>
     Score         DG    S(hbond)    S(metal)    S(lipo)     H(rot)  DE(clash)    DE(int)     intcor
     16.29     -18.09       2.21        0.00      83.94       1.80       0.36       1.45       ----

> <Gold.Chemscore.Fitness>
16.2852

> <Gold.Chemscore.DG>
-18.0882

> <Gold.Chemscore.ZeroCoef>
-5.4800

> <Gold.Chemscore.Hbond>
2.2125

> <Gold.Chemscore.Metal>
0.0000

> <Gold.Chemscore.Lipo>
83.9420

> <Gold.Chemscore.Internal_Hbond>
0.0000

> <Gold.Chemscore.DEClash>
0.3565

> <Gold.Chemscore.DEInternal>
1.4466

> <Gold.Chemscore.Rot>
1.7980

> <Gold.Chemscore.Internal.Correction>
   9.000000E+99

> <Gold.Chemscore.Hbonds>
donor molecule, donor type, donor heavy atom, donor atom, acceptor molecule, acceptor atom, score
      L1  H     8    31       P1 10747  0.20
      L1  H    11    32       P1 10747  0.99
      L1  H    17    37       P1 10195  0.98
      P1  H  7918  7932       L1    17  0.11

> <Gold.Chemscore.Hbond.Weighted>
-7.3899

> <Gold.Chemscore.Metal.Weighted>
-0.0000

> <Gold.Chemscore.Lipo.Weighted>
-9.8212

> <Gold.Chemscore.Internal_Hbond.Weighted>
0.0000

> <Gold.Chemscore.DEClash.Weighted>
0.3565

> <Gold.Chemscore.DEInternal.Weighted>
1.4466

> <Gold.Chemscore.Rot.Weighted>
4.6029

> <Gold.Chemscore.Internal.Correction.Weighted>
   9.000000E+99

> <Gold.Protein.RotatedTorsions>
[ 6907 6896 6895 6894 ] final  -55.50 input  -60.11 | X-H torsion
[ 7974 7965 7964 7962 ] final   34.45 input  175.53 | X-H torsion
[ 8008 7997 7996 7995 ] final  -99.11 input   59.86 | X-H torsion
[ 10167 10162 10161 10158 ] final  105.05 input  -65.29 | X-H torsion
[ 10718 10713 10712 10709 ] final  162.16 input   66.30 | X-H torsion
[ 10763 10752 10751 10750 ] final  167.00 input  -60.55 | X-H torsion
[ 11005 11000 10999 10996 ] final   56.89 input  -57.11 | X-H torsion

> <Gold.Protein.ActiveResidues>
 VAL166  LYS551  ARG553  GLY616  TRP617  ASP618  TYR619  PRO620  LYS621  CYS622 
 ASP623  PHE694  ASN695  SER759  ASP760  ASP761  ALA762  ILE779  LEU786  VAL792 
 PHE793  MET794  SER795  GLU796  ALA797  LYS798  CYS799  TRP800  GLU811  SER814 

> <Gold.Protein.RotatedAtoms>
  150.8246  134.7471  159.6801 H   0  0  0  0  0  0  0  0  0  0  0  0  # atno 6907 bound_to 6896
  152.4359  134.5685  159.9924 H   0  0  0  0  0  0  0  0  0  0  0  0  # atno 6908 bound_to 6896
  151.5860  133.3334  159.3054 H   0  0  0  0  0  0  0  0  0  0  0  0  # atno 6909 bound_to 6896
  146.1352  139.6267  142.9200 H   0  0  0  0  0  0  0  0  0  0  0  0  # atno 7974 bound_to 7965
  154.8104  140.0450  157.1338 H   0  0  0  0  0  0  0  0  0  0  0  0  # atno 8008 bound_to 7997
  154.9375  140.3048  155.5117 H   0  0  0  0  0  0  0  0  0  0  0  0  # atno 8009 bound_to 7997
  156.2971  140.2311  156.4441 H   0  0  0  0  0  0  0  0  0  0  0  0  # atno 8010 bound_to 7997
  139.7126  144.7075  151.1003 H   0  0  0  0  0  0  0  0  0  0  0  0  # atno 10167 bound_to 10162
  157.1264  131.0505  151.2391 H   0  0  0  0  0  0  0  0  0  0  0  0  # atno 10718 bound_to 10713
  154.3474  135.2753  155.2390 H   0  0  0  0  0  0  0  0  0  0  0  0  # atno 10763 bound_to 10752
  154.4635  135.5901  153.6275 H   0  0  0  0  0  0  0  0  0  0  0  0  # atno 10764 bound_to 10752
  152.9852  135.6071  154.3681 H   0  0  0  0  0  0  0  0  0  0  0  0  # atno 10765 bound_to 10752
  140.0494  134.5759  155.9282 H   0  0  0  0  0  0  0  0  0  0  0  0  # atno 11005 bound_to 11000
  145.5172  141.0433  143.2455 LP  0  0  0  0  0  0  0  0  0  0  0  0  # atno 17320 bound_to 7965
  144.7732  139.6688  143.7186 LP  0  0  0  0  0  0  0  0  0  0  0  0  # atno 17321 bound_to 7965
  140.7736  143.5273  150.9465 LP  0  0  0  0  0  0  0  0  0  0  0  0  # atno 17342 bound_to 10162
  139.8958  143.6896  152.3139 LP  0  0  0  0  0  0  0  0  0  0  0  0  # atno 17343 bound_to 10162
  157.4431  130.7555  149.7086 LP  0  0  0  0  0  0  0  0  0  0  0  0  # atno 17370 bound_to 10713
  155.9817  130.4017  150.3456 LP  0  0  0  0  0  0  0  0  0  0  0  0  # atno 17371 bound_to 10713
  141.1923  133.6574  156.5495 LP  0  0  0  0  0  0  0  0  0  0  0  0  # atno 17394 bound_to 11000
  140.3941  134.7414  157.4740 LP  0  0  0  0  0  0  0  0  0  0  0  0  # atno 17395 bound_to 11000

$$$$
