AV-unprocessed.smi:173|AV-procd|sdf|1423|dock7
  -GOLD-   2262019193D 1   1.00000     0.00000
 Structure written by MMmdl.
 60 64  0  0  0  0  0  0  0  0  1 V2000
  144.8575  135.1537  150.1229 O   0  0  0  0  0  0  0  0  0  0  0  0
  145.1570  134.4015  151.2861 C   0  0  0  0  0  0  0  0  0  0  0  0
  145.4695  135.3967  152.4321 C   0  0  0  0  0  0  0  0  0  0  0  0
  145.9611  134.7620  153.6449 N   0  0  0  0  0  0  0  0  0  0  0  0
  147.2166  134.2343  153.8503 C   0  0  0  0  0  0  0  0  0  0  0  0
  147.4241  133.7341  155.0381 N   0  0  0  0  0  0  0  0  0  0  0  0
  146.2150  133.9220  155.6948 C   0  0  0  0  0  0  0  0  0  0  0  0
  145.7501  133.6358  157.0040 C   0  0  0  0  0  0  0  0  0  0  0  0
  146.5460  133.0647  157.9360 N   0  0  0  0  0  0  0  0  0  0  0  0
  147.4855  133.9788  158.5928 C   0  0  0  0  0  0  0  0  0  0  0  0
  146.8796  134.6685  159.8304 C   0  0  2  0  0  0  0  0  0  0  0  0
  147.7117  135.8398  160.3440 C   0  0  0  0  0  0  0  0  0  0  0  0
  147.2675  135.9748  161.7914 C   0  0  0  0  0  0  0  0  0  0  0  0
  146.6419  134.6143  162.1138 C   0  0  0  0  0  0  0  0  0  0  0  0
  146.8738  133.8134  160.9636 O   0  0  0  0  0  0  0  0  0  0  0  0
  145.8521  132.0247  158.7008 C   0  0  0  0  0  0  0  0  0  0  0  0
  145.1269  130.9702  157.8567 C   0  0  0  0  0  0  0  0  0  0  0  0
  144.1274  130.3199  158.8233 C   0  0  0  0  0  0  0  0  0  0  0  0
  143.9720  131.2847  160.0120 C   0  0  0  0  0  0  0  0  0  0  0  0
  144.7707  132.5411  159.6529 C   0  0  0  0  0  0  0  0  0  0  0  0
  144.4672  133.9619  157.3121 N   0  0  0  0  0  0  0  0  0  0  0  0
  143.6903  134.5451  156.3943 C   0  0  0  0  0  0  0  0  0  0  0  0
  143.9916  134.8843  155.1383 N   0  0  0  0  0  0  0  0  0  0  0  0
  145.2791  134.5538  154.8307 C   0  0  0  0  0  0  0  0  0  0  0  0
  143.9264  133.5429  151.6405 C   0  0  0  0  0  0  0  0  0  0  0  0
  143.6836  132.4238  150.6120 C   0  0  0  0  0  0  0  0  0  0  0  0
  144.8512  131.6223  150.4817 O   0  0  0  0  0  0  0  0  0  0  0  0
  145.9640  132.3535  149.9817 C   0  0  0  0  0  0  0  0  0  0  0  0
  146.3487  133.4723  150.9661 C   0  0  0  0  0  0  0  0  0  0  0  0
  145.5409  135.0096  149.4862 H   0  0  0  0  0  0  0  0  0  0  0  0
  146.2073  136.1318  152.1070 H   0  0  0  0  0  0  0  0  0  0  0  0
  144.5727  135.9622  152.6896 H   0  0  0  0  0  0  0  0  0  0  0  0
  147.9837  134.2446  153.0896 H   0  0  0  0  0  0  0  0  0  0  0  0
  148.4027  133.4545  158.8639 H   0  0  0  0  0  0  0  0  0  0  0  0
  147.7818  134.7498  157.8842 H   0  0  0  0  0  0  0  0  0  0  0  0
  145.8622  135.0056  159.6210 H   0  0  0  0  0  0  0  0  0  0  0  0
  148.7727  135.5881  160.3097 H   0  0  0  0  0  0  0  0  0  0  0  0
  147.5626  136.7518  159.7657 H   0  0  0  0  0  0  0  0  0  0  0  0
  148.1093  136.2058  162.4448 H   0  0  0  0  0  0  0  0  0  0  0  0
  146.5275  136.7682  161.9027 H   0  0  0  0  0  0  0  0  0  0  0  0
  147.0782  134.1526  162.9998 H   0  0  0  0  0  0  0  0  0  0  0  0
  145.5673  134.7123  162.2746 H   0  0  0  0  0  0  0  0  0  0  0  0
  146.5880  131.5030  159.3166 H   0  0  0  0  0  0  0  0  0  0  0  0
  144.5764  131.4404  157.0414 H   0  0  0  0  0  0  0  0  0  0  0  0
  145.8120  130.2453  157.4161 H   0  0  0  0  0  0  0  0  0  0  0  0
  143.1731  130.1361  158.3287 H   0  0  0  0  0  0  0  0  0  0  0  0
  144.5031  129.3573  159.1719 H   0  0  0  0  0  0  0  0  0  0  0  0
  142.9272  131.5162  160.2211 H   0  0  0  0  0  0  0  0  0  0  0  0
  144.3898  130.8272  160.9097 H   0  0  0  0  0  0  0  0  0  0  0  0
  145.1891  133.0354  160.5302 H   0  0  0  0  0  0  0  0  0  0  0  0
  144.1080  133.2504  159.1586 H   0  0  0  0  0  0  0  0  0  0  0  0
  142.6850  134.7772  156.7131 H   0  0  0  0  0  0  0  0  0  0  0  0
  144.0768  133.0837  152.6184 H   0  0  0  0  0  0  0  0  0  0  0  0
  143.0365  134.1672  151.7307 H   0  0  0  0  0  0  0  0  0  0  0  0
  142.8593  131.7901  150.9395 H   0  0  0  0  0  0  0  0  0  0  0  0
  143.3990  132.8343  149.6421 H   0  0  0  0  0  0  0  0  0  0  0  0
  146.8022  131.6690  149.8517 H   0  0  0  0  0  0  0  0  0  0  0  0
  145.7343  132.7597  148.9953 H   0  0  0  0  0  0  0  0  0  0  0  0
  147.1874  134.0395  150.5604 H   0  0  0  0  0  0  0  0  0  0  0  0
  146.7052  133.0147  151.8896 H   0  0  0  0  0  0  0  0  0  0  0  0
  1  2  1  0  0  0  0
  1 30  1  0  0  0  0
  2 29  1  0  0  0  0
  2  3  1  0  0  0  0
  2 25  1  0  0  0  0
  3  4  1  0  0  0  0
  3 31  1  0  0  0  0
  3 32  1  0  0  0  0
  4 24  1  0  0  0  0
  4  5  1  0  0  0  0
  5  6  2  0  0  0  0
  5 33  1  0  0  0  0
  6  7  1  0  0  0  0
  7 24  2  0  0  0  0
  7  8  1  0  0  0  0
  8  9  1  0  0  0  0
  8 21  2  0  0  0  0
  9 10  1  0  0  0  0
  9 16  1  0  0  0  0
 10 11  1  0  0  0  0
 10 34  1  0  0  0  0
 10 35  1  0  0  0  0
 11 15  1  0  0  0  0
 11 12  1  0  0  0  0
 11 36  1  0  0  0  0
 12 13  1  0  0  0  0
 12 37  1  0  0  0  0
 12 38  1  0  0  0  0
 13 14  1  0  0  0  0
 13 39  1  0  0  0  0
 13 40  1  0  0  0  0
 14 15  1  0  0  0  0
 14 41  1  0  0  0  0
 14 42  1  0  0  0  0
 16 20  1  0  0  0  0
 16 17  1  0  0  0  0
 16 43  1  0  0  0  0
 17 18  1  0  0  0  0
 17 44  1  0  0  0  0
 17 45  1  0  0  0  0
 18 19  1  0  0  0  0
 18 46  1  0  0  0  0
 18 47  1  0  0  0  0
 19 20  1  0  0  0  0
 19 48  1  0  0  0  0
 19 49  1  0  0  0  0
 20 50  1  0  0  0  0
 20 51  1  0  0  0  0
 21 22  1  0  0  0  0
 22 23  2  0  0  0  0
 22 52  1  0  0  0  0
 23 24  1  0  0  0  0
 25 26  1  0  0  0  0
 25 53  1  0  0  0  0
 25 54  1  0  0  0  0
 26 27  1  0  0  0  0
 26 55  1  0  0  0  0
 26 56  1  0  0  0  0
 27 28  1  0  0  0  0
 28 29  1  0  0  0  0
 28 57  1  0  0  0  0
 28 58  1  0  0  0  0
 29 59  1  0  0  0  0
 29 60  1  0  0  0  0
M  END
> <s_m_source_file>
AV-unprocessed.smi

> <i_m_source_file_index>
173

> <i_lp_mmshare_version>
43012

> <i_f3d_flags>
0

> <s_epik_input>
W0NIMl0xW0NIMl1PW0NIMl1bQ0gyXUMxKFtPSF0pW0NIMl1uKFtjSF1uMiljKGMyMyluW2NIXW5jM04oW0NIMl1bQ0BASF00W0NIMl1bQ0gyXVtDSDJdTzQpW0NIXTVbQ0gyXVtDSDJdW0NIMl1bQ0gyXTU=

> <s_epik_cmdline>
J2VwaWtfcHl0aG9uJywgJy1waCcsICc3LjAnLCAnLXRuJywgJzgnLCAnLW1hJywgJzIwMCcsICctbWV0YWxfYmluZGluZycsICctaW1hZScsICc8aW5maWxlLm1hZT4nLCAnLW9tYWUnLCAnPG91dGZpbGUubWFlPic=

> <r_lp_tautomer_probability>
1

> <r_epik_Ionization_Penalty>
0.0053129

> <r_epik_Ionization_Penalty_Charging>
0

> <r_epik_Ionization_Penalty_Neutral>
0.0053129

> <r_epik_State_Penalty>
0.00367355

> <r_epik_Charging_Adjusted_Penalty>
0.00367355

> <i_epik_Tot_Q>
0

> <i_epik_Tot_abs_Q>
0

> <r_epik_Metal_State_Penalty>
-0

> <b_epik_Metal_Only>
0

> <s_lp_Force_Field>
OPLS_2005

> <r_lp_Energy>
56.2303

> <b_lp_Chiralities_Consistent>
1

> <s_lp_Variant>
AV-unprocessed.smi:173-1

> <Gold.Version>
5.8.1

> <Gold.Id.Protein>
6NUR|6NUR_protein|mol2

> <Gold.PLP.Fitness>
40.5559

> <Gold.PLP.PLP>
-32.9334

> <Gold.PLP.part.hbond>
-1.0000

> <Gold.PLP.part.metal>
0.0000

> <Gold.PLP.part.buried>
-7.1696

> <Gold.PLP.part.nonpolar>
-25.4450

> <Gold.PLP.part.repulsive>
0.2991

> <Gold.PLP.ligand.clash>
0.0000

> <Gold.PLP.ligand.torsion>
1.1487

> <Gold.PLP.Chemscore.Hbond>
1.0000

> <Gold.PLP.Chemscore.CHOScore>
1.9591

> <Gold.PLP.Chemscore.Metal>
0.0000

> <Gold.Chemscore.Hbonds>
donor molecule, donor type, donor heavy atom, donor atom, acceptor molecule, acceptor atom, score
      L1  H     1    30       P1  7921  1.00
      L1  C     5    33       P1  7948  1.00
      L1  C    22    52       P1 11000  1.00

> <Gold.PLP.Chemscore.Internal.Correction>
1.0425

> <Gold.Rescore>
     Score         DG    S(hbond)    S(metal)    S(lipo)     H(rot)  DE(clash)    DE(int)     intcor
      8.65     -11.33       1.00        0.00      78.22       2.59       0.00       2.67       ----

> <Gold.Chemscore.Fitness>
8.6523

> <Gold.Chemscore.DG>
-11.3252

> <Gold.Chemscore.ZeroCoef>
-5.4800

> <Gold.Chemscore.Hbond>
0.9963

> <Gold.Chemscore.Metal>
0.0000

> <Gold.Chemscore.Lipo>
78.2238

> <Gold.Chemscore.Internal_Hbond>
0.0000

> <Gold.Chemscore.DEClash>
0.0000

> <Gold.Chemscore.DEInternal>
2.6729

> <Gold.Chemscore.Rot>
2.5916

> <Gold.Chemscore.Internal.Correction>
   9.000000E+99

> <Gold.Chemscore.Hbonds>
donor molecule, donor type, donor heavy atom, donor atom, acceptor molecule, acceptor atom, score
      L1  H     1    30       P1  7921  0.94

> <Gold.Chemscore.Hbond.Weighted>
-3.3276

> <Gold.Chemscore.Metal.Weighted>
-0.0000

> <Gold.Chemscore.Lipo.Weighted>
-9.1522

> <Gold.Chemscore.Internal_Hbond.Weighted>
0.0000

> <Gold.Chemscore.DEClash.Weighted>
0.0000

> <Gold.Chemscore.DEInternal.Weighted>
2.6729

> <Gold.Chemscore.Rot.Weighted>
6.6346

> <Gold.Chemscore.Internal.Correction.Weighted>
   9.000000E+99

> <Gold.Protein.RotatedTorsions>
[ 6907 6896 6895 6894 ] final   40.11 input  -60.11 | X-H torsion
[ 7974 7965 7964 7962 ] final   56.31 input  175.53 | X-H torsion
[ 8008 7997 7996 7995 ] final -139.11 input   59.86 | X-H torsion
[ 10167 10162 10161 10158 ] final  153.92 input  -65.29 | X-H torsion
[ 10718 10713 10712 10709 ] final -168.30 input   66.30 | X-H torsion
[ 10763 10752 10751 10750 ] final -165.72 input  -60.55 | X-H torsion
[ 11005 11000 10999 10996 ] final  108.99 input  -57.11 | X-H torsion

> <Gold.Protein.ActiveResidues>
 VAL166  LYS551  ARG553  GLY616  TRP617  ASP618  TYR619  PRO620  LYS621  CYS622 
 ASP623  PHE694  ASN695  SER759  ASP760  ASP761  ALA762  ILE779  LEU786  VAL792 
 PHE793  MET794  SER795  GLU796  ALA797  LYS798  CYS799  TRP800  GLU811  SER814 

> <Gold.Protein.RotatedAtoms>
  152.1783  134.8776  160.0528 H   0  0  0  0  0  0  0  0  0  0  0  0  # atno 6907 bound_to 6896
  151.9709  133.3720  159.4079 H   0  0  0  0  0  0  0  0  0  0  0  0  # atno 6908 bound_to 6896
  150.6913  134.4064  159.5186 H   0  0  0  0  0  0  0  0  0  0  0  0  # atno 6909 bound_to 6896
  145.9412  139.3890  143.0362 H   0  0  0  0  0  0  0  0  0  0  0  0  # atno 7974 bound_to 7965
  155.4394  140.0530  157.3011 H   0  0  0  0  0  0  0  0  0  0  0  0  # atno 8008 bound_to 7997
  154.4825  140.2087  155.9689 H   0  0  0  0  0  0  0  0  0  0  0  0  # atno 8009 bound_to 7997
  156.1226  140.3185  155.8235 H   0  0  0  0  0  0  0  0  0  0  0  0  # atno 8010 bound_to 7997
  139.4825  144.5231  151.7843 H   0  0  0  0  0  0  0  0  0  0  0  0  # atno 10167 bound_to 10162
  156.6950  130.9174  151.3073 H   0  0  0  0  0  0  0  0  0  0  0  0  # atno 10718 bound_to 10713
  154.6904  135.2970  154.9488 H   0  0  0  0  0  0  0  0  0  0  0  0  # atno 10763 bound_to 10752
  154.0453  135.6652  153.4798 H   0  0  0  0  0  0  0  0  0  0  0  0  # atno 10764 bound_to 10752
  153.0608  135.5117  154.7993 H   0  0  0  0  0  0  0  0  0  0  0  0  # atno 10765 bound_to 10752
  139.8854  134.9446  156.6057 H   0  0  0  0  0  0  0  0  0  0  0  0  # atno 11005 bound_to 11000
  145.8297  140.9637  143.0855 LP  0  0  0  0  0  0  0  0  0  0  0  0  # atno 17320 bound_to 7965
  144.6779  140.0147  143.7484 LP  0  0  0  0  0  0  0  0  0  0  0  0  # atno 17321 bound_to 7965
  140.4748  144.1535  150.5923 LP  0  0  0  0  0  0  0  0  0  0  0  0  # atno 17342 bound_to 10162
  140.4343  143.2554  151.9556 LP  0  0  0  0  0  0  0  0  0  0  0  0  # atno 17343 bound_to 10162
  157.6995  130.9317  150.0742 LP  0  0  0  0  0  0  0  0  0  0  0  0  # atno 17370 bound_to 10713
  156.1770  130.3648  149.9087 LP  0  0  0  0  0  0  0  0  0  0  0  0  # atno 17371 bound_to 10713
  140.7850  133.8629  155.8598 LP  0  0  0  0  0  0  0  0  0  0  0  0  # atno 17394 bound_to 11000
  140.9727  134.1509  157.4562 LP  0  0  0  0  0  0  0  0  0  0  0  0  # atno 17395 bound_to 11000

$$$$
