#       Name:                AV-unprocessed.smi:1737
#       Creating user name   scv26
#       Creation time:       Fri Mar 27 08:20:51 2020


#       File generated by GOLD software.
#

@<TRIPOS>MOLECULE
AV-unprocessed.smi:1737
    48    49     1
SMALL
NO_CHARGES


@<TRIPOS>ATOM
      1 ****        -3.9647   0.3432   0.2454 C.3            1 S1                 0.0000
      2 ****        -3.7875   1.8236   0.5430 C.ar           1 S1                 0.0000
      3 ****        -4.9247   2.6567   0.6063 C.ar           1 S1                 0.0000
      4 ****        -4.7583   4.0247   0.8818 C.ar           1 S1                 0.0000
      5 ****        -3.4530   4.5046   1.0842 C.ar           1 S1                 0.0000
      6 ****        -2.3608   3.7158   1.0253 N.ar           1 S1                 0.0000
      7 ****        -2.5041   2.3932   0.7594 C.ar           1 S1                 0.0000
      8 ****        -1.3986   1.5008   0.6790 N.am           1 S1                 0.0000
      9 ****        -0.0898   1.7710   0.8267 C.2            1 S1                 0.0000
     10 ****         0.3867   2.8771   1.0826 O.2            1 S1                 0.0000
     11 ****         0.6483   0.6660   0.6556 N.am           1 S1                 0.0000
     12 ****         2.1062   0.5953   0.7089 C.3            1 S1                 0.0000
     13 ****         2.6725  -0.2568  -0.4545 C.3            1 S1                 0.0000
     14 ****         2.4918   0.5439  -1.7643 C.3            1 S1                 0.0000
     15 ****         2.1197  -1.6280  -0.5189 N.3            1 S1                 0.0000
     16 ****         2.6820  -2.4095  -1.6240 C.3            1 S1                 0.0000
     17 ****         2.1201  -3.8405  -1.6816 C.3            1 S1                 0.0000
     18 ****         2.3570  -4.4982  -0.4439 O.3            1 S1                 0.0000
     19 ****         1.7705  -3.8087   0.6521 C.3            1 S1                 0.0000
     20 ****         2.3308  -2.3777   0.7232 C.3            1 S1                 0.0000
     21 ****        -5.0150   0.0893   0.0992 H              1 S1                 0.0000
     22 ****        -3.5866  -0.2595   1.0717 H              1 S1                 0.0000
     23 ****        -3.4246   0.0678  -0.6608 H              1 S1                 0.0000
     24 ****        -5.9144   2.2554   0.4457 H              1 S1                 0.0000
     25 ****        -5.6085   4.6886   0.9359 H              1 S1                 0.0000
     26 ****        -3.2807   5.5489   1.2989 H              1 S1                 0.0000
     27 ****        -1.6344   0.5415   0.4733 H              1 S1                 0.0000
     28 ****         0.1682  -0.1972   0.4470 H              1 S1                 0.0000
     29 ****         2.5481   1.5926   0.6753 H              1 S1                 0.0000
     30 ****         2.4018   0.1923   1.6769 H              1 S1                 0.0000
     31 ****         3.7476  -0.3356  -0.2856 H              1 S1                 0.0000
     32 ****         2.8152   1.5780  -1.6425 H              1 S1                 0.0000
     33 ****         1.4488   0.5618  -2.0822 H              1 S1                 0.0000
     34 ****         3.0867   0.1361  -2.5810 H              1 S1                 0.0000
     35 ****         2.4631  -1.9339  -2.5787 H              1 S1                 0.0000
     36 ****         3.7684  -2.4512  -1.5326 H              1 S1                 0.0000
     37 ****         1.0504  -3.8280  -1.8976 H              1 S1                 0.0000
     38 ****         2.6014  -4.4034  -2.4813 H              1 S1                 0.0000
     39 ****         0.6848  -3.7936   0.5443 H              1 S1                 0.0000
     40 ****         1.9934  -4.3490   1.5723 H              1 S1                 0.0000
     41 ****         3.3962  -2.4174   0.9548 H              1 S1                 0.0000
     42 ****         1.8447  -1.8785   1.5599 H              1 S1                 0.0000
     43 ****        -1.4513   4.1031   1.1766 LP             1 S1                 0.0000
     44 ****        -0.2160   3.6666   1.1979 LP             1 S1                 0.0000
     45 ****         1.3765   2.9859   1.1752 LP             1 S1                 0.0000
     46 ****         1.1392  -1.4997  -0.6677 LP             1 S1                 0.0000
     47 ****         3.3441  -4.5587  -0.2952 LP             1 S1                 0.0000
     48 ****         1.9698  -5.4191  -0.4893 LP             1 S1                 0.0000
@<TRIPOS>BOND
    1    1    2 1     
    2    1   21 1     
    3    1   22 1     
    4    1   23 1     
    5    2    7 ar    
    6    2    3 ar    
    7    3    4 ar    
    8    3   24 1     
    9    4    5 ar    
   10    4   25 1     
   11    5    6 ar    
   12    5   26 1     
   13    6    7 ar    
   14    7    8 1     
   15    8    9 am    
   16    8   27 1     
   17    9   10 2     
   18    9   11 am    
   19   11   12 1     
   20   11   28 1     
   21   12   13 1     
   22   12   29 1     
   23   12   30 1     
   24   13   14 1     
   25   13   15 1     
   26   13   31 1     
   27   14   32 1     
   28   14   33 1     
   29   14   34 1     
   30   15   20 1     
   31   15   16 1     
   32   16   17 1     
   33   16   35 1     
   34   16   36 1     
   35   17   18 1     
   36   17   37 1     
   37   17   38 1     
   38   18   19 1     
   39   19   20 1     
   40   19   39 1     
   41   19   40 1     
   42   20   41 1     
   43   20   42 1     
   44    6   43 1     
   45   10   44 1     
   46   10   45 1     
   47   15   46 1     
   48   18   47 1     
   49   18   48 1     
@<TRIPOS>SUBSTRUCTURE
      1 S1             1
@<TRIPOS>SET
LONE_PAIRS      STATIC     ATOMS    <user>   **** ""
6 43 44 45 46 47 48
DONOR_HYDROGENS      STATIC     ATOMS    <user>   **** ""
2 27 28
ATOM$BLUE        STATIC     ATOMS    COLORGROUP SYSTEM
6 43 44 45 46 47 48
ATOM$RED        STATIC     ATOMS    COLORGROUP SYSTEM
2 27 28
