AV-unprocessed.smi:966|AV-procd|sdf|4284|dock9
  -GOLD-   22720 2193D 1   1.00000     0.00000
 Structure written by MMmdl.
 30 31  0  0  0  0  0  0  0  0  2 V2000
  153.3406  142.8711  161.9580 C   0  0  0  0  0  0  0  0  0  0  0  0
  152.9421  142.6916  160.5043 C   0  0  0  0  0  0  0  0  0  0  0  0
  152.9072  141.3628  159.9362 C   0  0  0  0  0  0  0  0  0  0  0  0
  152.5324  141.2132  158.6150 C   0  0  0  0  0  0  0  0  0  0  0  0
  152.4501  140.1682  157.9277 O   0  5  0  0  0  0  0  0  0  0  0  0
  152.1782  142.3537  157.8187 N   0  0  0  0  0  0  0  0  0  0  0  0
  151.7533  142.2123  156.3950 C   0  0  0  0  0  0  0  0  0  0  0  0
  150.5609  141.2467  156.2418 C   0  0  1  0  0  0  0  0  0  0  0  0
  149.5992  141.6397  155.1213 C   0  0  0  0  0  0  0  0  0  0  0  0
  148.9629  140.3113  154.7832 C   0  0  0  0  0  0  0  0  0  0  0  0
  150.1516  139.3643  154.9075 C   0  0  0  0  0  0  0  0  0  0  0  0
  150.9985  139.9314  155.9032 O   0  0  0  0  0  0  0  0  0  0  0  0
  152.2349  143.6262  158.3265 C   0  0  0  0  0  0  0  0  0  0  0  0
  151.9703  144.6189  157.6434 O   0  0  0  0  0  0  0  0  0  0  0  0
  152.6264  143.7527  159.7336 C   0  0  0  0  0  0  0  0  0  0  0  0
  152.6536  145.0851  160.2491 C   0  0  0  0  0  0  0  0  0  0  0  0
  152.6838  146.1728  160.6460 N   0  0  0  0  0  0  0  0  0  0  0  0
  153.5502  141.9113  162.4311 H   0  0  0  0  0  0  0  0  0  0  0  0
  152.5389  143.3546  162.5171 H   0  0  0  0  0  0  0  0  0  0  0  0
  154.2370  143.4874  162.0341 H   0  0  0  0  0  0  0  0  0  0  0  0
  153.1788  140.5030  160.5313 H   0  0  0  0  0  0  0  0  0  0  0  0
  151.5035  143.1810  155.9599 H   0  0  0  0  0  0  0  0  0  0  0  0
  152.5695  141.8771  155.7533 H   0  0  0  0  0  0  0  0  0  0  0  0
  150.0000  141.1775  157.1749 H   0  0  0  0  0  0  0  0  0  0  0  0
  148.8767  142.3962  155.4286 H   0  0  0  0  0  0  0  0  0  0  0  0
  150.1475  142.0192  154.2578 H   0  0  0  0  0  0  0  0  0  0  0  0
  148.2017  140.0606  155.5231 H   0  0  0  0  0  0  0  0  0  0  0  0
  148.5017  140.2924  153.7954 H   0  0  0  0  0  0  0  0  0  0  0  0
  149.8504  138.3497  155.1688 H   0  0  0  0  0  0  0  0  0  0  0  0
  150.7045  139.3224  153.9686 H   0  0  0  0  0  0  0  0  0  0  0  0
  1  2  1  0  0  0  0
  1 18  1  0  0  0  0
  1 19  1  0  0  0  0
  1 20  1  0  0  0  0
  2 15  2  0  0  0  0
  2  3  1  0  0  0  0
  3  4  2  0  0  0  0
  3 21  1  0  0  0  0
  4  5  1  0  0  0  0
  4  6  1  0  0  0  0
  6  7  1  0  0  0  0
  6 13  1  0  0  0  0
  7  8  1  0  0  0  0
  7 22  1  0  0  0  0
  7 23  1  0  0  0  0
  8 12  1  0  0  0  0
  8  9  1  0  0  0  0
  8 24  1  0  0  0  0
  9 10  1  0  0  0  0
  9 25  1  0  0  0  0
  9 26  1  0  0  0  0
 10 11  1  0  0  0  0
 10 27  1  0  0  0  0
 10 28  1  0  0  0  0
 11 12  1  0  0  0  0
 11 29  1  0  0  0  0
 11 30  1  0  0  0  0
 13 14  2  0  0  0  0
 13 15  1  0  0  0  0
 15 16  1  0  0  0  0
 16 17  3  0  0  0  0
M  CHG  1   5  -1
M  END
> <s_m_source_file>
AV-unprocessed.smi

> <i_m_source_file_index>
966

> <i_lp_mmshare_version>
43012

> <i_f3d_flags>
0

> <s_epik_input>
W0NIM11jMVtjSF1jKFtPSF0pbihjKD1PKWMxQyNOKVtDSDJdW0NAQEhdMltDSDJdW0NIMl1bQ0gyXU8y

> <s_epik_cmdline>
J2VwaWtfcHl0aG9uJywgJy1waCcsICc3LjAnLCAnLXRuJywgJzgnLCAnLW1hJywgJzIwMCcsICctbWV0YWxfYmluZGluZycsICctaW1hZScsICc8aW5maWxlLm1hZT4nLCAnLW9tYWUnLCAnPG91dGZpbGUubWFlPic=

> <r_lp_tautomer_probability>
1

> <r_epik_Ionization_Penalty>
3.48555e-06

> <r_epik_Ionization_Penalty_Charging>
3.48554e-06

> <r_epik_Ionization_Penalty_Neutral>
1.71861e-11

> <r_epik_State_Penalty>
-0

> <r_epik_Charging_Adjusted_Penalty>
3.48554e-06

> <i_epik_Tot_Q>
-1

> <i_epik_Tot_abs_Q>
1

> <r_epik_Metal_State_Penalty>
-0

> <b_epik_Metal_Only>
0

> <s_lp_Force_Field>
OPLS_2005

> <r_lp_Energy>
36.155

> <b_lp_Chiralities_Consistent>
1

> <s_lp_Variant>
AV-unprocessed.smi:966-2

> <Gold.Version>
5.8.1

> <Gold.Id.Protein>
6NUR|6NUR_protein|mol2

> <Gold.PLP.Fitness>
39.4460

> <Gold.PLP.PLP>
-34.4964

> <Gold.PLP.part.hbond>
-2.6703

> <Gold.PLP.part.metal>
0.0000

> <Gold.PLP.part.buried>
-6.7398

> <Gold.PLP.part.nonpolar>
-26.5805

> <Gold.PLP.part.repulsive>
1.4820

> <Gold.PLP.ligand.clash>
0.0000

> <Gold.PLP.ligand.torsion>
0.4999

> <Gold.PLP.Chemscore.Hbond>
1.9825

> <Gold.PLP.Chemscore.CHOScore>
0.0000

> <Gold.PLP.Chemscore.Metal>
0.0000

> <Gold.Chemscore.Hbonds>
donor molecule, donor type, donor heavy atom, donor atom, acceptor molecule, acceptor atom, score
      P1  H  7997  8008       L1     5  0.71

> <Gold.PLP.Chemscore.Internal.Correction>
0.0019

> <Gold.Rescore>
     Score         DG    S(hbond)    S(metal)    S(lipo)     H(rot)  DE(clash)    DE(int)     intcor
     10.27     -14.46       0.83        0.00      80.41       1.25       3.26       0.94       ----

> <Gold.Chemscore.Fitness>
10.2733

> <Gold.Chemscore.DG>
-14.4648

> <Gold.Chemscore.ZeroCoef>
-5.4800

> <Gold.Chemscore.Hbond>
0.8326

> <Gold.Chemscore.Metal>
0.0000

> <Gold.Chemscore.Lipo>
80.4058

> <Gold.Chemscore.Internal_Hbond>
0.0000

> <Gold.Chemscore.DEClash>
3.2551

> <Gold.Chemscore.DEInternal>
0.9364

> <Gold.Chemscore.Rot>
1.2514

> <Gold.Chemscore.Internal.Correction>
   9.000000E+99

> <Gold.Chemscore.Hbonds>
donor molecule, donor type, donor heavy atom, donor atom, acceptor molecule, acceptor atom, score
      P1  H  7997  8008       L1     5  0.16

> <Gold.Chemscore.Hbond.Weighted>
-2.7809

> <Gold.Chemscore.Metal.Weighted>
-0.0000

> <Gold.Chemscore.Lipo.Weighted>
-9.4075

> <Gold.Chemscore.Internal_Hbond.Weighted>
0.0000

> <Gold.Chemscore.DEClash.Weighted>
3.2551

> <Gold.Chemscore.DEInternal.Weighted>
0.9364

> <Gold.Chemscore.Rot.Weighted>
3.2036

> <Gold.Chemscore.Internal.Correction.Weighted>
   9.000000E+99

> <Gold.Protein.RotatedTorsions>
[ 6907 6896 6895 6894 ] final    0.29 input  -60.11 | X-H torsion
[ 7974 7965 7964 7962 ] final  -11.77 input  175.53 | X-H torsion
[ 8008 7997 7996 7995 ] final  -67.72 input   59.86 | X-H torsion
[ 10167 10162 10161 10158 ] final  -59.21 input  -65.29 | X-H torsion
[ 10718 10713 10712 10709 ] final -164.27 input   66.30 | X-H torsion
[ 10763 10752 10751 10750 ] final -146.97 input  -60.55 | X-H torsion
[ 11005 11000 10999 10996 ] final -123.74 input  -57.11 | X-H torsion

> <Gold.Protein.ActiveResidues>
 VAL166  LYS551  ARG553  GLY616  TRP617  ASP618  TYR619  PRO620  LYS621  CYS622 
 ASP623  PHE694  ASN695  SER759  ASP760  ASP761  ALA762  ILE779  LEU786  VAL792 
 PHE793  MET794  SER795  GLU796  ALA797  LYS798  CYS799  TRP800  GLU811  SER814 

> <Gold.Protein.RotatedAtoms>
  151.5741  135.1061  160.0001 H   0  0  0  0  0  0  0  0  0  0  0  0  # atno 6907 bound_to 6896
  152.4386  133.7403  159.6647 H   0  0  0  0  0  0  0  0  0  0  0  0  # atno 6908 bound_to 6896
  150.8288  133.8057  159.3130 H   0  0  0  0  0  0  0  0  0  0  0  0  # atno 6909 bound_to 6896
  146.2176  140.2959  142.8371 H   0  0  0  0  0  0  0  0  0  0  0  0  # atno 7974 bound_to 7965
  154.4819  140.0887  156.7397 H   0  0  0  0  0  0  0  0  0  0  0  0  # atno 8008 bound_to 7997
  155.4449  140.3455  155.4276 H   0  0  0  0  0  0  0  0  0  0  0  0  # atno 8009 bound_to 7997
  156.1204  140.1472  156.9201 H   0  0  0  0  0  0  0  0  0  0  0  0  # atno 8010 bound_to 7997
  140.6149  143.2399  151.5621 H   0  0  0  0  0  0  0  0  0  0  0  0  # atno 10167 bound_to 10162
  156.6366  130.8952  151.2988 H   0  0  0  0  0  0  0  0  0  0  0  0  # atno 10718 bound_to 10713
  154.8309  135.3372  154.6745 H   0  0  0  0  0  0  0  0  0  0  0  0  # atno 10763 bound_to 10752
  153.7365  135.6948  153.4981 H   0  0  0  0  0  0  0  0  0  0  0  0  # atno 10764 bound_to 10752
  153.2274  135.4428  155.0509 H   0  0  0  0  0  0  0  0  0  0  0  0  # atno 10765 bound_to 10752
  140.9895  134.0559  157.3671 H   0  0  0  0  0  0  0  0  0  0  0  0  # atno 11005 bound_to 11000
  144.9092  140.7737  143.5818 LP  0  0  0  0  0  0  0  0  0  0  0  0  # atno 17320 bound_to 7965
  145.2889  139.1891  143.4751 LP  0  0  0  0  0  0  0  0  0  0  0  0  # atno 17321 bound_to 7965
  139.5390  144.2699  152.1312 LP  0  0  0  0  0  0  0  0  0  0  0  0  # atno 17342 bound_to 10162
  140.1906  144.4755  150.6481 LP  0  0  0  0  0  0  0  0  0  0  0  0  # atno 17343 bound_to 10162
  157.7184  130.9526  150.1341 LP  0  0  0  0  0  0  0  0  0  0  0  0  # atno 17370 bound_to 10713
  156.2192  130.3672  149.8577 LP  0  0  0  0  0  0  0  0  0  0  0  0  # atno 17371 bound_to 10713
  139.8986  135.0155  156.7155 LP  0  0  0  0  0  0  0  0  0  0  0  0  # atno 17394 bound_to 11000
  140.7062  133.9263  155.8055 LP  0  0  0  0  0  0  0  0  0  0  0  0  # atno 17395 bound_to 11000

$$$$
