AV-unprocessed.smi:3138|AV-procd|sdf|11954|dock8
  -GOLD-   2272017353D 1   1.00000     0.00000
 Structure written by MMmdl.
 38 39  0  0  0  0  0  0  0  0  2 V2000
  152.0917  140.8975  157.7393 O   0  0  0  0  0  0  0  0  0  0  0  0
  152.0575  142.0339  158.2156 C   0  0  0  0  0  0  0  0  0  0  0  0
  151.0360  143.0373  157.6587 C   0  0  0  0  0  0  0  0  0  0  0  0
  150.7634  142.8274  156.2219 N   0  3  0  0  0  0  0  0  0  0  0  0
  150.0057  141.5960  155.9237 C   0  0  0  0  0  0  0  0  0  0  0  0
  148.8272  141.8754  154.9743 C   0  0  0  0  0  0  0  0  0  0  0  0
  148.3423  140.6808  154.3033 N   0  0  0  0  0  0  0  0  0  0  0  0
  147.3376  140.5760  153.3639 C   0  0  0  0  0  0  0  0  0  0  0  0
  147.2537  139.2619  153.0024 C   0  0  0  0  0  0  0  0  0  0  0  0
  148.2699  138.6328  153.7741 C   0  0  0  0  0  0  0  0  0  0  0  0
  148.9230  139.4856  154.5471 N   0  0  0  0  0  0  0  0  0  0  0  0
  152.8908  142.4277  159.2094 N   0  0  0  0  0  0  0  0  0  0  0  0
  153.8836  141.5753  159.8789 C   0  0  0  0  0  0  0  0  0  0  0  0
  153.4130  141.3046  161.3194 C   0  0  0  0  0  0  0  0  0  0  0  0
  153.1789  142.6250  162.0779 C   0  0  0  0  0  0  0  0  0  0  0  0
  152.2891  143.5931  161.2750 C   0  0  0  0  0  0  0  0  0  0  0  0
  152.8090  143.7546  159.8345 C   0  0  0  0  0  0  0  0  0  0  0  0
  150.1010  142.9451  158.2131 H   0  0  0  0  0  0  0  0  0  0  0  0
  151.4142  144.0514  157.7966 H   0  0  0  0  0  0  0  0  0  0  0  0
  150.2341  143.6183  155.8826 H   0  0  0  0  0  0  0  0  0  0  0  0
  150.6777  140.8686  155.4670 H   0  0  0  0  0  0  0  0  0  0  0  0
  149.6482  141.1529  156.8541 H   0  0  0  0  0  0  0  0  0  0  0  0
  148.0008  142.3280  155.5238 H   0  0  0  0  0  0  0  0  0  0  0  0
  149.1264  142.5946  154.2109 H   0  0  0  0  0  0  0  0  0  0  0  0
  146.7707  141.4342  153.0341 H   0  0  0  0  0  0  0  0  0  0  0  0
  146.5741  138.8177  152.2900 H   0  0  0  0  0  0  0  0  0  0  0  0
  148.5524  137.5903  153.7931 H   0  0  0  0  0  0  0  0  0  0  0  0
  154.0723  140.6328  159.3677 H   0  0  0  0  0  0  0  0  0  0  0  0
  154.8445  142.0918  159.8936 H   0  0  0  0  0  0  0  0  0  0  0  0
  152.4891  140.7250  161.2985 H   0  0  0  0  0  0  0  0  0  0  0  0
  154.1482  140.6972  161.8481 H   0  0  0  0  0  0  0  0  0  0  0  0
  152.7360  142.4266  163.0543 H   0  0  0  0  0  0  0  0  0  0  0  0
  154.1414  143.1015  162.2678 H   0  0  0  0  0  0  0  0  0  0  0  0
  151.2661  143.2152  161.2519 H   0  0  0  0  0  0  0  0  0  0  0  0
  152.2496  144.5630  161.7719 H   0  0  0  0  0  0  0  0  0  0  0  0
  153.7991  144.2128  159.8418 H   0  0  0  0  0  0  0  0  0  0  0  0
  152.1678  144.4452  159.2849 H   0  0  0  0  0  0  0  0  0  0  0  0
  151.6449  142.7973  155.7298 H   0  0  0  0  0  0  0  0  0  0  0  0
  1  2  2  0  0  0  0
  2  3  1  0  0  0  0
  2 12  1  0  0  0  0
  3  4  1  0  0  0  0
  3 18  1  0  0  0  0
  3 19  1  0  0  0  0
  4  5  1  0  0  0  0
  4 20  1  0  0  0  0
  4 38  1  0  0  0  0
  5  6  1  0  0  0  0
  5 21  1  0  0  0  0
  5 22  1  0  0  0  0
  6  7  1  0  0  0  0
  6 23  1  0  0  0  0
  6 24  1  0  0  0  0
  7 11  1  0  0  0  0
  7  8  1  0  0  0  0
  8  9  2  0  0  0  0
  8 25  1  0  0  0  0
  9 10  1  0  0  0  0
  9 26  1  0  0  0  0
 10 11  2  0  0  0  0
 10 27  1  0  0  0  0
 12 17  1  0  0  0  0
 12 13  1  0  0  0  0
 13 14  1  0  0  0  0
 13 28  1  0  0  0  0
 13 29  1  0  0  0  0
 14 15  1  0  0  0  0
 14 30  1  0  0  0  0
 14 31  1  0  0  0  0
 15 16  1  0  0  0  0
 15 32  1  0  0  0  0
 15 33  1  0  0  0  0
 16 17  1  0  0  0  0
 16 34  1  0  0  0  0
 16 35  1  0  0  0  0
 17 36  1  0  0  0  0
 17 37  1  0  0  0  0
M  CHG  1   4   1
M  END
> <s_m_source_file>
AV-unprocessed.smi

> <i_m_source_file_index>
3138

> <i_lp_mmshare_version>
43012

> <i_f3d_flags>
0

> <s_epik_input>
W0NIMl0xW0NIMl1bQ0gyXVtDSDJdW0NIMl1OMUMoPU8pW0NIMl1bTkhdW0NIMl1bQ0gyXW4yW2NIXVtjSF1bY0hdbjI=

> <s_epik_cmdline>
J2VwaWtfcHl0aG9uJywgJy1waCcsICc3LjAnLCAnLXRuJywgJzgnLCAnLW1hJywgJzIwMCcsICctbWV0YWxfYmluZGluZycsICctaW1hZScsICc8aW5maWxlLm1hZT4nLCAnLW9tYWUnLCAnPG91dGZpbGUubWFlPic=

> <r_lp_tautomer_probability>
1

> <r_epik_Ionization_Penalty>
0.202061

> <r_epik_Ionization_Penalty_Charging>
0.202058

> <r_epik_Ionization_Penalty_Neutral>
2.33614e-06

> <r_epik_State_Penalty>
0.191938

> <r_epik_Charging_Adjusted_Penalty>
0.393996

> <i_epik_Tot_Q>
1

> <i_epik_Tot_abs_Q>
1

> <r_epik_Metal_State_Penalty>
0.192416

> <b_epik_Metal_Only>
0

> <s_lp_Force_Field>
OPLS_2005

> <r_lp_Energy>
21.8037

> <b_lp_Chiralities_Consistent>
1

> <s_lp_Variant>
AV-unprocessed.smi:3138-1

> <Gold.Version>
5.8.1

> <Gold.Id.Protein>
6NUR|6NUR_protein|mol2

> <Gold.PLP.Fitness>
46.3910

> <Gold.PLP.PLP>
-39.0949

> <Gold.PLP.part.hbond>
-1.0000

> <Gold.PLP.part.metal>
0.0000

> <Gold.PLP.part.buried>
-0.7560

> <Gold.PLP.part.nonpolar>
-37.1689

> <Gold.PLP.part.repulsive>
0.2199

> <Gold.PLP.ligand.clash>
0.0000

> <Gold.PLP.ligand.torsion>
0.8328

> <Gold.PLP.Chemscore.Hbond>
2.0000

> <Gold.PLP.Chemscore.CHOScore>
0.9671

> <Gold.PLP.Chemscore.Metal>
0.0000

> <Gold.Chemscore.Hbonds>
donor molecule, donor type, donor heavy atom, donor atom, acceptor molecule, acceptor atom, score
      L1  H     4    20       P1  8028  2.00
      L1  C    10    27       P1  7948  0.90

> <Gold.PLP.Chemscore.Internal.Correction>
0.0603

> <Gold.Rescore>
     Score         DG    S(hbond)    S(metal)    S(lipo)     H(rot)  DE(clash)    DE(int)     intcor
     13.49     -15.99       0.99        0.00     101.72       1.84       0.44       2.06       ----

> <Gold.Chemscore.Fitness>
13.4932

> <Gold.Chemscore.DG>
-15.9927

> <Gold.Chemscore.ZeroCoef>
-5.4800

> <Gold.Chemscore.Hbond>
0.9947

> <Gold.Chemscore.Metal>
0.0000

> <Gold.Chemscore.Lipo>
101.7199

> <Gold.Chemscore.Internal_Hbond>
0.0000

> <Gold.Chemscore.DEClash>
0.4389

> <Gold.Chemscore.DEInternal>
2.0605

> <Gold.Chemscore.Rot>
1.8402

> <Gold.Chemscore.Internal.Correction>
   9.000000E+99

> <Gold.Chemscore.Hbonds>
donor molecule, donor type, donor heavy atom, donor atom, acceptor molecule, acceptor atom, score
      L1  H     4    20       P1  8028  1.00

> <Gold.Chemscore.Hbond.Weighted>
-3.3224

> <Gold.Chemscore.Metal.Weighted>
-0.0000

> <Gold.Chemscore.Lipo.Weighted>
-11.9012

> <Gold.Chemscore.Internal_Hbond.Weighted>
0.0000

> <Gold.Chemscore.DEClash.Weighted>
0.4389

> <Gold.Chemscore.DEInternal.Weighted>
2.0605

> <Gold.Chemscore.Rot.Weighted>
4.7110

> <Gold.Chemscore.Internal.Correction.Weighted>
   9.000000E+99

> <Gold.Protein.RotatedTorsions>
[ 6907 6896 6895 6894 ] final   41.84 input  -60.11 | X-H torsion
[ 7974 7965 7964 7962 ] final   -4.72 input  175.53 | X-H torsion
[ 8008 7997 7996 7995 ] final  112.26 input   59.86 | X-H torsion
[ 10167 10162 10161 10158 ] final  146.37 input  -65.29 | X-H torsion
[ 10718 10713 10712 10709 ] final -107.95 input   66.30 | X-H torsion
[ 10763 10752 10751 10750 ] final  -99.30 input  -60.55 | X-H torsion
[ 11005 11000 10999 10996 ] final  -50.06 input  -57.11 | X-H torsion

> <Gold.Protein.ActiveResidues>
 VAL166  LYS551  ARG553  GLY616  TRP617  ASP618  TYR619  PRO620  LYS621  CYS622 
 ASP623  PHE694  ASN695  SER759  ASP760  ASP761  ALA762  ILE779  LEU786  VAL792 
 PHE793  MET794  SER795  GLU796  ALA797  LYS798  CYS799  TRP800  GLU811  SER814 

> <Gold.Protein.RotatedAtoms>
  152.2004  134.8593  160.0508 H   0  0  0  0  0  0  0  0  0  0  0  0  # atno 6907 bound_to 6896
  151.9449  133.3643  159.3987 H   0  0  0  0  0  0  0  0  0  0  0  0  # atno 6908 bound_to 6896
  150.6953  134.4325  159.5299 H   0  0  0  0  0  0  0  0  0  0  0  0  # atno 6909 bound_to 6896
  146.2367  140.1914  142.8332 H   0  0  0  0  0  0  0  0  0  0  0  0  # atno 7974 bound_to 7965
  156.2180  140.3003  155.9886 H   0  0  0  0  0  0  0  0  0  0  0  0  # atno 8008 bound_to 7997
  155.2554  140.0427  157.3008 H   0  0  0  0  0  0  0  0  0  0  0  0  # atno 8009 bound_to 7997
  154.5797  140.2372  155.8079 H   0  0  0  0  0  0  0  0  0  0  0  0  # atno 8010 bound_to 7997
  139.4908  144.5834  151.6826 H   0  0  0  0  0  0  0  0  0  0  0  0  # atno 10167 bound_to 10162
  156.0461  130.5688  150.7893 H   0  0  0  0  0  0  0  0  0  0  0  0  # atno 10718 bound_to 10713
  154.7487  135.4977  153.9249 H   0  0  0  0  0  0  0  0  0  0  0  0  # atno 10763 bound_to 10752
  153.1119  135.6711  153.9493 H   0  0  0  0  0  0  0  0  0  0  0  0  # atno 10764 bound_to 10752
  153.9250  135.3084  155.3426 H   0  0  0  0  0  0  0  0  0  0  0  0  # atno 10765 bound_to 10752
  141.0794  133.6657  156.3676 H   0  0  0  0  0  0  0  0  0  0  0  0  # atno 11005 bound_to 11000
  144.9855  140.8499  143.5371 LP  0  0  0  0  0  0  0  0  0  0  0  0  # atno 17320 bound_to 7965
  145.1913  139.2300  143.5241 LP  0  0  0  0  0  0  0  0  0  0  0  0  # atno 17321 bound_to 7965
  140.5445  144.0525  150.6101 LP  0  0  0  0  0  0  0  0  0  0  0  0  # atno 17342 bound_to 10162
  140.3558  143.2936  152.0437 LP  0  0  0  0  0  0  0  0  0  0  0  0  # atno 17343 bound_to 10162
  157.5338  131.0938  150.9920 LP  0  0  0  0  0  0  0  0  0  0  0  0  # atno 17370 bound_to 10713
  157.0219  130.5677  149.5332 LP  0  0  0  0  0  0  0  0  0  0  0  0  # atno 17371 bound_to 10713
  140.5501  134.6036  157.5405 LP  0  0  0  0  0  0  0  0  0  0  0  0  # atno 17394 bound_to 11000
  139.9608  134.7456  156.0242 LP  0  0  0  0  0  0  0  0  0  0  0  0  # atno 17395 bound_to 11000

$$$$
