AV-unprocessed.smi:936|AV-procd|sdf|4208|dock2
  -GOLD-   22720 2113D 1   1.00000     0.00000
 Structure written by MMmdl.
 40 41  0  0  0  0  0  0  0  0  1 V2000
  153.6923  141.0665  160.7564 C   0  0  0  0  0  0  0  0  0  0  0  0
  153.3974  142.5734  160.7325 C   0  0  0  0  0  0  0  0  0  0  0  0
  152.6964  143.0708  162.0045 C   0  0  0  0  0  0  0  0  0  0  0  0
  152.6677  142.9848  159.4926 C   0  0  0  0  0  0  0  0  0  0  0  0
  152.1439  142.1197  158.6185 N   0  0  0  0  0  0  0  0  0  0  0  0
  151.5054  142.7525  157.5477 C   0  0  0  0  0  0  0  0  0  0  0  0
  150.8596  141.9343  156.4713 C   0  0  0  0  0  0  0  0  0  0  0  0
  149.6793  141.1036  157.0017 C   0  0  0  0  0  0  0  0  0  0  0  0
  150.0980  139.7586  157.3797 N   0  0  0  0  0  0  0  0  0  0  0  0
  149.3193  138.8468  157.9870 C   0  0  0  0  0  0  0  0  0  0  0  0
  148.1541  139.0898  158.3053 O   0  0  0  0  0  0  0  0  0  0  0  0
  149.9253  137.6588  158.2405 N   0  0  0  0  0  0  0  0  0  0  0  0
  151.3015  137.2939  157.8649 C   0  0  0  0  0  0  0  0  0  0  0  0
  151.2722  136.5128  156.5405 C   0  0  0  0  0  0  0  0  0  0  0  0
  150.3472  134.9559  156.7233 S   0  0  0  0  0  0  0  0  0  0  0  0
  148.8313  135.5919  157.5050 C   0  0  0  0  0  0  0  0  0  0  0  0
  149.1650  136.4927  158.7063 C   0  0  0  0  0  0  0  0  0  0  0  0
  151.5529  144.1220  157.6226 C   0  0  0  0  0  0  0  0  0  0  0  0
  152.4030  144.6661  159.0424 S   0  0  0  0  0  0  0  0  0  0  0  0
  154.2591  140.7636  159.8756 H   0  0  0  0  0  0  0  0  0  0  0  0
  152.7714  140.4827  160.7768 H   0  0  0  0  0  0  0  0  0  0  0  0
  154.2770  140.7944  161.6353 H   0  0  0  0  0  0  0  0  0  0  0  0
  154.3656  143.0747  160.6995 H   0  0  0  0  0  0  0  0  0  0  0  0
  152.5806  144.1550  161.9890 H   0  0  0  0  0  0  0  0  0  0  0  0
  153.2689  142.8124  162.8957 H   0  0  0  0  0  0  0  0  0  0  0  0
  151.7039  142.6311  162.1077 H   0  0  0  0  0  0  0  0  0  0  0  0
  150.5162  142.5896  155.6698 H   0  0  0  0  0  0  0  0  0  0  0  0
  151.5967  141.2706  156.0173 H   0  0  0  0  0  0  0  0  0  0  0  0
  149.2522  141.5845  157.8822 H   0  0  0  0  0  0  0  0  0  0  0  0
  148.8820  141.0532  156.2583 H   0  0  0  0  0  0  0  0  0  0  0  0
  151.0481  139.4977  157.1597 H   0  0  0  0  0  0  0  0  0  0  0  0
  151.9636  138.1548  157.7736 H   0  0  0  0  0  0  0  0  0  0  0  0
  151.7488  136.6797  158.6476 H   0  0  0  0  0  0  0  0  0  0  0  0
  150.8120  137.1116  155.7535 H   0  0  0  0  0  0  0  0  0  0  0  0
  152.2857  136.2795  156.2136 H   0  0  0  0  0  0  0  0  0  0  0  0
  148.2541  136.1453  156.7634 H   0  0  0  0  0  0  0  0  0  0  0  0
  148.2191  134.7473  157.8212 H   0  0  0  0  0  0  0  0  0  0  0  0
  149.7430  135.9367  159.4456 H   0  0  0  0  0  0  0  0  0  0  0  0
  148.2471  136.7844  159.2188 H   0  0  0  0  0  0  0  0  0  0  0  0
  151.1402  144.8414  156.9307 H   0  0  0  0  0  0  0  0  0  0  0  0
  1  2  1  0  0  0  0
  1 20  1  0  0  0  0
  1 21  1  0  0  0  0
  1 22  1  0  0  0  0
  2  3  1  0  0  0  0
  2  4  1  0  0  0  0
  2 23  1  0  0  0  0
  3 24  1  0  0  0  0
  3 25  1  0  0  0  0
  3 26  1  0  0  0  0
  4 19  1  0  0  0  0
  4  5  2  0  0  0  0
  5  6  1  0  0  0  0
  6  7  1  0  0  0  0
  6 18  2  0  0  0  0
  7  8  1  0  0  0  0
  7 27  1  0  0  0  0
  7 28  1  0  0  0  0
  8  9  1  0  0  0  0
  8 29  1  0  0  0  0
  8 30  1  0  0  0  0
  9 10  1  0  0  0  0
  9 31  1  0  0  0  0
 10 11  2  0  0  0  0
 10 12  1  0  0  0  0
 12 17  1  0  0  0  0
 12 13  1  0  0  0  0
 13 14  1  0  0  0  0
 13 32  1  0  0  0  0
 13 33  1  0  0  0  0
 14 15  1  0  0  0  0
 14 34  1  0  0  0  0
 14 35  1  0  0  0  0
 15 16  1  0  0  0  0
 16 17  1  0  0  0  0
 16 36  1  0  0  0  0
 16 37  1  0  0  0  0
 17 38  1  0  0  0  0
 17 39  1  0  0  0  0
 18 19  1  0  0  0  0
 18 40  1  0  0  0  0
M  END
> <s_m_source_file>
AV-unprocessed.smi

> <i_m_source_file_index>
936

> <i_lp_mmshare_version>
43012

> <i_f3d_flags>
0

> <s_epik_input>
W0NIM11bQ0hdKFtDSDNdKWMxbmMoW2NIXXMxKVtDSDJdW0NIMl1bTkhdQyg9TylOMltDSDJdW0NIMl1TW0NIMl1bQ0gyXTI=

> <s_epik_cmdline>
J2VwaWtfcHl0aG9uJywgJy1waCcsICc3LjAnLCAnLXRuJywgJzgnLCAnLW1hJywgJzIwMCcsICctbWV0YWxfYmluZGluZycsICctaW1hZScsICc8aW5maWxlLm1hZT4nLCAnLW9tYWUnLCAnPG91dGZpbGUubWFlPic=

> <r_epik_Ionization_Penalty>
0.00156596

> <r_epik_Ionization_Penalty_Charging>
0

> <r_epik_Ionization_Penalty_Neutral>
0.00156596

> <r_epik_State_Penalty>
0.00101864

> <r_epik_Charging_Adjusted_Penalty>
0.00101864

> <i_epik_Tot_Q>
0

> <i_epik_Tot_abs_Q>
0

> <r_epik_Metal_State_Penalty>
-0

> <b_epik_Metal_Only>
0

> <s_lp_Force_Field>
OPLS_2005

> <r_lp_Energy>
11.6004

> <b_lp_Chiralities_Consistent>
1

> <s_lp_Variant>
AV-unprocessed.smi:936-1

> <Gold.Version>
5.8.1

> <Gold.Id.Protein>
6NUR|6NUR_protein|mol2

> <Gold.PLP.Fitness>
41.4689

> <Gold.PLP.PLP>
-39.0788

> <Gold.PLP.part.hbond>
-1.0000

> <Gold.PLP.part.metal>
0.0000

> <Gold.PLP.part.buried>
-5.4826

> <Gold.PLP.part.nonpolar>
-32.8025

> <Gold.PLP.part.repulsive>
0.0491

> <Gold.PLP.ligand.clash>
0.0000

> <Gold.PLP.ligand.torsion>
0.3852

> <Gold.PLP.Chemscore.Hbond>
0.0000

> <Gold.PLP.Chemscore.CHOScore>
0.9924

> <Gold.PLP.Chemscore.Metal>
0.0000

> <Gold.Chemscore.Hbonds>
donor molecule, donor type, donor heavy atom, donor atom, acceptor molecule, acceptor atom, score
      L1  C    18    40       P1  8028  0.94

> <Gold.PLP.Chemscore.Internal.Correction>
0.1834

> <Gold.Rescore>
     Score         DG    S(hbond)    S(metal)    S(lipo)     H(rot)  DE(clash)    DE(int)     intcor
     14.80     -15.15       0.00        0.00     113.41       1.41       0.01       0.33       ----

> <Gold.Chemscore.Fitness>
14.8040

> <Gold.Chemscore.DG>
-15.1478

> <Gold.Chemscore.ZeroCoef>
-5.4800

> <Gold.Chemscore.Hbond>
0.0000

> <Gold.Chemscore.Metal>
0.0000

> <Gold.Chemscore.Lipo>
113.4117

> <Gold.Chemscore.Internal_Hbond>
0.0000

> <Gold.Chemscore.DEClash>
0.0149

> <Gold.Chemscore.DEInternal>
0.3289

> <Gold.Chemscore.Rot>
1.4068

> <Gold.Chemscore.Internal.Correction>
   9.000000E+99

> <Gold.Chemscore.Hbond.Weighted>
-0.0000

> <Gold.Chemscore.Metal.Weighted>
-0.0000

> <Gold.Chemscore.Lipo.Weighted>
-13.2692

> <Gold.Chemscore.Internal_Hbond.Weighted>
0.0000

> <Gold.Chemscore.DEClash.Weighted>
0.0149

> <Gold.Chemscore.DEInternal.Weighted>
0.3289

> <Gold.Chemscore.Rot.Weighted>
3.6014

> <Gold.Chemscore.Internal.Correction.Weighted>
   9.000000E+99

> <Gold.Protein.RotatedTorsions>
[ 6907 6896 6895 6894 ] final  -46.15 input  -60.11 | X-H torsion
[ 7974 7965 7964 7962 ] final   47.42 input  175.53 | X-H torsion
[ 8008 7997 7996 7995 ] final  169.94 input   59.86 | X-H torsion
[ 10167 10162 10161 10158 ] final -144.15 input  -65.29 | X-H torsion
[ 10718 10713 10712 10709 ] final  130.84 input   66.30 | X-H torsion
[ 10763 10752 10751 10750 ] final    0.64 input  -60.55 | X-H torsion
[ 11005 11000 10999 10996 ] final  -43.34 input  -57.11 | X-H torsion

> <Gold.Protein.ActiveResidues>
 VAL166  LYS551  ARG553  GLY616  TRP617  ASP618  TYR619  PRO620  LYS621  CYS622 
 ASP623  PHE694  ASN695  SER759  ASP760  ASP761  ALA762  ILE779  LEU786  VAL792 
 PHE793  MET794  SER795  GLU796  ALA797  LYS798  CYS799  TRP800  GLU811  SER814 

> <Gold.Protein.RotatedAtoms>
  150.9143  134.8560  159.7445 H   0  0  0  0  0  0  0  0  0  0  0  0  # atno 6907 bound_to 6896
  152.4960  134.4313  159.9523 H   0  0  0  0  0  0  0  0  0  0  0  0  # atno 6908 bound_to 6896
  151.4353  133.3619  159.2809 H   0  0  0  0  0  0  0  0  0  0  0  0  # atno 6909 bound_to 6896
  146.0299  139.4751  142.9844 H   0  0  0  0  0  0  0  0  0  0  0  0  # atno 7974 bound_to 7965
  156.1411  140.1551  156.8919 H   0  0  0  0  0  0  0  0  0  0  0  0  # atno 8008 bound_to 7997
  154.4988  140.0831  156.7793 H   0  0  0  0  0  0  0  0  0  0  0  0  # atno 8009 bound_to 7997
  155.4076  140.3417  155.4263 H   0  0  0  0  0  0  0  0  0  0  0  0  # atno 8010 bound_to 7997
  139.7926  143.7945  152.2651 H   0  0  0  0  0  0  0  0  0  0  0  0  # atno 10167 bound_to 10162
  157.5024  131.1094  150.9408 H   0  0  0  0  0  0  0  0  0  0  0  0  # atno 10718 bound_to 10713
  153.3181  135.6967  153.7055 H   0  0  0  0  0  0  0  0  0  0  0  0  # atno 10763 bound_to 10752
  153.5905  135.3480  155.2910 H   0  0  0  0  0  0  0  0  0  0  0  0  # atno 10764 bound_to 10752
  154.8591  135.4317  154.2338 H   0  0  0  0  0  0  0  0  0  0  0  0  # atno 10765 bound_to 10752
  141.0377  133.6793  156.2719 H   0  0  0  0  0  0  0  0  0  0  0  0  # atno 11005 bound_to 11000
  145.7057  141.0122  143.1480 LP  0  0  0  0  0  0  0  0  0  0  0  0  # atno 17320 bound_to 7965
  144.7026  139.8697  143.7440 LP  0  0  0  0  0  0  0  0  0  0  0  0  # atno 17321 bound_to 7965
  139.8041  144.7362  150.9785 LP  0  0  0  0  0  0  0  0  0  0  0  0  # atno 17342 bound_to 10162
  140.7820  143.4316  151.0686 LP  0  0  0  0  0  0  0  0  0  0  0  0  # atno 17343 bound_to 10162
  157.0074  130.5623  149.5317 LP  0  0  0  0  0  0  0  0  0  0  0  0  # atno 17370 bound_to 10713
  156.0237  130.5332  150.8349 LP  0  0  0  0  0  0  0  0  0  0  0  0  # atno 17371 bound_to 10713
  140.6292  134.5282  157.5557 LP  0  0  0  0  0  0  0  0  0  0  0  0  # atno 17394 bound_to 11000
  139.9253  134.8069  156.1089 LP  0  0  0  0  0  0  0  0  0  0  0  0  # atno 17395 bound_to 11000

$$$$
