#       Name:                AV-unprocessed.smi:1641
#       Creating user name   scv26
#       Creation time:       Fri Mar 27 07:24:10 2020


#       File generated by GOLD software.
#

@<TRIPOS>MOLECULE
AV-unprocessed.smi:1641
    48    49     1
SMALL
NO_CHARGES


@<TRIPOS>ATOM
      1 ****        -5.3195   6.4814  -1.6971 C.3            1 S1                 0.0000
      2 ****        -4.5596   5.2672  -1.2845 C.2            1 S1                 0.0000
      3 ****        -3.6312   5.2873  -0.3204 N.2            1 S1                 0.0000
      4 ****        -3.0616   4.0388  -0.1122 N.2            1 S1                 0.0000
      5 ****        -3.5796   3.1108  -0.9285 C.2            1 S1                 0.0000
      6 ****        -3.1790   1.7483  -0.9305 N.am           1 S1                 0.0000
      7 ****        -2.2334   1.1566  -0.1796 C.2            1 S1                 0.0000
      8 ****        -1.5309   1.7227   0.6586 O.2            1 S1                 0.0000
      9 ****        -2.1383  -0.1510  -0.4603 N.am           1 S1                 0.0000
     10 ****        -1.2020  -1.0744   0.1690 C.3            1 S1                 0.0000
     11 ****         0.2067  -0.9424  -0.4397 C.3            1 S1                 0.0000
     12 ****         1.1841  -1.9129   0.0496 N.3            1 S1                 0.0000
     13 ****         1.5254  -1.7042   1.4548 C.3            1 S1                 0.0000
     14 ****         2.5761  -2.7167   1.9508 C.3            1 S1                 0.0000
     15 ****         3.0033  -2.4453   3.3970 C.3            1 S1                 0.0000
     16 ****         3.7321  -2.6379   1.1211 O.3            1 S1                 0.0000
     17 ****         3.4556  -2.8803  -0.2555 C.3            1 S1                 0.0000
     18 ****         4.7699  -2.7755  -1.0362 C.3            1 S1                 0.0000
     19 ****         2.4071  -1.8629  -0.7432 C.3            1 S1                 0.0000
     20 ****        -4.8213   3.6924  -2.0245 S.3            1 S1                 0.0000
     21 ****        -6.2579   6.5382  -1.1454 H              1 S1                 0.0000
     22 ****        -5.5412   6.4416  -2.7636 H              1 S1                 0.0000
     23 ****        -4.7384   7.3822  -1.4964 H              1 S1                 0.0000
     24 ****        -3.6680   1.1551  -1.5844 H              1 S1                 0.0000
     25 ****        -2.7538  -0.5360  -1.1618 H              1 S1                 0.0000
     26 ****        -1.1918  -0.8990   1.2453 H              1 S1                 0.0000
     27 ****        -1.5760  -2.0879   0.0210 H              1 S1                 0.0000
     28 ****         0.1098  -1.0587  -1.5202 H              1 S1                 0.0000
     29 ****         0.5845   0.0689  -0.2810 H              1 S1                 0.0000
     30 ****         1.9027  -0.6899   1.5955 H              1 S1                 0.0000
     31 ****         0.6354  -1.7950   2.0766 H              1 S1                 0.0000
     32 ****         2.1658  -3.7264   1.8905 H              1 S1                 0.0000
     33 ****         2.1513  -2.5016   4.0749 H              1 S1                 0.0000
     34 ****         3.4471  -1.4543   3.4977 H              1 S1                 0.0000
     35 ****         3.7412  -3.1761   3.7290 H              1 S1                 0.0000
     36 ****         3.0623  -3.8923  -0.3656 H              1 S1                 0.0000
     37 ****         4.6107  -2.9598  -2.0988 H              1 S1                 0.0000
     38 ****         5.4955  -3.5057  -0.6772 H              1 S1                 0.0000
     39 ****         5.2134  -1.7851  -0.9303 H              1 S1                 0.0000
     40 ****         2.1748  -2.0605  -1.7904 H              1 S1                 0.0000
     41 ****         2.8307  -0.8578  -0.7031 H              1 S1                 0.0000
     42 ****        -3.3771   6.1079   0.1913 LP             1 S1                 0.0000
     43 ****        -2.3501   3.8539   0.5656 LP             1 S1                 0.0000
     44 ****        -1.6419   2.7026   0.8243 LP             1 S1                 0.0000
     45 ****        -0.8496   1.2024   1.1735 LP             1 S1                 0.0000
     46 ****         0.7532  -2.8110  -0.0395 LP             1 S1                 0.0000
     47 ****         4.3955  -3.3167   1.4358 LP             1 S1                 0.0000
     48 ****         4.1244  -1.7224   1.2096 LP             1 S1                 0.0000
@<TRIPOS>BOND
    1    1    2 1     
    2    1   21 1     
    3    1   22 1     
    4    1   23 1     
    5    2   20 1     
    6    2    3 2     
    7    3    4 1     
    8    4    5 2     
    9    5    6 1     
   10    5   20 1     
   11    6    7 am    
   12    6   24 1     
   13    7    8 2     
   14    7    9 am    
   15    9   10 1     
   16    9   25 1     
   17   10   11 1     
   18   10   26 1     
   19   10   27 1     
   20   11   12 1     
   21   11   28 1     
   22   11   29 1     
   23   12   19 1     
   24   12   13 1     
   25   13   14 1     
   26   13   30 1     
   27   13   31 1     
   28   14   15 1     
   29   14   16 1     
   30   14   32 1     
   31   15   33 1     
   32   15   34 1     
   33   15   35 1     
   34   16   17 1     
   35   17   18 1     
   36   17   19 1     
   37   17   36 1     
   38   18   37 1     
   39   18   38 1     
   40   18   39 1     
   41   19   40 1     
   42   19   41 1     
   43    3   42 1     
   44    4   43 1     
   45    8   44 1     
   46    8   45 1     
   47   12   46 1     
   48   16   47 1     
   49   16   48 1     
@<TRIPOS>SUBSTRUCTURE
      1 S1             1
@<TRIPOS>SET
LONE_PAIRS      STATIC     ATOMS    <user>   **** ""
7 42 43 44 45 46 47 48
DONOR_HYDROGENS      STATIC     ATOMS    <user>   **** ""
2 24 25
ATOM$BLUE        STATIC     ATOMS    COLORGROUP SYSTEM
7 42 43 44 45 46 47 48
ATOM$RED        STATIC     ATOMS    COLORGROUP SYSTEM
2 24 25
