#       Name:                AV-unprocessed.smi:2027
#       Creating user name   scv26
#       Creation time:       Fri Mar 27 10:47:01 2020


#       File generated by GOLD software.
#

@<TRIPOS>MOLECULE
AV-unprocessed.smi:2027
    54    56     1
SMALL
NO_CHARGES


@<TRIPOS>ATOM
      1 ****        -2.0837   2.8127  -4.1081 C.3            1 S1                 0.0000
      2 ****        -1.8281   2.4644  -2.6524 C.ar           1 S1                 0.0000
      3 ****        -2.8844   2.5858  -1.7214 C.ar           1 S1                 0.0000
      4 ****        -2.6903   2.2663  -0.3598 C.ar           1 S1                 0.0000
      5 ****        -3.5710   2.3083   0.7075 N.2            1 S1                 0.0000
      6 ****        -2.8013   1.8863   1.7067 C.2            1 S1                 0.0000
      7 ****        -1.5245   1.5743   1.4124 N.pl3          1 S1                 0.0000
      8 ****        -0.5057   1.0867   2.3262 C.3            1 S1                 0.0000
      9 ****        -0.1553  -0.3901   2.0663 C.3            1 S1                 0.0000
     10 ****        -1.3122  -1.1833   2.2525 O.3            1 S1                 0.0000
     11 ****         0.9516  -0.9008   3.0128 C.3            1 S1                 0.0000
     12 ****         1.5009  -2.2369   2.7286 N.3            1 S1                 0.0000
     13 ****         2.0762  -2.7945   3.9475 C.3            1 S1                 0.0000
     14 ****         2.5245  -2.2449   1.6734 C.3            1 S1                 0.0000
     15 ****         2.0116  -1.9967   0.2805 C.2            1 S1                 0.0000
     16 ****         2.5183  -1.0706  -0.6751 C.2            1 S1                 0.0000
     17 ****         1.8358  -1.0738  -1.8077 N.2            1 S1                 0.0000
     18 ****         0.8753  -2.0008  -1.6184 N.pl3          1 S1                 0.0000
     19 ****        -0.0873  -2.2518  -2.6688 C.3            1 S1                 0.0000
     20 ****         0.9707  -2.5920  -0.3769 C.2            1 S1                 0.0000
     21 ****        -1.4002   1.8183   0.0486 C.ar           1 S1                 0.0000
     22 ****        -0.3397   1.7000  -0.8671 C.ar           1 S1                 0.0000
     23 ****        -0.5504   2.0233  -2.2236 C.ar           1 S1                 0.0000
     24 ****         0.6009   1.8861  -3.2040 C.3            1 S1                 0.0000
     25 ****        -3.1334   3.0512  -4.2821 H              1 S1                 0.0000
     26 ****        -1.8201   1.9754  -4.7548 H              1 S1                 0.0000
     27 ****        -1.4897   3.6785  -4.4014 H              1 S1                 0.0000
     28 ****        -3.8573   2.9238  -2.0468 H              1 S1                 0.0000
     29 ****        -3.1900   1.7925   2.7103 H              1 S1                 0.0000
     30 ****         0.3808   1.7105   2.2056 H              1 S1                 0.0000
     31 ****        -0.8521   1.2265   3.3514 H              1 S1                 0.0000
     32 ****         0.1437  -0.4682   1.0274 H              1 S1                 0.0000
     33 ****        -1.5711  -1.1292   3.1596 H              1 S1                 0.0000
     34 ****         1.7697  -0.1792   3.0368 H              1 S1                 0.0000
     35 ****         0.5325  -0.8880   4.0204 H              1 S1                 0.0000
     36 ****         2.4486  -3.8053   3.7765 H              1 S1                 0.0000
     37 ****         1.3283  -2.8557   4.7388 H              1 S1                 0.0000
     38 ****         2.9045  -2.1831   4.3086 H              1 S1                 0.0000
     39 ****         3.3063  -1.5267   1.9255 H              1 S1                 0.0000
     40 ****         3.0242  -3.2145   1.6796 H              1 S1                 0.0000
     41 ****         3.3507  -0.3898  -0.5740 H              1 S1                 0.0000
     42 ****        -0.8227  -2.9843  -2.3349 H              1 S1                 0.0000
     43 ****         0.4225  -2.6363  -3.5526 H              1 S1                 0.0000
     44 ****        -0.6027  -1.3252  -2.9251 H              1 S1                 0.0000
     45 ****         0.2826  -3.3599  -0.0551 H              1 S1                 0.0000
     46 ****         0.6271   1.3575  -0.5294 H              1 S1                 0.0000
     47 ****         1.5385   1.6780  -2.6879 H              1 S1                 0.0000
     48 ****         0.7360   2.8048  -3.7750 H              1 S1                 0.0000
     49 ****         0.4103   1.0683  -3.8992 H              1 S1                 0.0000
     50 ****        -4.5323   2.5834   0.7230 LP             1 S1                 0.0000
     51 ****        -1.1110  -2.1337   2.0155 LP             1 S1                 0.0000
     52 ****        -2.0509  -0.8438   1.6702 LP             1 S1                 0.0000
     53 ****         0.7367  -2.7904   2.3975 LP             1 S1                 0.0000
     54 ****         1.9960  -0.5147  -2.6212 LP             1 S1                 0.0000
@<TRIPOS>BOND
    1    1    2 1     
    2    1   25 1     
    3    1   26 1     
    4    1   27 1     
    5    2   23 ar    
    6    2    3 ar    
    7    3    4 ar    
    8    3   28 1     
    9    4   21 ar    
   10    4    5 1     
   11    5    6 2     
   12    6    7 1     
   13    6   29 1     
   14    7    8 1     
   15    7   21 1     
   16    8    9 1     
   17    8   30 1     
   18    8   31 1     
   19    9   10 1     
   20    9   11 1     
   21    9   32 1     
   22   10   33 1     
   23   11   12 1     
   24   11   34 1     
   25   11   35 1     
   26   12   13 1     
   27   12   14 1     
   28   13   36 1     
   29   13   37 1     
   30   13   38 1     
   31   14   15 1     
   32   14   39 1     
   33   14   40 1     
   34   15   20 2     
   35   15   16 1     
   36   16   17 2     
   37   16   41 1     
   38   17   18 1     
   39   18   19 1     
   40   18   20 1     
   41   19   42 1     
   42   19   43 1     
   43   19   44 1     
   44   20   45 1     
   45   21   22 ar    
   46   22   23 ar    
   47   22   46 1     
   48   23   24 1     
   49   24   47 1     
   50   24   48 1     
   51   24   49 1     
   52    5   50 1     
   53   10   51 1     
   54   10   52 1     
   55   12   53 1     
   56   17   54 1     
@<TRIPOS>SUBSTRUCTURE
      1 S1             1
@<TRIPOS>SET
LONE_PAIRS      STATIC     ATOMS    <user>   **** ""
5 50 51 52 53 54
DONOR_HYDROGENS      STATIC     ATOMS    <user>   **** ""
1 33
ATOM$BLUE        STATIC     ATOMS    COLORGROUP SYSTEM
5 50 51 52 53 54
ATOM$RED        STATIC     ATOMS    COLORGROUP SYSTEM
1 33
