AV-unprocessed.smi:955|AV-procd|sdf|4259|dock8
  -GOLD-   22720 2163D 1   1.00000     0.00000
 Structure written by MMmdl.
 29 29  0  0  0  0  0  0  0  0  1 V2000
  150.6220  136.3303  157.0771 C   0  0  0  0  0  0  0  0  0  0  0  0
  151.3738  137.4934  156.4091 C   0  0  2  0  0  0  0  0  0  0  0  0
  150.7893  138.7415  156.8944 N   0  0  0  0  0  0  0  0  0  0  0  0
  151.4780  139.8312  157.2731 C   0  0  0  0  0  0  0  0  0  0  0  0
  152.7086  139.8841  157.2525 O   0  0  0  0  0  0  0  0  0  0  0  0
  150.6422  141.0423  157.7266 C   0  0  2  0  0  0  0  0  0  0  0  0
  149.5878  141.4748  156.6870 C   0  0  0  0  0  0  0  0  0  0  0  0
  151.5032  142.1538  158.1187 N   0  0  0  0  0  0  0  0  0  0  0  0
  151.4898  143.4479  157.6383 C   0  0  0  0  0  0  0  0  0  0  0  0
  152.4448  144.1484  158.3175 C   0  0  0  0  0  0  0  0  0  0  0  0
  152.9947  143.1890  159.2122 C   0  0  0  0  0  0  0  0  0  0  0  0
  152.4265  142.0000  159.0965 N   0  0  0  0  0  0  0  0  0  0  0  0
  151.1864  137.3673  154.8885 C   0  0  0  0  0  0  0  0  0  0  0  0
  149.9303  137.3371  154.4379 N   0  0  0  0  0  0  0  0  0  0  0  0
  152.1541  137.3150  154.1300 O   0  0  0  0  0  0  0  0  0  0  0  0
  151.0158  135.3655  156.7549 H   0  0  0  0  0  0  0  0  0  0  0  0
  149.5553  136.3487  156.8476 H   0  0  0  0  0  0  0  0  0  0  0  0
  150.7251  136.3752  158.1618 H   0  0  0  0  0  0  0  0  0  0  0  0
  152.4334  137.4439  156.6682 H   0  0  0  0  0  0  0  0  0  0  0  0
  149.7814  138.7838  156.9330 H   0  0  0  0  0  0  0  0  0  0  0  0
  150.1015  140.7263  158.6201 H   0  0  0  0  0  0  0  0  0  0  0  0
  148.8960  140.6618  156.4650 H   0  0  0  0  0  0  0  0  0  0  0  0
  150.0453  141.7862  155.7471 H   0  0  0  0  0  0  0  0  0  0  0  0
  148.9963  142.3116  157.0594 H   0  0  0  0  0  0  0  0  0  0  0  0
  150.8074  143.7603  156.8614 H   0  0  0  0  0  0  0  0  0  0  0  0
  152.7080  145.1886  158.1961 H   0  0  0  0  0  0  0  0  0  0  0  0
  153.7817  143.3212  159.9398 H   0  0  0  0  0  0  0  0  0  0  0  0
  149.7521  137.2596  153.4472 H   0  0  0  0  0  0  0  0  0  0  0  0
  149.1625  137.3963  155.0908 H   0  0  0  0  0  0  0  0  0  0  0  0
  1  2  1  0  0  0  0
  1 16  1  0  0  0  0
  1 17  1  0  0  0  0
  1 18  1  0  0  0  0
  2  3  1  0  0  0  0
  2 13  1  0  0  0  0
  2 19  1  0  0  0  0
  3  4  1  0  0  0  0
  3 20  1  0  0  0  0
  4  5  2  0  0  0  0
  4  6  1  0  0  0  0
  6  7  1  0  0  0  0
  6  8  1  0  0  0  0
  6 21  1  0  0  0  0
  7 22  1  0  0  0  0
  7 23  1  0  0  0  0
  7 24  1  0  0  0  0
  8 12  1  0  0  0  0
  8  9  1  0  0  0  0
  9 10  2  0  0  0  0
  9 25  1  0  0  0  0
 10 11  1  0  0  0  0
 10 26  1  0  0  0  0
 11 12  2  0  0  0  0
 11 27  1  0  0  0  0
 13 14  1  0  0  0  0
 13 15  2  0  0  0  0
 14 28  1  0  0  0  0
 14 29  1  0  0  0  0
M  END
> <s_m_source_file>
AV-unprocessed.smi

> <i_m_source_file_index>
955

> <i_lp_mmshare_version>
43012

> <i_f3d_flags>
0

> <s_epik_input>
W05IMl1DKD1PKVtDQEhdKFtDSDNdKVtOSF1DKD1PKVtDQEhdKFtDSDNdKW4xW2NIXVtjSF1bY0hdbjE=

> <s_epik_cmdline>
J2VwaWtfcHl0aG9uJywgJy1waCcsICc3LjAnLCAnLXRuJywgJzgnLCAnLW1hJywgJzIwMCcsICctbWV0YWxfYmluZGluZycsICctaW1hZScsICc8aW5maWxlLm1hZT4nLCAnLW9tYWUnLCAnPG91dGZpbGUubWFlPic=

> <r_lp_tautomer_probability>
1

> <r_epik_Ionization_Penalty>
2.8146e-05

> <r_epik_Ionization_Penalty_Charging>
0

> <r_epik_Ionization_Penalty_Neutral>
2.8146e-05

> <r_epik_State_Penalty>
-0

> <r_epik_Charging_Adjusted_Penalty>
0

> <i_epik_Tot_Q>
0

> <i_epik_Tot_abs_Q>
0

> <r_epik_Metal_State_Penalty>
-0

> <b_epik_Metal_Only>
0

> <s_lp_Force_Field>
OPLS_2005

> <r_lp_Energy>
4.37159

> <b_lp_Chiralities_Consistent>
1

> <s_lp_Variant>
AV-unprocessed.smi:955-1

> <Gold.Version>
5.8.1

> <Gold.Id.Protein>
6NUR|6NUR_protein|mol2

> <Gold.PLP.Fitness>
37.3344

> <Gold.PLP.PLP>
-26.2149

> <Gold.PLP.part.hbond>
-3.0000

> <Gold.PLP.part.metal>
0.0000

> <Gold.PLP.part.buried>
-4.7131

> <Gold.PLP.part.nonpolar>
-19.8747

> <Gold.PLP.part.repulsive>
0.2971

> <Gold.PLP.ligand.clash>
0.0000

> <Gold.PLP.ligand.torsion>
0.2833

> <Gold.PLP.Chemscore.Hbond>
2.8560

> <Gold.PLP.Chemscore.CHOScore>
1.0000

> <Gold.PLP.Chemscore.Metal>
0.0000

> <Gold.Chemscore.Hbonds>
donor molecule, donor type, donor heavy atom, donor atom, acceptor molecule, acceptor atom, score
      L1  H    14    28       P1  7948  1.00
      P1  H  7997  8008       L1     5  1.00
      P1  H 10752 10763       L1    15  0.88
      L1  C     9    25       P1  8028  1.00

> <Gold.PLP.Chemscore.Internal.Correction>
0.1182

> <Gold.Rescore>
     Score         DG    S(hbond)    S(metal)    S(lipo)     H(rot)  DE(clash)    DE(int)     intcor
     13.69     -15.72       2.86        0.00      56.05       2.30       0.49       1.53       ----

> <Gold.Chemscore.Fitness>
13.6948

> <Gold.Chemscore.DG>
-15.7180

> <Gold.Chemscore.ZeroCoef>
-5.4800

> <Gold.Chemscore.Hbond>
2.8626

> <Gold.Chemscore.Metal>
0.0000

> <Gold.Chemscore.Lipo>
56.0500

> <Gold.Chemscore.Internal_Hbond>
0.0000

> <Gold.Chemscore.DEClash>
0.4925

> <Gold.Chemscore.DEInternal>
1.5308

> <Gold.Chemscore.Rot>
2.2972

> <Gold.Chemscore.Internal.Correction>
   9.000000E+99

> <Gold.Chemscore.Hbonds>
donor molecule, donor type, donor heavy atom, donor atom, acceptor molecule, acceptor atom, score
      L1  H    14    28       P1  7948  0.59
      P1  H  7997  8008       L1     5  0.99
      P1  H 10752 10763       L1    15  0.80

> <Gold.Chemscore.Hbond.Weighted>
-9.5611

> <Gold.Chemscore.Metal.Weighted>
-0.0000

> <Gold.Chemscore.Lipo.Weighted>
-6.5578

> <Gold.Chemscore.Internal_Hbond.Weighted>
0.0000

> <Gold.Chemscore.DEClash.Weighted>
0.4925

> <Gold.Chemscore.DEInternal.Weighted>
1.5308

> <Gold.Chemscore.Rot.Weighted>
5.8809

> <Gold.Chemscore.Internal.Correction.Weighted>
   9.000000E+99

> <Gold.Protein.RotatedTorsions>
[ 6907 6896 6895 6894 ] final  119.59 input  -60.11 | X-H torsion
[ 7974 7965 7964 7962 ] final  119.04 input  175.53 | X-H torsion
[ 8008 7997 7996 7995 ] final  -73.42 input   59.86 | X-H torsion
[ 10167 10162 10161 10158 ] final -173.10 input  -65.29 | X-H torsion
[ 10718 10713 10712 10709 ] final -135.07 input   66.30 | X-H torsion
[ 10763 10752 10751 10750 ] final   26.60 input  -60.55 | X-H torsion
[ 11005 11000 10999 10996 ] final -117.01 input  -57.11 | X-H torsion

> <Gold.Protein.ActiveResidues>
 VAL166  LYS551  ARG553  GLY616  TRP617  ASP618  TYR619  PRO620  LYS621  CYS622 
 ASP623  PHE694  ASN695  SER759  ASP760  ASP761  ALA762  ILE779  LEU786  VAL792 
 PHE793  MET794  SER795  GLU796  ALA797  LYS798  CYS799  TRP800  GLU811  SER814 

> <Gold.Protein.RotatedAtoms>
  152.4461  133.7539  159.6708 H   0  0  0  0  0  0  0  0  0  0  0  0  # atno 6907 bound_to 6896
  150.8361  133.8001  159.3085 H   0  0  0  0  0  0  0  0  0  0  0  0  # atno 6908 bound_to 6896
  151.5640  135.1067  160.0031 H   0  0  0  0  0  0  0  0  0  0  0  0  # atno 6909 bound_to 6896
  145.1479  139.3228  143.4582 H   0  0  0  0  0  0  0  0  0  0  0  0  # atno 7974 bound_to 7965
  154.5246  140.0779  156.8235 H   0  0  0  0  0  0  0  0  0  0  0  0  # atno 8008 bound_to 7997
  155.3503  140.3412  155.4221 H   0  0  0  0  0  0  0  0  0  0  0  0  # atno 8009 bound_to 7997
  156.1718  140.1622  156.8421 H   0  0  0  0  0  0  0  0  0  0  0  0  # atno 8010 bound_to 7997
  139.5707  144.1648  152.1380 H   0  0  0  0  0  0  0  0  0  0  0  0  # atno 10167 bound_to 10162
  156.2622  130.7216  151.1154 H   0  0  0  0  0  0  0  0  0  0  0  0  # atno 10718 bound_to 10713
  153.0612  135.6556  154.0459 H   0  0  0  0  0  0  0  0  0  0  0  0  # atno 10763 bound_to 10752
  154.0126  135.2927  155.3392 H   0  0  0  0  0  0  0  0  0  0  0  0  # atno 10764 bound_to 10752
  154.6951  135.5267  153.8514 H   0  0  0  0  0  0  0  0  0  0  0  0  # atno 10765 bound_to 10752
  141.0384  133.9874  157.3035 H   0  0  0  0  0  0  0  0  0  0  0  0  # atno 11005 bound_to 11000
  146.3498  140.1541  142.8592 LP  0  0  0  0  0  0  0  0  0  0  0  0  # atno 17320 bound_to 7965
  145.0462  140.8983  143.5022 LP  0  0  0  0  0  0  0  0  0  0  0  0  # atno 17321 bound_to 7965
  140.1180  144.5398  150.6881 LP  0  0  0  0  0  0  0  0  0  0  0  0  # atno 17342 bound_to 10162
  140.6991  143.2423  151.4915 LP  0  0  0  0  0  0  0  0  0  0  0  0  # atno 17343 bound_to 10162
  157.7254  131.0653  150.5952 LP  0  0  0  0  0  0  0  0  0  0  0  0  # atno 17370 bound_to 10713
  156.6041  130.4362  149.5885 LP  0  0  0  0  0  0  0  0  0  0  0  0  # atno 17371 bound_to 10713
  139.9257  135.0201  156.8226 LP  0  0  0  0  0  0  0  0  0  0  0  0  # atno 17394 bound_to 11000
  140.6280  133.9932  155.7649 LP  0  0  0  0  0  0  0  0  0  0  0  0  # atno 17395 bound_to 11000

$$$$
