AV-unprocessed.smi:3019|AV-procd|sdf|11490|dock3
  -GOLD-   2272016433D 1   1.00000     0.00000
 Structure written by MMmdl.
 30 31  0  0  0  0  0  0  0  0  1 V2000
  152.6813  143.8916  160.7666 C   0  0  0  0  0  0  0  0  0  0  0  0
  152.5075  142.3865  161.0191 C   0  0  0  0  0  0  0  0  0  0  0  0
  153.6226  141.8193  161.9096 C   0  0  0  0  0  0  0  0  0  0  0  0
  152.3789  141.6196  159.7387 C   0  0  0  0  0  0  0  0  0  0  0  0
  153.0886  140.5155  159.4955 N   0  0  0  0  0  0  0  0  0  0  0  0
  152.7863  140.0502  158.2657 N   0  0  0  0  0  0  0  0  0  0  0  0
  151.8725  140.9294  157.8517 C   0  0  0  0  0  0  0  0  0  0  0  0
  151.2558  140.8498  156.4891 C   0  0  1  0  0  0  0  0  0  0  0  0
  151.6738  139.5712  155.7366 C   0  0  0  0  0  0  0  0  0  0  0  0
  150.9768  139.4869  154.4542 N   0  0  0  0  0  0  0  0  0  0  0  0
  149.5284  139.5748  154.6339 C   0  0  0  0  0  0  0  0  0  0  0  0
  149.1608  140.8502  155.4137 C   0  0  0  0  0  0  0  0  0  0  0  0
  149.8402  140.8579  156.6645 O   0  0  0  0  0  0  0  0  0  0  0  0
  151.5903  141.9477  158.7195 N   0  0  0  0  0  0  0  0  0  0  0  0
  151.8492  144.2900  160.1853 H   0  0  0  0  0  0  0  0  0  0  0  0
  153.6006  144.0995  160.2180 H   0  0  0  0  0  0  0  0  0  0  0  0
  152.7225  144.4449  161.7052 H   0  0  0  0  0  0  0  0  0  0  0  0
  151.5705  142.2628  161.5642 H   0  0  0  0  0  0  0  0  0  0  0  0
  153.4450  140.7677  162.1369 H   0  0  0  0  0  0  0  0  0  0  0  0
  153.6797  142.3559  162.8569 H   0  0  0  0  0  0  0  0  0  0  0  0
  154.5965  141.8954  161.4249 H   0  0  0  0  0  0  0  0  0  0  0  0
  151.5545  141.7340  155.9223 H   0  0  0  0  0  0  0  0  0  0  0  0
  152.7525  139.5632  155.5776 H   0  0  0  0  0  0  0  0  0  0  0  0
  151.4389  138.6943  156.3413 H   0  0  0  0  0  0  0  0  0  0  0  0
  149.0300  139.5709  153.6644 H   0  0  0  0  0  0  0  0  0  0  0  0
  149.1680  138.6994  155.1754 H   0  0  0  0  0  0  0  0  0  0  0  0
  149.4113  141.7451  154.8415 H   0  0  0  0  0  0  0  0  0  0  0  0
  148.0867  140.8804  155.5970 H   0  0  0  0  0  0  0  0  0  0  0  0
  151.2103  138.6105  153.9985 H   0  0  0  0  0  0  0  0  0  0  0  0
  153.7624  140.0715  160.1030 H   0  0  0  0  0  0  0  0  0  0  0  0
  1  2  1  0  0  0  0
  1 15  1  0  0  0  0
  1 16  1  0  0  0  0
  1 17  1  0  0  0  0
  2  3  1  0  0  0  0
  2  4  1  0  0  0  0
  2 18  1  0  0  0  0
  3 19  1  0  0  0  0
  3 20  1  0  0  0  0
  3 21  1  0  0  0  0
  4 14  2  0  0  0  0
  4  5  1  0  0  0  0
  5  6  1  0  0  0  0
  5 30  1  0  0  0  0
  6  7  2  0  0  0  0
  7  8  1  0  0  0  0
  7 14  1  0  0  0  0
  8 13  1  0  0  0  0
  8  9  1  0  0  0  0
  8 22  1  0  0  0  0
  9 10  1  0  0  0  0
  9 23  1  0  0  0  0
  9 24  1  0  0  0  0
 10 11  1  0  0  0  0
 10 29  1  0  0  0  0
 11 12  1  0  0  0  0
 11 25  1  0  0  0  0
 11 26  1  0  0  0  0
 12 13  1  0  0  0  0
 12 27  1  0  0  0  0
 12 28  1  0  0  0  0
M  END
> <s_m_source_file>
AV-unprocessed.smi

> <i_m_source_file_index>
3019

> <i_lp_mmshare_version>
43012

> <i_f3d_flags>
0

> <s_epik_input>
W0NIM11bQ0hdKFtDSDNdKWMxbltuSF1jKG4xKVtDQEBIXTJbQ0gyXVtOSF1bQ0gyXVtDSDJdTzI=

> <s_epik_cmdline>
J2VwaWtfcHl0aG9uJywgJy1waCcsICc3LjAnLCAnLXRuJywgJzgnLCAnLW1hJywgJzIwMCcsICctbWV0YWxfYmluZGluZycsICctaW1hZScsICc8aW5maWxlLm1hZT4nLCAnLW9tYWUnLCAnPG91dGZpbGUubWFlPic=

> <r_lp_tautomer_probability>
0.948284

> <r_epik_Ionization_Penalty>
1.10045

> <r_epik_Ionization_Penalty_Charging>
0

> <r_epik_Ionization_Penalty_Neutral>
1.10045

> <r_epik_State_Penalty>
1.2625

> <r_epik_Charging_Adjusted_Penalty>
1.2625

> <i_epik_Tot_Q>
0

> <i_epik_Tot_abs_Q>
0

> <r_epik_Metal_State_Penalty>
1.57133

> <b_epik_Metal_Only>
0

> <s_lp_Force_Field>
OPLS_2005

> <r_lp_Energy>
11.2718

> <b_lp_Chiralities_Consistent>
1

> <s_lp_Variant>
AV-unprocessed.smi:3019-6

> <Gold.Version>
5.8.1

> <Gold.Id.Protein>
6NUR|6NUR_protein|mol2

> <Gold.PLP.Fitness>
33.1636

> <Gold.PLP.PLP>
-27.5932

> <Gold.PLP.part.hbond>
-2.0000

> <Gold.PLP.part.metal>
0.0000

> <Gold.PLP.part.buried>
-3.3280

> <Gold.PLP.part.nonpolar>
-21.4976

> <Gold.PLP.part.repulsive>
0.1325

> <Gold.PLP.ligand.clash>
0.0000

> <Gold.PLP.ligand.torsion>
0.2313

> <Gold.PLP.Chemscore.Hbond>
1.9920

> <Gold.PLP.Chemscore.CHOScore>
0.0000

> <Gold.PLP.Chemscore.Metal>
0.0000

> <Gold.Chemscore.Hbonds>
donor molecule, donor type, donor heavy atom, donor atom, acceptor molecule, acceptor atom, score
      P1  H  7989  7998       L1    10  1.00
      P1  H  7997  8008       L1     6  0.63

> <Gold.PLP.Chemscore.Internal.Correction>
0.0570

> <Gold.Rescore>
     Score         DG    S(hbond)    S(metal)    S(lipo)     H(rot)  DE(clash)    DE(int)     intcor
     13.05     -13.30       1.20        0.00      60.19       1.26       0.06       0.18       ----

> <Gold.Chemscore.Fitness>
13.0521

> <Gold.Chemscore.DG>
-13.3005

> <Gold.Chemscore.ZeroCoef>
-5.4800

> <Gold.Chemscore.Hbond>
1.1986

> <Gold.Chemscore.Metal>
0.0000

> <Gold.Chemscore.Lipo>
60.1915

> <Gold.Chemscore.Internal_Hbond>
0.0000

> <Gold.Chemscore.DEClash>
0.0640

> <Gold.Chemscore.DEInternal>
0.1844

> <Gold.Chemscore.Rot>
1.2598

> <Gold.Chemscore.Internal.Correction>
   9.000000E+99

> <Gold.Chemscore.Hbonds>
donor molecule, donor type, donor heavy atom, donor atom, acceptor molecule, acceptor atom, score
      P1  H  7989  7998       L1    10  0.30
      P1  H  7997  8008       L1     6  0.39

> <Gold.Chemscore.Hbond.Weighted>
-4.0032

> <Gold.Chemscore.Metal.Weighted>
-0.0000

> <Gold.Chemscore.Lipo.Weighted>
-7.0424

> <Gold.Chemscore.Internal_Hbond.Weighted>
0.0000

> <Gold.Chemscore.DEClash.Weighted>
0.0640

> <Gold.Chemscore.DEInternal.Weighted>
0.1844

> <Gold.Chemscore.Rot.Weighted>
3.2251

> <Gold.Chemscore.Internal.Correction.Weighted>
   9.000000E+99

> <Gold.Protein.RotatedTorsions>
[ 6907 6896 6895 6894 ] final  -52.58 input  -60.11 | X-H torsion
[ 7974 7965 7964 7962 ] final   20.15 input  175.53 | X-H torsion
[ 8008 7997 7996 7995 ] final  -79.01 input   59.86 | X-H torsion
[ 10167 10162 10161 10158 ] final  -49.90 input  -65.29 | X-H torsion
[ 10718 10713 10712 10709 ] final   34.74 input   66.30 | X-H torsion
[ 10763 10752 10751 10750 ] final   85.04 input  -60.55 | X-H torsion
[ 11005 11000 10999 10996 ] final  144.82 input  -57.11 | X-H torsion

> <Gold.Protein.ActiveResidues>
 VAL166  LYS551  ARG553  GLY616  TRP617  ASP618  TYR619  PRO620  LYS621  CYS622 
 ASP623  PHE694  ASN695  SER759  ASP760  ASP761  ALA762  ILE779  LEU786  VAL792 
 PHE793  MET794  SER795  GLU796  ALA797  LYS798  CYS799  TRP800  GLU811  SER814 

> <Gold.Protein.RotatedAtoms>
  150.8505  134.7828  159.7004 H   0  0  0  0  0  0  0  0  0  0  0  0  # atno 6907 bound_to 6896
  152.4571  134.5265  159.9808 H   0  0  0  0  0  0  0  0  0  0  0  0  # atno 6908 bound_to 6896
  151.5387  133.3398  159.2967 H   0  0  0  0  0  0  0  0  0  0  0  0  # atno 6909 bound_to 6896
  146.2122  139.8211  142.8679 H   0  0  0  0  0  0  0  0  0  0  0  0  # atno 7974 bound_to 7965
  154.5744  140.0685  156.9012 H   0  0  0  0  0  0  0  0  0  0  0  0  # atno 8008 bound_to 7997
  155.2576  140.3356  155.4258 H   0  0  0  0  0  0  0  0  0  0  0  0  # atno 8009 bound_to 7997
  156.2143  140.1772  156.7611 H   0  0  0  0  0  0  0  0  0  0  0  0  # atno 8010 bound_to 7997
  140.6663  143.2679  151.4282 H   0  0  0  0  0  0  0  0  0  0  0  0  # atno 10167 bound_to 10162
  157.3141  130.7414  149.6743 H   0  0  0  0  0  0  0  0  0  0  0  0  # atno 10718 bound_to 10713
  153.1437  135.4632  154.9534 H   0  0  0  0  0  0  0  0  0  0  0  0  # atno 10763 bound_to 10752
  154.7768  135.3176  154.8076 H   0  0  0  0  0  0  0  0  0  0  0  0  # atno 10764 bound_to 10752
  153.8594  135.6914  153.4838 H   0  0  0  0  0  0  0  0  0  0  0  0  # atno 10765 bound_to 10752
  140.0663  134.9177  157.1270 H   0  0  0  0  0  0  0  0  0  0  0  0  # atno 11005 bound_to 11000
  145.3095  141.0216  143.3562 LP  0  0  0  0  0  0  0  0  0  0  0  0  # atno 17320 bound_to 7965
  144.8946  139.4729  143.6661 LP  0  0  0  0  0  0  0  0  0  0  0  0  # atno 17321 bound_to 7965
  139.5913  144.1493  152.2091 LP  0  0  0  0  0  0  0  0  0  0  0  0  # atno 17342 bound_to 10162
  140.0848  144.5670  150.7096 LP  0  0  0  0  0  0  0  0  0  0  0  0  # atno 17343 bound_to 10162
  155.9680  130.4242  150.4599 LP  0  0  0  0  0  0  0  0  0  0  0  0  # atno 17370 bound_to 10713
  157.2603  131.0565  151.2324 LP  0  0  0  0  0  0  0  0  0  0  0  0  # atno 17371 bound_to 10713
  140.3694  134.2407  155.7179 LP  0  0  0  0  0  0  0  0  0  0  0  0  # atno 17394 bound_to 11000
  141.1994  133.8013  157.0538 LP  0  0  0  0  0  0  0  0  0  0  0  0  # atno 17395 bound_to 11000

$$$$
