AV-unprocessed.smi:844|AV-procd|sdf|3925|dock4
  -GOLD-   22720 1383D 1   1.00000     0.00000
 Structure written by MMmdl.
 33 35  0  0  0  0  0  0  0  0  2 V2000
  151.3462  144.1071  157.0487 O   0  0  0  0  0  0  0  0  0  0  0  0
  151.5434  142.8079  157.5678 C   0  0  2  0  0  0  0  0  0  0  0  0
  150.2312  142.0179  157.3878 C   0  0  0  0  0  0  0  0  0  0  0  0
  150.1843  141.2843  156.1168 N   0  0  0  0  0  0  0  0  0  0  0  0
  149.4482  141.5203  154.9968 C   0  0  0  0  0  0  0  0  0  0  0  0
  149.7463  140.5431  154.0962 N   0  3  0  0  0  0  0  0  0  0  0  0
  150.6898  139.6732  154.6471 C   0  0  0  0  0  0  0  0  0  0  0  0
  151.2976  138.5361  154.1238 C   0  0  0  0  0  0  0  0  0  0  0  0
  152.2235  137.8734  154.9564 C   0  0  0  0  0  0  0  0  0  0  0  0
  152.5143  138.3444  156.2535 C   0  0  0  0  0  0  0  0  0  0  0  0
  151.8916  139.4979  156.7742 C   0  0  0  0  0  0  0  0  0  0  0  0
  150.9779  140.1461  155.9445 C   0  0  0  0  0  0  0  0  0  0  0  0
  152.0088  142.8267  159.0197 C   0  0  0  0  0  0  0  0  0  0  0  0
  152.7544  141.7466  159.5429 C   0  0  0  0  0  0  0  0  0  0  0  0
  153.2019  141.7701  160.8778 C   0  0  0  0  0  0  0  0  0  0  0  0
  152.9100  142.8755  161.6990 C   0  0  0  0  0  0  0  0  0  0  0  0
  153.3432  142.9003  162.9815 F   0  0  0  0  0  0  0  0  0  0  0  0
  152.1712  143.9574  161.1838 C   0  0  0  0  0  0  0  0  0  0  0  0
  151.7227  143.9359  159.8488 C   0  0  0  0  0  0  0  0  0  0  0  0
  151.0252  144.9927  159.3662 F   0  0  0  0  0  0  0  0  0  0  0  0
  150.5700  144.1003  156.5095 H   0  0  0  0  0  0  0  0  0  0  0  0
  152.3215  142.3565  156.9524 H   0  0  0  0  0  0  0  0  0  0  0  0
  150.1048  141.2933  158.1937 H   0  0  0  0  0  0  0  0  0  0  0  0
  149.3656  142.6808  157.4282 H   0  0  0  0  0  0  0  0  0  0  0  0
  148.7466  142.3295  154.8533 H   0  0  0  0  0  0  0  0  0  0  0  0
  151.0765  138.1725  153.1310 H   0  0  0  0  0  0  0  0  0  0  0  0
  152.7208  136.9857  154.5930 H   0  0  0  0  0  0  0  0  0  0  0  0
  153.2296  137.8103  156.8621 H   0  0  0  0  0  0  0  0  0  0  0  0
  152.1191  139.8509  157.7694 H   0  0  0  0  0  0  0  0  0  0  0  0
  152.9905  140.8960  158.9200 H   0  0  0  0  0  0  0  0  0  0  0  0
  153.7711  140.9407  161.2710 H   0  0  0  0  0  0  0  0  0  0  0  0
  151.9504  144.8070  161.8131 H   0  0  0  0  0  0  0  0  0  0  0  0
  149.3341  140.4771  153.1742 H   0  0  0  0  0  0  0  0  0  0  0  0
  1  2  1  0  0  0  0
  1 21  1  0  0  0  0
  2  3  1  0  0  0  0
  2 13  1  0  0  0  0
  2 22  1  0  0  0  0
  3  4  1  0  0  0  0
  3 23  1  0  0  0  0
  3 24  1  0  0  0  0
  4 12  1  0  0  0  0
  4  5  1  0  0  0  0
  5  6  2  0  0  0  0
  5 25  1  0  0  0  0
  6  7  1  0  0  0  0
  6 33  1  0  0  0  0
  7 12  2  0  0  0  0
  7  8  1  0  0  0  0
  8  9  2  0  0  0  0
  8 26  1  0  0  0  0
  9 10  1  0  0  0  0
  9 27  1  0  0  0  0
 10 11  2  0  0  0  0
 10 28  1  0  0  0  0
 11 12  1  0  0  0  0
 11 29  1  0  0  0  0
 13 19  1  0  0  0  0
 13 14  2  0  0  0  0
 14 15  1  0  0  0  0
 14 30  1  0  0  0  0
 15 16  2  0  0  0  0
 15 31  1  0  0  0  0
 16 17  1  0  0  0  0
 16 18  1  0  0  0  0
 18 19  2  0  0  0  0
 18 32  1  0  0  0  0
 19 20  1  0  0  0  0
M  CHG  1   6   1
M  END
> <s_m_source_file>
AV-unprocessed.smi

> <i_m_source_file_index>
844

> <i_lp_mmshare_version>
43012

> <i_f3d_flags>
0

> <s_epik_input>
RmMxW2NIXWMoRilbY0hdW2NIXWMxW0NASF0oW09IXSlbQ0gyXW4oW2NIXW4yKWMoYzIzKVtjSF1bY0hdW2NIXVtjSF0z

> <s_epik_cmdline>
J2VwaWtfcHl0aG9uJywgJy1waCcsICc3LjAnLCAnLXRuJywgJzgnLCAnLW1hJywgJzIwMCcsICctbWV0YWxfYmluZGluZycsICctaW1hZScsICc8aW5maWxlLm1hZT4nLCAnLW9tYWUnLCAnPG91dGZpbGUubWFlPic=

> <r_epik_Ionization_Penalty>
1.3029

> <r_epik_Ionization_Penalty_Charging>
1.3029

> <r_epik_Ionization_Penalty_Neutral>
1.79538e-06

> <r_epik_State_Penalty>
1.377

> <r_epik_Charging_Adjusted_Penalty>
2.6799

> <i_epik_Tot_Q>
1

> <i_epik_Tot_abs_Q>
1

> <r_epik_Metal_State_Penalty>
5.40879

> <b_epik_Metal_Only>
0

> <s_lp_Force_Field>
OPLS_2005

> <r_lp_Energy>
17.7817

> <b_lp_Chiralities_Consistent>
1

> <s_lp_Variant>
AV-unprocessed.smi:844-3

> <Gold.Version>
5.8.1

> <Gold.Id.Protein>
6NUR|6NUR_protein|mol2

> <Gold.PLP.Fitness>
57.7833

> <Gold.PLP.PLP>
-51.6987

> <Gold.PLP.part.hbond>
-2.0000

> <Gold.PLP.part.metal>
0.0000

> <Gold.PLP.part.buried>
-5.4444

> <Gold.PLP.part.nonpolar>
-46.3390

> <Gold.PLP.part.repulsive>
2.3602

> <Gold.PLP.ligand.clash>
0.0000

> <Gold.PLP.ligand.torsion>
1.2466

> <Gold.PLP.Chemscore.Hbond>
1.8580

> <Gold.PLP.Chemscore.CHOScore>
0.9975

> <Gold.PLP.Chemscore.Metal>
0.0000

> <Gold.Chemscore.Hbonds>
donor molecule, donor type, donor heavy atom, donor atom, acceptor molecule, acceptor atom, score
      L1  H     1    21       P1  8028  1.00
      L1  H     6    33       P1  7957  0.83
      L1  C     5    25       P1  8028  1.00

> <Gold.PLP.Chemscore.Internal.Correction>
0.0114

> <Gold.Rescore>
     Score         DG    S(hbond)    S(metal)    S(lipo)     H(rot)  DE(clash)    DE(int)     intcor
     16.40     -20.35       1.78        0.00     121.44       2.06       0.86       3.08       ----

> <Gold.Chemscore.Fitness>
16.4026

> <Gold.Chemscore.DG>
-20.3451

> <Gold.Chemscore.ZeroCoef>
-5.4800

> <Gold.Chemscore.Hbond>
1.7754

> <Gold.Chemscore.Metal>
0.0000

> <Gold.Chemscore.Lipo>
121.4355

> <Gold.Chemscore.Internal_Hbond>
0.0000

> <Gold.Chemscore.DEClash>
0.8613

> <Gold.Chemscore.DEInternal>
3.0812

> <Gold.Chemscore.Rot>
2.0597

> <Gold.Chemscore.Internal.Correction>
   9.000000E+99

> <Gold.Chemscore.Hbonds>
donor molecule, donor type, donor heavy atom, donor atom, acceptor molecule, acceptor atom, score
      L1  H     1    21       P1  8028  0.98
      L1  H     6    33       P1  7957  0.78

> <Gold.Chemscore.Hbond.Weighted>
-5.9299

> <Gold.Chemscore.Metal.Weighted>
-0.0000

> <Gold.Chemscore.Lipo.Weighted>
-14.2080

> <Gold.Chemscore.Internal_Hbond.Weighted>
0.0000

> <Gold.Chemscore.DEClash.Weighted>
0.8613

> <Gold.Chemscore.DEInternal.Weighted>
3.0812

> <Gold.Chemscore.Rot.Weighted>
5.2728

> <Gold.Chemscore.Internal.Correction.Weighted>
   9.000000E+99

> <Gold.Protein.RotatedTorsions>
[ 6907 6896 6895 6894 ] final   55.17 input  -60.11 | X-H torsion
[ 7974 7965 7964 7962 ] final  -97.93 input  175.53 | X-H torsion
[ 8008 7997 7996 7995 ] final -169.29 input   59.86 | X-H torsion
[ 10167 10162 10161 10158 ] final  137.15 input  -65.29 | X-H torsion
[ 10718 10713 10712 10709 ] final  -93.86 input   66.30 | X-H torsion
[ 10763 10752 10751 10750 ] final  -77.77 input  -60.55 | X-H torsion
[ 11005 11000 10999 10996 ] final -122.44 input  -57.11 | X-H torsion

> <Gold.Protein.ActiveResidues>
 VAL166  LYS551  ARG553  GLY616  TRP617  ASP618  TYR619  PRO620  LYS621  CYS622 
 ASP623  PHE694  ASN695  SER759  ASP760  ASP761  ALA762  ILE779  LEU786  VAL792 
 PHE793  MET794  SER795  GLU796  ALA797  LYS798  CYS799  TRP800  GLU811  SER814 

> <Gold.Protein.RotatedAtoms>
  152.3512  134.7003  160.0235 H   0  0  0  0  0  0  0  0  0  0  0  0  # atno 6907 bound_to 6896
  151.7357  133.3314  159.3360 H   0  0  0  0  0  0  0  0  0  0  0  0  # atno 6908 bound_to 6896
  150.7541  134.6257  159.6204 H   0  0  0  0  0  0  0  0  0  0  0  0  # atno 6909 bound_to 6896
  145.3273  140.9434  143.2682 H   0  0  0  0  0  0  0  0  0  0  0  0  # atno 7974 bound_to 7965
  155.9030  140.1044  157.1336 H   0  0  0  0  0  0  0  0  0  0  0  0  # atno 8008 bound_to 7997
  154.4029  140.1289  156.4525 H   0  0  0  0  0  0  0  0  0  0  0  0  # atno 8009 bound_to 7997
  155.7400  140.3467  155.5102 H   0  0  0  0  0  0  0  0  0  0  0  0  # atno 8010 bound_to 7997
  139.5154  144.6426  151.5528 H   0  0  0  0  0  0  0  0  0  0  0  0  # atno 10167 bound_to 10162
  156.0019  130.5044  150.5840 H   0  0  0  0  0  0  0  0  0  0  0  0  # atno 10718 bound_to 10713
  154.5172  135.5752  153.6652 H   0  0  0  0  0  0  0  0  0  0  0  0  # atno 10763 bound_to 10752
  152.9909  135.6173  154.2801 H   0  0  0  0  0  0  0  0  0  0  0  0  # atno 10764 bound_to 10752
  154.2720  135.2853  155.2714 H   0  0  0  0  0  0  0  0  0  0  0  0  # atno 10765 bound_to 10752
  140.9995  134.0423  157.3555 H   0  0  0  0  0  0  0  0  0  0  0  0  # atno 11005 bound_to 11000
  144.8892  139.4797  143.6686 LP  0  0  0  0  0  0  0  0  0  0  0  0  # atno 17320 bound_to 7965
  146.3059  139.7580  142.9056 LP  0  0  0  0  0  0  0  0  0  0  0  0  # atno 17321 bound_to 7965
  140.6198  143.9280  150.6517 LP  0  0  0  0  0  0  0  0  0  0  0  0  # atno 17342 bound_to 10162
  140.2549  143.3566  152.1373 LP  0  0  0  0  0  0  0  0  0  0  0  0  # atno 17343 bound_to 10162
  157.3715  131.0766  151.1553 LP  0  0  0  0  0  0  0  0  0  0  0  0  # atno 17370 bound_to 10713
  157.2305  130.6523  149.5848 LP  0  0  0  0  0  0  0  0  0  0  0  0  # atno 17371 bound_to 10713
  139.9031  135.0171  156.7364 LP  0  0  0  0  0  0  0  0  0  0  0  0  # atno 17394 bound_to 11000
  140.6912  133.9389  155.7967 LP  0  0  0  0  0  0  0  0  0  0  0  0  # atno 17395 bound_to 11000

$$$$
