AV-unprocessed.smi:1760|AV-procd|sdf|7089|dock10
  -GOLD-   22720 8303D 1   1.00000     0.00000
 Structure written by MMmdl.
 44 46  0  0  0  0  0  0  0  0  2 V2000
  149.4920  134.5204  156.1569 O   0  0  0  0  0  0  0  0  0  0  0  0
  149.3795  134.9092  154.9948 C   0  0  0  0  0  0  0  0  0  0  0  0
  148.6780  134.2946  154.0244 N   0  0  0  0  0  0  0  0  0  0  0  0
  147.9686  133.0828  154.0741 C   0  0  0  0  0  0  0  0  0  0  0  0
  148.5156  131.8555  153.8722 C   0  0  0  0  0  0  0  0  0  0  0  0
  147.7215  130.6395  153.9223 C   0  0  0  0  0  0  0  0  0  0  0  0
  148.3582  129.2665  153.7740 C   0  0  0  0  0  0  0  0  0  0  0  0
  148.0107  128.6944  152.6205 F   0  0  0  0  0  0  0  0  0  0  0  0
  149.6856  129.3787  153.7980 F   0  0  0  0  0  0  0  0  0  0  0  0
  147.9919  128.4584  154.7690 F   0  0  0  0  0  0  0  0  0  0  0  0
  146.4110  130.7888  154.1890 C   0  0  0  0  0  0  0  0  0  0  0  0
  145.8368  132.0480  154.3766 N   0  0  0  0  0  0  0  0  0  0  0  0
  146.5252  133.2109  154.3346 C   0  0  0  0  0  0  0  0  0  0  0  0
  145.9463  134.2828  154.5092 O   0  0  0  0  0  0  0  0  0  0  0  0
  149.9391  136.0384  154.5363 N   0  0  0  0  0  0  0  0  0  0  0  0
  150.7438  136.9729  155.3196 C   0  0  2  0  0  0  0  0  0  0  0  0
  149.9061  137.5451  156.4754 C   0  0  0  0  0  0  0  0  0  0  0  0
  150.6900  138.6170  157.2505 C   0  0  0  0  0  0  0  0  0  0  0  0
  151.1473  139.7003  156.3451 N   0  3  1  0  0  0  0  0  0  0  0  0
  151.8004  140.8031  157.0829 C   0  0  0  0  0  0  0  0  0  0  0  0
  151.1059  141.1601  158.3763 C   0  0  0  0  0  0  0  0  0  0  0  0
  150.9641  142.0585  157.1676 C   0  0  0  0  0  0  0  0  0  0  0  0
  151.9987  139.1764  155.2482 C   0  0  0  0  0  0  0  0  0  0  0  0
  151.2468  138.1176  154.4239 C   0  0  0  0  0  0  0  0  0  0  0  0
  144.8437  132.0772  154.5574 H   0  0  0  0  0  0  0  0  0  0  0  0
  148.6142  134.7791  153.1407 H   0  0  0  0  0  0  0  0  0  0  0  0
  149.5629  131.7460  153.6432 H   0  0  0  0  0  0  0  0  0  0  0  0
  145.7127  129.9701  154.2829 H   0  0  0  0  0  0  0  0  0  0  0  0
  149.7874  136.2746  153.5664 H   0  0  0  0  0  0  0  0  0  0  0  0
  151.6128  136.4677  155.7454 H   0  0  0  0  0  0  0  0  0  0  0  0
  148.9844  137.9813  156.0870 H   0  0  0  0  0  0  0  0  0  0  0  0
  149.6078  136.7445  157.1536 H   0  0  0  0  0  0  0  0  0  0  0  0
  150.0567  139.0361  158.0334 H   0  0  0  0  0  0  0  0  0  0  0  0
  151.5515  138.1678  157.7471 H   0  0  0  0  0  0  0  0  0  0  0  0
  152.8843  140.8655  157.0015 H   0  0  0  0  0  0  0  0  0  0  0  0
  150.2357  140.5771  158.6730 H   0  0  0  0  0  0  0  0  0  0  0  0
  151.7246  141.5203  159.1956 H   0  0  0  0  0  0  0  0  0  0  0  0
  151.4900  143.0107  157.1901 H   0  0  0  0  0  0  0  0  0  0  0  0
  150.0004  142.0719  156.6616 H   0  0  0  0  0  0  0  0  0  0  0  0
  152.3029  139.9962  154.5961 H   0  0  0  0  0  0  0  0  0  0  0  0
  152.9118  138.7496  155.6664 H   0  0  0  0  0  0  0  0  0  0  0  0
  151.9014  137.7237  153.6452 H   0  0  0  0  0  0  0  0  0  0  0  0
  150.4055  138.5880  153.9126 H   0  0  0  0  0  0  0  0  0  0  0  0
  150.3213  140.0901  155.9139 H   0  0  0  0  0  0  0  0  0  0  0  0
  1  2  2  0  0  0  0
  2  3  1  0  0  0  0
  2 15  1  0  0  0  0
  3  4  1  0  0  0  0
  3 26  1  0  0  0  0
  4 13  1  0  0  0  0
  4  5  2  0  0  0  0
  5  6  1  0  0  0  0
  5 27  1  0  0  0  0
  6  7  1  0  0  0  0
  6 11  2  0  0  0  0
  7  8  1  0  0  0  0
  7  9  1  0  0  0  0
  7 10  1  0  0  0  0
 11 12  1  0  0  0  0
 11 28  1  0  0  0  0
 12 25  1  0  0  0  0
 12 13  1  0  0  0  0
 13 14  2  0  0  0  0
 15 16  1  0  0  0  0
 15 29  1  0  0  0  0
 16 24  1  0  0  0  0
 16 17  1  0  0  0  0
 16 30  1  0  0  0  0
 17 18  1  0  0  0  0
 17 31  1  0  0  0  0
 17 32  1  0  0  0  0
 18 19  1  0  0  0  0
 18 33  1  0  0  0  0
 18 34  1  0  0  0  0
 19 20  1  0  0  0  0
 19 23  1  0  0  0  0
 19 44  1  0  0  0  0
 20 22  1  0  0  0  0
 20 21  1  0  0  0  0
 20 35  1  0  0  0  0
 21 22  1  0  0  0  0
 21 36  1  0  0  0  0
 21 37  1  0  0  0  0
 22 38  1  0  0  0  0
 22 39  1  0  0  0  0
 23 24  1  0  0  0  0
 23 40  1  0  0  0  0
 23 41  1  0  0  0  0
 24 42  1  0  0  0  0
 24 43  1  0  0  0  0
M  CHG  1  19   1
M  END
> <s_m_source_file>
AV-unprocessed.smi

> <i_m_source_file_index>
1760

> <i_lp_mmshare_version>
43012

> <i_f3d_flags>
0

> <s_epik_input>
W0NIMl0xW0NIMl1bQ0hdMU4oW0NIMl1bQ0gyXTIpW0NIMl1bQ0gyXVtDSF0yW05IXUMoPU8pW05IXWMzW2NIXWMoQyhGKShGKUYpW2NIXVtuSF1jMz1P

> <s_epik_cmdline>
J2VwaWtfcHl0aG9uJywgJy1waCcsICc3LjAnLCAnLXRuJywgJzgnLCAnLW1hJywgJzIwMCcsICctbWV0YWxfYmluZGluZycsICctaW1hZScsICc8aW5maWxlLm1hZT4nLCAnLW9tYWUnLCAnPG91dGZpbGUubWFlPic=

> <r_lp_tautomer_probability>
0.999

> <r_epik_Ionization_Penalty>
0.131122

> <r_epik_Ionization_Penalty_Charging>
0.131104

> <r_epik_Ionization_Penalty_Neutral>
1.84439e-05

> <r_epik_State_Penalty>
0.116042

> <r_epik_Charging_Adjusted_Penalty>
0.247146

> <i_epik_Tot_Q>
1

> <i_epik_Tot_abs_Q>
1

> <r_epik_Metal_State_Penalty>
0.492282

> <b_epik_Metal_Only>
0

> <s_lp_Force_Field>
OPLS_2005

> <r_lp_Energy>
37.3321

> <b_lp_Chiralities_Consistent>
1

> <s_lp_Variant>
AV-unprocessed.smi:1760-1

> <Gold.Version>
5.8.1

> <Gold.Id.Protein>
6NUR|6NUR_protein|mol2

> <Gold.PLP.Fitness>
39.7305

> <Gold.PLP.PLP>
-31.6426

> <Gold.PLP.part.hbond>
-2.7704

> <Gold.PLP.part.metal>
0.0000

> <Gold.PLP.part.buried>
-6.0065

> <Gold.PLP.part.nonpolar>
-24.4414

> <Gold.PLP.part.repulsive>
0.2329

> <Gold.PLP.ligand.clash>
0.3518

> <Gold.PLP.ligand.torsion>
1.9040

> <Gold.PLP.Chemscore.Hbond>
2.6500

> <Gold.PLP.Chemscore.CHOScore>
1.0000

> <Gold.PLP.Chemscore.Metal>
0.0000

> <Gold.Chemscore.Hbonds>
donor molecule, donor type, donor heavy atom, donor atom, acceptor molecule, acceptor atom, score
      L1  H     3    26       P1  7948  1.00
      L1  H    12    25       P1 10957  0.62
      L1  H    15    29       P1  7948  1.00
      L1  C    11    28       P1 10956  1.00

> <Gold.PLP.Chemscore.Internal.Correction>
1.2977

> <Gold.Rescore>
     Score         DG    S(hbond)    S(metal)    S(lipo)     H(rot)  DE(clash)    DE(int)     intcor
     16.11     -18.75       2.54        0.00      69.06       1.29       0.06       2.58       ----

> <Gold.Chemscore.Fitness>
16.1127

> <Gold.Chemscore.DG>
-18.7546

> <Gold.Chemscore.ZeroCoef>
-5.4800

> <Gold.Chemscore.Hbond>
2.5421

> <Gold.Chemscore.Metal>
0.0000

> <Gold.Chemscore.Lipo>
69.0583

> <Gold.Chemscore.Internal_Hbond>
0.0000

> <Gold.Chemscore.DEClash>
0.0637

> <Gold.Chemscore.DEInternal>
2.5782

> <Gold.Chemscore.Rot>
1.2875

> <Gold.Chemscore.Internal.Correction>
   9.000000E+99

> <Gold.Chemscore.Hbonds>
donor molecule, donor type, donor heavy atom, donor atom, acceptor molecule, acceptor atom, score
      L1  H     3    26       P1  7948  0.39
      L1  H    12    25       P1 10957  0.16
      L1  H    15    29       P1  7948  0.25

> <Gold.Chemscore.Hbond.Weighted>
-8.4907

> <Gold.Chemscore.Metal.Weighted>
-0.0000

> <Gold.Chemscore.Lipo.Weighted>
-8.0798

> <Gold.Chemscore.Internal_Hbond.Weighted>
0.0000

> <Gold.Chemscore.DEClash.Weighted>
0.0637

> <Gold.Chemscore.DEInternal.Weighted>
2.5782

> <Gold.Chemscore.Rot.Weighted>
3.2960

> <Gold.Chemscore.Internal.Correction.Weighted>
   9.000000E+99

> <Gold.Protein.RotatedTorsions>
[ 6907 6896 6895 6894 ] final   15.77 input  -60.11 | X-H torsion
[ 7974 7965 7964 7962 ] final   75.01 input  175.53 | X-H torsion
[ 8008 7997 7996 7995 ] final   74.91 input   59.86 | X-H torsion
[ 10167 10162 10161 10158 ] final  -18.41 input  -65.29 | X-H torsion
[ 10718 10713 10712 10709 ] final  -28.29 input   66.30 | X-H torsion
[ 10763 10752 10751 10750 ] final  -93.73 input  -60.55 | X-H torsion
[ 11005 11000 10999 10996 ] final -174.60 input  -57.11 | X-H torsion

> <Gold.Protein.ActiveResidues>
 VAL166  LYS551  ARG553  GLY616  TRP617  ASP618  TYR619  PRO620  LYS621  CYS622 
 ASP623  PHE694  ASN695  SER759  ASP760  ASP761  ALA762  ILE779  LEU786  VAL792 
 PHE793  MET794  SER795  GLU796  ALA797  LYS798  CYS799  TRP800  GLU811  SER814 

> <Gold.Protein.RotatedAtoms>
  151.8233  135.0645  160.0427 H   0  0  0  0  0  0  0  0  0  0  0  0  # atno 6907 bound_to 6896
  152.2935  133.5580  159.5581 H   0  0  0  0  0  0  0  0  0  0  0  0  # atno 6908 bound_to 6896
  150.7240  134.0311  159.3775 H   0  0  0  0  0  0  0  0  0  0  0  0  # atno 6909 bound_to 6896
  145.7210  139.2648  143.1596 H   0  0  0  0  0  0  0  0  0  0  0  0  # atno 7974 bound_to 7965
  155.8052  140.3475  155.5426 H   0  0  0  0  0  0  0  0  0  0  0  0  # atno 8008 bound_to 7997
  155.8497  140.0954  157.1703 H   0  0  0  0  0  0  0  0  0  0  0  0  # atno 8009 bound_to 7997
  154.4007  140.1379  156.3816 H   0  0  0  0  0  0  0  0  0  0  0  0  # atno 8010 bound_to 7997
  140.7258  143.4919  150.9980 H   0  0  0  0  0  0  0  0  0  0  0  0  # atno 10167 bound_to 10162
  156.4272  130.4438  149.7142 H   0  0  0  0  0  0  0  0  0  0  0  0  # atno 10718 bound_to 10713
  154.6987  135.5184  153.8495 H   0  0  0  0  0  0  0  0  0  0  0  0  # atno 10763 bound_to 10752
  153.0687  135.6594  154.0305 H   0  0  0  0  0  0  0  0  0  0  0  0  # atno 10764 bound_to 10752
  154.0168  135.2997  155.3365 H   0  0  0  0  0  0  0  0  0  0  0  0  # atno 10765 bound_to 10752
  140.4727  134.6150  157.4888 H   0  0  0  0  0  0  0  0  0  0  0  0  # atno 11005 bound_to 11000
  146.0626  140.7955  142.9727 LP  0  0  0  0  0  0  0  0  0  0  0  0  # atno 17320 bound_to 7965
  144.6917  140.3220  143.7231 LP  0  0  0  0  0  0  0  0  0  0  0  0  # atno 17321 bound_to 7965
  139.8624  143.7297  152.3172 LP  0  0  0  0  0  0  0  0  0  0  0  0  # atno 17342 bound_to 10162
  139.7517  144.7532  151.0496 LP  0  0  0  0  0  0  0  0  0  0  0  0  # atno 17343 bound_to 10162
  156.4060  130.7698  151.2709 LP  0  0  0  0  0  0  0  0  0  0  0  0  # atno 17370 bound_to 10713
  157.7508  131.0226  150.3797 LP  0  0  0  0  0  0  0  0  0  0  0  0  # atno 17371 bound_to 10713
  139.9875  134.7038  155.9748 LP  0  0  0  0  0  0  0  0  0  0  0  0  # atno 17394 bound_to 11000
  141.1569  133.6542  156.4191 LP  0  0  0  0  0  0  0  0  0  0  0  0  # atno 17395 bound_to 11000

$$$$
