AV-unprocessed.smi:212|AV-procd|sdf|1630|dock10
  -GOLD-   2262019583D 1   1.00000     0.00000
 Structure written by MMmdl.
 65 68  0  0  0  0  0  0  0  0  2 V2000
  146.1371  137.4196  153.2668 C   0  0  0  0  0  0  0  0  0  0  0  0
  145.6861  135.9663  153.4909 C   0  0  1  0  0  0  0  0  0  0  0  0
  144.2100  135.8763  153.9345 C   0  0  0  0  0  0  0  0  0  0  0  0
  143.2805  136.1709  152.8132 N   0  3  2  0  0  0  0  0  0  0  0  0
  141.8540  136.2182  153.2289 C   0  0  0  0  0  0  0  0  0  0  0  0
  141.3533  137.6634  153.4584 C   0  0  0  0  0  0  0  0  0  0  0  0
  139.8170  137.7070  153.4035 C   0  0  0  0  0  0  0  0  0  0  0  0
  141.8554  138.2514  154.7905 C   0  0  0  0  0  0  0  0  0  0  0  0
  141.8184  138.4853  152.4060 O   0  0  0  0  0  0  0  0  0  0  0  0
  143.5225  135.2948  151.6386 C   0  0  0  0  0  0  0  0  0  0  0  0
  144.9904  135.3789  151.1827 C   0  0  0  0  0  0  0  0  0  0  0  0
  145.9076  135.1432  152.2991 N   0  0  0  0  0  0  0  0  0  0  0  0
  146.3615  133.8813  152.5192 C   0  0  0  0  0  0  0  0  0  0  0  0
  145.7019  132.8194  151.9842 N   0  0  0  0  0  0  0  0  0  0  0  0
  146.1344  131.5742  152.2032 C   0  0  0  0  0  0  0  0  0  0  0  0
  147.1888  131.1703  152.9135 N   0  0  0  0  0  0  0  0  0  0  0  0
  147.8614  132.2308  153.4444 C   0  0  0  0  0  0  0  0  0  0  0  0
  147.5197  133.6050  153.2999 C   0  0  0  0  0  0  0  0  0  0  0  0
  148.4430  134.3946  153.9762 N   0  0  0  0  0  0  0  0  0  0  0  0
  149.2767  133.5361  154.4975 C   0  0  0  0  0  0  0  0  0  0  0  0
  149.0051  132.2152  154.2217 N   0  0  0  0  0  0  0  0  0  0  0  0
  149.7593  131.0563  154.6652 C   0  0  0  0  0  0  0  0  0  0  0  0
  150.8971  131.4251  155.6519 C   0  0  1  0  0  0  0  0  0  0  0  0
  150.3331  131.8679  157.0216 C   0  0  0  0  0  0  0  0  0  0  0  0
  151.3373  132.4527  157.8246 O   0  0  0  0  0  0  0  0  0  0  0  0
  151.9712  130.3124  155.7974 C   0  0  1  0  0  0  0  0  0  0  0  0
  152.2958  129.5133  154.5397 C   0  0  0  0  0  0  0  0  0  0  0  0
  153.7257  129.0648  154.8054 C   0  0  0  0  0  0  0  0  0  0  0  0
  154.3046  130.2121  155.4043 O   0  0  0  0  0  0  0  0  0  0  0  0
  153.3506  130.7834  156.2934 C   0  0  0  0  0  0  0  0  0  0  0  0
  146.0258  138.0064  154.1789 H   0  0  0  0  0  0  0  0  0  0  0  0
  145.5584  137.9138  152.4864 H   0  0  0  0  0  0  0  0  0  0  0  0
  147.1878  137.4595  152.9782 H   0  0  0  0  0  0  0  0  0  0  0  0
  146.2830  135.5835  154.3184 H   0  0  0  0  0  0  0  0  0  0  0  0
  143.9998  134.8737  154.3115 H   0  0  0  0  0  0  0  0  0  0  0  0
  144.0299  136.5668  154.7598 H   0  0  0  0  0  0  0  0  0  0  0  0
  141.2300  135.7082  152.4925 H   0  0  0  0  0  0  0  0  0  0  0  0
  141.7207  135.6573  154.1555 H   0  0  0  0  0  0  0  0  0  0  0  0
  139.3770  137.0997  154.1954 H   0  0  0  0  0  0  0  0  0  0  0  0
  139.4403  137.3294  152.4519 H   0  0  0  0  0  0  0  0  0  0  0  0
  139.4413  138.7239  153.5252 H   0  0  0  0  0  0  0  0  0  0  0  0
  141.5278  137.6450  155.6356 H   0  0  0  0  0  0  0  0  0  0  0  0
  141.4755  139.2620  154.9460 H   0  0  0  0  0  0  0  0  0  0  0  0
  142.9438  138.3067  154.8269 H   0  0  0  0  0  0  0  0  0  0  0  0
  142.7186  138.7173  152.5789 H   0  0  0  0  0  0  0  0  0  0  0  0
  143.2661  134.2665  151.8971 H   0  0  0  0  0  0  0  0  0  0  0  0
  142.8695  135.5835  150.8150 H   0  0  0  0  0  0  0  0  0  0  0  0
  145.1788  134.6811  150.3656 H   0  0  0  0  0  0  0  0  0  0  0  0
  145.1916  136.3699  150.7759 H   0  0  0  0  0  0  0  0  0  0  0  0
  145.5528  130.7887  151.7433 H   0  0  0  0  0  0  0  0  0  0  0  0
  150.1226  133.8454  155.0943 H   0  0  0  0  0  0  0  0  0  0  0  0
  149.0621  130.3554  155.1244 H   0  0  0  0  0  0  0  0  0  0  0  0
  150.1485  130.5621  153.7758 H   0  0  0  0  0  0  0  0  0  0  0  0
  151.4131  132.2894  155.2305 H   0  0  0  0  0  0  0  0  0  0  0  0
  149.5472  132.6126  156.8989 H   0  0  0  0  0  0  0  0  0  0  0  0
  149.8909  131.0242  157.5521 H   0  0  0  0  0  0  0  0  0  0  0  0
  152.1397  132.4865  157.3262 H   0  0  0  0  0  0  0  0  0  0  0  0
  151.6201  129.5974  156.5429 H   0  0  0  0  0  0  0  0  0  0  0  0
  151.6139  128.6777  154.3791 H   0  0  0  0  0  0  0  0  0  0  0  0
  152.2811  130.1362  153.6465 H   0  0  0  0  0  0  0  0  0  0  0  0
  153.7516  128.2293  155.5069 H   0  0  0  0  0  0  0  0  0  0  0  0
  154.2537  128.7733  153.8974 H   0  0  0  0  0  0  0  0  0  0  0  0
  153.4628  131.8669  156.3153 H   0  0  0  0  0  0  0  0  0  0  0  0
  153.5355  130.4194  157.3050 H   0  0  0  0  0  0  0  0  0  0  0  0
  143.5062  137.1084  152.5130 H   0  0  0  0  0  0  0  0  0  0  0  0
  1  2  1  0  0  0  0
  1 31  1  0  0  0  0
  1 32  1  0  0  0  0
  1 33  1  0  0  0  0
  2 12  1  0  0  0  0
  2  3  1  0  0  0  0
  2 34  1  0  0  0  0
  3  4  1  0  0  0  0
  3 35  1  0  0  0  0
  3 36  1  0  0  0  0
  4  5  1  0  0  0  0
  4 10  1  0  0  0  0
  4 65  1  0  0  0  0
  5  6  1  0  0  0  0
  5 37  1  0  0  0  0
  5 38  1  0  0  0  0
  6  7  1  0  0  0  0
  6  8  1  0  0  0  0
  6  9  1  0  0  0  0
  7 39  1  0  0  0  0
  7 40  1  0  0  0  0
  7 41  1  0  0  0  0
  8 42  1  0  0  0  0
  8 43  1  0  0  0  0
  8 44  1  0  0  0  0
  9 45  1  0  0  0  0
 10 11  1  0  0  0  0
 10 46  1  0  0  0  0
 10 47  1  0  0  0  0
 11 12  1  0  0  0  0
 11 48  1  0  0  0  0
 11 49  1  0  0  0  0
 12 13  1  0  0  0  0
 13 18  1  0  0  0  0
 13 14  2  0  0  0  0
 14 15  1  0  0  0  0
 15 16  2  0  0  0  0
 15 50  1  0  0  0  0
 16 17  1  0  0  0  0
 17 21  1  0  0  0  0
 17 18  2  0  0  0  0
 18 19  1  0  0  0  0
 19 20  2  0  0  0  0
 20 21  1  0  0  0  0
 20 51  1  0  0  0  0
 21 22  1  0  0  0  0
 22 23  1  0  0  0  0
 22 52  1  0  0  0  0
 22 53  1  0  0  0  0
 23 24  1  0  0  0  0
 23 26  1  0  0  0  0
 23 54  1  0  0  0  0
 24 25  1  0  0  0  0
 24 55  1  0  0  0  0
 24 56  1  0  0  0  0
 25 57  1  0  0  0  0
 26 30  1  0  0  0  0
 26 27  1  0  0  0  0
 26 58  1  0  0  0  0
 27 28  1  0  0  0  0
 27 59  1  0  0  0  0
 27 60  1  0  0  0  0
 28 29  1  0  0  0  0
 28 61  1  0  0  0  0
 28 62  1  0  0  0  0
 29 30  1  0  0  0  0
 30 63  1  0  0  0  0
 30 64  1  0  0  0  0
M  CHG  1   4   1
M  END
> <s_m_source_file>
AV-unprocessed.smi

> <i_m_source_file_index>
212

> <i_lp_mmshare_version>
43012

> <i_f3d_flags>
0

> <s_epik_input>
W0NIM11bQ0BASF0xW0NIMl1OKFtDSDJdQyhbQ0gzXSkoW0NIM10pW09IXSlbQ0gyXVtDSDJdTjFjKG5bY0hdbjIpYyhjMjMpbltjSF1uM1tDSDJdW0NASF0oW0NIMl1bT0hdKVtDQEBIXTRbQ0gyXVtDSDJdT1tDSDJdNA==

> <s_epik_cmdline>
J2VwaWtfcHl0aG9uJywgJy1waCcsICc3LjAnLCAnLXRuJywgJzgnLCAnLW1hJywgJzIwMCcsICctbWV0YWxfYmluZGluZycsICctaW1hZScsICc8aW5maWxlLm1hZT4nLCAnLW9tYWUnLCAnPG91dGZpbGUubWFlPic=

> <r_lp_tautomer_probability>
1

> <r_epik_Ionization_Penalty>
0.00182193

> <r_epik_Ionization_Penalty_Charging>
0.00173996

> <r_epik_Ionization_Penalty_Neutral>
8.19718e-05

> <r_epik_State_Penalty>
-0

> <r_epik_Charging_Adjusted_Penalty>
0.00173996

> <i_epik_Tot_Q>
1

> <i_epik_Tot_abs_Q>
1

> <r_epik_Metal_State_Penalty>
-0

> <b_epik_Metal_Only>
0

> <s_lp_Force_Field>
OPLS_2005

> <r_lp_Energy>
60.3061

> <b_lp_Chiralities_Consistent>
1

> <s_lp_Variant>
AV-unprocessed.smi:212-14

> <Gold.Version>
5.8.1

> <Gold.Id.Protein>
6NUR|6NUR_protein|mol2

> <Gold.PLP.Fitness>
44.5895

> <Gold.PLP.PLP>
-42.7942

> <Gold.PLP.part.hbond>
-3.0439

> <Gold.PLP.part.metal>
0.0000

> <Gold.PLP.part.buried>
-6.0550

> <Gold.PLP.part.nonpolar>
-36.2723

> <Gold.PLP.part.repulsive>
2.7853

> <Gold.PLP.ligand.clash>
0.0000

> <Gold.PLP.ligand.torsion>
1.9395

> <Gold.PLP.Chemscore.Hbond>
1.5760

> <Gold.PLP.Chemscore.CHOScore>
0.0000

> <Gold.PLP.Chemscore.Metal>
0.0000

> <Gold.Chemscore.Hbonds>
donor molecule, donor type, donor heavy atom, donor atom, acceptor molecule, acceptor atom, score
      L1  H     9    45       P1 10175  0.59
      P1  H  6896  6908       L1    25  1.00

> <Gold.PLP.Chemscore.Internal.Correction>
0.9464

> <Gold.Rescore>
     Score         DG    S(hbond)    S(metal)    S(lipo)     H(rot)  DE(clash)    DE(int)     intcor
      9.09     -11.76       1.82        0.00      75.99       3.40       0.78       1.90       ----

> <Gold.Chemscore.Fitness>
9.0873

> <Gold.Chemscore.DG>
-11.7634

> <Gold.Chemscore.ZeroCoef>
-5.4800

> <Gold.Chemscore.Hbond>
1.8244

> <Gold.Chemscore.Metal>
0.0000

> <Gold.Chemscore.Lipo>
75.9874

> <Gold.Chemscore.Internal_Hbond>
0.0000

> <Gold.Chemscore.DEClash>
0.7791

> <Gold.Chemscore.DEInternal>
1.8970

> <Gold.Chemscore.Rot>
3.3986

> <Gold.Chemscore.Internal.Correction>
   9.000000E+99

> <Gold.Chemscore.Hbonds>
donor molecule, donor type, donor heavy atom, donor atom, acceptor molecule, acceptor atom, score
      L1  H     9    45       P1 10175  0.58
      P1  H  6896  6908       L1    25  0.65

> <Gold.Chemscore.Hbond.Weighted>
-6.0933

> <Gold.Chemscore.Metal.Weighted>
-0.0000

> <Gold.Chemscore.Lipo.Weighted>
-8.8905

> <Gold.Chemscore.Internal_Hbond.Weighted>
0.0000

> <Gold.Chemscore.DEClash.Weighted>
0.7791

> <Gold.Chemscore.DEInternal.Weighted>
1.8970

> <Gold.Chemscore.Rot.Weighted>
8.7005

> <Gold.Chemscore.Internal.Correction.Weighted>
   9.000000E+99

> <Gold.Protein.RotatedTorsions>
[ 6907 6896 6895 6894 ] final   64.60 input  -60.11 | X-H torsion
[ 7974 7965 7964 7962 ] final  -37.81 input  175.53 | X-H torsion
[ 8008 7997 7996 7995 ] final   -9.02 input   59.86 | X-H torsion
[ 10167 10162 10161 10158 ] final   -6.64 input  -65.29 | X-H torsion
[ 10718 10713 10712 10709 ] final   44.76 input   66.30 | X-H torsion
[ 10763 10752 10751 10750 ] final   -0.42 input  -60.55 | X-H torsion
[ 11005 11000 10999 10996 ] final  -99.32 input  -57.11 | X-H torsion

> <Gold.Protein.ActiveResidues>
 VAL166  LYS551  ARG553  GLY616  TRP617  ASP618  TYR619  PRO620  LYS621  CYS622 
 ASP623  PHE694  ASN695  SER759  ASP760  ASP761  ALA762  ILE779  LEU786  VAL792 
 PHE793  MET794  SER795  GLU796  ALA797  LYS798  CYS799  TRP800  GLU811  SER814 

> <Gold.Protein.RotatedAtoms>
  152.4344  134.5715  159.9922 H   0  0  0  0  0  0  0  0  0  0  0  0  # atno 6907 bound_to 6896
  151.5830  133.3370  159.3020 H   0  0  0  0  0  0  0  0  0  0  0  0  # atno 6908 bound_to 6896
  150.8240  134.7497  159.6861 H   0  0  0  0  0  0  0  0  0  0  0  0  # atno 6909 bound_to 6896
  146.0542  140.6440  142.9028 H   0  0  0  0  0  0  0  0  0  0  0  0  # atno 7974 bound_to 7965
  154.5686  140.2366  155.8226 H   0  0  0  0  0  0  0  0  0  0  0  0  # atno 8008 bound_to 7997
  156.2088  140.3032  155.9645 H   0  0  0  0  0  0  0  0  0  0  0  0  # atno 8009 bound_to 7997
  155.2755  140.0420  157.3001 H   0  0  0  0  0  0  0  0  0  0  0  0  # atno 8010 bound_to 7997
  140.7003  143.6171  150.8648 H   0  0  0  0  0  0  0  0  0  0  0  0  # atno 10167 bound_to 10162
  157.4302  130.8020  149.7596 H   0  0  0  0  0  0  0  0  0  0  0  0  # atno 10718 bound_to 10713
  153.3316  135.6975  153.6943 H   0  0  0  0  0  0  0  0  0  0  0  0  # atno 10763 bound_to 10752
  153.5743  135.3510  155.2850 H   0  0  0  0  0  0  0  0  0  0  0  0  # atno 10764 bound_to 10752
  154.8619  135.4279  154.2507 H   0  0  0  0  0  0  0  0  0  0  0  0  # atno 10765 bound_to 10752
  141.1313  133.8313  157.0956 H   0  0  0  0  0  0  0  0  0  0  0  0  # atno 11005 bound_to 11000
  144.7139  140.4138  143.7059 LP  0  0  0  0  0  0  0  0  0  0  0  0  # atno 17320 bound_to 7965
  145.6673  139.1592  143.2774 LP  0  0  0  0  0  0  0  0  0  0  0  0  # atno 17321 bound_to 7965
  139.9893  143.5865  152.2916 LP  0  0  0  0  0  0  0  0  0  0  0  0  # atno 17342 bound_to 10162
  139.6514  144.7661  151.2141 LP  0  0  0  0  0  0  0  0  0  0  0  0  # atno 17343 bound_to 10162
  155.9911  130.3940  150.3001 LP  0  0  0  0  0  0  0  0  0  0  0  0  # atno 17370 bound_to 10713
  157.1157  131.0233  151.3030 LP  0  0  0  0  0  0  0  0  0  0  0  0  # atno 17371 bound_to 10713
  140.0365  134.9876  157.0880 LP  0  0  0  0  0  0  0  0  0  0  0  0  # atno 17394 bound_to 11000
  140.4203  134.1888  155.7164 LP  0  0  0  0  0  0  0  0  0  0  0  0  # atno 17395 bound_to 11000

$$$$
