#       Name:                AV-unprocessed.smi:480
#       Creating user name   scv26
#       Creation time:       Thu Mar 26 23:09:55 2020


#       File generated by GOLD software.
#

@<TRIPOS>MOLECULE
AV-unprocessed.smi:480
    52    54     1
SMALL
NO_CHARGES


@<TRIPOS>ATOM
      1 ****        -1.2282   4.4505   0.8033 C.3            1 S1                 0.0000
      2 ****        -0.6179   3.0566   0.9885 C.3            1 S1                 0.0000
      3 ****        -1.6511   2.0070   1.2688 C.2            1 S1                 0.0000
      4 ****        -2.0251   1.7108   2.5141 N.2            1 S1                 0.0000
      5 ****        -2.9835   0.7353   2.3211 C.ar           1 S1                 0.0000
      6 ****        -3.7578   0.0101   3.2549 C.ar           1 S1                 0.0000
      7 ****        -4.6931  -0.9492   2.8146 C.ar           1 S1                 0.0000
      8 ****        -4.8676  -1.1964   1.4375 C.ar           1 S1                 0.0000
      9 ****        -4.1059  -0.4851   0.4905 C.ar           1 S1                 0.0000
     10 ****        -3.1727   0.4704   0.9355 C.ar           1 S1                 0.0000
     11 ****        -2.2868   1.3220   0.2834 N.pl3          1 S1                 0.0000
     12 ****        -2.1192   1.4305  -1.1601 C.3            1 S1                 0.0000
     13 ****        -1.3224   0.2551  -1.7629 C.3            1 S1                 0.0000
     14 ****        -1.2533   0.4714  -3.1571 O.3            1 S1                 0.0000
     15 ****         0.1128   0.1271  -1.2217 C.3            1 S1                 0.0000
     16 ****         0.6036  -1.1685  -1.5384 O.3            1 S1                 0.0000
     17 ****         1.8923  -1.4869  -1.1675 C.ar           1 S1                 0.0000
     18 ****         2.3669  -2.7624  -1.5365 C.ar           1 S1                 0.0000
     19 ****         3.6723  -3.1709  -1.2034 C.ar           1 S1                 0.0000
     20 ****         4.5231  -2.3039  -0.4910 C.ar           1 S1                 0.0000
     21 ****         5.9296  -2.7406  -0.1382 C.3            1 S1                 0.0000
     22 ****         6.8534  -2.5878  -1.2723 C.1            1 S1                 0.0000
     23 ****         7.5800  -2.4678  -2.1647 N.1            1 S1                 0.0000
     24 ****         4.0594  -1.0283  -0.1139 C.ar           1 S1                 0.0000
     25 ****         2.7534  -0.6200  -0.4481 C.ar           1 S1                 0.0000
     26 ****        -0.4526   5.1920   0.6114 H              1 S1                 0.0000
     27 ****        -1.7737   4.7617   1.6948 H              1 S1                 0.0000
     28 ****        -1.9222   4.4696  -0.0372 H              1 S1                 0.0000
     29 ****        -0.0292   2.7786   0.1149 H              1 S1                 0.0000
     30 ****         0.0852   3.0803   1.8219 H              1 S1                 0.0000
     31 ****        -3.6327   0.1929   4.3120 H              1 S1                 0.0000
     32 ****        -5.2803  -1.4970   3.5370 H              1 S1                 0.0000
     33 ****        -5.5870  -1.9317   1.1082 H              1 S1                 0.0000
     34 ****        -4.2373  -0.6714  -0.5649 H              1 S1                 0.0000
     35 ****        -3.1139   1.4687  -1.6065 H              1 S1                 0.0000
     36 ****        -1.6481   2.3812  -1.4074 H              1 S1                 0.0000
     37 ****        -1.8650  -0.6734  -1.5802 H              1 S1                 0.0000
     38 ****        -0.7926  -0.2552  -3.5487 H              1 S1                 0.0000
     39 ****         0.7503   0.9130  -1.6310 H              1 S1                 0.0000
     40 ****         0.1137   0.2268  -0.1361 H              1 S1                 0.0000
     41 ****         1.7231  -3.4346  -2.0846 H              1 S1                 0.0000
     42 ****         4.0203  -4.1500  -1.4983 H              1 S1                 0.0000
     43 ****         6.3100  -2.1541   0.6985 H              1 S1                 0.0000
     44 ****         5.9284  -3.7868   0.1680 H              1 S1                 0.0000
     45 ****         4.7059  -0.3567   0.4318 H              1 S1                 0.0000
     46 ****         2.4366   0.3650  -0.1406 H              1 S1                 0.0000
     47 ****        -1.6938   2.0988   3.3742 LP             1 S1                 0.0000
     48 ****        -0.7624   1.3225  -3.3430 LP             1 S1                 0.0000
     49 ****        -2.1769   0.5298  -3.5362 LP             1 S1                 0.0000
     50 ****         0.5469  -1.2721  -2.5314 LP             1 S1                 0.0000
     51 ****        -0.0033  -1.8307  -1.0990 LP             1 S1                 0.0000
     52 ****         8.2080  -2.3640  -2.9360 LP             1 S1                 0.0000
@<TRIPOS>BOND
    1    1    2 1     
    2    1   26 1     
    3    1   27 1     
    4    1   28 1     
    5    2    3 1     
    6    2   29 1     
    7    2   30 1     
    8    3   11 1     
    9    3    4 2     
   10    4    5 1     
   11    5   10 ar    
   12    5    6 ar    
   13    6    7 ar    
   14    6   31 1     
   15    7    8 ar    
   16    7   32 1     
   17    8    9 ar    
   18    8   33 1     
   19    9   10 ar    
   20    9   34 1     
   21   10   11 1     
   22   11   12 1     
   23   12   13 1     
   24   12   35 1     
   25   12   36 1     
   26   13   14 1     
   27   13   15 1     
   28   13   37 1     
   29   14   38 1     
   30   15   16 1     
   31   15   39 1     
   32   15   40 1     
   33   16   17 1     
   34   17   25 ar    
   35   17   18 ar    
   36   18   19 ar    
   37   18   41 1     
   38   19   20 ar    
   39   19   42 1     
   40   20   21 1     
   41   20   24 ar    
   42   21   22 1     
   43   21   43 1     
   44   21   44 1     
   45   22   23 3     
   46   24   25 ar    
   47   24   45 1     
   48   25   46 1     
   49    4   47 1     
   50   14   48 1     
   51   14   49 1     
   52   16   50 1     
   53   16   51 1     
   54   23   52 1     
@<TRIPOS>SUBSTRUCTURE
      1 S1             1
@<TRIPOS>SET
LONE_PAIRS      STATIC     ATOMS    <user>   **** ""
6 47 48 49 50 51 52
DONOR_HYDROGENS      STATIC     ATOMS    <user>   **** ""
1 38
ATOM$BLUE        STATIC     ATOMS    COLORGROUP SYSTEM
6 47 48 49 50 51 52
ATOM$RED        STATIC     ATOMS    COLORGROUP SYSTEM
1 38
