AV-unprocessed.smi:2459|AV-procd|sdf|9712|dock8
  -GOLD-   2272013353D 1   1.00000     0.00000
 Structure written by MMmdl.
 47 48  0  0  0  0  0  0  0  0  2 V2000
  138.1213  140.3920  153.1708 C   0  0  0  0  0  0  0  0  0  0  0  0
  138.9533  139.2338  153.1782 O   0  0  0  0  0  0  0  0  0  0  0  0
  139.3220  138.6628  154.4402 C   0  0  0  0  0  0  0  0  0  0  0  0
  140.2913  139.6877  155.0607 C   0  0  0  0  0  0  0  0  0  0  0  0
  138.0733  138.5405  155.3491 C   0  0  0  0  0  0  0  0  0  0  0  0
  140.0667  137.3213  154.2158 C   0  0  0  0  0  0  0  0  0  0  0  0
  139.6175  136.2972  154.7301 O   0  0  0  0  0  0  0  0  0  0  0  0
  141.1848  137.3527  153.4639 N   0  0  0  0  0  0  0  0  0  0  0  0
  142.0692  136.2942  153.1196 C   0  0  0  0  0  0  0  0  0  0  0  0
  141.9141  134.9551  153.5495 C   0  0  0  0  0  0  0  0  0  0  0  0
  142.8210  134.0229  153.1884 N   0  3  0  0  0  0  0  0  0  0  0  0
  143.9083  134.2838  152.4225 C   0  0  0  0  0  0  0  0  0  0  0  0
  144.7987  133.2331  152.1317 N   0  0  0  0  0  0  0  0  0  0  0  0
  145.5928  132.8133  153.2847 C   0  0  0  0  0  0  0  0  0  0  0  0
  146.7585  131.9092  152.8484 C   0  0  0  0  0  0  0  0  0  0  0  0
  146.2517  130.7196  152.0176 C   0  0  0  0  0  0  0  0  0  0  0  0
  145.4052  131.2190  150.8359 C   0  0  0  0  0  0  0  0  0  0  0  0
  144.2694  132.1354  151.3223 C   0  0  0  0  0  0  0  0  0  0  0  0
  144.1165  135.6105  151.9641 C   0  0  0  0  0  0  0  0  0  0  0  0
  145.2991  135.9805  151.0841 C   0  0  0  0  0  0  0  0  0  0  0  0
  143.1899  136.6136  152.3248 C   0  0  0  0  0  0  0  0  0  0  0  0
  137.9427  140.6897  152.1377 H   0  0  0  0  0  0  0  0  0  0  0  0
  138.5923  141.2370  153.6717 H   0  0  0  0  0  0  0  0  0  0  0  0
  137.1469  140.2123  153.6253 H   0  0  0  0  0  0  0  0  0  0  0  0
  140.6626  139.3509  156.0294 H   0  0  0  0  0  0  0  0  0  0  0  0
  139.7991  140.6486  155.2154 H   0  0  0  0  0  0  0  0  0  0  0  0
  141.1550  139.8712  154.4201 H   0  0  0  0  0  0  0  0  0  0  0  0
  138.3486  138.2372  156.3602 H   0  0  0  0  0  0  0  0  0  0  0  0
  137.3491  137.8151  154.9785 H   0  0  0  0  0  0  0  0  0  0  0  0
  137.5571  139.4977  155.4294 H   0  0  0  0  0  0  0  0  0  0  0  0
  141.4064  138.2496  153.0563 H   0  0  0  0  0  0  0  0  0  0  0  0
  141.1176  134.5872  154.1781 H   0  0  0  0  0  0  0  0  0  0  0  0
  145.9815  133.6771  153.8235 H   0  0  0  0  0  0  0  0  0  0  0  0
  144.9465  132.2756  153.9800 H   0  0  0  0  0  0  0  0  0  0  0  0
  147.4695  132.4899  152.2592 H   0  0  0  0  0  0  0  0  0  0  0  0
  147.3012  131.5507  153.7236 H   0  0  0  0  0  0  0  0  0  0  0  0
  147.0920  130.1258  151.6568 H   0  0  0  0  0  0  0  0  0  0  0  0
  145.6512  130.0615  152.6469 H   0  0  0  0  0  0  0  0  0  0  0  0
  146.0403  131.7643  150.1364 H   0  0  0  0  0  0  0  0  0  0  0  0
  144.9933  130.3728  150.2854 H   0  0  0  0  0  0  0  0  0  0  0  0
  143.5586  131.5563  151.9137 H   0  0  0  0  0  0  0  0  0  0  0  0
  143.7262  132.5360  150.4654 H   0  0  0  0  0  0  0  0  0  0  0  0
  145.0787  136.8685  150.4910 H   0  0  0  0  0  0  0  0  0  0  0  0
  145.5464  135.1765  150.3905 H   0  0  0  0  0  0  0  0  0  0  0  0
  146.1759  136.1934  151.6953 H   0  0  0  0  0  0  0  0  0  0  0  0
  143.3372  137.6293  151.9865 H   0  0  0  0  0  0  0  0  0  0  0  0
  142.6835  133.0682  153.5206 H   0  0  0  0  0  0  0  0  0  0  0  0
  1  2  1  0  0  0  0
  1 22  1  0  0  0  0
  1 23  1  0  0  0  0
  1 24  1  0  0  0  0
  2  3  1  0  0  0  0
  3  4  1  0  0  0  0
  3  5  1  0  0  0  0
  3  6  1  0  0  0  0
  4 25  1  0  0  0  0
  4 26  1  0  0  0  0
  4 27  1  0  0  0  0
  5 28  1  0  0  0  0
  5 29  1  0  0  0  0
  5 30  1  0  0  0  0
  6  7  2  0  0  0  0
  6  8  1  0  0  0  0
  8  9  1  0  0  0  0
  8 31  1  0  0  0  0
  9 21  1  0  0  0  0
  9 10  2  0  0  0  0
 10 11  1  0  0  0  0
 10 32  1  0  0  0  0
 11 12  2  0  0  0  0
 11 47  1  0  0  0  0
 12 13  1  0  0  0  0
 12 19  1  0  0  0  0
 13 18  1  0  0  0  0
 13 14  1  0  0  0  0
 14 15  1  0  0  0  0
 14 33  1  0  0  0  0
 14 34  1  0  0  0  0
 15 16  1  0  0  0  0
 15 35  1  0  0  0  0
 15 36  1  0  0  0  0
 16 17  1  0  0  0  0
 16 37  1  0  0  0  0
 16 38  1  0  0  0  0
 17 18  1  0  0  0  0
 17 39  1  0  0  0  0
 17 40  1  0  0  0  0
 18 41  1  0  0  0  0
 18 42  1  0  0  0  0
 19 20  1  0  0  0  0
 19 21  2  0  0  0  0
 20 43  1  0  0  0  0
 20 44  1  0  0  0  0
 20 45  1  0  0  0  0
 21 46  1  0  0  0  0
M  CHG  1  11   1
M  END
> <s_m_source_file>
AV-unprocessed.smi

> <i_m_source_file_index>
2459

> <i_lp_mmshare_version>
43012

> <i_f3d_flags>
0

> <s_epik_input>
W0NIM11PQyhbQ0gzXSkoW0NIM10pQyg9TylbTkhdYzFbY0hdbmMoYyhbQ0gzXSlbY0hdMSlOMltDSDJdW0NIMl1bQ0gyXVtDSDJdW0NIMl0y

> <s_epik_cmdline>
J2VwaWtfcHl0aG9uJywgJy1waCcsICc3LjAnLCAnLXRuJywgJzgnLCAnLW1hJywgJzIwMCcsICctbWV0YWxfYmluZGluZycsICctaW1hZScsICc8aW5maWxlLm1hZT4nLCAnLW9tYWUnLCAnPG91dGZpbGUubWFlPic=

> <r_lp_tautomer_probability>
0.999994

> <r_epik_Ionization_Penalty>
1.22605

> <r_epik_Ionization_Penalty_Charging>
1.22604

> <r_epik_Ionization_Penalty_Neutral>
3.07462e-06

> <r_epik_State_Penalty>
0.10642

> <r_epik_Charging_Adjusted_Penalty>
1.33246

> <i_epik_Tot_Q>
1

> <i_epik_Tot_abs_Q>
1

> <r_epik_Metal_State_Penalty>
0.12082

> <b_epik_Metal_Only>
0

> <s_lp_Force_Field>
OPLS_2005

> <r_lp_Energy>
38.0416

> <b_lp_Chiralities_Consistent>
1

> <s_lp_Variant>
AV-unprocessed.smi:2459-1

> <Gold.Version>
5.8.1

> <Gold.Id.Protein>
6NUR|6NUR_protein|mol2

> <Gold.PLP.Fitness>
42.2452

> <Gold.PLP.PLP>
-33.4419

> <Gold.PLP.part.hbond>
-2.0000

> <Gold.PLP.part.metal>
0.0000

> <Gold.PLP.part.buried>
-6.5582

> <Gold.PLP.part.nonpolar>
-24.7969

> <Gold.PLP.part.repulsive>
0.7405

> <Gold.PLP.ligand.clash>
0.0000

> <Gold.PLP.ligand.torsion>
0.2503

> <Gold.PLP.Chemscore.Hbond>
3.0000

> <Gold.PLP.Chemscore.CHOScore>
0.0000

> <Gold.PLP.Chemscore.Metal>
0.0000

> <Gold.Chemscore.Hbonds>
donor molecule, donor type, donor heavy atom, donor atom, acceptor molecule, acceptor atom, score
      L1  H    11    47       P1 10957  2.00
      P1  H 11000 11005       L1     7  0.98

> <Gold.PLP.Chemscore.Internal.Correction>
0.3039

> <Gold.Rescore>
     Score         DG    S(hbond)    S(metal)    S(lipo)     H(rot)  DE(clash)    DE(int)     intcor
     16.30     -17.82       1.92        0.00      80.01       1.34       0.09       1.43       ----

> <Gold.Chemscore.Fitness>
16.3036

> <Gold.Chemscore.DG>
-17.8194

> <Gold.Chemscore.ZeroCoef>
-5.4800

> <Gold.Chemscore.Hbond>
1.9199

> <Gold.Chemscore.Metal>
0.0000

> <Gold.Chemscore.Lipo>
80.0124

> <Gold.Chemscore.Internal_Hbond>
0.0000

> <Gold.Chemscore.DEClash>
0.0901

> <Gold.Chemscore.DEInternal>
1.4257

> <Gold.Chemscore.Rot>
1.3416

> <Gold.Chemscore.Internal.Correction>
   9.000000E+99

> <Gold.Chemscore.Hbonds>
donor molecule, donor type, donor heavy atom, donor atom, acceptor molecule, acceptor atom, score
      L1  H    11    47       P1 10957  0.91
      P1  H 11000 11005       L1     7  0.91

> <Gold.Chemscore.Hbond.Weighted>
-6.4125

> <Gold.Chemscore.Metal.Weighted>
-0.0000

> <Gold.Chemscore.Lipo.Weighted>
-9.3615

> <Gold.Chemscore.Internal_Hbond.Weighted>
0.0000

> <Gold.Chemscore.DEClash.Weighted>
0.0901

> <Gold.Chemscore.DEInternal.Weighted>
1.4257

> <Gold.Chemscore.Rot.Weighted>
3.4346

> <Gold.Chemscore.Internal.Correction.Weighted>
   9.000000E+99

> <Gold.Protein.RotatedTorsions>
[ 6907 6896 6895 6894 ] final -161.29 input  -60.11 | X-H torsion
[ 7974 7965 7964 7962 ] final   -8.83 input  175.53 | X-H torsion
[ 8008 7997 7996 7995 ] final -152.05 input   59.86 | X-H torsion
[ 10167 10162 10161 10158 ] final  132.88 input  -65.29 | X-H torsion
[ 10718 10713 10712 10709 ] final   81.62 input   66.30 | X-H torsion
[ 10763 10752 10751 10750 ] final  128.66 input  -60.55 | X-H torsion
[ 11005 11000 10999 10996 ] final   65.74 input  -57.11 | X-H torsion

> <Gold.Protein.ActiveResidues>
 VAL166  LYS551  ARG553  GLY616  TRP617  ASP618  TYR619  PRO620  LYS621  CYS622 
 ASP623  PHE694  ASN695  SER759  ASP760  ASP761  ALA762  ILE779  LEU786  VAL792 
 PHE793  MET794  SER795  GLU796  ALA797  LYS798  CYS799  TRP800  GLU811  SER814 

> <Gold.Protein.RotatedAtoms>
  151.3623  133.3885  159.2690 H   0  0  0  0  0  0  0  0  0  0  0  0  # atno 6907 bound_to 6896
  150.9716  134.9089  159.7801 H   0  0  0  0  0  0  0  0  0  0  0  0  # atno 6908 bound_to 6896
  152.5186  134.3585  159.9328 H   0  0  0  0  0  0  0  0  0  0  0  0  # atno 6909 bound_to 6896
  146.2269  140.2526  142.8348 H   0  0  0  0  0  0  0  0  0  0  0  0  # atno 7974 bound_to 7965
  155.6491  140.0710  157.2593 H   0  0  0  0  0  0  0  0  0  0  0  0  # atno 8008 bound_to 7997
  154.4166  140.1736  156.1705 H   0  0  0  0  0  0  0  0  0  0  0  0  # atno 8009 bound_to 7997
  155.9792  140.3355  155.6650 H   0  0  0  0  0  0  0  0  0  0  0  0  # atno 8010 bound_to 7997
  139.5321  144.6642  151.4915 H   0  0  0  0  0  0  0  0  0  0  0  0  # atno 10167 bound_to 10162
  157.6837  131.0012  150.2253 H   0  0  0  0  0  0  0  0  0  0  0  0  # atno 10718 bound_to 10713
  153.7291  135.3241  155.3282 H   0  0  0  0  0  0  0  0  0  0  0  0  # atno 10763 bound_to 10752
  154.8332  135.4518  154.1140 H   0  0  0  0  0  0  0  0  0  0  0  0  # atno 10764 bound_to 10752
  153.2282  135.6956  153.8001 H   0  0  0  0  0  0  0  0  0  0  0  0  # atno 10765 bound_to 10752
  139.9875  134.6644  156.0150 H   0  0  0  0  0  0  0  0  0  0  0  0  # atno 11005 bound_to 11000
  144.9400  140.8068  143.5636 LP  0  0  0  0  0  0  0  0  0  0  0  0  # atno 17320 bound_to 7965
  145.2477  139.2045  143.4959 LP  0  0  0  0  0  0  0  0  0  0  0  0  # atno 17321 bound_to 7965
  140.6505  143.8706  150.6781 LP  0  0  0  0  0  0  0  0  0  0  0  0  # atno 17342 bound_to 10162
  140.2069  143.3914  152.1748 LP  0  0  0  0  0  0  0  0  0  0  0  0  # atno 17343 bound_to 10162
  156.2896  130.3744  149.7854 LP  0  0  0  0  0  0  0  0  0  0  0  0  # atno 17370 bound_to 10713
  156.5517  130.8345  151.3302 LP  0  0  0  0  0  0  0  0  0  0  0  0  # atno 17371 bound_to 10713
  141.1537  133.6545  156.4094 LP  0  0  0  0  0  0  0  0  0  0  0  0  # atno 17394 bound_to 11000
  140.4973  134.6519  157.5235 LP  0  0  0  0  0  0  0  0  0  0  0  0  # atno 17395 bound_to 11000

$$$$
