AV-unprocessed.smi:2121|AV-procd|sdf|8640|dock3
  -GOLD-   2272011383D 1   1.00000     0.00000
 Structure written by MMmdl.
 49 50  0  0  0  0  0  0  0  0  1 V2000
  154.0916  142.1039  160.4517 C   0  0  0  0  0  0  0  0  0  0  0  0
  152.5648  141.9103  160.4726 C   0  0  2  0  0  0  0  0  0  0  0  0
  152.0595  140.9068  159.4175 C   0  0  0  0  0  0  0  0  0  0  0  0
  152.0793  141.4959  158.0811 N   0  0  0  0  0  0  0  0  0  0  0  0
  151.9284  140.5897  157.0088 C   0  0  0  0  0  0  0  0  0  0  0  0
  150.7632  140.6242  156.2061 C   0  0  0  0  0  0  0  0  0  0  0  0
  150.6376  139.7167  155.1371 C   0  0  0  0  0  0  0  0  0  0  0  0
  151.6710  138.7903  154.8994 C   0  0  0  0  0  0  0  0  0  0  0  0
  151.5660  137.8037  153.7448 C   0  0  0  0  0  0  0  0  0  0  0  0
  150.7075  136.6561  154.0165 N   0  0  0  0  0  0  0  0  0  0  0  0
  150.9361  135.7342  154.9639 C   0  0  0  0  0  0  0  0  0  0  0  0
  151.8958  135.7822  155.7352 O   0  0  0  0  0  0  0  0  0  0  0  0
  149.9177  134.5866  155.0518 C   0  0  2  0  0  0  0  0  0  0  0  0
  150.6697  133.2568  154.8772 C   0  0  0  0  0  0  0  0  0  0  0  0
  148.9308  134.6964  153.9787 N   0  0  0  0  0  0  0  0  0  0  0  0
  147.7234  134.1130  153.9819 C   0  0  0  0  0  0  0  0  0  0  0  0
  147.0189  134.4009  152.8871 N   0  0  0  0  0  0  0  0  0  0  0  0
  147.2989  133.3938  154.8842 O   0  0  0  0  0  0  0  0  0  0  0  0
  152.7936  138.8247  155.7543 C   0  0  0  0  0  0  0  0  0  0  0  0
  152.9207  139.6947  156.7780 N   0  0  0  0  0  0  0  0  0  0  0  0
  151.3769  142.7743  158.0070 C   0  0  0  0  0  0  0  0  0  0  0  0
  151.9254  143.7509  159.0626 C   0  0  1  0  0  0  0  0  0  0  0  0
  151.1207  145.0538  159.1088 C   0  0  0  0  0  0  0  0  0  0  0  0
  151.8609  143.1483  160.3545 O   0  0  0  0  0  0  0  0  0  0  0  0
  154.6017  141.1676  160.6794 H   0  0  0  0  0  0  0  0  0  0  0  0
  154.4007  142.8373  161.1967 H   0  0  0  0  0  0  0  0  0  0  0  0
  154.4531  142.4396  159.4801 H   0  0  0  0  0  0  0  0  0  0  0  0
  152.3123  141.5118  161.4554 H   0  0  0  0  0  0  0  0  0  0  0  0
  152.6525  139.9952  159.4758 H   0  0  0  0  0  0  0  0  0  0  0  0
  151.0315  140.6233  159.6472 H   0  0  0  0  0  0  0  0  0  0  0  0
  149.9635  141.3222  156.4038 H   0  0  0  0  0  0  0  0  0  0  0  0
  149.7558  139.7311  154.5136 H   0  0  0  0  0  0  0  0  0  0  0  0
  151.2193  138.3170  152.8462 H   0  0  0  0  0  0  0  0  0  0  0  0
  152.5665  137.4334  153.5214 H   0  0  0  0  0  0  0  0  0  0  0  0
  149.8940  136.5426  153.4291 H   0  0  0  0  0  0  0  0  0  0  0  0
  149.4147  134.5980  156.0209 H   0  0  0  0  0  0  0  0  0  0  0  0
  151.4160  133.1186  155.6606 H   0  0  0  0  0  0  0  0  0  0  0  0
  151.1818  133.2009  153.9152 H   0  0  0  0  0  0  0  0  0  0  0  0
  149.9824  132.4119  154.9332 H   0  0  0  0  0  0  0  0  0  0  0  0
  149.1805  135.2744  153.1900 H   0  0  0  0  0  0  0  0  0  0  0  0
  146.0932  134.0183  152.7636 H   0  0  0  0  0  0  0  0  0  0  0  0
  147.4204  134.9994  152.1800 H   0  0  0  0  0  0  0  0  0  0  0  0
  153.6182  138.1409  155.6158 H   0  0  0  0  0  0  0  0  0  0  0  0
  151.4946  143.2139  157.0158 H   0  0  0  0  0  0  0  0  0  0  0  0
  150.3104  142.6063  158.1648 H   0  0  0  0  0  0  0  0  0  0  0  0
  152.9594  144.0018  158.8252 H   0  0  0  0  0  0  0  0  0  0  0  0
  151.1422  145.5631  158.1451 H   0  0  0  0  0  0  0  0  0  0  0  0
  151.5278  145.7366  159.8549 H   0  0  0  0  0  0  0  0  0  0  0  0
  150.0779  144.8642  159.3645 H   0  0  0  0  0  0  0  0  0  0  0  0
  1  2  1  0  0  0  0
  1 25  1  0  0  0  0
  1 26  1  0  0  0  0
  1 27  1  0  0  0  0
  2 24  1  0  0  0  0
  2  3  1  0  0  0  0
  2 28  1  0  0  0  0
  3  4  1  0  0  0  0
  3 29  1  0  0  0  0
  3 30  1  0  0  0  0
  4  5  1  0  0  0  0
  4 21  1  0  0  0  0
  5 20  1  0  0  0  0
  5  6  2  0  0  0  0
  6  7  1  0  0  0  0
  6 31  1  0  0  0  0
  7  8  2  0  0  0  0
  7 32  1  0  0  0  0
  8  9  1  0  0  0  0
  8 19  1  0  0  0  0
  9 10  1  0  0  0  0
  9 33  1  0  0  0  0
  9 34  1  0  0  0  0
 10 11  1  0  0  0  0
 10 35  1  0  0  0  0
 11 12  2  0  0  0  0
 11 13  1  0  0  0  0
 13 14  1  0  0  0  0
 13 15  1  0  0  0  0
 13 36  1  0  0  0  0
 14 37  1  0  0  0  0
 14 38  1  0  0  0  0
 14 39  1  0  0  0  0
 15 16  1  0  0  0  0
 15 40  1  0  0  0  0
 16 17  1  0  0  0  0
 16 18  2  0  0  0  0
 17 41  1  0  0  0  0
 17 42  1  0  0  0  0
 19 20  2  0  0  0  0
 19 43  1  0  0  0  0
 21 22  1  0  0  0  0
 21 44  1  0  0  0  0
 21 45  1  0  0  0  0
 22 23  1  0  0  0  0
 22 24  1  0  0  0  0
 22 46  1  0  0  0  0
 23 47  1  0  0  0  0
 23 48  1  0  0  0  0
 23 49  1  0  0  0  0
M  END
> <s_m_source_file>
AV-unprocessed.smi

> <i_m_source_file_index>
2121

> <i_lp_mmshare_version>
43012

> <i_f3d_flags>
0

> <s_epik_input>
W0NIM11bQ0BASF0xW0NIMl1OKFtDSDJdW0NASF0oTzEpW0NIM10pYzJbY0hdW2NIXWMoW2NIXW4yKVtDSDJdW05IXUMoPU8pW0NASF0oW0NIM10pW05IXUMoPU8pW05IMl0=

> <s_epik_cmdline>
J2VwaWtfcHl0aG9uJywgJy1waCcsICc3LjAnLCAnLXRuJywgJzgnLCAnLW1hJywgJzIwMCcsICctbWV0YWxfYmluZGluZycsICctaW1hZScsICc8aW5maWxlLm1hZT4nLCAnLW9tYWUnLCAnPG91dGZpbGUubWFlPic=

> <r_lp_tautomer_probability>
1

> <r_epik_Ionization_Penalty>
0.0063713

> <r_epik_Ionization_Penalty_Charging>
0

> <r_epik_Ionization_Penalty_Neutral>
0.0063713

> <r_epik_State_Penalty>
0.00467069

> <r_epik_Charging_Adjusted_Penalty>
0.00467069

> <i_epik_Tot_Q>
0

> <i_epik_Tot_abs_Q>
0

> <r_epik_Metal_State_Penalty>
-0

> <b_epik_Metal_Only>
0

> <s_lp_Force_Field>
OPLS_2005

> <r_lp_Energy>
12.6407

> <b_lp_Chiralities_Consistent>
1

> <s_lp_Variant>
AV-unprocessed.smi:2121-1

> <Gold.Version>
5.8.1

> <Gold.Id.Protein>
6NUR|6NUR_protein|mol2

> <Gold.PLP.Fitness>
57.3993

> <Gold.PLP.PLP>
-44.3057

> <Gold.PLP.part.hbond>
-6.0000

> <Gold.PLP.part.metal>
0.0000

> <Gold.PLP.part.buried>
-2.2817

> <Gold.PLP.part.nonpolar>
-36.2176

> <Gold.PLP.part.repulsive>
0.1908

> <Gold.PLP.ligand.clash>
0.0000

> <Gold.PLP.ligand.torsion>
0.9899

> <Gold.PLP.Chemscore.Hbond>
4.8960

> <Gold.PLP.Chemscore.CHOScore>
0.0000

> <Gold.PLP.Chemscore.Metal>
0.0000

> <Gold.Chemscore.Hbonds>
donor molecule, donor type, donor heavy atom, donor atom, acceptor molecule, acceptor atom, score
      L1  H    10    35       P1  7948  0.90
      L1  H    15    40       P1  7948  0.90
      L1  H    17    42       P1  7948  0.85
      P1  H  7997  8009       L1    20  1.00
      P1  H 10752 10764       L1    12  0.86

> <Gold.PLP.Chemscore.Internal.Correction>
0.3854

> <Gold.Rescore>
     Score         DG    S(hbond)    S(metal)    S(lipo)     H(rot)  DE(clash)    DE(int)     intcor
     22.43     -23.66       3.58        0.00     109.56       2.58       0.20       1.03       ----

> <Gold.Chemscore.Fitness>
22.4283

> <Gold.Chemscore.DG>
-23.6551

> <Gold.Chemscore.ZeroCoef>
-5.4800

> <Gold.Chemscore.Hbond>
3.5840

> <Gold.Chemscore.Metal>
0.0000

> <Gold.Chemscore.Lipo>
109.5639

> <Gold.Chemscore.Internal_Hbond>
0.0000

> <Gold.Chemscore.DEClash>
0.1967

> <Gold.Chemscore.DEInternal>
1.0300

> <Gold.Chemscore.Rot>
2.5838

> <Gold.Chemscore.Internal.Correction>
   9.000000E+99

> <Gold.Chemscore.Hbonds>
donor molecule, donor type, donor heavy atom, donor atom, acceptor molecule, acceptor atom, score
      L1  H    10    35       P1  7948  0.18
      L1  H    15    40       P1  7948  0.18
      L1  H    17    42       P1  7948  0.81
      P1  H  7997  8009       L1    20  0.47
      P1  H 10752 10764       L1    12  0.74

> <Gold.Chemscore.Hbond.Weighted>
-11.9706

> <Gold.Chemscore.Metal.Weighted>
-0.0000

> <Gold.Chemscore.Lipo.Weighted>
-12.8190

> <Gold.Chemscore.Internal_Hbond.Weighted>
0.0000

> <Gold.Chemscore.DEClash.Weighted>
0.1967

> <Gold.Chemscore.DEInternal.Weighted>
1.0300

> <Gold.Chemscore.Rot.Weighted>
6.6145

> <Gold.Chemscore.Internal.Correction.Weighted>
   9.000000E+99

> <Gold.Protein.RotatedTorsions>
[ 6907 6896 6895 6894 ] final   39.22 input  -60.11 | X-H torsion
[ 7974 7965 7964 7962 ] final   17.24 input  175.53 | X-H torsion
[ 8008 7997 7996 7995 ] final  168.75 input   59.86 | X-H torsion
[ 10167 10162 10161 10158 ] final   99.73 input  -65.29 | X-H torsion
[ 10718 10713 10712 10709 ] final  167.50 input   66.30 | X-H torsion
[ 10763 10752 10751 10750 ] final  -24.94 input  -60.55 | X-H torsion
[ 11005 11000 10999 10996 ] final  -57.97 input  -57.11 | X-H torsion

> <Gold.Protein.ActiveResidues>
 VAL166  LYS551  ARG553  GLY616  TRP617  ASP618  TYR619  PRO620  LYS621  CYS622 
 ASP623  PHE694  ASN695  SER759  ASP760  ASP761  ALA762  ILE779  LEU786  VAL792 
 PHE793  MET794  SER795  GLU796  ALA797  LYS798  CYS799  TRP800  GLU811  SER814 

> <Gold.Protein.RotatedAtoms>
  152.1667  134.8867  160.0537 H   0  0  0  0  0  0  0  0  0  0  0  0  # atno 6907 bound_to 6896
  151.9843  133.3763  159.4127 H   0  0  0  0  0  0  0  0  0  0  0  0  # atno 6908 bound_to 6896
  150.6895  134.3928  159.5128 H   0  0  0  0  0  0  0  0  0  0  0  0  # atno 6909 bound_to 6896
  146.2224  139.8631  142.8601 H   0  0  0  0  0  0  0  0  0  0  0  0  # atno 7974 bound_to 7965
  156.1519  140.1582  156.8756 H   0  0  0  0  0  0  0  0  0  0  0  0  # atno 8008 bound_to 7997
  154.5079  140.0808  156.7968 H   0  0  0  0  0  0  0  0  0  0  0  0  # atno 8009 bound_to 7997
  155.3879  140.3408  155.4252 H   0  0  0  0  0  0  0  0  0  0  0  0  # atno 8010 bound_to 7997
  139.7591  144.6960  151.0319 H   0  0  0  0  0  0  0  0  0  0  0  0  # atno 10167 bound_to 10162
  157.0506  131.0312  151.2682 H   0  0  0  0  0  0  0  0  0  0  0  0  # atno 10718 bound_to 10713
  153.6919  135.6961  153.5087 H   0  0  0  0  0  0  0  0  0  0  0  0  # atno 10763 bound_to 10752
  153.2407  135.4307  155.0694 H   0  0  0  0  0  0  0  0  0  0  0  0  # atno 10764 bound_to 10752
  154.8370  135.3507  154.6460 H   0  0  0  0  0  0  0  0  0  0  0  0  # atno 10765 bound_to 10752
  141.1188  133.6611  156.4850 H   0  0  0  0  0  0  0  0  0  0  0  0  # atno 11005 bound_to 11000
  145.2684  141.0100  143.3786 LP  0  0  0  0  0  0  0  0  0  0  0  0  # atno 17320 bound_to 7965
  144.9243  139.4374  143.6526 LP  0  0  0  0  0  0  0  0  0  0  0  0  # atno 17321 bound_to 7965
  140.7805  143.4718  151.0135 LP  0  0  0  0  0  0  0  0  0  0  0  0  # atno 17342 bound_to 10162
  139.8405  143.7570  152.3180 LP  0  0  0  0  0  0  0  0  0  0  0  0  # atno 17343 bound_to 10162
  157.5033  130.7893  149.7628 LP  0  0  0  0  0  0  0  0  0  0  0  0  # atno 17370 bound_to 10713
  156.0009  130.3881  150.2610 LP  0  0  0  0  0  0  0  0  0  0  0  0  # atno 17371 bound_to 10713
  140.4569  134.6877  157.5067 LP  0  0  0  0  0  0  0  0  0  0  0  0  # atno 17394 bound_to 11000
  140.0129  134.6663  155.9354 LP  0  0  0  0  0  0  0  0  0  0  0  0  # atno 17395 bound_to 11000

$$$$
