AV-unprocessed.smi:743|AV-procd|sdf|3567|dock8
  -GOLD-   22720 0563D 1   1.00000     0.00000
 Structure written by MMmdl.
 28 29  0  0  0  0  0  0  0  0  1 V2000
  149.3788  133.2996  153.5047 C   0  0  0  0  0  0  0  0  0  0  0  0
  148.0681  132.8262  153.1146 N   0  0  0  0  0  0  0  0  0  0  0  0
  146.9999  133.5507  152.6331 C   0  0  0  0  0  0  0  0  0  0  0  0
  145.9758  132.6740  152.3960 C   0  0  0  0  0  0  0  0  0  0  0  0
  144.5813  132.9371  151.8605 C   0  0  1  0  0  0  0  0  0  0  0  0
  143.7722  133.6501  152.8531 N   0  0  0  0  0  0  0  0  0  0  0  0
  143.5329  134.9747  152.8925 C   0  0  0  0  0  0  0  0  0  0  0  0
  142.9367  135.4889  153.8357 O   0  0  0  0  0  0  0  0  0  0  0  0
  143.9699  135.8547  151.7085 C   0  0  0  0  0  0  0  0  0  0  0  0
  144.9629  135.1771  150.7472 C   0  0  0  0  0  0  0  0  0  0  0  0
  144.5823  133.7091  150.5180 C   0  0  1  0  0  0  0  0  0  0  0  0
  145.4471  133.0984  149.5244 N   0  0  0  0  0  0  0  0  0  0  0  0
  146.5328  131.4192  152.7792 C   0  0  0  0  0  0  0  0  0  0  0  0
  147.7810  131.5127  153.2072 N   0  0  0  0  0  0  0  0  0  0  0  0
  143.5716  133.6854  150.1080 H   0  0  0  0  0  0  0  0  0  0  0  0
  149.4510  134.3756  153.3438 H   0  0  0  0  0  0  0  0  0  0  0  0
  150.1440  132.8008  152.9092 H   0  0  0  0  0  0  0  0  0  0  0  0
  149.5494  133.0867  154.5604 H   0  0  0  0  0  0  0  0  0  0  0  0
  147.0567  134.6204  152.4947 H   0  0  0  0  0  0  0  0  0  0  0  0
  144.0792  131.9837  151.6925 H   0  0  0  0  0  0  0  0  0  0  0  0
  143.4303  133.0982  153.6266 H   0  0  0  0  0  0  0  0  0  0  0  0
  143.0670  136.1219  151.1586 H   0  0  0  0  0  0  0  0  0  0  0  0
  144.3908  136.7880  152.0831 H   0  0  0  0  0  0  0  0  0  0  0  0
  144.9719  135.7168  149.7996 H   0  0  0  0  0  0  0  0  0  0  0  0
  145.9745  135.2500  151.1490 H   0  0  0  0  0  0  0  0  0  0  0  0
  145.6953  133.7806  148.8222 H   0  0  0  0  0  0  0  0  0  0  0  0
  146.3097  132.8023  149.9585 H   0  0  0  0  0  0  0  0  0  0  0  0
  146.0662  130.4455  152.7560 H   0  0  0  0  0  0  0  0  0  0  0  0
  1  2  1  0  0  0  0
  1 16  1  0  0  0  0
  1 17  1  0  0  0  0
  1 18  1  0  0  0  0
  2 14  1  0  0  0  0
  2  3  1  0  0  0  0
  3  4  2  0  0  0  0
  3 19  1  0  0  0  0
  4  5  1  0  0  0  0
  4 13  1  0  0  0  0
  5 11  1  0  0  0  0
  5  6  1  0  0  0  0
  5 20  1  0  0  0  0
  6  7  1  0  0  0  0
  6 21  1  0  0  0  0
  7  8  2  0  0  0  0
  7  9  1  0  0  0  0
  9 10  1  0  0  0  0
  9 22  1  0  0  0  0
  9 23  1  0  0  0  0
 10 11  1  0  0  0  0
 10 24  1  0  0  0  0
 10 25  1  0  0  0  0
 11 15  1  0  0  0  0
 11 12  1  0  0  0  0
 12 26  1  0  0  0  0
 12 27  1  0  0  0  0
 13 14  2  0  0  0  0
 13 28  1  0  0  0  0
M  END
> <s_m_source_file>
AV-unprocessed.smi

> <i_m_source_file_index>
743

> <i_lp_mmshare_version>
43012

> <i_f3d_flags>
0

> <s_epik_input>
W0NIM11uMVtjSF1jKFtjSF1uMSlbQ0BASF0yW05IXUMoPU8pW0NIMl1bQ0gyXVtDQEBIXTJbTkgyXQ==

> <s_epik_cmdline>
J2VwaWtfcHl0aG9uJywgJy1waCcsICc3LjAnLCAnLXRuJywgJzgnLCAnLW1hJywgJzIwMCcsICctbWV0YWxfYmluZGluZycsICctaW1hZScsICc8aW5maWxlLm1hZT4nLCAnLW9tYWUnLCAnPG91dGZpbGUubWFlPic=

> <r_lp_tautomer_probability>
1

> <r_epik_Ionization_Penalty>
2.50279

> <r_epik_Ionization_Penalty_Charging>
0

> <r_epik_Ionization_Penalty_Neutral>
2.50279

> <r_epik_State_Penalty>
2.66754

> <r_epik_Charging_Adjusted_Penalty>
2.66754

> <i_epik_Tot_Q>
0

> <i_epik_Tot_abs_Q>
0

> <r_epik_Metal_State_Penalty>
2.66721

> <b_epik_Metal_Only>
0

> <s_lp_Force_Field>
OPLS_2005

> <r_lp_Energy>
9.07018

> <b_lp_Chiralities_Consistent>
1

> <s_lp_Variant>
AV-unprocessed.smi:743-8

> <Gold.Version>
5.8.1

> <Gold.Id.Protein>
6NUR|6NUR_protein|mol2

> <Gold.PLP.Fitness>
33.0582

> <Gold.PLP.PLP>
-24.3365

> <Gold.PLP.part.hbond>
-2.0000

> <Gold.PLP.part.metal>
0.0000

> <Gold.PLP.part.buried>
-3.6700

> <Gold.PLP.part.nonpolar>
-18.1238

> <Gold.PLP.part.repulsive>
0.1692

> <Gold.PLP.ligand.clash>
0.0000

> <Gold.PLP.ligand.torsion>
0.1421

> <Gold.PLP.Chemscore.Hbond>
2.0000

> <Gold.PLP.Chemscore.CHOScore>
0.9960

> <Gold.PLP.Chemscore.Metal>
0.0000

> <Gold.Chemscore.Hbonds>
donor molecule, donor type, donor heavy atom, donor atom, acceptor molecule, acceptor atom, score
      L1  H     6    21       P1 10957  1.00
      L1  H    12    26       P1  7921  1.00
      L1  C     3    19       P1  7948  0.99

> <Gold.PLP.Chemscore.Internal.Correction>
0.0179

> <Gold.Rescore>
     Score         DG    S(hbond)    S(metal)    S(lipo)     H(rot)  DE(clash)    DE(int)     intcor
     14.56     -14.61       1.96        0.00      44.09       1.00       0.01       0.05       ----

> <Gold.Chemscore.Fitness>
14.5566

> <Gold.Chemscore.DG>
-14.6146

> <Gold.Chemscore.ZeroCoef>
-5.4800

> <Gold.Chemscore.Hbond>
1.9569

> <Gold.Chemscore.Metal>
0.0000

> <Gold.Chemscore.Lipo>
44.0907

> <Gold.Chemscore.Internal_Hbond>
0.0000

> <Gold.Chemscore.DEClash>
0.0106

> <Gold.Chemscore.DEInternal>
0.0473

> <Gold.Chemscore.Rot>
1.0000

> <Gold.Chemscore.Internal.Correction>
   9.000000E+99

> <Gold.Chemscore.Hbonds>
donor molecule, donor type, donor heavy atom, donor atom, acceptor molecule, acceptor atom, score
      L1  H     6    21       P1 10957  0.95
      L1  H    12    26       P1  7921  0.25

> <Gold.Chemscore.Hbond.Weighted>
-6.5360

> <Gold.Chemscore.Metal.Weighted>
-0.0000

> <Gold.Chemscore.Lipo.Weighted>
-5.1586

> <Gold.Chemscore.Internal_Hbond.Weighted>
0.0000

> <Gold.Chemscore.DEClash.Weighted>
0.0106

> <Gold.Chemscore.DEInternal.Weighted>
0.0473

> <Gold.Chemscore.Rot.Weighted>
2.5600

> <Gold.Chemscore.Internal.Correction.Weighted>
   9.000000E+99

> <Gold.Protein.RotatedTorsions>
[ 6907 6896 6895 6894 ] final  -87.89 input  -60.11 | X-H torsion
[ 7974 7965 7964 7962 ] final  115.20 input  175.53 | X-H torsion
[ 8008 7997 7996 7995 ] final  107.29 input   59.86 | X-H torsion
[ 10167 10162 10161 10158 ] final -146.79 input  -65.29 | X-H torsion
[ 10718 10713 10712 10709 ] final  154.08 input   66.30 | X-H torsion
[ 10763 10752 10751 10750 ] final  -13.24 input  -60.55 | X-H torsion
[ 11005 11000 10999 10996 ] final  -63.95 input  -57.11 | X-H torsion

> <Gold.Protein.ActiveResidues>
 VAL166  LYS551  ARG553  GLY616  TRP617  ASP618  TYR619  PRO620  LYS621  CYS622 
 ASP623  PHE694  ASN695  SER759  ASP760  ASP761  ALA762  ILE779  LEU786  VAL792 
 PHE793  MET794  SER795  GLU796  ALA797  LYS798  CYS799  TRP800  GLU811  SER814 

> <Gold.Protein.RotatedAtoms>
  150.6867  134.2826  159.4633 H   0  0  0  0  0  0  0  0  0  0  0  0  # atno 6907 bound_to 6896
  152.0738  134.9513  160.0583 H   0  0  0  0  0  0  0  0  0  0  0  0  # atno 6908 bound_to 6896
  152.0893  133.4157  159.4573 H   0  0  0  0  0  0  0  0  0  0  0  0  # atno 6909 bound_to 6896
  145.1949  139.2981  143.4348 H   0  0  0  0  0  0  0  0  0  0  0  0  # atno 7974 bound_to 7965
  156.1812  140.3097  155.9153 H   0  0  0  0  0  0  0  0  0  0  0  0  # atno 8008 bound_to 7997
  155.3379  140.0464  157.3061 H   0  0  0  0  0  0  0  0  0  0  0  0  # atno 8009 bound_to 7997
  154.5345  140.2241  155.8756 H   0  0  0  0  0  0  0  0  0  0  0  0  # atno 8010 bound_to 7997
  139.7681  143.8277  152.2620 H   0  0  0  0  0  0  0  0  0  0  0  0  # atno 10167 bound_to 10162
  157.2364  131.0750  151.1821 H   0  0  0  0  0  0  0  0  0  0  0  0  # atno 10718 bound_to 10713
  153.5104  135.7016  153.5784 H   0  0  0  0  0  0  0  0  0  0  0  0  # atno 10763 bound_to 10752
  153.3877  135.3904  155.1901 H   0  0  0  0  0  0  0  0  0  0  0  0  # atno 10764 bound_to 10752
  154.8703  135.3850  154.4583 H   0  0  0  0  0  0  0  0  0  0  0  0  # atno 10765 bound_to 10752
  141.1409  133.6659  156.5758 H   0  0  0  0  0  0  0  0  0  0  0  0  # atno 11005 bound_to 11000
  146.3429  140.2175  142.8591 LP  0  0  0  0  0  0  0  0  0  0  0  0  # atno 17320 bound_to 7965
  145.0004  140.8627  143.5285 LP  0  0  0  0  0  0  0  0  0  0  0  0  # atno 17321 bound_to 7965
  139.8304  144.7256  150.9458 LP  0  0  0  0  0  0  0  0  0  0  0  0  # atno 17342 bound_to 10162
  140.7812  143.4076  151.1046 LP  0  0  0  0  0  0  0  0  0  0  0  0  # atno 17343 bound_to 10162
  157.3425  130.7040  149.6390 LP  0  0  0  0  0  0  0  0  0  0  0  0  # atno 17370 bound_to 10713
  155.9672  130.4276  150.4750 LP  0  0  0  0  0  0  0  0  0  0  0  0  # atno 17371 bound_to 10713
  140.3877  134.7468  157.4702 LP  0  0  0  0  0  0  0  0  0  0  0  0  # atno 17394 bound_to 11000
  140.0590  134.6023  155.8771 LP  0  0  0  0  0  0  0  0  0  0  0  0  # atno 17395 bound_to 11000

$$$$
