AV-unprocessed.smi:1443|AV-procd|sdf|5879|dock8
  -GOLD-   22720 5553D 1   1.00000     0.00000
 Structure written by MMmdl.
 27 28  0  0  0  0  0  0  0  0  1 V2000
  146.8298  138.7530  151.9758 C   0  0  0  0  0  0  0  0  0  0  0  0
  146.8293  140.4556  152.5971 S   0  0  0  0  0  0  0  0  0  0  0  0
  148.1582  140.5592  153.7525 C   0  0  0  0  0  0  0  0  0  0  0  0
  148.8692  139.4617  154.0679 N   0  0  0  0  0  0  0  0  0  0  0  0
  150.0496  139.8904  155.1983 S   0  0  0  0  0  0  0  0  0  0  0  0
  149.5068  141.5422  155.1839 C   0  0  0  0  0  0  0  0  0  0  0  0
  150.1107  142.5464  155.9945 N   0  0  0  0  0  0  0  0  0  0  0  0
  151.1204  142.4836  156.8886 C   0  0  0  0  0  0  0  0  0  0  0  0
  151.6923  141.4204  157.1229 O   0  0  0  0  0  0  0  0  0  0  0  0
  151.4504  143.6364  157.4915 N   0  0  0  0  0  0  0  0  0  0  0  0
  152.4619  143.7997  158.4854 C   0  0  2  0  0  0  0  0  0  0  0  0
  152.2386  143.1122  159.8150 C   0  0  0  0  0  0  0  0  0  0  0  0
  152.1490  144.6126  159.7284 C   0  0  2  0  0  0  0  0  0  0  0  0
  150.8219  145.3210  159.9140 C   0  0  0  0  0  0  0  0  0  0  0  0
  148.4845  141.7218  154.3466 N   0  0  0  0  0  0  0  0  0  0  0  0
  146.0619  138.6316  151.2120 H   0  0  0  0  0  0  0  0  0  0  0  0
  146.6210  138.0567  152.7872 H   0  0  0  0  0  0  0  0  0  0  0  0
  147.7962  138.5036  151.5377 H   0  0  0  0  0  0  0  0  0  0  0  0
  149.7371  143.4739  155.8539 H   0  0  0  0  0  0  0  0  0  0  0  0
  150.9302  144.4631  157.2341 H   0  0  0  0  0  0  0  0  0  0  0  0
  153.4942  143.8336  158.1397 H   0  0  0  0  0  0  0  0  0  0  0  0
  151.3124  142.5561  159.9492 H   0  0  0  0  0  0  0  0  0  0  0  0
  153.1089  142.6898  160.3131 H   0  0  0  0  0  0  0  0  0  0  0  0
  152.9893  145.1634  160.1468 H   0  0  0  0  0  0  0  0  0  0  0  0
  149.9981  144.7155  159.5377 H   0  0  0  0  0  0  0  0  0  0  0  0
  150.8275  146.2707  159.3791 H   0  0  0  0  0  0  0  0  0  0  0  0
  150.6491  145.5185  160.9720 H   0  0  0  0  0  0  0  0  0  0  0  0
  1  2  1  0  0  0  0
  1 16  1  0  0  0  0
  1 17  1  0  0  0  0
  1 18  1  0  0  0  0
  2  3  1  0  0  0  0
  3 15  1  0  0  0  0
  3  4  2  0  0  0  0
  4  5  1  0  0  0  0
  5  6  1  0  0  0  0
  6  7  1  0  0  0  0
  6 15  2  0  0  0  0
  7  8  1  0  0  0  0
  7 19  1  0  0  0  0
  8  9  2  0  0  0  0
  8 10  1  0  0  0  0
 10 11  1  0  0  0  0
 10 20  1  0  0  0  0
 11 13  1  0  0  0  0
 11 12  1  0  0  0  0
 11 21  1  0  0  0  0
 12 13  1  0  0  0  0
 12 22  1  0  0  0  0
 12 23  1  0  0  0  0
 13 14  1  0  0  0  0
 13 24  1  0  0  0  0
 14 25  1  0  0  0  0
 14 26  1  0  0  0  0
 14 27  1  0  0  0  0
M  END
> <s_m_source_file>
AV-unprocessed.smi

> <i_m_source_file_index>
1443

> <i_lp_mmshare_version>
43012

> <i_f3d_flags>
0

> <s_epik_input>
W0NIM11TYzFuc2MobjEpW05IXUMoPU8pW05IXVtDQEBIXTJbQ0gyXVtDQEhdMltDSDNd

> <s_epik_cmdline>
J2VwaWtfcHl0aG9uJywgJy1waCcsICc3LjAnLCAnLXRuJywgJzgnLCAnLW1hJywgJzIwMCcsICctbWV0YWxfYmluZGluZycsICctaW1hZScsICc8aW5maWxlLm1hZT4nLCAnLW9tYWUnLCAnPG91dGZpbGUubWFlPic=

> <r_lp_tautomer_probability>
1

> <r_epik_Ionization_Penalty>
2.74658e-05

> <r_epik_Ionization_Penalty_Charging>
0

> <r_epik_Ionization_Penalty_Neutral>
2.74658e-05

> <r_epik_State_Penalty>
-0

> <r_epik_Charging_Adjusted_Penalty>
0

> <i_epik_Tot_Q>
0

> <i_epik_Tot_abs_Q>
0

> <r_epik_Metal_State_Penalty>
-0

> <b_epik_Metal_Only>
0

> <s_lp_Force_Field>
OPLS_2005

> <r_lp_Energy>
21.2108

> <b_lp_Chiralities_Consistent>
1

> <s_lp_Variant>
AV-unprocessed.smi:1443-3

> <Gold.Version>
5.8.1

> <Gold.Id.Protein>
6NUR|6NUR_protein|mol2

> <Gold.PLP.Fitness>
35.5035

> <Gold.PLP.PLP>
-32.7022

> <Gold.PLP.part.hbond>
-1.3563

> <Gold.PLP.part.metal>
0.0000

> <Gold.PLP.part.buried>
-0.6736

> <Gold.PLP.part.nonpolar>
-31.4352

> <Gold.PLP.part.repulsive>
0.6049

> <Gold.PLP.ligand.clash>
0.0000

> <Gold.PLP.ligand.torsion>
0.1178

> <Gold.PLP.Chemscore.Hbond>
1.0000

> <Gold.PLP.Chemscore.CHOScore>
0.0000

> <Gold.PLP.Chemscore.Metal>
0.0000

> <Gold.Chemscore.Hbonds>
donor molecule, donor type, donor heavy atom, donor atom, acceptor molecule, acceptor atom, score
      L1  H     7    19       P1  8028  0.98

> <Gold.PLP.Chemscore.Internal.Correction>
0.0368

> <Gold.Rescore>
     Score         DG    S(hbond)    S(metal)    S(lipo)     H(rot)  DE(clash)    DE(int)     intcor
     12.25     -13.66       1.00        0.00      69.23       1.27       0.04       1.38       ----

> <Gold.Chemscore.Fitness>
12.2469

> <Gold.Chemscore.DG>
-13.6622

> <Gold.Chemscore.ZeroCoef>
-5.4800

> <Gold.Chemscore.Hbond>
0.9978

> <Gold.Chemscore.Metal>
0.0000

> <Gold.Chemscore.Lipo>
69.2347

> <Gold.Chemscore.Internal_Hbond>
0.0000

> <Gold.Chemscore.DEClash>
0.0392

> <Gold.Chemscore.DEInternal>
1.3762

> <Gold.Chemscore.Rot>
1.2699

> <Gold.Chemscore.Internal.Correction>
   9.000000E+99

> <Gold.Chemscore.Hbonds>
donor molecule, donor type, donor heavy atom, donor atom, acceptor molecule, acceptor atom, score
      L1  H     7    19       P1  8028  0.91

> <Gold.Chemscore.Hbond.Weighted>
-3.3327

> <Gold.Chemscore.Metal.Weighted>
-0.0000

> <Gold.Chemscore.Lipo.Weighted>
-8.1005

> <Gold.Chemscore.Internal_Hbond.Weighted>
0.0000

> <Gold.Chemscore.DEClash.Weighted>
0.0392

> <Gold.Chemscore.DEInternal.Weighted>
1.3762

> <Gold.Chemscore.Rot.Weighted>
3.2509

> <Gold.Chemscore.Internal.Correction.Weighted>
   9.000000E+99

> <Gold.Protein.RotatedTorsions>
[ 6907 6896 6895 6894 ] final   59.58 input  -60.11 | X-H torsion
[ 7974 7965 7964 7962 ] final   34.80 input  175.53 | X-H torsion
[ 8008 7997 7996 7995 ] final   43.63 input   59.86 | X-H torsion
[ 10167 10162 10161 10158 ] final  137.79 input  -65.29 | X-H torsion
[ 10718 10713 10712 10709 ] final  149.05 input   66.30 | X-H torsion
[ 10763 10752 10751 10750 ] final  -58.50 input  -60.55 | X-H torsion
[ 11005 11000 10999 10996 ] final   94.74 input  -57.11 | X-H torsion

> <Gold.Protein.ActiveResidues>
 VAL166  LYS551  ARG553  GLY616  TRP617  ASP618  TYR619  PRO620  LYS621  CYS622 
 ASP623  PHE694  ASN695  SER759  ASP760  ASP761  ALA762  ILE779  LEU786  VAL792 
 PHE793  MET794  SER795  GLU796  ALA797  LYS798  CYS799  TRP800  GLU811  SER814 

> <Gold.Protein.RotatedAtoms>
  152.3927  134.6415  160.0100 H   0  0  0  0  0  0  0  0  0  0  0  0  # atno 6907 bound_to 6896
  151.6644  133.3310  159.3189 H   0  0  0  0  0  0  0  0  0  0  0  0  # atno 6908 bound_to 6896
  150.7840  134.6853  159.6511 H   0  0  0  0  0  0  0  0  0  0  0  0  # atno 6909 bound_to 6896
  146.1328  139.6223  142.9215 H   0  0  0  0  0  0  0  0  0  0  0  0  # atno 7974 bound_to 7965
  155.3059  140.3388  155.4246 H   0  0  0  0  0  0  0  0  0  0  0  0  # atno 8008 bound_to 7997
  156.1979  140.1722  156.7999 H   0  0  0  0  0  0  0  0  0  0  0  0  # atno 8009 bound_to 7997
  154.5522  140.0703  156.8670 H   0  0  0  0  0  0  0  0  0  0  0  0  # atno 8010 bound_to 7997
  139.5132  144.6390  151.5620 H   0  0  0  0  0  0  0  0  0  0  0  0  # atno 10167 bound_to 10162
  157.3009  131.0870  151.1391 H   0  0  0  0  0  0  0  0  0  0  0  0  # atno 10718 bound_to 10713
  154.2391  135.6347  153.5201 H   0  0  0  0  0  0  0  0  0  0  0  0  # atno 10763 bound_to 10752
  152.9933  135.5538  154.5930 H   0  0  0  0  0  0  0  0  0  0  0  0  # atno 10764 bound_to 10752
  154.5431  135.2896  155.1052 H   0  0  0  0  0  0  0  0  0  0  0  0  # atno 10765 bound_to 10752
  139.8795  134.8862  156.3909 H   0  0  0  0  0  0  0  0  0  0  0  0  # atno 11005 bound_to 11000
  145.5223  141.0431  143.2428 LP  0  0  0  0  0  0  0  0  0  0  0  0  # atno 17320 bound_to 7965
  144.7708  139.6740  143.7195 LP  0  0  0  0  0  0  0  0  0  0  0  0  # atno 17321 bound_to 7965
  140.6150  143.9366  150.6481 LP  0  0  0  0  0  0  0  0  0  0  0  0  # atno 17342 bound_to 10162
  140.2621  143.3516  152.1314 LP  0  0  0  0  0  0  0  0  0  0  0  0  # atno 17343 bound_to 10162
  157.2750  130.6722  149.6038 LP  0  0  0  0  0  0  0  0  0  0  0  0  # atno 17370 bound_to 10713
  155.9671  130.4467  150.5552 LP  0  0  0  0  0  0  0  0  0  0  0  0  # atno 17371 bound_to 10713
  140.9333  133.7564  156.0053 LP  0  0  0  0  0  0  0  0  0  0  0  0  # atno 17394 bound_to 11000
  140.8305  134.3184  157.5350 LP  0  0  0  0  0  0  0  0  0  0  0  0  # atno 17395 bound_to 11000

$$$$
