AV-unprocessed.smi:2846|AV-procd|sdf|10952|dock6
  -GOLD-   2272015403D 1   1.00000     0.00000
 Structure written by MMmdl.
 49 51  0  0  0  0  0  0  0  0  2 V2000
  150.6475  140.7181  158.4200 O   0  0  0  0  0  0  0  0  0  0  0  0
  150.4623  141.7961  157.8546 C   0  0  0  0  0  0  0  0  0  0  0  0
  151.3572  143.0011  158.1543 C   0  0  0  0  0  0  0  0  0  0  0  0
  152.1817  142.9266  159.4291 C   0  0  0  0  0  0  0  0  0  0  0  0
  152.1272  143.8849  160.3748 C   0  0  0  0  0  0  0  0  0  0  0  0
  152.9207  143.8505  161.6688 C   0  0  0  0  0  0  0  0  0  0  0  0
  153.5146  142.4605  161.9529 C   0  0  0  0  0  0  0  0  0  0  0  0
  154.1275  141.8501  160.6860 C   0  0  0  0  0  0  0  0  0  0  0  0
  153.0805  141.7037  159.5669 C   0  0  0  0  0  0  0  0  0  0  0  0
  149.4922  141.9957  156.9495 N   0  0  0  0  0  0  0  0  0  0  0  0
  148.5228  140.9937  156.5092 C   0  0  0  0  0  0  0  0  0  0  0  0
  148.7540  140.5075  155.0502 C   0  0  0  0  0  0  0  0  0  0  0  0
  150.0231  139.6431  154.9818 C   0  0  0  0  0  0  0  0  0  0  0  0
  149.9703  138.3395  154.4305 C   0  0  0  0  0  0  0  0  0  0  0  0
  151.1441  137.5628  154.3564 C   0  0  0  0  0  0  0  0  0  0  0  0
  152.3136  138.0677  154.8027 N   0  3  0  0  0  0  0  0  0  0  0  0
  152.4201  139.3078  155.3244 C   0  0  0  0  0  0  0  0  0  0  0  0
  151.2790  140.1293  155.4241 C   0  0  0  0  0  0  0  0  0  0  0  0
  147.5073  139.7953  154.4766 C   0  0  0  0  0  0  0  0  0  0  0  0
  146.5280  140.9004  154.0721 C   0  0  0  0  0  0  0  0  0  0  0  0
  147.3917  142.1316  153.7797 C   0  0  0  0  0  0  0  0  0  0  0  0
  148.8350  141.7243  154.1037 C   0  0  0  0  0  0  0  0  0  0  0  0
  152.0395  143.1144  157.3107 H   0  0  0  0  0  0  0  0  0  0  0  0
  150.7524  143.9086  158.1761 H   0  0  0  0  0  0  0  0  0  0  0  0
  151.4964  144.7491  160.2265 H   0  0  0  0  0  0  0  0  0  0  0  0
  153.7158  144.5930  161.5959 H   0  0  0  0  0  0  0  0  0  0  0  0
  152.2769  144.1545  162.4945 H   0  0  0  0  0  0  0  0  0  0  0  0
  154.2629  142.5288  162.7429 H   0  0  0  0  0  0  0  0  0  0  0  0
  152.7315  141.7988  162.3252 H   0  0  0  0  0  0  0  0  0  0  0  0
  154.9412  142.4890  160.3401 H   0  0  0  0  0  0  0  0  0  0  0  0
  154.5714  140.8795  160.9089 H   0  0  0  0  0  0  0  0  0  0  0  0
  152.4451  140.8391  159.7606 H   0  0  0  0  0  0  0  0  0  0  0  0
  153.5878  141.5165  158.6198 H   0  0  0  0  0  0  0  0  0  0  0  0
  149.4128  142.9155  156.5404 H   0  0  0  0  0  0  0  0  0  0  0  0
  148.4928  140.1552  157.2065 H   0  0  0  0  0  0  0  0  0  0  0  0
  147.5405  141.4623  156.5800 H   0  0  0  0  0  0  0  0  0  0  0  0
  149.0409  137.9318  154.0612 H   0  0  0  0  0  0  0  0  0  0  0  0
  151.1828  136.5616  153.9526 H   0  0  0  0  0  0  0  0  0  0  0  0
  153.4090  139.6057  155.6409 H   0  0  0  0  0  0  0  0  0  0  0  0
  151.3829  141.1235  155.8324 H   0  0  0  0  0  0  0  0  0  0  0  0
  147.7826  139.2563  153.5684 H   0  0  0  0  0  0  0  0  0  0  0  0
  147.0606  139.0658  155.1513 H   0  0  0  0  0  0  0  0  0  0  0  0
  145.9228  140.6080  153.2135 H   0  0  0  0  0  0  0  0  0  0  0  0
  145.8445  141.1143  154.8949 H   0  0  0  0  0  0  0  0  0  0  0  0
  147.2969  142.4567  152.7430 H   0  0  0  0  0  0  0  0  0  0  0  0
  147.0786  142.9635  154.4118 H   0  0  0  0  0  0  0  0  0  0  0  0
  149.4186  142.5516  154.5093 H   0  0  0  0  0  0  0  0  0  0  0  0
  149.3141  141.4254  153.1697 H   0  0  0  0  0  0  0  0  0  0  0  0
  153.1522  137.4899  154.7388 H   0  0  0  0  0  0  0  0  0  0  0  0
  1  2  2  0  0  0  0
  2  3  1  0  0  0  0
  2 10  1  0  0  0  0
  3  4  1  0  0  0  0
  3 23  1  0  0  0  0
  3 24  1  0  0  0  0
  4  9  1  0  0  0  0
  4  5  2  0  0  0  0
  5  6  1  0  0  0  0
  5 25  1  0  0  0  0
  6  7  1  0  0  0  0
  6 26  1  0  0  0  0
  6 27  1  0  0  0  0
  7  8  1  0  0  0  0
  7 28  1  0  0  0  0
  7 29  1  0  0  0  0
  8  9  1  0  0  0  0
  8 30  1  0  0  0  0
  8 31  1  0  0  0  0
  9 32  1  0  0  0  0
  9 33  1  0  0  0  0
 10 11  1  0  0  0  0
 10 34  1  0  0  0  0
 11 12  1  0  0  0  0
 11 35  1  0  0  0  0
 11 36  1  0  0  0  0
 12 22  1  0  0  0  0
 12 13  1  0  0  0  0
 12 19  1  0  0  0  0
 13 18  1  0  0  0  0
 13 14  2  0  0  0  0
 14 15  1  0  0  0  0
 14 37  1  0  0  0  0
 15 16  2  0  0  0  0
 15 38  1  0  0  0  0
 16 17  1  0  0  0  0
 16 49  1  0  0  0  0
 17 18  2  0  0  0  0
 17 39  1  0  0  0  0
 18 40  1  0  0  0  0
 19 20  1  0  0  0  0
 19 41  1  0  0  0  0
 19 42  1  0  0  0  0
 20 21  1  0  0  0  0
 20 43  1  0  0  0  0
 20 44  1  0  0  0  0
 21 22  1  0  0  0  0
 21 45  1  0  0  0  0
 21 46  1  0  0  0  0
 22 47  1  0  0  0  0
 22 48  1  0  0  0  0
M  CHG  1  16   1
M  END
> <s_m_source_file>
AV-unprocessed.smi

> <i_m_source_file_index>
2846

> <i_lp_mmshare_version>
43012

> <i_f3d_flags>
0

> <s_epik_input>
W0NIMl0xW0NIMl1bQ0gyXVtDSDJdW0NIXT1DMVtDSDJdQyg9TylbTkhdW0NIMl1DMihbQ0gyXVtDSDJdW0NIMl1bQ0gyXTIpYzNbY0hdW2NIXW5bY0hdW2NIXTM=

> <s_epik_cmdline>
J2VwaWtfcHl0aG9uJywgJy1waCcsICc3LjAnLCAnLXRuJywgJzgnLCAnLW1hJywgJzIwMCcsICctbWV0YWxfYmluZGluZycsICctaW1hZScsICc8aW5maWxlLm1hZT4nLCAnLW9tYWUnLCAnPG91dGZpbGUubWFlPic=

> <r_epik_Ionization_Penalty>
1.37043

> <r_epik_Ionization_Penalty_Charging>
1.37043

> <r_epik_Ionization_Penalty_Neutral>
1.66368e-08

> <r_epik_State_Penalty>
1.45009

> <r_epik_Charging_Adjusted_Penalty>
2.82052

> <i_epik_Tot_Q>
1

> <i_epik_Tot_abs_Q>
1

> <r_epik_Metal_State_Penalty>
1.50668

> <b_epik_Metal_Only>
0

> <s_lp_Force_Field>
OPLS_2005

> <r_lp_Energy>
37.4584

> <b_lp_Chiralities_Consistent>
1

> <s_lp_Variant>
AV-unprocessed.smi:2846-2

> <Gold.Version>
5.8.1

> <Gold.Id.Protein>
6NUR|6NUR_protein|mol2

> <Gold.PLP.Fitness>
50.2151

> <Gold.PLP.PLP>
-48.1156

> <Gold.PLP.part.hbond>
-0.9717

> <Gold.PLP.part.metal>
0.0000

> <Gold.PLP.part.buried>
-2.2863

> <Gold.PLP.part.nonpolar>
-44.3719

> <Gold.PLP.part.repulsive>
0.2079

> <Gold.PLP.ligand.clash>
0.0000

> <Gold.PLP.ligand.torsion>
0.4939

> <Gold.PLP.Chemscore.Hbond>
0.9913

> <Gold.PLP.Chemscore.CHOScore>
0.0000

> <Gold.PLP.Chemscore.Metal>
0.0000

> <Gold.Chemscore.Hbonds>
donor molecule, donor type, donor heavy atom, donor atom, acceptor molecule, acceptor atom, score
      L1  H    10    34       P1  8028  0.89

> <Gold.PLP.Chemscore.Internal.Correction>
0.1136

> <Gold.Rescore>
     Score         DG    S(hbond)    S(metal)    S(lipo)     H(rot)  DE(clash)    DE(int)     intcor
     19.04     -20.85       0.73        0.00     142.61       1.46       0.17       1.64       ----

> <Gold.Chemscore.Fitness>
19.0411

> <Gold.Chemscore.DG>
-20.8493

> <Gold.Chemscore.ZeroCoef>
-5.4800

> <Gold.Chemscore.Hbond>
0.7269

> <Gold.Chemscore.Metal>
0.0000

> <Gold.Chemscore.Lipo>
142.6100

> <Gold.Chemscore.Internal_Hbond>
0.0000

> <Gold.Chemscore.DEClash>
0.1659

> <Gold.Chemscore.DEInternal>
1.6423

> <Gold.Chemscore.Rot>
1.4625

> <Gold.Chemscore.Internal.Correction>
   9.000000E+99

> <Gold.Chemscore.Hbonds>
donor molecule, donor type, donor heavy atom, donor atom, acceptor molecule, acceptor atom, score
      L1  H    10    34       P1  8028  0.86

> <Gold.Chemscore.Hbond.Weighted>
-2.4280

> <Gold.Chemscore.Metal.Weighted>
-0.0000

> <Gold.Chemscore.Lipo.Weighted>
-16.6854

> <Gold.Chemscore.Internal_Hbond.Weighted>
0.0000

> <Gold.Chemscore.DEClash.Weighted>
0.1659

> <Gold.Chemscore.DEInternal.Weighted>
1.6423

> <Gold.Chemscore.Rot.Weighted>
3.7441

> <Gold.Chemscore.Internal.Correction.Weighted>
   9.000000E+99

> <Gold.Protein.RotatedTorsions>
[ 6907 6896 6895 6894 ] final   39.41 input  -60.11 | X-H torsion
[ 7974 7965 7964 7962 ] final -118.79 input  175.53 | X-H torsion
[ 8008 7997 7996 7995 ] final  -71.89 input   59.86 | X-H torsion
[ 10167 10162 10161 10158 ] final    5.37 input  -65.29 | X-H torsion
[ 10718 10713 10712 10709 ] final  107.18 input   66.30 | X-H torsion
[ 10763 10752 10751 10750 ] final   97.16 input  -60.55 | X-H torsion
[ 11005 11000 10999 10996 ] final    6.77 input  -57.11 | X-H torsion

> <Gold.Protein.ActiveResidues>
 VAL166  LYS551  ARG553  GLY616  TRP617  ASP618  TYR619  PRO620  LYS621  CYS622 
 ASP623  PHE694  ASN695  SER759  ASP760  ASP761  ALA762  ILE779  LEU786  VAL792 
 PHE793  MET794  SER795  GLU796  ALA797  LYS798  CYS799  TRP800  GLU811  SER814 

> <Gold.Protein.RotatedAtoms>
  152.1692  134.8848  160.0535 H   0  0  0  0  0  0  0  0  0  0  0  0  # atno 6907 bound_to 6896
  151.9814  133.3754  159.4117 H   0  0  0  0  0  0  0  0  0  0  0  0  # atno 6908 bound_to 6896
  150.6899  134.3957  159.5140 H   0  0  0  0  0  0  0  0  0  0  0  0  # atno 6909 bound_to 6896
  145.0698  140.8351  143.4102 H   0  0  0  0  0  0  0  0  0  0  0  0  # atno 7974 bound_to 7965
  154.5123  140.0807  156.8013 H   0  0  0  0  0  0  0  0  0  0  0  0  # atno 8008 bound_to 7997
  155.3758  140.3425  155.4226 H   0  0  0  0  0  0  0  0  0  0  0  0  # atno 8009 bound_to 7997
  156.1587  140.1581  156.8636 H   0  0  0  0  0  0  0  0  0  0  0  0  # atno 8010 bound_to 7997
  140.6486  143.7601  150.7538 H   0  0  0  0  0  0  0  0  0  0  0  0  # atno 10167 bound_to 10162
  157.6639  131.0867  150.6117 H   0  0  0  0  0  0  0  0  0  0  0  0  # atno 10718 bound_to 10713
  153.2736  135.4193  155.1011 H   0  0  0  0  0  0  0  0  0  0  0  0  # atno 10763 bound_to 10752
  154.8464  135.3478  154.6210 H   0  0  0  0  0  0  0  0  0  0  0  0  # atno 10764 bound_to 10752
  153.6630  135.7047  153.5228 H   0  0  0  0  0  0  0  0  0  0  0  0  # atno 10765 bound_to 10752
  140.5558  134.0240  155.7953 H   0  0  0  0  0  0  0  0  0  0  0  0  # atno 11005 bound_to 11000
  145.1306  139.2634  143.5541 LP  0  0  0  0  0  0  0  0  0  0  0  0  # atno 17320 bound_to 7965
  146.3528  140.0956  142.8610 LP  0  0  0  0  0  0  0  0  0  0  0  0  # atno 17321 bound_to 7965
  140.1247  143.4579  152.2291 LP  0  0  0  0  0  0  0  0  0  0  0  0  # atno 17342 bound_to 10162
  139.5698  144.7456  151.3921 LP  0  0  0  0  0  0  0  0  0  0  0  0  # atno 17343 bound_to 10162
  156.6419  130.4461  149.5749 LP  0  0  0  0  0  0  0  0  0  0  0  0  # atno 17370 bound_to 10713
  156.2203  130.6733  151.1361 LP  0  0  0  0  0  0  0  0  0  0  0  0  # atno 17371 bound_to 10713
  141.1144  133.9563  157.2849 LP  0  0  0  0  0  0  0  0  0  0  0  0  # atno 17394 bound_to 11000
  139.9432  135.0188  156.8774 LP  0  0  0  0  0  0  0  0  0  0  0  0  # atno 17395 bound_to 11000

$$$$
