AV-unprocessed.smi:2073|AV-procd|sdf|8451|dock9
  -GOLD-   2272011143D 1   1.00000     0.00000
 Structure written by MMmdl.
 27 27  0  0  0  0  0  0  0  0  2 V2000
  152.6449  141.3862  159.6379 C   0  0  0  0  0  0  0  0  0  0  0  0
  151.8609  141.1604  158.3349 C   0  0  0  0  0  0  0  0  0  0  0  0
  150.3555  141.4121  158.5330 C   0  0  0  0  0  0  0  0  0  0  0  0
  152.1274  139.7476  157.7849 C   0  0  0  0  0  0  0  0  0  0  0  0
  151.8887  138.7659  158.4912 O   0  0  0  0  0  0  0  0  0  0  0  0
  152.6273  139.7795  156.5257 N   0  5  0  0  0  0  0  0  0  0  0  0
  151.7897  139.7241  155.4788 C   0  0  0  0  0  0  0  0  0  0  0  0
  150.5413  140.2017  155.5185 N   0  0  0  0  0  0  0  0  0  0  0  0
  149.8419  140.0442  154.3183 C   0  0  0  0  0  0  0  0  0  0  0  0
  148.4312  140.5459  154.2018 C   0  0  0  0  0  0  0  0  0  0  0  0
  147.5573  139.5388  153.4497 C   0  0  0  0  0  0  0  0  0  0  0  0
  147.8242  139.3411  152.1553 N   0  0  0  0  0  0  0  0  0  0  0  0
  146.6425  138.9552  154.0273 O   0  0  0  0  0  0  0  0  0  0  0  0
  150.5769  139.4109  153.3492 C   0  0  0  0  0  0  0  0  0  0  0  0
  152.1731  139.0069  153.9126 S   0  0  0  0  0  0  0  0  0  0  0  0
  153.7138  141.2275  159.4898 H   0  0  0  0  0  0  0  0  0  0  0  0
  152.3132  140.7090  160.4261 H   0  0  0  0  0  0  0  0  0  0  0  0
  152.5133  142.4059  160.0000 H   0  0  0  0  0  0  0  0  0  0  0  0
  152.2099  141.8968  157.6077 H   0  0  0  0  0  0  0  0  0  0  0  0
  149.7984  141.2250  157.6142 H   0  0  0  0  0  0  0  0  0  0  0  0
  150.1703  142.4465  158.8223 H   0  0  0  0  0  0  0  0  0  0  0  0
  149.9389  140.7731  159.3125 H   0  0  0  0  0  0  0  0  0  0  0  0
  148.0085  140.7229  155.1916 H   0  0  0  0  0  0  0  0  0  0  0  0
  148.3984  141.5027  153.6787 H   0  0  0  0  0  0  0  0  0  0  0  0
  147.2567  138.7000  151.6188 H   0  0  0  0  0  0  0  0  0  0  0  0
  148.5771  139.8476  151.7132 H   0  0  0  0  0  0  0  0  0  0  0  0
  150.2794  139.1630  152.3413 H   0  0  0  0  0  0  0  0  0  0  0  0
  1  2  1  0  0  0  0
  1 16  1  0  0  0  0
  1 17  1  0  0  0  0
  1 18  1  0  0  0  0
  2  3  1  0  0  0  0
  2  4  1  0  0  0  0
  2 19  1  0  0  0  0
  3 20  1  0  0  0  0
  3 21  1  0  0  0  0
  3 22  1  0  0  0  0
  4  5  2  0  0  0  0
  4  6  1  0  0  0  0
  6  7  1  0  0  0  0
  7 15  1  0  0  0  0
  7  8  2  0  0  0  0
  8  9  1  0  0  0  0
  9 10  1  0  0  0  0
  9 14  2  0  0  0  0
 10 11  1  0  0  0  0
 10 23  1  0  0  0  0
 10 24  1  0  0  0  0
 11 12  1  0  0  0  0
 11 13  2  0  0  0  0
 12 25  1  0  0  0  0
 12 26  1  0  0  0  0
 14 15  1  0  0  0  0
 14 27  1  0  0  0  0
M  CHG  1   6  -1
M  END
> <s_m_source_file>
AV-unprocessed.smi

> <i_m_source_file_index>
2073

> <i_lp_mmshare_version>
43012

> <i_f3d_flags>
0

> <s_epik_input>
W0NIM11bQ0hdKFtDSDNdKUMoPU8pW05IXWMxbmMoW2NIXXMxKVtDSDJdQyg9TylbTkgyXQ==

> <s_epik_cmdline>
J2VwaWtfcHl0aG9uJywgJy1waCcsICc3LjAnLCAnLXRuJywgJzgnLCAnLW1hJywgJzIwMCcsICctbWV0YWxfYmluZGluZycsICctaW1hZScsICc8aW5maWxlLm1hZT4nLCAnLW9tYWUnLCAnPG91dGZpbGUubWFlPic=

> <r_lp_tautomer_probability>
1

> <r_epik_Ionization_Penalty>
5.4698

> <r_epik_Ionization_Penalty_Charging>
4.98646

> <r_epik_Ionization_Penalty_Neutral>
0.483343

> <r_epik_State_Penalty>
4.98633

> <r_epik_Charging_Adjusted_Penalty>
9.97279

> <i_epik_Tot_Q>
-1

> <i_epik_Tot_abs_Q>
1

> <r_epik_Metal_State_Penalty>
1.11062

> <b_epik_Metal_Only>
1

> <s_lp_Force_Field>
OPLS_2005

> <r_lp_Energy>
-0.551018

> <b_lp_Chiralities_Consistent>
1

> <s_lp_Variant>
AV-unprocessed.smi:2073-2

> <Gold.Version>
5.8.1

> <Gold.Id.Protein>
6NUR|6NUR_protein|mol2

> <Gold.PLP.Fitness>
38.3717

> <Gold.PLP.PLP>
-26.8479

> <Gold.PLP.part.hbond>
-3.0000

> <Gold.PLP.part.metal>
0.0000

> <Gold.PLP.part.buried>
-3.7657

> <Gold.PLP.part.nonpolar>
-20.5661

> <Gold.PLP.part.repulsive>
0.1808

> <Gold.PLP.ligand.clash>
0.0000

> <Gold.PLP.ligand.torsion>
1.2932

> <Gold.PLP.Chemscore.Hbond>
3.0000

> <Gold.PLP.Chemscore.CHOScore>
1.6800

> <Gold.PLP.Chemscore.Metal>
0.0000

> <Gold.Chemscore.Hbonds>
donor molecule, donor type, donor heavy atom, donor atom, acceptor molecule, acceptor atom, score
      L1  H    12    26       P1  7957  0.08
      P1  H  7997  8008       L1     6  2.00

> <Gold.PLP.Chemscore.Internal.Correction>
0.0702

> <Gold.Rescore>
     Score         DG    S(hbond)    S(metal)    S(lipo)     H(rot)  DE(clash)    DE(int)     intcor
     12.02     -13.74       1.94        0.00      56.80       1.90       0.01       1.72       ----

> <Gold.Chemscore.Fitness>
12.0178

> <Gold.Chemscore.DG>
-13.7426

> <Gold.Chemscore.ZeroCoef>
-5.4800

> <Gold.Chemscore.Hbond>
1.9415

> <Gold.Chemscore.Metal>
0.0000

> <Gold.Chemscore.Lipo>
56.7961

> <Gold.Chemscore.Internal_Hbond>
0.0000

> <Gold.Chemscore.DEClash>
0.0096

> <Gold.Chemscore.DEInternal>
1.7152

> <Gold.Chemscore.Rot>
1.9012

> <Gold.Chemscore.Internal.Correction>
   9.000000E+99

> <Gold.Chemscore.Hbonds>
donor molecule, donor type, donor heavy atom, donor atom, acceptor molecule, acceptor atom, score
      L1  H    12    26       P1  7957  0.11
      P1  H  7997  8008       L1     6  0.95

> <Gold.Chemscore.Hbond.Weighted>
-6.4846

> <Gold.Chemscore.Metal.Weighted>
-0.0000

> <Gold.Chemscore.Lipo.Weighted>
-6.6451

> <Gold.Chemscore.Internal_Hbond.Weighted>
0.0000

> <Gold.Chemscore.DEClash.Weighted>
0.0096

> <Gold.Chemscore.DEInternal.Weighted>
1.7152

> <Gold.Chemscore.Rot.Weighted>
4.8671

> <Gold.Chemscore.Internal.Correction.Weighted>
   9.000000E+99

> <Gold.Protein.RotatedTorsions>
[ 6907 6896 6895 6894 ] final -112.36 input  -60.11 | X-H torsion
[ 7974 7965 7964 7962 ] final   99.96 input  175.53 | X-H torsion
[ 8008 7997 7996 7995 ] final  -37.67 input   59.86 | X-H torsion
[ 10167 10162 10161 10158 ] final -156.97 input  -65.29 | X-H torsion
[ 10718 10713 10712 10709 ] final  -68.58 input   66.30 | X-H torsion
[ 10763 10752 10751 10750 ] final  120.70 input  -60.55 | X-H torsion
[ 11005 11000 10999 10996 ] final  -28.38 input  -57.11 | X-H torsion

> <Gold.Protein.ActiveResidues>
 VAL166  LYS551  ARG553  GLY616  TRP617  ASP618  TYR619  PRO620  LYS621  CYS622 
 ASP623  PHE694  ASN695  SER759  ASP760  ASP761  ALA762  ILE779  LEU786  VAL792 
 PHE793  MET794  SER795  GLU796  ALA797  LYS798  CYS799  TRP800  GLU811  SER814 

> <Gold.Protein.RotatedAtoms>
  150.7753  133.9101  159.3366 H   0  0  0  0  0  0  0  0  0  0  0  0  # atno 6907 bound_to 6896
  151.6977  135.0933  160.0254 H   0  0  0  0  0  0  0  0  0  0  0  0  # atno 6908 bound_to 6896
  152.3786  133.6477  159.6179 H   0  0  0  0  0  0  0  0  0  0  0  0  # atno 6909 bound_to 6896
  145.3920  139.2361  143.3347 H   0  0  0  0  0  0  0  0  0  0  0  0  # atno 7974 bound_to 7965
  154.4049  140.1598  156.2575 H   0  0  0  0  0  0  0  0  0  0  0  0  # atno 8008 bound_to 7997
  155.9065  140.3430  155.6044 H   0  0  0  0  0  0  0  0  0  0  0  0  # atno 8009 bound_to 7997
  155.7386  140.0789  157.2247 H   0  0  0  0  0  0  0  0  0  0  0  0  # atno 8010 bound_to 7997
  139.6808  143.9584  152.2335 H   0  0  0  0  0  0  0  0  0  0  0  0  # atno 10167 bound_to 10162
  156.0498  130.4297  150.2022 H   0  0  0  0  0  0  0  0  0  0  0  0  # atno 10718 bound_to 10713
  153.6026  135.3445  155.2951 H   0  0  0  0  0  0  0  0  0  0  0  0  # atno 10763 bound_to 10752
  154.8633  135.4231  154.2396 H   0  0  0  0  0  0  0  0  0  0  0  0  # atno 10764 bound_to 10752
  153.3228  135.7039  153.7087 H   0  0  0  0  0  0  0  0  0  0  0  0  # atno 10765 bound_to 10752
  140.9203  133.7403  156.0792 H   0  0  0  0  0  0  0  0  0  0  0  0  # atno 11005 bound_to 11000
  146.2793  140.4604  142.8783 LP  0  0  0  0  0  0  0  0  0  0  0  0  # atno 17320 bound_to 7965
  144.8434  140.6892  143.6215 LP  0  0  0  0  0  0  0  0  0  0  0  0  # atno 17321 bound_to 7965
  139.9374  144.6703  150.8301 LP  0  0  0  0  0  0  0  0  0  0  0  0  # atno 17342 bound_to 10162
  140.7651  143.3267  151.2499 LP  0  0  0  0  0  0  0  0  0  0  0  0  # atno 17343 bound_to 10162
  157.0106  130.9950  151.3367 LP  0  0  0  0  0  0  0  0  0  0  0  0  # atno 17370 bound_to 10713
  157.5412  130.8121  149.8031 LP  0  0  0  0  0  0  0  0  0  0  0  0  # atno 17371 bound_to 10713
  140.7996  134.3524  157.5443 LP  0  0  0  0  0  0  0  0  0  0  0  0  # atno 17394 bound_to 11000
  139.8774  134.9190  156.3216 LP  0  0  0  0  0  0  0  0  0  0  0  0  # atno 17395 bound_to 11000

$$$$
