AV-unprocessed.smi:1159|AV-procd|sdf|4914|dock7
  -GOLD-   22720 3493D 1   1.00000     0.00000
 Structure written by MMmdl.
 41 42  0  0  0  0  0  0  0  0  1 V2000
  147.2424  138.0320  155.7543 O   0  0  0  0  0  0  0  0  0  0  0  0
  148.0076  137.8571  154.8068 C   0  0  0  0  0  0  0  0  0  0  0  0
  149.3023  138.2179  154.7689 N   0  0  0  0  0  0  0  0  0  0  0  0
  150.0773  138.8962  155.7501 C   0  0  0  0  0  0  0  0  0  0  0  0
  149.5826  139.3570  156.9944 C   0  0  0  0  0  0  0  0  0  0  0  0
  150.4585  140.0291  157.8686 C   0  0  0  0  0  0  0  0  0  0  0  0
  151.7965  140.2278  157.4756 C   0  0  0  0  0  0  0  0  0  0  0  0
  152.6458  140.8897  158.3381 O   0  0  0  0  0  0  0  0  0  0  0  0
  152.1092  141.4240  159.5455 C   0  0  0  0  0  0  0  0  0  0  0  0
  153.1607  142.3181  160.2135 C   0  0  0  0  0  0  0  0  0  0  0  0
  154.3011  141.6400  160.3369 F   0  0  0  0  0  0  0  0  0  0  0  0
  153.3858  143.4001  159.4686 F   0  0  0  0  0  0  0  0  0  0  0  0
  152.7491  142.6874  161.4260 F   0  0  0  0  0  0  0  0  0  0  0  0
  152.2759  139.7975  156.2827 N   0  0  0  0  0  0  0  0  0  0  0  0
  151.4313  139.1534  155.4498 C   0  0  0  0  0  0  0  0  0  0  0  0
  147.6414  137.2577  153.6638 N   0  0  0  0  0  0  0  0  0  0  0  0
  146.2957  136.7677  153.3543 C   0  0  2  0  0  0  0  0  0  0  0  0
  146.3553  135.2229  153.3350 C   0  0  0  0  0  0  0  0  0  0  0  0
  144.9917  134.5454  153.5559 C   0  0  0  0  0  0  0  0  0  0  0  0
  143.9582  134.7921  152.4465 C   0  0  0  0  0  0  0  0  0  0  0  0
  143.5645  136.2701  152.2865 C   0  0  0  0  0  0  0  0  0  0  0  0
  144.5779  137.0331  151.5697 N   0  0  0  0  0  0  0  0  0  0  0  0
  145.8360  137.2768  151.9677 C   0  0  0  0  0  0  0  0  0  0  0  0
  146.6106  137.8921  151.2350 O   0  0  0  0  0  0  0  0  0  0  0  0
  149.8067  137.9518  153.9360 H   0  0  0  0  0  0  0  0  0  0  0  0
  148.5562  139.2238  157.2960 H   0  0  0  0  0  0  0  0  0  0  0  0
  150.1069  140.3908  158.8237 H   0  0  0  0  0  0  0  0  0  0  0  0
  151.2117  142.0079  159.3344 H   0  0  0  0  0  0  0  0  0  0  0  0
  151.8308  140.6164  160.2249 H   0  0  0  0  0  0  0  0  0  0  0  0
  151.8543  138.8313  154.5093 H   0  0  0  0  0  0  0  0  0  0  0  0
  148.3357  137.1569  152.9383 H   0  0  0  0  0  0  0  0  0  0  0  0
  145.6042  137.1075  154.1273 H   0  0  0  0  0  0  0  0  0  0  0  0
  146.8121  134.8601  152.4126 H   0  0  0  0  0  0  0  0  0  0  0  0
  147.0120  134.8835  154.1378 H   0  0  0  0  0  0  0  0  0  0  0  0
  145.1498  133.4704  153.6470 H   0  0  0  0  0  0  0  0  0  0  0  0
  144.5794  134.8653  154.5135 H   0  0  0  0  0  0  0  0  0  0  0  0
  144.3206  134.3937  151.4979 H   0  0  0  0  0  0  0  0  0  0  0  0
  143.0611  134.2205  152.6867 H   0  0  0  0  0  0  0  0  0  0  0  0
  142.6448  136.3346  151.7047 H   0  0  0  0  0  0  0  0  0  0  0  0
  143.3495  136.7303  153.2520 H   0  0  0  0  0  0  0  0  0  0  0  0
  144.3078  137.3890  150.6640 H   0  0  0  0  0  0  0  0  0  0  0  0
  1  2  2  0  0  0  0
  2  3  1  0  0  0  0
  2 16  1  0  0  0  0
  3  4  1  0  0  0  0
  3 25  1  0  0  0  0
  4 15  1  0  0  0  0
  4  5  2  0  0  0  0
  5  6  1  0  0  0  0
  5 26  1  0  0  0  0
  6  7  2  0  0  0  0
  6 27  1  0  0  0  0
  7  8  1  0  0  0  0
  7 14  1  0  0  0  0
  8  9  1  0  0  0  0
  9 10  1  0  0  0  0
  9 28  1  0  0  0  0
  9 29  1  0  0  0  0
 10 11  1  0  0  0  0
 10 12  1  0  0  0  0
 10 13  1  0  0  0  0
 14 15  2  0  0  0  0
 15 30  1  0  0  0  0
 16 17  1  0  0  0  0
 16 31  1  0  0  0  0
 17 23  1  0  0  0  0
 17 18  1  0  0  0  0
 17 32  1  0  0  0  0
 18 19  1  0  0  0  0
 18 33  1  0  0  0  0
 18 34  1  0  0  0  0
 19 20  1  0  0  0  0
 19 35  1  0  0  0  0
 19 36  1  0  0  0  0
 20 21  1  0  0  0  0
 20 37  1  0  0  0  0
 20 38  1  0  0  0  0
 21 22  1  0  0  0  0
 21 39  1  0  0  0  0
 21 40  1  0  0  0  0
 22 23  1  0  0  0  0
 22 41  1  0  0  0  0
 23 24  2  0  0  0  0
M  END
> <s_m_source_file>
AV-unprocessed.smi

> <i_m_source_file_index>
1159

> <i_lp_mmshare_version>
43012

> <i_f3d_flags>
0

> <s_epik_input>
Tz1DMVtOSF1bQ0gyXVtDSDJdW0NIMl1bQ0gyXVtDQEhdMVtOSF1DKD1PKVtOSF1jMltjSF1bY0hdYyhuW2NIXTIpT1tDSDJdQyhGKShGKUY=

> <s_epik_cmdline>
J2VwaWtfcHl0aG9uJywgJy1waCcsICc3LjAnLCAnLXRuJywgJzgnLCAnLW1hJywgJzIwMCcsICctbWV0YWxfYmluZGluZycsICctaW1hZScsICc8aW5maWxlLm1hZT4nLCAnLW9tYWUnLCAnPG91dGZpbGUubWFlPic=

> <r_lp_tautomer_probability>
1

> <r_epik_Ionization_Penalty>
3.53205e-05

> <r_epik_Ionization_Penalty_Charging>
0

> <r_epik_Ionization_Penalty_Neutral>
3.53205e-05

> <r_epik_State_Penalty>
-0

> <r_epik_Charging_Adjusted_Penalty>
0

> <i_epik_Tot_Q>
0

> <i_epik_Tot_abs_Q>
0

> <r_epik_Metal_State_Penalty>
-0

> <b_epik_Metal_Only>
0

> <s_lp_Force_Field>
OPLS_2005

> <r_lp_Energy>
13.2476

> <b_lp_Chiralities_Consistent>
1

> <s_lp_Variant>
AV-unprocessed.smi:1159-1

> <Gold.Version>
5.8.1

> <Gold.Id.Protein>
6NUR|6NUR_protein|mol2

> <Gold.PLP.Fitness>
44.7194

> <Gold.PLP.PLP>
-34.2652

> <Gold.PLP.part.hbond>
-3.5467

> <Gold.PLP.part.metal>
0.0000

> <Gold.PLP.part.buried>
-3.5394

> <Gold.PLP.part.nonpolar>
-28.5628

> <Gold.PLP.part.repulsive>
1.8831

> <Gold.PLP.ligand.clash>
0.5273

> <Gold.PLP.ligand.torsion>
0.1797

> <Gold.PLP.Chemscore.Hbond>
3.7723

> <Gold.PLP.Chemscore.CHOScore>
0.0000

> <Gold.PLP.Chemscore.Metal>
0.0000

> <Gold.Chemscore.Hbonds>
donor molecule, donor type, donor heavy atom, donor atom, acceptor molecule, acceptor atom, score
      L1  H    16    31       P1  7948  0.94
      L1  H    22    41       P1 10171  0.97
      P1  H  7954  7966       L1    24  0.94
      P1  H  7997  8008       L1    14  0.86

> <Gold.PLP.Chemscore.Internal.Correction>
0.0241

> <Gold.Rescore>
     Score         DG    S(hbond)    S(metal)    S(lipo)     H(rot)  DE(clash)    DE(int)     intcor
     16.25     -18.99       3.66        0.00      50.41       1.81       1.42       1.33       ----

> <Gold.Chemscore.Fitness>
16.2458

> <Gold.Chemscore.DG>
-18.9904

> <Gold.Chemscore.ZeroCoef>
-5.4800

> <Gold.Chemscore.Hbond>
3.6636

> <Gold.Chemscore.Metal>
0.0000

> <Gold.Chemscore.Lipo>
50.4085

> <Gold.Chemscore.Internal_Hbond>
0.0000

> <Gold.Chemscore.DEClash>
1.4190

> <Gold.Chemscore.DEInternal>
1.3257

> <Gold.Chemscore.Rot>
1.8062

> <Gold.Chemscore.Internal.Correction>
   9.000000E+99

> <Gold.Chemscore.Hbonds>
donor molecule, donor type, donor heavy atom, donor atom, acceptor molecule, acceptor atom, score
      L1  H    16    31       P1  7948  0.87
      L1  H    22    41       P1 10171  0.87
      P1  H  7954  7966       L1    24  0.90
      P1  H  7997  8008       L1    14  0.42

> <Gold.Chemscore.Hbond.Weighted>
-12.2365

> <Gold.Chemscore.Metal.Weighted>
-0.0000

> <Gold.Chemscore.Lipo.Weighted>
-5.8978

> <Gold.Chemscore.Internal_Hbond.Weighted>
0.0000

> <Gold.Chemscore.DEClash.Weighted>
1.4190

> <Gold.Chemscore.DEInternal.Weighted>
1.3257

> <Gold.Chemscore.Rot.Weighted>
4.6238

> <Gold.Chemscore.Internal.Correction.Weighted>
   9.000000E+99

> <Gold.Protein.RotatedTorsions>
[ 6907 6896 6895 6894 ] final  -52.09 input  -60.11 | X-H torsion
[ 7974 7965 7964 7962 ] final -117.45 input  175.53 | X-H torsion
[ 8008 7997 7996 7995 ] final  -45.77 input   59.86 | X-H torsion
[ 10167 10162 10161 10158 ] final  178.50 input  -65.29 | X-H torsion
[ 10718 10713 10712 10709 ] final  -36.59 input   66.30 | X-H torsion
[ 10763 10752 10751 10750 ] final   61.21 input  -60.55 | X-H torsion
[ 11005 11000 10999 10996 ] final -175.07 input  -57.11 | X-H torsion

> <Gold.Protein.ActiveResidues>
 VAL166  LYS551  ARG553  GLY616  TRP617  ASP618  TYR619  PRO620  LYS621  CYS622 
 ASP623  PHE694  ASN695  SER759  ASP760  ASP761  ALA762  ILE779  LEU786  VAL792 
 PHE793  MET794  SER795  GLU796  ALA797  LYS798  CYS799  TRP800  GLU811  SER814 

> <Gold.Protein.RotatedAtoms>
  150.8550  134.7886  159.7038 H   0  0  0  0  0  0  0  0  0  0  0  0  # atno 6907 bound_to 6896
  152.4604  134.5193  159.9787 H   0  0  0  0  0  0  0  0  0  0  0  0  # atno 6908 bound_to 6896
  151.5307  133.3411  159.2953 H   0  0  0  0  0  0  0  0  0  0  0  0  # atno 6909 bound_to 6896
  145.0851  140.8452  143.4016 H   0  0  0  0  0  0  0  0  0  0  0  0  # atno 7974 bound_to 7965
  154.4003  140.1388  156.3901 H   0  0  0  0  0  0  0  0  0  0  0  0  # atno 8008 bound_to 7997
  155.7922  140.3478  155.5335 H   0  0  0  0  0  0  0  0  0  0  0  0  # atno 8009 bound_to 7997
  155.8568  140.0950  157.1630 H   0  0  0  0  0  0  0  0  0  0  0  0  # atno 8010 bound_to 7997
  139.5297  144.2672  152.0658 H   0  0  0  0  0  0  0  0  0  0  0  0  # atno 10167 bound_to 10162
  156.3251  130.4271  149.7924 H   0  0  0  0  0  0  0  0  0  0  0  0  # atno 10718 bound_to 10713
  152.9944  135.5509  154.5998 H   0  0  0  0  0  0  0  0  0  0  0  0  # atno 10763 bound_to 10752
  154.5342  135.2815  155.1156 H   0  0  0  0  0  0  0  0  0  0  0  0  # atno 10764 bound_to 10752
  154.2459  135.6408  153.5276 H   0  0  0  0  0  0  0  0  0  0  0  0  # atno 10765 bound_to 10752
  140.4674  134.6197  157.4868 H   0  0  0  0  0  0  0  0  0  0  0  0  # atno 11005 bound_to 11000
  145.1132  139.2743  143.5627 LP  0  0  0  0  0  0  0  0  0  0  0  0  # atno 17320 bound_to 7965
  146.3531  140.0734  142.8622 LP  0  0  0  0  0  0  0  0  0  0  0  0  # atno 17321 bound_to 7965
  140.2134  144.4540  150.6375 LP  0  0  0  0  0  0  0  0  0  0  0  0  # atno 17342 bound_to 10162
  140.6466  143.2215  151.6172 LP  0  0  0  0  0  0  0  0  0  0  0  0  # atno 17343 bound_to 10162
  156.5217  130.8218  151.3206 LP  0  0  0  0  0  0  0  0  0  0  0  0  # atno 17370 bound_to 10713
  157.7419  130.9880  150.2482 LP  0  0  0  0  0  0  0  0  0  0  0  0  # atno 17371 bound_to 10713
  139.9906  134.6991  155.9696 LP  0  0  0  0  0  0  0  0  0  0  0  0  # atno 17394 bound_to 11000
  141.1593  133.6540  156.4264 LP  0  0  0  0  0  0  0  0  0  0  0  0  # atno 17395 bound_to 11000

$$$$
