#       Name:                AV-unprocessed.smi:99
#       Creating user name   scv26
#       Creation time:       Thu Mar 26 17:32:40 2020


#       File generated by GOLD software.
#

@<TRIPOS>MOLECULE
AV-unprocessed.smi:99
    65    68     1
SMALL
NO_CHARGES


@<TRIPOS>ATOM
      1 ****        -4.9457   0.3730   0.8194 O.2            1 S1                 0.0000
      2 ****        -4.0827   1.2489   0.9085 C.2            1 S1                 0.0000
      3 ****        -2.7629   1.0101   0.7772 O.3            1 S1                 0.0000
      4 ****        -2.3047  -0.3065   0.5182 C.3            1 S1                 0.0000
      5 ****        -0.7741  -0.2979   0.3810 C.3            1 S1                 0.0000
      6 ****        -0.4195   0.2760  -0.8714 O.3            1 S1                 0.0000
      7 ****        -0.3508  -0.7139  -1.8491 C.3            1 S1                 0.0000
      8 ****         0.8167  -0.3676  -2.7523 N.am           1 S1                 0.0000
      9 ****         2.1296  -0.5461  -2.3309 C.2            1 S1                 0.0000
     10 ****         3.2053  -0.1726  -3.0631 C.2            1 S1                 0.0000
     11 ****         3.0291   0.4789  -4.3556 C.2            1 S1                 0.0000
     12 ****         3.9393   0.8401  -5.0985 O.2            1 S1                 0.0000
     13 ****         1.6965   0.6908  -4.7184 N.am           1 S1                 0.0000
     14 ****         0.5805   0.3227  -3.9646 C.2            1 S1                 0.0000
     15 ****        -0.5459   0.6001  -4.3748 O.2            1 S1                 0.0000
     16 ****        -0.2048  -2.0808  -1.1503 C.3            1 S1                 0.0000
     17 ****        -1.3034  -2.9340  -1.4041 O.3            1 S1                 0.0000
     18 ****        -0.1854  -1.7117   0.3324 C.3            1 S1                 0.0000
     19 ****         1.1430  -1.6747   0.8395 O.3            1 S1                 0.0000
     20 ****         1.7559  -2.7983   1.2690 C.2            1 S1                 0.0000
     21 ****         1.2178  -3.9069   1.2861 O.2            1 S1                 0.0000
     22 ****         3.1590  -2.5558   1.7107 C.ar           1 S1                 0.0000
     23 ****         3.9201  -3.6314   2.2249 C.ar           1 S1                 0.0000
     24 ****         5.2491  -3.4321   2.6466 C.ar           1 S1                 0.0000
     25 ****         5.8336  -2.1552   2.5583 C.ar           1 S1                 0.0000
     26 ****         5.0875  -1.0774   2.0470 C.ar           1 S1                 0.0000
     27 ****         3.7582  -1.2744   1.6251 C.ar           1 S1                 0.0000
     28 ****        -4.3910   2.6838   1.1735 C.ar           1 S1                 0.0000
     29 ****        -5.7380   3.0846   1.3336 C.ar           1 S1                 0.0000
     30 ****        -6.0606   4.4324   1.5851 C.ar           1 S1                 0.0000
     31 ****        -5.0399   5.3960   1.6800 C.ar           1 S1                 0.0000
     32 ****        -3.6960   5.0104   1.5220 C.ar           1 S1                 0.0000
     33 ****        -3.3714   3.6629   1.2702 C.ar           1 S1                 0.0000
     34 ****         1.5265   1.1626  -5.5949 H              1 S1                 0.0000
     35 ****        -2.5961  -0.9477   1.3512 H              1 S1                 0.0000
     36 ****        -2.7751  -0.7051  -0.3816 H              1 S1                 0.0000
     37 ****        -0.3424   0.2783   1.2009 H              1 S1                 0.0000
     38 ****        -1.2574  -0.6823  -2.4552 H              1 S1                 0.0000
     39 ****         2.3265  -0.9948  -1.3708 H              1 S1                 0.0000
     40 ****         4.2024  -0.3488  -2.6855 H              1 S1                 0.0000
     41 ****         0.6934  -2.6095  -1.4690 H              1 S1                 0.0000
     42 ****        -2.0964  -2.4926  -1.1411 H              1 S1                 0.0000
     43 ****        -0.7817  -2.3963   0.9385 H              1 S1                 0.0000
     44 ****         3.4927  -4.6210   2.3024 H              1 S1                 0.0000
     45 ****         5.8204  -4.2606   3.0387 H              1 S1                 0.0000
     46 ****         6.8526  -2.0026   2.8821 H              1 S1                 0.0000
     47 ****         5.5354  -0.0969   1.9776 H              1 S1                 0.0000
     48 ****         3.2150  -0.4254   1.2359 H              1 S1                 0.0000
     49 ****        -6.5390   2.3625   1.2657 H              1 S1                 0.0000
     50 ****        -7.0928   4.7265   1.7058 H              1 S1                 0.0000
     51 ****        -5.2877   6.4293   1.8741 H              1 S1                 0.0000
     52 ****        -2.9115   5.7493   1.5944 H              1 S1                 0.0000
     53 ****        -2.3299   3.4009   1.1542 H              1 S1                 0.0000
     54 ****        -4.6800  -0.5743   0.6406 LP             1 S1                 0.0000
     55 ****        -5.9114   0.6099   0.9260 LP             1 S1                 0.0000
     56 ****         0.4714   0.7230  -0.7900 LP             1 S1                 0.0000
     57 ****        -1.1088   0.9517  -1.1326 LP             1 S1                 0.0000
     58 ****         4.8915   0.6931  -4.8306 LP             1 S1                 0.0000
     59 ****         3.7276   1.2810  -5.9707 LP             1 S1                 0.0000
     60 ****        -1.3507   0.3356  -3.8434 LP             1 S1                 0.0000
     61 ****        -0.6565   1.0901  -5.2395 LP             1 S1                 0.0000
     62 ****        -1.2001  -3.7803  -0.8815 LP             1 S1                 0.0000
     63 ****        -1.3450  -3.1479  -2.3800 LP             1 S1                 0.0000
     64 ****         0.2747  -4.0098   0.9699 LP             1 S1                 0.0000
     65 ****         1.7243  -4.7035   1.6162 LP             1 S1                 0.0000
@<TRIPOS>BOND
    1    1    2 2     
    2    2    3 1     
    3    2   28 1     
    4    3    4 1     
    5    4    5 1     
    6    4   35 1     
    7    4   36 1     
    8    5   18 1     
    9    5    6 1     
   10    5   37 1     
   11    6    7 1     
   12    7    8 1     
   13    7   16 1     
   14    7   38 1     
   15    8   14 1     
   16    8    9 1     
   17    9   10 2     
   18    9   39 1     
   19   10   11 1     
   20   10   40 1     
   21   11   12 2     
   22   11   13 1     
   23   13   34 1     
   24   13   14 1     
   25   14   15 2     
   26   16   17 1     
   27   16   18 1     
   28   16   41 1     
   29   17   42 1     
   30   18   19 1     
   31   18   43 1     
   32   19   20 1     
   33   20   21 2     
   34   20   22 1     
   35   22   27 ar    
   36   22   23 ar    
   37   23   24 ar    
   38   23   44 1     
   39   24   25 ar    
   40   24   45 1     
   41   25   26 ar    
   42   25   46 1     
   43   26   27 ar    
   44   26   47 1     
   45   27   48 1     
   46   28   33 ar    
   47   28   29 ar    
   48   29   30 ar    
   49   29   49 1     
   50   30   31 ar    
   51   30   50 1     
   52   31   32 ar    
   53   31   51 1     
   54   32   33 ar    
   55   32   52 1     
   56   33   53 1     
   57    1   54 1     
   58    1   55 1     
   59    6   56 1     
   60    6   57 1     
   61   12   58 1     
   62   12   59 1     
   63   15   60 1     
   64   15   61 1     
   65   17   62 1     
   66   17   63 1     
   67   21   64 1     
   68   21   65 1     
@<TRIPOS>SUBSTRUCTURE
      1 S1             1
@<TRIPOS>SET
LONE_PAIRS      STATIC     ATOMS    <user>   **** ""
12 54 55 56 57 58 59 60 61 62 63 64 65
DONOR_HYDROGENS      STATIC     ATOMS    <user>   **** ""
2 34 42
ATOM$BLUE        STATIC     ATOMS    COLORGROUP SYSTEM
12 54 55 56 57 58 59 60 61 62 63 64 65
ATOM$RED        STATIC     ATOMS    COLORGROUP SYSTEM
2 34 42
