#       Name:                AV-unprocessed.smi:595
#       Creating user name   scv26
#       Creation time:       Thu Mar 26 23:52:44 2020


#       File generated by GOLD software.
#

@<TRIPOS>MOLECULE
AV-unprocessed.smi:595
    45    46     1
SMALL
NO_CHARGES


@<TRIPOS>ATOM
      1 ****         0.2969   0.5489   0.5212 O.2            1 S1                 0.0000
      2 ****         1.0575  -0.4213   0.5695 C.2            1 S1                 0.0000
      3 ****         2.5752  -0.1979   0.6524 C.3            1 S1                 0.0000
      4 ****         3.0037   1.0526   0.0042 N.am           1 S1                 0.0000
      5 ****         3.2376   0.9991  -1.3840 C.2            1 S1                 0.0000
      6 ****         3.6172   2.0708  -2.1059 C.2            1 S1                 0.0000
      7 ****         3.9099   1.9697  -3.5948 C.3            1 S1                 0.0000
      8 ****         4.8181   2.8716  -3.9678 F              1 S1                 0.0000
      9 ****         4.3663   0.7581  -3.9145 F              1 S1                 0.0000
     10 ****         2.7957   2.1897  -4.2913 F              1 S1                 0.0000
     11 ****         3.8168   3.3047  -1.3714 C.2            1 S1                 0.0000
     12 ****         3.6035   3.3717  -0.0428 C.2            1 S1                 0.0000
     13 ****         3.1622   2.2039   0.7234 C.2            1 S1                 0.0000
     14 ****         2.9478   2.2588   1.9343 O.2            1 S1                 0.0000
     15 ****         0.6765  -1.7197   0.5588 N.am           1 S1                 0.0000
     16 ****        -0.5514  -2.2874   0.4935 C.2            1 S1                 0.0000
     17 ****        -0.6751  -3.5112   0.4972 O.2            1 S1                 0.0000
     18 ****        -1.6102  -1.4582   0.4277 N.am           1 S1                 0.0000
     19 ****        -3.0073  -1.8751   0.3537 C.3            1 S1                 0.0000
     20 ****        -3.8916  -0.7064  -0.1163 C.3            1 S1                 0.0000
     21 ****        -4.6668  -0.2463   1.1180 C.3            1 S1                 0.0000
     22 ****        -4.8568  -1.5221   1.9322 C.3            1 S1                 0.0000
     23 ****        -3.5519  -2.2959   1.7350 C.3            1 S1                 0.0000
     24 ****         2.8726  -0.2306   1.7016 H              1 S1                 0.0000
     25 ****         3.0923  -1.0391   0.1870 H              1 S1                 0.0000
     26 ****         3.0823   0.0252  -1.8260 H              1 S1                 0.0000
     27 ****         4.1388   4.1925  -1.8956 H              1 S1                 0.0000
     28 ****         3.7606   4.3084   0.4715 H              1 S1                 0.0000
     29 ****         1.4371  -2.3817   0.6081 H              1 S1                 0.0000
     30 ****        -1.4315  -0.4636   0.4318 H              1 S1                 0.0000
     31 ****        -3.1021  -2.6972  -0.3581 H              1 S1                 0.0000
     32 ****        -3.3280   0.1073  -0.5754 H              1 S1                 0.0000
     33 ****        -4.5968  -1.0692  -0.8652 H              1 S1                 0.0000
     34 ****        -4.0672   0.4666   1.6855 H              1 S1                 0.0000
     35 ****        -5.6113   0.2364   0.8659 H              1 S1                 0.0000
     36 ****        -5.0727  -1.3235   2.9822 H              1 S1                 0.0000
     37 ****        -5.6894  -2.0961   1.5235 H              1 S1                 0.0000
     38 ****        -3.7050  -3.3733   1.8049 H              1 S1                 0.0000
     39 ****        -2.8532  -2.0190   2.5260 H              1 S1                 0.0000
     40 ****         0.6688   1.4770   0.5361 LP             1 S1                 0.0000
     41 ****        -0.6915   0.4071   0.4672 LP             1 S1                 0.0000
     42 ****         2.6463   1.4420   2.4262 LP             1 S1                 0.0000
     43 ****         3.0751   3.1201   2.4261 LP             1 S1                 0.0000
     44 ****         0.1348  -4.0955   0.5487 LP             1 S1                 0.0000
     45 ****        -1.5856  -3.9219   0.4487 LP             1 S1                 0.0000
@<TRIPOS>BOND
    1    1    2 2     
    2    2    3 1     
    3    2   15 1     
    4    3    4 1     
    5    3   24 1     
    6    3   25 1     
    7    4   13 am    
    8    4    5 1     
    9    5    6 2     
   10    5   26 1     
   11    6    7 1     
   12    6   11 1     
   13    7    8 1     
   14    7    9 1     
   15    7   10 1     
   16   11   12 2     
   17   11   27 1     
   18   12   13 1     
   19   12   28 1     
   20   13   14 2     
   21   15   16 1     
   22   15   29 1     
   23   16   17 2     
   24   16   18 1     
   25   18   19 1     
   26   18   30 1     
   27   19   23 1     
   28   19   20 1     
   29   19   31 1     
   30   20   21 1     
   31   20   32 1     
   32   20   33 1     
   33   21   22 1     
   34   21   34 1     
   35   21   35 1     
   36   22   23 1     
   37   22   36 1     
   38   22   37 1     
   39   23   38 1     
   40   23   39 1     
   41    1   40 1     
   42    1   41 1     
   43   14   42 1     
   44   14   43 1     
   45   17   44 1     
   46   17   45 1     
@<TRIPOS>SUBSTRUCTURE
      1 S1             1
@<TRIPOS>SET
LONE_PAIRS      STATIC     ATOMS    <user>   **** ""
6 40 41 42 43 44 45
DONOR_HYDROGENS      STATIC     ATOMS    <user>   **** ""
2 29 30
ATOM$BLUE        STATIC     ATOMS    COLORGROUP SYSTEM
6 40 41 42 43 44 45
ATOM$RED        STATIC     ATOMS    COLORGROUP SYSTEM
2 29 30
