AV-unprocessed.smi:1973|AV-procd|sdf|7978|dock1
  -GOLD-   2272010153D 1   1.00000     0.00000
 Structure written by MMmdl.
 48 50  0  0  0  0  0  0  0  0  2 V2000
  152.0750  142.2891  159.1836 C   0  0  0  0  0  0  0  0  0  0  0  0
  151.1622  142.4057  158.1069 O   0  0  0  0  0  0  0  0  0  0  0  0
  150.7563  141.1462  157.5976 C   0  0  0  0  0  0  0  0  0  0  0  0
  150.6167  141.2213  156.0684 C   0  0  0  0  0  0  0  0  0  0  0  0
  150.4854  139.8890  155.4675 N   0  0  0  0  0  0  0  0  0  0  0  0
  149.1826  139.4200  155.4223 N   0  0  0  0  0  0  0  0  0  0  0  0
  148.9286  138.2509  154.9291 C   0  0  0  0  0  0  0  0  0  0  0  0
  147.5421  137.7105  154.8655 C   0  0  0  0  0  0  0  0  0  0  0  0
  146.6474  138.1206  155.6063 O   0  0  0  0  0  0  0  0  0  0  0  0
  147.3409  136.7489  153.9481 N   0  0  0  0  0  0  0  0  0  0  0  0
  146.0688  136.0776  153.7169 C   0  0  0  0  0  0  0  0  0  0  0  0
  145.8148  135.8847  152.2131 C   0  0  2  0  0  0  0  0  0  0  0  0
  144.3379  135.8994  151.8245 C   0  0  0  0  0  0  0  0  0  0  0  0
  144.2940  135.1607  150.4811 C   0  0  0  0  0  0  0  0  0  0  0  0
  145.5414  134.3665  150.3878 N   0  3  2  0  0  0  0  0  0  0  0  0
  145.3354  132.9556  149.9974 C   0  0  0  0  0  0  0  0  0  0  0  0
  144.2358  132.7645  148.9804 C   0  0  0  0  0  0  0  0  0  0  0  0
  144.0003  132.3984  150.4298 C   0  0  0  0  0  0  0  0  0  0  0  0
  146.2766  134.5359  151.6579 C   0  0  0  0  0  0  0  0  0  0  0  0
  149.9970  137.4132  154.4121 C   0  0  0  0  0  0  0  0  0  0  0  0
  151.2627  137.8828  154.4651 C   0  0  0  0  0  0  0  0  0  0  0  0
  151.5788  139.1985  155.0226 C   0  0  0  0  0  0  0  0  0  0  0  0
  152.7248  139.6422  155.0863 O   0  0  0  0  0  0  0  0  0  0  0  0
  152.3557  143.2824  159.5338 H   0  0  0  0  0  0  0  0  0  0  0  0
  152.9843  141.7715  158.8753 H   0  0  0  0  0  0  0  0  0  0  0  0
  151.6309  141.7491  160.0208 H   0  0  0  0  0  0  0  0  0  0  0  0
  151.4727  140.3718  157.8770 H   0  0  0  0  0  0  0  0  0  0  0  0
  149.7961  140.8721  158.0367 H   0  0  0  0  0  0  0  0  0  0  0  0
  149.7298  141.8078  155.8224 H   0  0  0  0  0  0  0  0  0  0  0  0
  151.4529  141.7767  155.6405 H   0  0  0  0  0  0  0  0  0  0  0  0
  148.1232  136.4727  153.3722 H   0  0  0  0  0  0  0  0  0  0  0  0
  146.0634  135.1118  154.2254 H   0  0  0  0  0  0  0  0  0  0  0  0
  145.2687  136.6746  154.1570 H   0  0  0  0  0  0  0  0  0  0  0  0
  146.3205  136.6787  151.6602 H   0  0  0  0  0  0  0  0  0  0  0  0
  143.7522  135.3473  152.5611 H   0  0  0  0  0  0  0  0  0  0  0  0
  143.9274  136.9078  151.7637 H   0  0  0  0  0  0  0  0  0  0  0  0
  143.3992  134.5409  150.4050 H   0  0  0  0  0  0  0  0  0  0  0  0
  144.2760  135.8680  149.6516 H   0  0  0  0  0  0  0  0  0  0  0  0
  146.2204  132.3217  149.9806 H   0  0  0  0  0  0  0  0  0  0  0  0
  143.7296  133.6482  148.5962 H   0  0  0  0  0  0  0  0  0  0  0  0
  144.3434  131.9458  148.2718 H   0  0  0  0  0  0  0  0  0  0  0  0
  143.9535  131.3392  150.6740 H   0  0  0  0  0  0  0  0  0  0  0  0
  143.3372  133.0387  151.0092 H   0  0  0  0  0  0  0  0  0  0  0  0
  147.3550  134.4914  151.5013 H   0  0  0  0  0  0  0  0  0  0  0  0
  146.0041  133.7363  152.3495 H   0  0  0  0  0  0  0  0  0  0  0  0
  149.7932  136.4376  153.9949 H   0  0  0  0  0  0  0  0  0  0  0  0
  152.0671  137.2701  154.0849 H   0  0  0  0  0  0  0  0  0  0  0  0
  146.1010  134.8026  149.6690 H   0  0  0  0  0  0  0  0  0  0  0  0
  1  2  1  0  0  0  0
  1 24  1  0  0  0  0
  1 25  1  0  0  0  0
  1 26  1  0  0  0  0
  2  3  1  0  0  0  0
  3  4  1  0  0  0  0
  3 27  1  0  0  0  0
  3 28  1  0  0  0  0
  4  5  1  0  0  0  0
  4 29  1  0  0  0  0
  4 30  1  0  0  0  0
  5 22  1  0  0  0  0
  5  6  1  0  0  0  0
  6  7  2  0  0  0  0
  7  8  1  0  0  0  0
  7 20  1  0  0  0  0
  8  9  2  0  0  0  0
  8 10  1  0  0  0  0
 10 11  1  0  0  0  0
 10 31  1  0  0  0  0
 11 12  1  0  0  0  0
 11 32  1  0  0  0  0
 11 33  1  0  0  0  0
 12 19  1  0  0  0  0
 12 13  1  0  0  0  0
 12 34  1  0  0  0  0
 13 14  1  0  0  0  0
 13 35  1  0  0  0  0
 13 36  1  0  0  0  0
 14 15  1  0  0  0  0
 14 37  1  0  0  0  0
 14 38  1  0  0  0  0
 15 16  1  0  0  0  0
 15 19  1  0  0  0  0
 15 48  1  0  0  0  0
 16 18  1  0  0  0  0
 16 17  1  0  0  0  0
 16 39  1  0  0  0  0
 17 18  1  0  0  0  0
 17 40  1  0  0  0  0
 17 41  1  0  0  0  0
 18 42  1  0  0  0  0
 18 43  1  0  0  0  0
 19 44  1  0  0  0  0
 19 45  1  0  0  0  0
 20 21  2  0  0  0  0
 20 46  1  0  0  0  0
 21 22  1  0  0  0  0
 21 47  1  0  0  0  0
 22 23  2  0  0  0  0
M  CHG  1  15   1
M  END
> <s_m_source_file>
AV-unprocessed.smi

> <i_m_source_file_index>
1973

> <i_lp_mmshare_version>
43012

> <i_f3d_flags>
0

> <s_epik_input>
W0NIM11PW0NIMl1bQ0gyXW4xbmMoW2NIXVtjSF1jMT1PKUMoPU8pW05IXVtDSDJdW0NAQEhdMltDSDJdW0NIMl1OKFtDSDJdMilbQ0hdM1tDSDJdW0NIMl0z

> <s_epik_cmdline>
J2VwaWtfcHl0aG9uJywgJy1waCcsICc3LjAnLCAnLXRuJywgJzgnLCAnLW1hJywgJzIwMCcsICctbWV0YWxfYmluZGluZycsICctaW1hZScsICc8aW5maWxlLm1hZT4nLCAnLW9tYWUnLCAnPG91dGZpbGUubWFlPic=

> <r_lp_tautomer_probability>
1

> <r_epik_Ionization_Penalty>
0.000225706

> <r_epik_Ionization_Penalty_Charging>
0.000223776

> <r_epik_Ionization_Penalty_Neutral>
1.93004e-06

> <r_epik_State_Penalty>
-0

> <r_epik_Charging_Adjusted_Penalty>
0.000223776

> <i_epik_Tot_Q>
1

> <i_epik_Tot_abs_Q>
1

> <r_epik_Metal_State_Penalty>
-0

> <b_epik_Metal_Only>
0

> <s_lp_Force_Field>
OPLS_2005

> <r_lp_Energy>
60.0274

> <b_lp_Chiralities_Consistent>
1

> <s_lp_Variant>
AV-unprocessed.smi:1973-3

> <Gold.Version>
5.8.1

> <Gold.Id.Protein>
6NUR|6NUR_protein|mol2

> <Gold.PLP.Fitness>
46.6431

> <Gold.PLP.PLP>
-40.9508

> <Gold.PLP.part.hbond>
-4.0000

> <Gold.PLP.part.metal>
0.0000

> <Gold.PLP.part.buried>
-1.6022

> <Gold.PLP.part.nonpolar>
-35.2806

> <Gold.PLP.part.repulsive>
0.1937

> <Gold.PLP.ligand.clash>
0.0000

> <Gold.PLP.ligand.torsion>
2.0593

> <Gold.PLP.Chemscore.Hbond>
2.7020

> <Gold.PLP.Chemscore.CHOScore>
0.0000

> <Gold.PLP.Chemscore.Metal>
0.0000

> <Gold.Chemscore.Hbonds>
donor molecule, donor type, donor heavy atom, donor atom, acceptor molecule, acceptor atom, score
      L1  H    10    31       P1  7948  1.00
      L1  H    15    48       P1  7921  0.74
      P1  H  7997  8010       L1    23  1.00

> <Gold.PLP.Chemscore.Internal.Correction>
1.7050

> <Gold.Rescore>
     Score         DG    S(hbond)    S(metal)    S(lipo)     H(rot)  DE(clash)    DE(int)     intcor
     17.05     -19.05       2.42        0.00      89.93       1.97       0.18       1.83       ----

> <Gold.Chemscore.Fitness>
17.0459

> <Gold.Chemscore.DG>
-19.0478

> <Gold.Chemscore.ZeroCoef>
-5.4800

> <Gold.Chemscore.Hbond>
2.4227

> <Gold.Chemscore.Metal>
0.0000

> <Gold.Chemscore.Lipo>
89.9319

> <Gold.Chemscore.Internal_Hbond>
0.0000

> <Gold.Chemscore.DEClash>
0.1763

> <Gold.Chemscore.DEInternal>
1.8257

> <Gold.Chemscore.Rot>
1.9711

> <Gold.Chemscore.Internal.Correction>
   9.000000E+99

> <Gold.Chemscore.Hbonds>
donor molecule, donor type, donor heavy atom, donor atom, acceptor molecule, acceptor atom, score
      L1  H    10    31       P1  7948  0.98
      L1  H    15    48       P1  7921  0.42
      P1  H  7997  8010       L1    23  0.93

> <Gold.Chemscore.Hbond.Weighted>
-8.0918

> <Gold.Chemscore.Metal.Weighted>
-0.0000

> <Gold.Chemscore.Lipo.Weighted>
-10.5220

> <Gold.Chemscore.Internal_Hbond.Weighted>
0.0000

> <Gold.Chemscore.DEClash.Weighted>
0.1763

> <Gold.Chemscore.DEInternal.Weighted>
1.8257

> <Gold.Chemscore.Rot.Weighted>
5.0460

> <Gold.Chemscore.Internal.Correction.Weighted>
   9.000000E+99

> <Gold.Protein.RotatedTorsions>
[ 6907 6896 6895 6894 ] final   14.17 input  -60.11 | X-H torsion
[ 7974 7965 7964 7962 ] final  155.17 input  175.53 | X-H torsion
[ 8008 7997 7996 7995 ] final  115.64 input   59.86 | X-H torsion
[ 10167 10162 10161 10158 ] final  109.89 input  -65.29 | X-H torsion
[ 10718 10713 10712 10709 ] final   95.29 input   66.30 | X-H torsion
[ 10763 10752 10751 10750 ] final   71.22 input  -60.55 | X-H torsion
[ 11005 11000 10999 10996 ] final -101.46 input  -57.11 | X-H torsion

> <Gold.Protein.ActiveResidues>
 VAL166  LYS551  ARG553  GLY616  TRP617  ASP618  TYR619  PRO620  LYS621  CYS622 
 ASP623  PHE694  ASN695  SER759  ASP760  ASP761  ALA762  ILE779  LEU786  VAL792 
 PHE793  MET794  SER795  GLU796  ALA797  LYS798  CYS799  TRP800  GLU811  SER814 

> <Gold.Protein.RotatedAtoms>
  151.7979  135.0717  160.0395 H   0  0  0  0  0  0  0  0  0  0  0  0  # atno 6907 bound_to 6896
  152.3110  133.5748  159.5689 H   0  0  0  0  0  0  0  0  0  0  0  0  # atno 6908 bound_to 6896
  150.7320  134.0068  159.3698 H   0  0  0  0  0  0  0  0  0  0  0  0  # atno 6909 bound_to 6896
  144.8041  139.7033  143.6169 H   0  0  0  0  0  0  0  0  0  0  0  0  # atno 7974 bound_to 7965
  156.2393  140.2934  156.0400 H   0  0  0  0  0  0  0  0  0  0  0  0  # atno 8008 bound_to 7997
  155.1998  140.0409  157.2932 H   0  0  0  0  0  0  0  0  0  0  0  0  # atno 8009 bound_to 7997
  154.6138  140.2458  155.7642 H   0  0  0  0  0  0  0  0  0  0  0  0  # atno 8010 bound_to 7997
  139.6731  144.7124  151.1652 H   0  0  0  0  0  0  0  0  0  0  0  0  # atno 10167 bound_to 10162
  157.6940  131.0540  150.4316 H   0  0  0  0  0  0  0  0  0  0  0  0  # atno 10718 bound_to 10713
  153.0386  135.5145  154.7560 H   0  0  0  0  0  0  0  0  0  0  0  0  # atno 10763 bound_to 10752
  154.6516  135.2926  154.9982 H   0  0  0  0  0  0  0  0  0  0  0  0  # atno 10764 bound_to 10752
  154.0864  135.6656  153.4898 H   0  0  0  0  0  0  0  0  0  0  0  0  # atno 10765 bound_to 10752
  141.1230  133.8480  157.1235 H   0  0  0  0  0  0  0  0  0  0  0  0  # atno 11005 bound_to 11000
  146.2329  139.5849  142.9543 LP  0  0  0  0  0  0  0  0  0  0  0  0  # atno 17320 bound_to 7965
  145.5480  141.0415  143.2294 LP  0  0  0  0  0  0  0  0  0  0  0  0  # atno 17321 bound_to 7965
  140.7625  143.5814  150.8891 LP  0  0  0  0  0  0  0  0  0  0  0  0  # atno 17342 bound_to 10162
  139.9480  143.6304  152.3036 LP  0  0  0  0  0  0  0  0  0  0  0  0  # atno 17343 bound_to 10162
  156.4682  130.4047  149.6534 LP  0  0  0  0  0  0  0  0  0  0  0  0  # atno 17370 bound_to 10713
  156.3624  130.7488  151.2462 LP  0  0  0  0  0  0  0  0  0  0  0  0  # atno 17371 bound_to 10713
  140.0203  134.9949  157.0577 LP  0  0  0  0  0  0  0  0  0  0  0  0  # atno 17394 bound_to 11000
  140.4452  134.1640  155.7177 LP  0  0  0  0  0  0  0  0  0  0  0  0  # atno 17395 bound_to 11000

$$$$
