AV-unprocessed.smi:1087|AV-procd|sdf|4726|dock1
  -GOLD-   22720 3253D 1   1.00000     0.00000
 Structure written by MMmdl.
 47 48  0  0  0  0  0  0  0  0  2 V2000
  144.4059  132.9848  149.8500 C   0  0  0  0  0  0  0  0  0  0  0  0
  144.9635  132.4423  151.0343 O   0  0  0  0  0  0  0  0  0  0  0  0
  145.8513  131.3676  150.7755 C   0  0  0  0  0  0  0  0  0  0  0  0
  146.2260  130.7008  152.1080 C   0  0  0  0  0  0  0  0  0  0  0  0
  147.4707  131.2609  152.6937 N   0  3  2  0  0  0  0  0  0  0  0  0
  148.1797  130.2755  153.5494 C   0  0  0  0  0  0  0  0  0  0  0  0
  149.5317  130.8306  154.0289 C   0  0  0  0  0  0  0  0  0  0  0  0
  149.3732  132.1632  154.7908 C   0  0  2  0  0  0  0  0  0  0  0  0
  148.7409  132.0320  156.1974 C   0  0  0  0  0  0  0  0  0  0  0  0
  148.2591  133.3112  156.7095 N   0  0  0  0  0  0  0  0  0  0  0  0
  148.4762  133.7858  157.9458 C   0  0  0  0  0  0  0  0  0  0  0  0
  149.0876  133.1609  158.8133 O   0  0  0  0  0  0  0  0  0  0  0  0
  147.9115  135.1805  158.2455 C   0  0  0  0  0  0  0  0  0  0  0  0
  147.9042  135.4875  159.6848 N   0  0  0  0  0  0  0  0  0  0  0  0
  147.4200  134.5005  160.5595 C   0  0  0  0  0  0  0  0  0  0  0  0
  147.3914  134.7087  161.8838 C   0  0  0  0  0  0  0  0  0  0  0  0
  147.8886  136.0091  162.3512 C   0  0  0  0  0  0  0  0  0  0  0  0
  148.3346  136.9094  161.5569 N   0  0  0  0  0  0  0  0  0  0  0  0
  148.3662  136.6874  160.1672 C   0  0  0  0  0  0  0  0  0  0  0  0
  148.7987  137.5463  159.3981 O   0  0  0  0  0  0  0  0  0  0  0  0
  148.5935  133.1451  153.8961 C   0  0  0  0  0  0  0  0  0  0  0  0
  147.2605  132.5527  153.4004 C   0  0  0  0  0  0  0  0  0  0  0  0
  143.7340  133.8045  150.1043 H   0  0  0  0  0  0  0  0  0  0  0  0
  143.8307  132.2347  149.3054 H   0  0  0  0  0  0  0  0  0  0  0  0
  145.1820  133.3775  149.1919 H   0  0  0  0  0  0  0  0  0  0  0  0
  145.4051  130.6562  150.0806 H   0  0  0  0  0  0  0  0  0  0  0  0
  146.7547  131.7521  150.2997 H   0  0  0  0  0  0  0  0  0  0  0  0
  145.4093  130.7944  152.8252 H   0  0  0  0  0  0  0  0  0  0  0  0
  146.3512  129.6324  151.9255 H   0  0  0  0  0  0  0  0  0  0  0  0
  147.5498  130.0045  154.3975 H   0  0  0  0  0  0  0  0  0  0  0  0
  148.3559  129.3595  152.9845 H   0  0  0  0  0  0  0  0  0  0  0  0
  150.0510  130.0883  154.6342 H   0  0  0  0  0  0  0  0  0  0  0  0
  150.1701  130.9934  153.1596 H   0  0  0  0  0  0  0  0  0  0  0  0
  150.3722  132.5774  154.9353 H   0  0  0  0  0  0  0  0  0  0  0  0
  147.8822  131.3617  156.1465 H   0  0  0  0  0  0  0  0  0  0  0  0
  149.4339  131.5703  156.9014 H   0  0  0  0  0  0  0  0  0  0  0  0
  147.7395  133.8917  156.0668 H   0  0  0  0  0  0  0  0  0  0  0  0
  148.4826  135.9397  157.7076 H   0  0  0  0  0  0  0  0  0  0  0  0
  146.9027  135.2335  157.8339 H   0  0  0  0  0  0  0  0  0  0  0  0
  147.0890  133.5838  160.0935 H   0  0  0  0  0  0  0  0  0  0  0  0
  147.0366  133.9930  162.6104 H   0  0  0  0  0  0  0  0  0  0  0  0
  147.8545  136.1612  163.4331 H   0  0  0  0  0  0  0  0  0  0  0  0
  148.4126  134.0797  154.4282 H   0  0  0  0  0  0  0  0  0  0  0  0
  149.2067  133.4053  153.0321 H   0  0  0  0  0  0  0  0  0  0  0  0
  146.7880  133.2731  152.7342 H   0  0  0  0  0  0  0  0  0  0  0  0
  146.5734  132.4064  154.2347 H   0  0  0  0  0  0  0  0  0  0  0  0
  148.0884  131.4469  151.9161 H   0  0  0  0  0  0  0  0  0  0  0  0
  1  2  1  0  0  0  0
  1 23  1  0  0  0  0
  1 24  1  0  0  0  0
  1 25  1  0  0  0  0
  2  3  1  0  0  0  0
  3  4  1  0  0  0  0
  3 26  1  0  0  0  0
  3 27  1  0  0  0  0
  4  5  1  0  0  0  0
  4 28  1  0  0  0  0
  4 29  1  0  0  0  0
  5 22  1  0  0  0  0
  5  6  1  0  0  0  0
  5 47  1  0  0  0  0
  6  7  1  0  0  0  0
  6 30  1  0  0  0  0
  6 31  1  0  0  0  0
  7  8  1  0  0  0  0
  7 32  1  0  0  0  0
  7 33  1  0  0  0  0
  8  9  1  0  0  0  0
  8 21  1  0  0  0  0
  8 34  1  0  0  0  0
  9 10  1  0  0  0  0
  9 35  1  0  0  0  0
  9 36  1  0  0  0  0
 10 11  1  0  0  0  0
 10 37  1  0  0  0  0
 11 12  2  0  0  0  0
 11 13  1  0  0  0  0
 13 14  1  0  0  0  0
 13 38  1  0  0  0  0
 13 39  1  0  0  0  0
 14 19  1  0  0  0  0
 14 15  1  0  0  0  0
 15 16  2  0  0  0  0
 15 40  1  0  0  0  0
 16 17  1  0  0  0  0
 16 41  1  0  0  0  0
 17 18  2  0  0  0  0
 17 42  1  0  0  0  0
 18 19  1  0  0  0  0
 19 20  2  0  0  0  0
 21 22  1  0  0  0  0
 21 43  1  0  0  0  0
 21 44  1  0  0  0  0
 22 45  1  0  0  0  0
 22 46  1  0  0  0  0
M  CHG  1   5   1
M  END
> <s_m_source_file>
AV-unprocessed.smi

> <i_m_source_file_index>
1087

> <i_lp_mmshare_version>
43012

> <i_f3d_flags>
0

> <s_epik_input>
W0NIM11PW0NIMl1bQ0gyXU4xW0NIMl1bQ0gyXVtDSF0oW0NIMl1bQ0gyXTEpW0NIMl1bTkhdQyg9TylbQ0gyXW4yW2NIXVtjSF1bY0hdbmMyPU8=

> <s_epik_cmdline>
J2VwaWtfcHl0aG9uJywgJy1waCcsICc3LjAnLCAnLXRuJywgJzgnLCAnLW1hJywgJzIwMCcsICctbWV0YWxfYmluZGluZycsICctaW1hZScsICc8aW5maWxlLm1hZT4nLCAnLW9tYWUnLCAnPG91dGZpbGUubWFlPic=

> <r_lp_tautomer_probability>
1

> <r_epik_Ionization_Penalty>
0.00982698

> <r_epik_Ionization_Penalty_Charging>
0.00982062

> <r_epik_Ionization_Penalty_Neutral>
6.35787e-06

> <r_epik_State_Penalty>
0.00747828

> <r_epik_Charging_Adjusted_Penalty>
0.0172989

> <i_epik_Tot_Q>
1

> <i_epik_Tot_abs_Q>
1

> <r_epik_Metal_State_Penalty>
0.00747829

> <b_epik_Metal_Only>
0

> <s_lp_Force_Field>
OPLS_2005

> <r_lp_Energy>
23.2089

> <b_lp_Chiralities_Consistent>
1

> <s_lp_Variant>
AV-unprocessed.smi:1087-2

> <Gold.Version>
5.8.1

> <Gold.Id.Protein>
6NUR|6NUR_protein|mol2

> <Gold.PLP.Fitness>
44.9733

> <Gold.PLP.PLP>
-37.8398

> <Gold.PLP.part.hbond>
-4.7388

> <Gold.PLP.part.metal>
0.0000

> <Gold.PLP.part.buried>
-4.9929

> <Gold.PLP.part.nonpolar>
-28.6858

> <Gold.PLP.part.repulsive>
0.1283

> <Gold.PLP.ligand.clash>
0.0000

> <Gold.PLP.ligand.torsion>
1.0604

> <Gold.PLP.Chemscore.Hbond>
2.9840

> <Gold.PLP.Chemscore.CHOScore>
0.0000

> <Gold.PLP.Chemscore.Metal>
0.0000

> <Gold.Chemscore.Hbonds>
donor molecule, donor type, donor heavy atom, donor atom, acceptor molecule, acceptor atom, score
      L1  H     5    47       P1 10747  1.00
      P1  H  6896  6908       L1    12  1.00
      P1  H  6931  6943       L1    18  1.00

> <Gold.PLP.Chemscore.Internal.Correction>
0.3023

> <Gold.Rescore>
     Score         DG    S(hbond)    S(metal)    S(lipo)     H(rot)  DE(clash)    DE(int)     intcor
     17.51     -18.46       2.90        0.00      81.84       2.45       0.00       0.95       ----

> <Gold.Chemscore.Fitness>
17.5097

> <Gold.Chemscore.DG>
-18.4641

> <Gold.Chemscore.ZeroCoef>
-5.4800

> <Gold.Chemscore.Hbond>
2.8950

> <Gold.Chemscore.Metal>
0.0000

> <Gold.Chemscore.Lipo>
81.8385

> <Gold.Chemscore.Internal_Hbond>
0.0000

> <Gold.Chemscore.DEClash>
0.0000

> <Gold.Chemscore.DEInternal>
0.9544

> <Gold.Chemscore.Rot>
2.4454

> <Gold.Chemscore.Internal.Correction>
   9.000000E+99

> <Gold.Chemscore.Hbonds>
donor molecule, donor type, donor heavy atom, donor atom, acceptor molecule, acceptor atom, score
      L1  H     5    47       P1 10747  0.93
      P1  H  6896  6908       L1    12  0.82
      P1  H  6931  6943       L1    18  0.75

> <Gold.Chemscore.Hbond.Weighted>
-9.6693

> <Gold.Chemscore.Metal.Weighted>
-0.0000

> <Gold.Chemscore.Lipo.Weighted>
-9.5751

> <Gold.Chemscore.Internal_Hbond.Weighted>
0.0000

> <Gold.Chemscore.DEClash.Weighted>
0.0000

> <Gold.Chemscore.DEInternal.Weighted>
0.9544

> <Gold.Chemscore.Rot.Weighted>
6.2603

> <Gold.Chemscore.Internal.Correction.Weighted>
   9.000000E+99

> <Gold.Protein.RotatedTorsions>
[ 6907 6896 6895 6894 ] final  135.09 input  -60.11 | X-H torsion
[ 7974 7965 7964 7962 ] final   -6.48 input  175.53 | X-H torsion
[ 8008 7997 7996 7995 ] final  -33.42 input   59.86 | X-H torsion
[ 10167 10162 10161 10158 ] final  -64.50 input  -65.29 | X-H torsion
[ 10718 10713 10712 10709 ] final  -73.33 input   66.30 | X-H torsion
[ 10763 10752 10751 10750 ] final   96.19 input  -60.55 | X-H torsion
[ 11005 11000 10999 10996 ] final  111.12 input  -57.11 | X-H torsion

> <Gold.Protein.ActiveResidues>
 VAL166  LYS551  ARG553  GLY616  TRP617  ASP618  TYR619  PRO620  LYS621  CYS622 
 ASP623  PHE694  ASN695  SER759  ASP760  ASP761  ALA762  ILE779  LEU786  VAL792 
 PHE793  MET794  SER795  GLU796  ALA797  LYS798  CYS799  TRP800  GLU811  SER814 

> <Gold.Protein.RotatedAtoms>
  152.3042  133.5686  159.5637 H   0  0  0  0  0  0  0  0  0  0  0  0  # atno 6907 bound_to 6896
  150.7292  134.0247  159.3722 H   0  0  0  0  0  0  0  0  0  0  0  0  # atno 6908 bound_to 6896
  151.8145  135.0671  160.0468 H   0  0  0  0  0  0  0  0  0  0  0  0  # atno 6909 bound_to 6896
  146.2330  140.2176  142.8336 H   0  0  0  0  0  0  0  0  0  0  0  0  # atno 7974 bound_to 7965
  154.4149  140.1711  156.1885 H   0  0  0  0  0  0  0  0  0  0  0  0  # atno 8008 bound_to 7997
  155.9623  140.3392  155.6478 H   0  0  0  0  0  0  0  0  0  0  0  0  # atno 8009 bound_to 7997
  155.6733  140.0714  157.2503 H   0  0  0  0  0  0  0  0  0  0  0  0  # atno 8010 bound_to 7997
  140.5796  143.2326  151.6370 H   0  0  0  0  0  0  0  0  0  0  0  0  # atno 10167 bound_to 10162
  156.0284  130.4392  150.2726 H   0  0  0  0  0  0  0  0  0  0  0  0  # atno 10718 bound_to 10713
  153.2621  135.4227  155.0904 H   0  0  0  0  0  0  0  0  0  0  0  0  # atno 10763 bound_to 10752
  154.8424  135.3451  154.6363 H   0  0  0  0  0  0  0  0  0  0  0  0  # atno 10764 bound_to 10752
  153.6783  135.7040  153.5183 H   0  0  0  0  0  0  0  0  0  0  0  0  # atno 10765 bound_to 10752
  139.8896  134.9500  156.6383 H   0  0  0  0  0  0  0  0  0  0  0  0  # atno 11005 bound_to 11000
  144.9657  140.8319  143.5486 LP  0  0  0  0  0  0  0  0  0  0  0  0  # atno 17320 bound_to 7965
  145.2152  139.2185  143.5122 LP  0  0  0  0  0  0  0  0  0  0  0  0  # atno 17321 bound_to 7965
  139.5162  144.3353  152.0789 LP  0  0  0  0  0  0  0  0  0  0  0  0  # atno 17342 bound_to 10162
  140.2502  144.4177  150.6225 LP  0  0  0  0  0  0  0  0  0  0  0  0  # atno 17343 bound_to 10162
  157.0829  131.0148  151.3150 LP  0  0  0  0  0  0  0  0  0  0  0  0  # atno 17370 bound_to 10713
  157.4913  130.7824  149.7511 LP  0  0  0  0  0  0  0  0  0  0  0  0  # atno 17371 bound_to 10713
  140.7613  133.8815  155.8420 LP  0  0  0  0  0  0  0  0  0  0  0  0  # atno 17394 bound_to 11000
  140.9919  134.1267  157.4400 LP  0  0  0  0  0  0  0  0  0  0  0  0  # atno 17395 bound_to 11000

$$$$
