AV-unprocessed.smi:2083|AV-procd|sdf|8499|dock2
  -GOLD-   2272011213D 1   1.00000     0.00000
 Structure written by MMmdl.
 44 45  0  0  0  0  0  0  0  0  3 V2000
  146.5276  134.0673  162.4485 C   0  0  0  0  0  0  0  0  0  0  0  0
  147.0455  135.1544  161.5704 C   0  0  0  0  0  0  0  0  0  0  0  0
  147.7591  135.1458  160.4055 C   0  0  0  0  0  0  0  0  0  0  0  0
  147.9218  136.5277  160.1141 C   0  0  0  0  0  0  0  0  0  0  0  0
  148.5570  137.0408  159.0493 N   0  5  0  0  0  0  0  0  0  0  0  0
  148.8389  136.2583  157.9832 C   0  0  0  0  0  0  0  0  0  0  0  0
  149.6862  135.3634  157.9345 O   0  0  0  0  0  0  0  0  0  0  0  0
  148.0867  136.5248  156.9059 N   0  0  0  0  0  0  0  0  0  0  0  0
  148.1572  135.8292  155.6244 C   0  0  0  0  0  0  0  0  0  0  0  0
  146.9060  136.0745  154.7347 C   0  0  1  0  0  0  0  0  0  0  0  0
  146.7472  137.5835  154.4406 C   0  0  0  0  0  0  0  0  0  0  0  0
  146.9017  135.3028  153.4481 N   0  3  1  0  0  0  0  0  0  0  0  0
  147.1880  133.8426  153.5607 C   0  0  0  0  0  0  0  0  0  0  0  0
  147.2819  133.1745  152.1787 C   0  0  0  0  0  0  0  0  0  0  0  0
  146.0126  133.4116  151.3560 C   0  0  0  0  0  0  0  0  0  0  0  0
  145.7310  134.9174  151.2546 C   0  0  1  0  0  0  0  0  0  0  0  0
  144.4544  135.1948  150.4482 C   0  0  0  0  0  0  0  0  0  0  0  0
  145.6533  135.5344  152.6646 C   0  0  0  0  0  0  0  0  0  0  0  0
  147.3426  137.3057  161.0130 N   0  0  0  0  0  0  0  0  0  0  0  0
  146.7829  136.4327  161.9535 O   0  0  0  0  0  0  0  0  0  0  0  0
  145.7333  133.5140  161.9477 H   0  0  0  0  0  0  0  0  0  0  0  0
  146.1246  134.4704  163.3779 H   0  0  0  0  0  0  0  0  0  0  0  0
  147.3222  133.3657  162.7023 H   0  0  0  0  0  0  0  0  0  0  0  0
  148.1125  134.2889  159.8522 H   0  0  0  0  0  0  0  0  0  0  0  0
  147.4097  137.2695  156.9875 H   0  0  0  0  0  0  0  0  0  0  0  0
  149.0572  136.1698  155.1114 H   0  0  0  0  0  0  0  0  0  0  0  0
  148.2972  134.7687  155.8379 H   0  0  0  0  0  0  0  0  0  0  0  0
  146.0384  135.7469  155.3097 H   0  0  0  0  0  0  0  0  0  0  0  0
  146.6707  138.1676  155.3579 H   0  0  0  0  0  0  0  0  0  0  0  0
  145.8506  137.8080  153.8657 H   0  0  0  0  0  0  0  0  0  0  0  0
  147.6007  137.9646  153.8792 H   0  0  0  0  0  0  0  0  0  0  0  0
  148.1428  133.6708  154.0558 H   0  0  0  0  0  0  0  0  0  0  0  0
  146.4151  133.3625  154.1632 H   0  0  0  0  0  0  0  0  0  0  0  0
  148.1452  133.5682  151.6405 H   0  0  0  0  0  0  0  0  0  0  0  0
  147.4538  132.1039  152.2946 H   0  0  0  0  0  0  0  0  0  0  0  0
  146.1275  132.9774  150.3621 H   0  0  0  0  0  0  0  0  0  0  0  0
  145.1691  132.9029  151.8254 H   0  0  0  0  0  0  0  0  0  0  0  0
  146.5620  135.3855  150.7246 H   0  0  0  0  0  0  0  0  0  0  0  0
  143.5787  134.7552  150.9268 H   0  0  0  0  0  0  0  0  0  0  0  0
  144.5272  134.7798  149.4425 H   0  0  0  0  0  0  0  0  0  0  0  0
  144.2766  136.2660  150.3490 H   0  0  0  0  0  0  0  0  0  0  0  0
  144.8049  135.1159  153.2092 H   0  0  0  0  0  0  0  0  0  0  0  0
  145.4572  136.6006  152.5643 H   0  0  0  0  0  0  0  0  0  0  0  0
  147.6622  135.6815  152.9023 H   0  0  0  0  0  0  0  0  0  0  0  0
  1  2  1  0  0  0  0
  1 21  1  0  0  0  0
  1 22  1  0  0  0  0
  1 23  1  0  0  0  0
  2 20  1  0  0  0  0
  2  3  2  0  0  0  0
  3  4  1  0  0  0  0
  3 24  1  0  0  0  0
  4  5  1  0  0  0  0
  4 19  2  0  0  0  0
  5  6  1  0  0  0  0
  6  7  2  0  0  0  0
  6  8  1  0  0  0  0
  8  9  1  0  0  0  0
  8 25  1  0  0  0  0
  9 10  1  0  0  0  0
  9 26  1  0  0  0  0
  9 27  1  0  0  0  0
 10 11  1  0  0  0  0
 10 12  1  0  0  0  0
 10 28  1  0  0  0  0
 11 29  1  0  0  0  0
 11 30  1  0  0  0  0
 11 31  1  0  0  0  0
 12 18  1  0  0  0  0
 12 13  1  0  0  0  0
 12 44  1  0  0  0  0
 13 14  1  0  0  0  0
 13 32  1  0  0  0  0
 13 33  1  0  0  0  0
 14 15  1  0  0  0  0
 14 34  1  0  0  0  0
 14 35  1  0  0  0  0
 15 16  1  0  0  0  0
 15 36  1  0  0  0  0
 15 37  1  0  0  0  0
 16 17  1  0  0  0  0
 16 18  1  0  0  0  0
 16 38  1  0  0  0  0
 17 39  1  0  0  0  0
 17 40  1  0  0  0  0
 17 41  1  0  0  0  0
 18 42  1  0  0  0  0
 18 43  1  0  0  0  0
 19 20  1  0  0  0  0
M  CHG  1   5  -1
M  CHG  1  12   1
M  END
> <s_m_source_file>
AV-unprocessed.smi

> <i_m_source_file_index>
2083

> <i_lp_mmshare_version>
43012

> <i_f3d_flags>
0

> <s_epik_input>
W0NIM11jMVtjSF1jKG5vMSlbTkhdQyg9TylbTkhdW0NIMl1bQ0BIXShbQ0gzXSlOMltDSDJdW0NIMl1bQ0gyXVtDQEBIXShbQ0gzXSlbQ0gyXTI=

> <s_epik_cmdline>
J2VwaWtfcHl0aG9uJywgJy1waCcsICc3LjAnLCAnLXRuJywgJzgnLCAnLW1hJywgJzIwMCcsICctbWV0YWxfYmluZGluZycsICctaW1hZScsICc8aW5maWxlLm1hZT4nLCAnLW9tYWUnLCAnPG91dGZpbGUubWFlPic=

> <r_epik_Ionization_Penalty>
6.22434

> <r_epik_Ionization_Penalty_Charging>
6.22425

> <r_epik_Ionization_Penalty_Neutral>
9.62407e-05

> <r_epik_State_Penalty>
6.22423

> <r_epik_Charging_Adjusted_Penalty>
12.4485

> <i_epik_Tot_Q>
0

> <i_epik_Tot_abs_Q>
2

> <r_epik_Metal_State_Penalty>
2.16764

> <b_epik_Metal_Only>
1

> <s_lp_Force_Field>
OPLS_2005

> <r_lp_Energy>
9.18004

> <b_lp_Chiralities_Consistent>
1

> <s_lp_Variant>
AV-unprocessed.smi:2083-10

> <Gold.Version>
5.8.1

> <Gold.Id.Protein>
6NUR|6NUR_protein|mol2

> <Gold.PLP.Fitness>
43.3383

> <Gold.PLP.PLP>
-30.5681

> <Gold.PLP.part.hbond>
-4.0000

> <Gold.PLP.part.metal>
0.0000

> <Gold.PLP.part.buried>
-4.4408

> <Gold.PLP.part.nonpolar>
-22.2157

> <Gold.PLP.part.repulsive>
0.0045

> <Gold.PLP.ligand.clash>
0.0000

> <Gold.PLP.ligand.torsion>
0.8901

> <Gold.PLP.Chemscore.Hbond>
4.8000

> <Gold.PLP.Chemscore.CHOScore>
0.0000

> <Gold.PLP.Chemscore.Metal>
0.0000

> <Gold.Chemscore.Hbonds>
donor molecule, donor type, donor heavy atom, donor atom, acceptor molecule, acceptor atom, score
      L1  H    12    44       P1  7948  2.00
      P1  H  6896  6907       L1     7  0.99
      P1  H  6931  6943       L1    19  0.60
      P1  H  6934  6947       L1    19  1.00

> <Gold.PLP.Chemscore.Internal.Correction>
0.1504

> <Gold.Rescore>
     Score         DG    S(hbond)    S(metal)    S(lipo)     H(rot)  DE(clash)    DE(int)     intcor
     19.22     -20.19       3.52        0.00      58.39       1.52       0.03       0.94       ----

> <Gold.Chemscore.Fitness>
19.2219

> <Gold.Chemscore.DG>
-20.1925

> <Gold.Chemscore.ZeroCoef>
-5.4800

> <Gold.Chemscore.Hbond>
3.5239

> <Gold.Chemscore.Metal>
0.0000

> <Gold.Chemscore.Lipo>
58.3879

> <Gold.Chemscore.Internal_Hbond>
0.0000

> <Gold.Chemscore.DEClash>
0.0310

> <Gold.Chemscore.DEInternal>
0.9396

> <Gold.Chemscore.Rot>
1.5190

> <Gold.Chemscore.Internal.Correction>
   9.000000E+99

> <Gold.Chemscore.Hbonds>
donor molecule, donor type, donor heavy atom, donor atom, acceptor molecule, acceptor atom, score
      L1  H    12    44       P1  7948  1.00
      P1  H  6896  6907       L1     7  0.88
      P1  H  6931  6943       L1    19  0.14
      P1  H  6934  6947       L1    19  0.97

> <Gold.Chemscore.Hbond.Weighted>
-11.7698

> <Gold.Chemscore.Metal.Weighted>
-0.0000

> <Gold.Chemscore.Lipo.Weighted>
-6.8314

> <Gold.Chemscore.Internal_Hbond.Weighted>
0.0000

> <Gold.Chemscore.DEClash.Weighted>
0.0310

> <Gold.Chemscore.DEInternal.Weighted>
0.9396

> <Gold.Chemscore.Rot.Weighted>
3.8886

> <Gold.Chemscore.Internal.Correction.Weighted>
   9.000000E+99

> <Gold.Protein.RotatedTorsions>
[ 6907 6896 6895 6894 ] final  -79.64 input  -60.11 | X-H torsion
[ 7974 7965 7964 7962 ] final  -22.25 input  175.53 | X-H torsion
[ 8008 7997 7996 7995 ] final -166.72 input   59.86 | X-H torsion
[ 10167 10162 10161 10158 ] final   98.75 input  -65.29 | X-H torsion
[ 10718 10713 10712 10709 ] final  -23.90 input   66.30 | X-H torsion
[ 10763 10752 10751 10750 ] final  166.08 input  -60.55 | X-H torsion
[ 11005 11000 10999 10996 ] final  -68.67 input  -57.11 | X-H torsion

> <Gold.Protein.ActiveResidues>
 VAL166  LYS551  ARG553  GLY616  TRP617  ASP618  TYR619  PRO620  LYS621  CYS622 
 ASP623  PHE694  ASN695  SER759  ASP760  ASP761  ALA762  ILE779  LEU786  VAL792 
 PHE793  MET794  SER795  GLU796  ALA797  LYS798  CYS799  TRP800  GLU811  SER814 

> <Gold.Protein.RotatedAtoms>
  150.6945  134.4091  159.5153 H   0  0  0  0  0  0  0  0  0  0  0  0  # atno 6907 bound_to 6896
  152.1852  134.8717  160.0532 H   0  0  0  0  0  0  0  0  0  0  0  0  # atno 6908 bound_to 6896
  151.9693  133.3685  159.4102 H   0  0  0  0  0  0  0  0  0  0  0  0  # atno 6909 bound_to 6896
  146.1686  140.4454  142.8541 H   0  0  0  0  0  0  0  0  0  0  0  0  # atno 7974 bound_to 7965
  155.8678  140.0988  157.1570 H   0  0  0  0  0  0  0  0  0  0  0  0  # atno 8008 bound_to 7997
  154.3995  140.1353  156.4103 H   0  0  0  0  0  0  0  0  0  0  0  0  # atno 8009 bound_to 7997
  155.7784  140.3459  155.5287 H   0  0  0  0  0  0  0  0  0  0  0  0  # atno 8010 bound_to 7997
  139.7680  144.6932  151.0196 H   0  0  0  0  0  0  0  0  0  0  0  0  # atno 10167 bound_to 10162
  156.4849  130.4553  149.6790 H   0  0  0  0  0  0  0  0  0  0  0  0  # atno 10718 bound_to 10713
  154.3337  135.2754  155.2458 H   0  0  0  0  0  0  0  0  0  0  0  0  # atno 10763 bound_to 10752
  154.4759  135.5871  153.6358 H   0  0  0  0  0  0  0  0  0  0  0  0  # atno 10764 bound_to 10752
  152.9864  135.6099  154.3532 H   0  0  0  0  0  0  0  0  0  0  0  0  # atno 10765 bound_to 10752
  141.1537  133.6746  156.6481 H   0  0  0  0  0  0  0  0  0  0  0  0  # atno 11005 bound_to 11000
  144.8129  140.6418  143.6403 LP  0  0  0  0  0  0  0  0  0  0  0  0  # atno 17320 bound_to 7965
  145.4401  139.1537  143.3975 LP  0  0  0  0  0  0  0  0  0  0  0  0  # atno 17321 bound_to 7965
  140.7812  143.4620  151.0264 LP  0  0  0  0  0  0  0  0  0  0  0  0  # atno 17342 bound_to 10162
  139.8305  143.7697  152.3179 LP  0  0  0  0  0  0  0  0  0  0  0  0  # atno 17343 bound_to 10162
  156.3485  130.7419  151.2375 LP  0  0  0  0  0  0  0  0  0  0  0  0  # atno 17370 bound_to 10713
  157.7480  131.0384  150.4500 LP  0  0  0  0  0  0  0  0  0  0  0  0  # atno 17371 bound_to 10713
  140.3341  134.7904  157.4349 LP  0  0  0  0  0  0  0  0  0  0  0  0  # atno 17394 bound_to 11000
  140.0992  134.5496  155.8369 LP  0  0  0  0  0  0  0  0  0  0  0  0  # atno 17395 bound_to 11000

$$$$
