AV-unprocessed.smi:3336|AV-procd|sdf|12854|dock9
  -GOLD-   2272019243D 1   1.00000     0.00000
 Structure written by MMmdl.
 42 43  0  0  0  0  0  0  0  0  2 V2000
  151.6771  141.4911  157.9362 C   0  0  0  0  0  0  0  0  0  0  0  0
  150.6400  142.5941  157.6507 C   0  0  1  0  0  0  0  0  0  0  0  0
  151.1564  143.9967  158.0323 C   0  0  0  0  0  0  0  0  0  0  0  0
  151.4169  144.1408  159.4536 N   0  0  0  0  0  0  0  0  0  0  0  0
  150.9081  145.0760  160.3305 C   0  0  0  0  0  0  0  0  0  0  0  0
  151.4320  144.8051  161.5620 C   0  0  0  0  0  0  0  0  0  0  0  0
  152.2541  143.6654  161.3369 C   0  0  0  0  0  0  0  0  0  0  0  0
  152.2404  143.2687  160.0744 N   0  0  0  0  0  0  0  0  0  0  0  0
  150.2471  142.5915  156.2214 N   0  3  0  0  0  0  0  0  0  0  0  0
  149.5805  141.3611  155.7271 C   0  0  2  0  0  0  0  0  0  0  0  0
  150.6421  140.4204  155.1326 C   0  0  0  0  0  0  0  0  0  0  0  0
  148.5001  141.6844  154.6716 C   0  0  0  0  0  0  0  0  0  0  0  0
  148.8755  142.0248  153.5480 O   0  0  0  0  0  0  0  0  0  0  0  0
  147.1840  141.5870  154.9869 N   0  0  0  0  0  0  0  0  0  0  0  0
  146.7145  141.1638  156.3109 C   0  0  0  0  0  0  0  0  0  0  0  0
  145.9409  142.3274  156.9540 C   0  0  0  0  0  0  0  0  0  0  0  0
  144.8528  142.6976  156.1121 O   0  0  0  0  0  0  0  0  0  0  0  0
  145.2690  143.0946  154.8087 C   0  0  0  0  0  0  0  0  0  0  0  0
  146.0438  141.9466  154.1349 C   0  0  0  0  0  0  0  0  0  0  0  0
  151.9354  141.4523  158.9947 H   0  0  0  0  0  0  0  0  0  0  0  0
  152.5981  141.6613  157.3775 H   0  0  0  0  0  0  0  0  0  0  0  0
  151.3049  140.5031  157.6670 H   0  0  0  0  0  0  0  0  0  0  0  0
  149.7522  142.3952  158.2525 H   0  0  0  0  0  0  0  0  0  0  0  0
  152.0755  144.2219  157.4892 H   0  0  0  0  0  0  0  0  0  0  0  0
  150.4298  144.7578  157.7436 H   0  0  0  0  0  0  0  0  0  0  0  0
  150.2250  145.8490  160.0098 H   0  0  0  0  0  0  0  0  0  0  0  0
  151.2527  145.3373  162.4843 H   0  0  0  0  0  0  0  0  0  0  0  0
  152.8547  143.1178  162.0484 H   0  0  0  0  0  0  0  0  0  0  0  0
  149.6026  143.3550  156.0698 H   0  0  0  0  0  0  0  0  0  0  0  0
  149.1267  140.8797  156.5909 H   0  0  0  0  0  0  0  0  0  0  0  0
  150.2065  139.4838  154.7844 H   0  0  0  0  0  0  0  0  0  0  0  0
  151.3974  140.1671  155.8772 H   0  0  0  0  0  0  0  0  0  0  0  0
  151.1539  140.8800  154.2860 H   0  0  0  0  0  0  0  0  0  0  0  0
  146.0637  140.2950  156.2019 H   0  0  0  0  0  0  0  0  0  0  0  0
  147.5220  140.8515  156.9742 H   0  0  0  0  0  0  0  0  0  0  0  0
  145.5497  142.0289  157.9266 H   0  0  0  0  0  0  0  0  0  0  0  0
  146.5946  143.1851  157.1203 H   0  0  0  0  0  0  0  0  0  0  0  0
  144.3878  143.3519  154.2206 H   0  0  0  0  0  0  0  0  0  0  0  0
  145.8827  143.9944  154.8732 H   0  0  0  0  0  0  0  0  0  0  0  0
  146.3151  142.2524  153.1276 H   0  0  0  0  0  0  0  0  0  0  0  0
  145.3956  141.0768  154.0181 H   0  0  0  0  0  0  0  0  0  0  0  0
  151.0765  142.7599  155.6705 H   0  0  0  0  0  0  0  0  0  0  0  0
  1  2  1  0  0  0  0
  1 20  1  0  0  0  0
  1 21  1  0  0  0  0
  1 22  1  0  0  0  0
  2  3  1  0  0  0  0
  2  9  1  0  0  0  0
  2 23  1  0  0  0  0
  3  4  1  0  0  0  0
  3 24  1  0  0  0  0
  3 25  1  0  0  0  0
  4  8  1  0  0  0  0
  4  5  1  0  0  0  0
  5  6  2  0  0  0  0
  5 26  1  0  0  0  0
  6  7  1  0  0  0  0
  6 27  1  0  0  0  0
  7  8  2  0  0  0  0
  7 28  1  0  0  0  0
  9 10  1  0  0  0  0
  9 29  1  0  0  0  0
  9 42  1  0  0  0  0
 10 11  1  0  0  0  0
 10 12  1  0  0  0  0
 10 30  1  0  0  0  0
 11 31  1  0  0  0  0
 11 32  1  0  0  0  0
 11 33  1  0  0  0  0
 12 13  2  0  0  0  0
 12 14  1  0  0  0  0
 14 19  1  0  0  0  0
 14 15  1  0  0  0  0
 15 16  1  0  0  0  0
 15 34  1  0  0  0  0
 15 35  1  0  0  0  0
 16 17  1  0  0  0  0
 16 36  1  0  0  0  0
 16 37  1  0  0  0  0
 17 18  1  0  0  0  0
 18 19  1  0  0  0  0
 18 38  1  0  0  0  0
 18 39  1  0  0  0  0
 19 40  1  0  0  0  0
 19 41  1  0  0  0  0
M  CHG  1   9   1
M  END
> <s_m_source_file>
AV-unprocessed.smi

> <i_m_source_file_index>
3336

> <i_lp_mmshare_version>
43012

> <i_f3d_flags>
0

> <s_epik_input>
bjFbY0hdW2NIXVtjSF1uMVtDSDJdW0NAQEhdKFtDSDNdKVtOSF1bQ0BIXShbQ0gzXSlDKD1PKU4yW0NIMl1bQ0gyXU9bQ0gyXVtDSDJdMg==

> <s_epik_cmdline>
J2VwaWtfcHl0aG9uJywgJy1waCcsICc3LjAnLCAnLXRuJywgJzgnLCAnLW1hJywgJzIwMCcsICctbWV0YWxfYmluZGluZycsICctaW1hZScsICc8aW5maWxlLm1hZT4nLCAnLW9tYWUnLCAnPG91dGZpbGUubWFlPic=

> <r_lp_tautomer_probability>
1

> <r_epik_Ionization_Penalty>
0.200288

> <r_epik_Ionization_Penalty_Charging>
0.200285

> <r_epik_Ionization_Penalty_Neutral>
3.37705e-06

> <r_epik_State_Penalty>
0.190126

> <r_epik_Charging_Adjusted_Penalty>
0.39041

> <i_epik_Tot_Q>
1

> <i_epik_Tot_abs_Q>
1

> <r_epik_Metal_State_Penalty>
0.190133

> <b_epik_Metal_Only>
0

> <s_lp_Force_Field>
OPLS_2005

> <r_lp_Energy>
27.5118

> <b_lp_Chiralities_Consistent>
1

> <s_lp_Variant>
AV-unprocessed.smi:3336-2

> <Gold.Version>
5.8.1

> <Gold.Id.Protein>
6NUR|6NUR_protein|mol2

> <Gold.PLP.Fitness>
46.3553

> <Gold.PLP.PLP>
-40.1393

> <Gold.PLP.part.hbond>
-1.9617

> <Gold.PLP.part.metal>
0.0000

> <Gold.PLP.part.buried>
-4.4630

> <Gold.PLP.part.nonpolar>
-34.1122

> <Gold.PLP.part.repulsive>
0.5075

> <Gold.PLP.ligand.clash>
0.0000

> <Gold.PLP.ligand.torsion>
0.7972

> <Gold.PLP.Chemscore.Hbond>
2.5760

> <Gold.PLP.Chemscore.CHOScore>
0.0000

> <Gold.PLP.Chemscore.Metal>
0.0000

> <Gold.Chemscore.Hbonds>
donor molecule, donor type, donor heavy atom, donor atom, acceptor molecule, acceptor atom, score
      L1  H     9    29       P1  8028  2.00
      P1  H  8011  8017       L1    13  0.48

> <Gold.PLP.Chemscore.Internal.Correction>
0.0824

> <Gold.Rescore>
     Score         DG    S(hbond)    S(metal)    S(lipo)     H(rot)  DE(clash)    DE(int)     intcor
     13.14     -16.80       1.87        0.00      83.96       1.85       2.82       0.84       ----

> <Gold.Chemscore.Fitness>
13.1363

> <Gold.Chemscore.DG>
-16.7977

> <Gold.Chemscore.ZeroCoef>
-5.4800

> <Gold.Chemscore.Hbond>
1.8684

> <Gold.Chemscore.Metal>
0.0000

> <Gold.Chemscore.Lipo>
83.9645

> <Gold.Chemscore.Internal_Hbond>
0.0000

> <Gold.Chemscore.DEClash>
2.8217

> <Gold.Chemscore.DEInternal>
0.8396

> <Gold.Chemscore.Rot>
1.8541

> <Gold.Chemscore.Internal.Correction>
   9.000000E+99

> <Gold.Chemscore.Hbonds>
donor molecule, donor type, donor heavy atom, donor atom, acceptor molecule, acceptor atom, score
      L1  H     9    29       P1  8028  0.98
      P1  H  8011  8017       L1    13  0.46

> <Gold.Chemscore.Hbond.Weighted>
-6.2404

> <Gold.Chemscore.Metal.Weighted>
-0.0000

> <Gold.Chemscore.Lipo.Weighted>
-9.8238

> <Gold.Chemscore.Internal_Hbond.Weighted>
0.0000

> <Gold.Chemscore.DEClash.Weighted>
2.8217

> <Gold.Chemscore.DEInternal.Weighted>
0.8396

> <Gold.Chemscore.Rot.Weighted>
4.7465

> <Gold.Chemscore.Internal.Correction.Weighted>
   9.000000E+99

> <Gold.Protein.RotatedTorsions>
[ 6907 6896 6895 6894 ] final    3.49 input  -60.11 | X-H torsion
[ 7974 7965 7964 7962 ] final    2.13 input  175.53 | X-H torsion
[ 8008 7997 7996 7995 ] final  -75.46 input   59.86 | X-H torsion
[ 10167 10162 10161 10158 ] final  -25.47 input  -65.29 | X-H torsion
[ 10718 10713 10712 10709 ] final   64.52 input   66.30 | X-H torsion
[ 10763 10752 10751 10750 ] final  166.51 input  -60.55 | X-H torsion
[ 11005 11000 10999 10996 ] final   14.33 input  -57.11 | X-H torsion

> <Gold.Protein.ActiveResidues>
 VAL166  LYS551  ARG553  GLY616  TRP617  ASP618  TYR619  PRO620  LYS621  CYS622 
 ASP623  PHE694  ASN695  SER759  ASP760  ASP761  ALA762  ILE779  LEU786  VAL792 
 PHE793  MET794  SER795  GLU796  ALA797  LYS798  CYS799  TRP800  GLU811  SER814 

> <Gold.Protein.RotatedAtoms>
  151.6259  135.1027  160.0111 H   0  0  0  0  0  0  0  0  0  0  0  0  # atno 6907 bound_to 6896
  152.4133  133.6993  159.6425 H   0  0  0  0  0  0  0  0  0  0  0  0  # atno 6908 bound_to 6896
  150.8022  133.8503  159.3244 H   0  0  0  0  0  0  0  0  0  0  0  0  # atno 6909 bound_to 6896
  146.2443  140.0882  142.8353 H   0  0  0  0  0  0  0  0  0  0  0  0  # atno 7974 bound_to 7965
  154.5419  140.0744  156.8523 H   0  0  0  0  0  0  0  0  0  0  0  0  # atno 8008 bound_to 7997
  155.3165  140.3393  155.4224 H   0  0  0  0  0  0  0  0  0  0  0  0  # atno 8009 bound_to 7997
  156.1882  140.1676  156.8130 H   0  0  0  0  0  0  0  0  0  0  0  0  # atno 8010 bound_to 7997
  140.7286  143.4262  151.0873 H   0  0  0  0  0  0  0  0  0  0  0  0  # atno 10167 bound_to 10162
  157.6045  130.9164  149.9856 H   0  0  0  0  0  0  0  0  0  0  0  0  # atno 10718 bound_to 10713
  154.3400  135.2754  155.2427 H   0  0  0  0  0  0  0  0  0  0  0  0  # atno 10763 bound_to 10752
  154.4702  135.5885  153.6320 H   0  0  0  0  0  0  0  0  0  0  0  0  # atno 10764 bound_to 10752
  152.9858  135.6086  154.3600 H   0  0  0  0  0  0  0  0  0  0  0  0  # atno 10765 bound_to 10752
  140.4707  134.1033  155.7732 H   0  0  0  0  0  0  0  0  0  0  0  0  # atno 11005 bound_to 11000
  145.0673  140.9130  143.4903 LP  0  0  0  0  0  0  0  0  0  0  0  0  # atno 17320 bound_to 7965
  145.1009  139.2823  143.5686 LP  0  0  0  0  0  0  0  0  0  0  0  0  # atno 17321 bound_to 7965
  139.7914  143.8213  152.3152 LP  0  0  0  0  0  0  0  0  0  0  0  0  # atno 17342 bound_to 10162
  139.8198  144.7300  150.9587 LP  0  0  0  0  0  0  0  0  0  0  0  0  # atno 17343 bound_to 10162
  156.1127  130.3649  150.0021 LP  0  0  0  0  0  0  0  0  0  0  0  0  # atno 17370 bound_to 10713
  156.8116  130.9327  151.3644 LP  0  0  0  0  0  0  0  0  0  0  0  0  # atno 17371 bound_to 10713
  141.1578  133.8850  157.1930 LP  0  0  0  0  0  0  0  0  0  0  0  0  # atno 17394 bound_to 11000
  139.9887  135.0073  156.9923 LP  0  0  0  0  0  0  0  0  0  0  0  0  # atno 17395 bound_to 11000

$$$$
