AV-unprocessed.smi:400|AV-procd|sdf|2492|dock10
  -GOLD-   2262022433D 1   1.00000     0.00000
 Structure written by MMmdl.
 40 41  0  0  0  0  0  0  0  0  1 V2000
  155.0002  133.1010  163.2950 C   0  0  0  0  0  0  0  0  0  0  0  0
  154.7190  134.1322  162.1907 C   0  0  0  0  0  0  0  0  0  0  0  0
  154.7727  135.6015  162.6655 C   0  0  2  0  0  0  0  0  0  0  0  0
  154.0100  135.7790  163.9897 C   0  0  0  0  0  0  0  0  0  0  0  0
  154.2217  136.5680  161.6051 C   0  0  0  0  0  0  0  0  0  0  0  0
  153.7600  136.1200  160.5548 O   0  0  0  0  0  0  0  0  0  0  0  0
  154.2895  137.8774  161.9123 N   0  0  0  0  0  0  0  0  0  0  0  0
  153.8688  138.9878  161.1335 C   0  0  0  0  0  0  0  0  0  0  0  0
  153.8343  140.2212  161.8176 C   0  0  0  0  0  0  0  0  0  0  0  0
  153.4334  141.3843  161.1330 C   0  0  0  0  0  0  0  0  0  0  0  0
  153.0737  141.3009  159.7666 C   0  0  0  0  0  0  0  0  0  0  0  0
  152.6615  142.4227  159.0147 N   0  0  0  0  0  0  0  0  0  0  0  0
  151.6412  142.2317  157.9879 C   0  0  0  0  0  0  0  0  0  0  0  0
  151.5536  143.4720  157.0819 C   0  0  0  0  0  0  0  0  0  0  0  0
  151.3256  144.6312  157.8763 O   0  0  0  0  0  0  0  0  0  0  0  0
  152.3906  144.8613  158.7929 C   0  0  0  0  0  0  0  0  0  0  0  0
  152.5135  143.6707  159.7600 C   0  0  0  0  0  0  0  0  0  0  0  0
  153.1361  140.0189  159.1733 C   0  0  0  0  0  0  0  0  0  0  0  0
  153.5190  138.9031  159.8281 N   0  0  0  0  0  0  0  0  0  0  0  0
  154.8877  132.0866  162.9120 H   0  0  0  0  0  0  0  0  0  0  0  0
  154.3074  133.2187  164.1285 H   0  0  0  0  0  0  0  0  0  0  0  0
  156.0143  133.1921  163.6846 H   0  0  0  0  0  0  0  0  0  0  0  0
  155.4182  133.9782  161.3674 H   0  0  0  0  0  0  0  0  0  0  0  0
  153.7292  133.9300  161.7798 H   0  0  0  0  0  0  0  0  0  0  0  0
  155.8171  135.8559  162.8550 H   0  0  0  0  0  0  0  0  0  0  0  0
  154.0277  136.8174  164.3232 H   0  0  0  0  0  0  0  0  0  0  0  0
  154.4571  135.1763  164.7807 H   0  0  0  0  0  0  0  0  0  0  0  0
  152.9661  135.4768  163.8957 H   0  0  0  0  0  0  0  0  0  0  0  0
  154.6935  138.1036  162.8092 H   0  0  0  0  0  0  0  0  0  0  0  0
  154.1141  140.2821  162.8593 H   0  0  0  0  0  0  0  0  0  0  0  0
  153.4195  142.3210  161.6693 H   0  0  0  0  0  0  0  0  0  0  0  0
  151.8773  141.3584  157.3787 H   0  0  0  0  0  0  0  0  0  0  0  0
  150.6767  142.0511  158.4644 H   0  0  0  0  0  0  0  0  0  0  0  0
  152.4673  143.5922  156.4975 H   0  0  0  0  0  0  0  0  0  0  0  0
  150.7342  143.3610  156.3717 H   0  0  0  0  0  0  0  0  0  0  0  0
  153.3243  145.0190  158.2504 H   0  0  0  0  0  0  0  0  0  0  0  0
  152.1882  145.7766  159.3491 H   0  0  0  0  0  0  0  0  0  0  0  0
  151.6206  143.6040  160.3828 H   0  0  0  0  0  0  0  0  0  0  0  0
  153.3540  143.8451  160.4302 H   0  0  0  0  0  0  0  0  0  0  0  0
  152.8539  139.8673  158.1422 H   0  0  0  0  0  0  0  0  0  0  0  0
  1  2  1  0  0  0  0
  1 20  1  0  0  0  0
  1 21  1  0  0  0  0
  1 22  1  0  0  0  0
  2  3  1  0  0  0  0
  2 23  1  0  0  0  0
  2 24  1  0  0  0  0
  3  4  1  0  0  0  0
  3  5  1  0  0  0  0
  3 25  1  0  0  0  0
  4 26  1  0  0  0  0
  4 27  1  0  0  0  0
  4 28  1  0  0  0  0
  5  6  2  0  0  0  0
  5  7  1  0  0  0  0
  7  8  1  0  0  0  0
  7 29  1  0  0  0  0
  8 19  1  0  0  0  0
  8  9  2  0  0  0  0
  9 10  1  0  0  0  0
  9 30  1  0  0  0  0
 10 11  2  0  0  0  0
 10 31  1  0  0  0  0
 11 12  1  0  0  0  0
 11 18  1  0  0  0  0
 12 17  1  0  0  0  0
 12 13  1  0  0  0  0
 13 14  1  0  0  0  0
 13 32  1  0  0  0  0
 13 33  1  0  0  0  0
 14 15  1  0  0  0  0
 14 34  1  0  0  0  0
 14 35  1  0  0  0  0
 15 16  1  0  0  0  0
 16 17  1  0  0  0  0
 16 36  1  0  0  0  0
 16 37  1  0  0  0  0
 17 38  1  0  0  0  0
 17 39  1  0  0  0  0
 18 19  2  0  0  0  0
 18 40  1  0  0  0  0
M  END
> <s_m_source_file>
AV-unprocessed.smi

> <i_m_source_file_index>
400

> <i_lp_mmshare_version>
43012

> <i_f3d_flags>
0

> <s_epik_input>
W0NIM11bQ0gyXVtDQEhdKFtDSDNdKUMoPU8pW05IXWMxW2NIXVtjSF1jKFtjSF1uMSlOMltDSDJdW0NIMl1PW0NIMl1bQ0gyXTI=

> <s_epik_cmdline>
J2VwaWtfcHl0aG9uJywgJy1waCcsICc3LjAnLCAnLXRuJywgJzgnLCAnLW1hJywgJzIwMCcsICctbWV0YWxfYmluZGluZycsICctaW1hZScsICc8aW5maWxlLm1hZT4nLCAnLW9tYWUnLCAnPG91dGZpbGUubWFlPic=

> <r_lp_tautomer_probability>
1

> <r_epik_Ionization_Penalty>
0.00393323

> <r_epik_Ionization_Penalty_Charging>
0

> <r_epik_Ionization_Penalty_Neutral>
0.00393323

> <r_epik_State_Penalty>
0.00357844

> <r_epik_Charging_Adjusted_Penalty>
0.00357844

> <i_epik_Tot_Q>
0

> <i_epik_Tot_abs_Q>
0

> <r_epik_Metal_State_Penalty>
-0

> <b_epik_Metal_Only>
0

> <s_lp_Force_Field>
OPLS_2005

> <r_lp_Energy>
25.3319

> <b_lp_Chiralities_Consistent>
1

> <s_lp_Variant>
AV-unprocessed.smi:400-1

> <Gold.Version>
5.8.1

> <Gold.Id.Protein>
6NUR|6NUR_protein|mol2

> <Gold.PLP.Fitness>
39.0307

> <Gold.PLP.PLP>
-36.6656

> <Gold.PLP.part.hbond>
-1.0000

> <Gold.PLP.part.metal>
0.0000

> <Gold.PLP.part.buried>
-3.8088

> <Gold.PLP.part.nonpolar>
-31.7654

> <Gold.PLP.part.repulsive>
0.1611

> <Gold.PLP.ligand.clash>
0.0000

> <Gold.PLP.ligand.torsion>
0.5050

> <Gold.PLP.Chemscore.Hbond>
0.9913

> <Gold.PLP.Chemscore.CHOScore>
0.0000

> <Gold.PLP.Chemscore.Metal>
0.0000

> <Gold.Chemscore.Hbonds>
donor molecule, donor type, donor heavy atom, donor atom, acceptor molecule, acceptor atom, score
      P1  H  6896  6908       L1     6  0.99

> <Gold.PLP.Chemscore.Internal.Correction>
0.4014

> <Gold.Rescore>
     Score         DG    S(hbond)    S(metal)    S(lipo)     H(rot)  DE(clash)    DE(int)     intcor
     15.85     -17.55       0.99        0.00     103.52       1.30       0.03       1.68       ----

> <Gold.Chemscore.Fitness>
15.8466

> <Gold.Chemscore.DG>
-17.5497

> <Gold.Chemscore.ZeroCoef>
-5.4800

> <Gold.Chemscore.Hbond>
0.9869

> <Gold.Chemscore.Metal>
0.0000

> <Gold.Chemscore.Lipo>
103.5217

> <Gold.Chemscore.Internal_Hbond>
0.0000

> <Gold.Chemscore.DEClash>
0.0256

> <Gold.Chemscore.DEInternal>
1.6775

> <Gold.Chemscore.Rot>
1.3041

> <Gold.Chemscore.Internal.Correction>
   9.000000E+99

> <Gold.Chemscore.Hbonds>
donor molecule, donor type, donor heavy atom, donor atom, acceptor molecule, acceptor atom, score
      P1  H  6896  6908       L1     6  0.91

> <Gold.Chemscore.Hbond.Weighted>
-3.2962

> <Gold.Chemscore.Metal.Weighted>
-0.0000

> <Gold.Chemscore.Lipo.Weighted>
-12.1120

> <Gold.Chemscore.Internal_Hbond.Weighted>
0.0000

> <Gold.Chemscore.DEClash.Weighted>
0.0256

> <Gold.Chemscore.DEInternal.Weighted>
1.6775

> <Gold.Chemscore.Rot.Weighted>
3.3385

> <Gold.Chemscore.Internal.Correction.Weighted>
   9.000000E+99

> <Gold.Protein.RotatedTorsions>
[ 6907 6896 6895 6894 ] final  -57.68 input  -60.11 | X-H torsion
[ 7974 7965 7964 7962 ] final   61.97 input  175.53 | X-H torsion
[ 8008 7997 7996 7995 ] final  130.63 input   59.86 | X-H torsion
[ 10167 10162 10161 10158 ] final   -4.90 input  -65.29 | X-H torsion
[ 10718 10713 10712 10709 ] final  161.78 input   66.30 | X-H torsion
[ 10763 10752 10751 10750 ] final   48.69 input  -60.55 | X-H torsion
[ 11005 11000 10999 10996 ] final  140.42 input  -57.11 | X-H torsion

> <Gold.Protein.ActiveResidues>
 VAL166  LYS551  ARG553  GLY616  TRP617  ASP618  TYR619  PRO620  LYS621  CYS622 
 ASP623  PHE694  ASN695  SER759  ASP760  ASP761  ALA762  ILE779  LEU786  VAL792 
 PHE793  MET794  SER795  GLU796  ALA797  LYS798  CYS799  TRP800  GLU811  SER814 

> <Gold.Protein.RotatedAtoms>
  150.8067  134.7196  159.6649 H   0  0  0  0  0  0  0  0  0  0  0  0  # atno 6907 bound_to 6896
  152.4186  134.5993  160.0005 H   0  0  0  0  0  0  0  0  0  0  0  0  # atno 6908 bound_to 6896
  151.6215  133.3301  159.3125 H   0  0  0  0  0  0  0  0  0  0  0  0  # atno 6909 bound_to 6896
  145.8786  139.3428  143.0719 H   0  0  0  0  0  0  0  0  0  0  0  0  # atno 7974 bound_to 7965
  156.2957  140.2591  156.2793 H   0  0  0  0  0  0  0  0  0  0  0  0  # atno 8008 bound_to 7997
  154.9617  140.0392  157.2212 H   0  0  0  0  0  0  0  0  0  0  0  0  # atno 8009 bound_to 7997
  154.7940  140.2817  155.5975 H   0  0  0  0  0  0  0  0  0  0  0  0  # atno 8010 bound_to 7997
  140.6944  143.6371  150.8470 H   0  0  0  0  0  0  0  0  0  0  0  0  # atno 10167 bound_to 10162
  157.1317  131.0518  151.2368 H   0  0  0  0  0  0  0  0  0  0  0  0  # atno 10718 bound_to 10713
  152.9790  135.5936  154.3968 H   0  0  0  0  0  0  0  0  0  0  0  0  # atno 10763 bound_to 10752
  154.3617  135.2767  155.2318 H   0  0  0  0  0  0  0  0  0  0  0  0  # atno 10764 bound_to 10752
  154.4312  135.6036  153.6125 H   0  0  0  0  0  0  0  0  0  0  0  0  # atno 10765 bound_to 10752
  140.0326  134.9344  157.0691 H   0  0  0  0  0  0  0  0  0  0  0  0  # atno 11005 bound_to 11000
  145.9050  140.9218  143.0483 LP  0  0  0  0  0  0  0  0  0  0  0  0  # atno 17320 bound_to 7965
  144.6727  140.1084  143.7457 LP  0  0  0  0  0  0  0  0  0  0  0  0  # atno 17321 bound_to 7965
  140.0087  143.5666  152.2847 LP  0  0  0  0  0  0  0  0  0  0  0  0  # atno 17342 bound_to 10162
  139.6382  144.7652  151.2394 LP  0  0  0  0  0  0  0  0  0  0  0  0  # atno 17343 bound_to 10162
  157.4386  130.7531  149.7050 LP  0  0  0  0  0  0  0  0  0  0  0  0  # atno 17370 bound_to 10713
  155.9806  130.4027  150.3516 LP  0  0  0  0  0  0  0  0  0  0  0  0  # atno 17371 bound_to 10713
  140.4201  134.1890  155.7164 LP  0  0  0  0  0  0  0  0  0  0  0  0  # atno 17394 bound_to 11000
  141.1839  133.8354  157.1158 LP  0  0  0  0  0  0  0  0  0  0  0  0  # atno 17395 bound_to 11000

$$$$
