AV-unprocessed.smi:1290|AV-procd|sdf|5389|dock7
  -GOLD-   22720 4543D 1   1.00000     0.00000
 Structure written by MMmdl.
 38 40  0  0  0  0  0  0  0  0  1 V2000
  152.9340  143.1659  162.6237 C   0  0  0  0  0  0  0  0  0  0  0  0
  153.1196  142.1714  161.5503 N   0  0  0  0  0  0  0  0  0  0  0  0
  152.2091  142.1458  160.5265 C   0  0  0  0  0  0  0  0  0  0  0  0
  151.2364  142.8950  160.4265 O   0  0  0  0  0  0  0  0  0  0  0  0
  152.4828  141.1198  159.5169 C   0  0  0  0  0  0  0  0  0  0  0  0
  153.5402  140.2765  159.5883 C   0  0  0  0  0  0  0  0  0  0  0  0
  153.5656  139.4031  158.5066 N   0  0  0  0  0  0  0  0  0  0  0  0
  152.4851  139.7795  157.8207 C   0  0  0  0  0  0  0  0  0  0  0  0
  151.7814  140.7977  158.3571 N   0  0  0  0  0  0  0  0  0  0  0  0
  150.5708  141.3941  157.8138 C   0  0  0  0  0  0  0  0  0  0  0  0
  150.7374  141.8556  156.3521 C   0  0  2  0  0  0  0  0  0  0  0  0
  150.6366  143.2650  156.2767 O   0  0  0  0  0  0  0  0  0  0  0  0
  149.7432  141.1563  155.4382 C   0  0  0  0  0  0  0  0  0  0  0  0
  148.7367  141.9043  154.7905 C   0  0  0  0  0  0  0  0  0  0  0  0
  147.8174  141.2664  153.9349 C   0  0  0  0  0  0  0  0  0  0  0  0
  147.9010  139.8769  153.7198 C   0  0  0  0  0  0  0  0  0  0  0  0
  146.7750  139.0956  152.6715 Cl  0  0  0  0  0  0  0  0  0  0  0  0
  148.9057  139.1260  154.3599 C   0  0  0  0  0  0  0  0  0  0  0  0
  149.8250  139.7636  155.2155 C   0  0  0  0  0  0  0  0  0  0  0  0
  154.4243  140.3879  160.6898 N   0  0  0  0  0  0  0  0  0  0  0  0
  155.5573  139.4589  160.7341 C   0  0  0  0  0  0  0  0  0  0  0  0
  154.2134  141.3295  161.6684 C   0  0  0  0  0  0  0  0  0  0  0  0
  154.9812  141.4212  162.6301 O   0  0  0  0  0  0  0  0  0  0  0  0
  152.0811  143.8322  162.4903 H   0  0  0  0  0  0  0  0  0  0  0  0
  153.8139  143.8059  162.7076 H   0  0  0  0  0  0  0  0  0  0  0  0
  152.7912  142.6654  163.5829 H   0  0  0  0  0  0  0  0  0  0  0  0
  152.1930  139.2967  156.8996 H   0  0  0  0  0  0  0  0  0  0  0  0
  149.7609  140.6688  157.8972 H   0  0  0  0  0  0  0  0  0  0  0  0
  150.2881  142.2378  158.4452 H   0  0  0  0  0  0  0  0  0  0  0  0
  151.7425  141.6032  156.0130 H   0  0  0  0  0  0  0  0  0  0  0  0
  149.7346  143.4915  156.1088 H   0  0  0  0  0  0  0  0  0  0  0  0
  148.6670  142.9711  154.9462 H   0  0  0  0  0  0  0  0  0  0  0  0
  147.0490  141.8450  153.4434 H   0  0  0  0  0  0  0  0  0  0  0  0
  148.9740  138.0606  154.1953 H   0  0  0  0  0  0  0  0  0  0  0  0
  150.5948  139.1794  155.6983 H   0  0  0  0  0  0  0  0  0  0  0  0
  156.2066  139.5796  161.6016 H   0  0  0  0  0  0  0  0  0  0  0  0
  156.1770  139.5865  159.8458 H   0  0  0  0  0  0  0  0  0  0  0  0
  155.1941  138.4308  160.7424 H   0  0  0  0  0  0  0  0  0  0  0  0
  1  2  1  0  0  0  0
  1 24  1  0  0  0  0
  1 25  1  0  0  0  0
  1 26  1  0  0  0  0
  2 22  1  0  0  0  0
  2  3  1  0  0  0  0
  3  4  2  0  0  0  0
  3  5  1  0  0  0  0
  5  9  1  0  0  0  0
  5  6  2  0  0  0  0
  6  7  1  0  0  0  0
  6 20  1  0  0  0  0
  7  8  2  0  0  0  0
  8  9  1  0  0  0  0
  8 27  1  0  0  0  0
  9 10  1  0  0  0  0
 10 11  1  0  0  0  0
 10 28  1  0  0  0  0
 10 29  1  0  0  0  0
 11 12  1  0  0  0  0
 11 13  1  0  0  0  0
 11 30  1  0  0  0  0
 12 31  1  0  0  0  0
 13 19  1  0  0  0  0
 13 14  2  0  0  0  0
 14 15  1  0  0  0  0
 14 32  1  0  0  0  0
 15 16  2  0  0  0  0
 15 33  1  0  0  0  0
 16 17  1  0  0  0  0
 16 18  1  0  0  0  0
 18 19  2  0  0  0  0
 18 34  1  0  0  0  0
 19 35  1  0  0  0  0
 20 21  1  0  0  0  0
 20 22  1  0  0  0  0
 21 36  1  0  0  0  0
 21 37  1  0  0  0  0
 21 38  1  0  0  0  0
 22 23  2  0  0  0  0
M  END
> <s_m_source_file>
AV-unprocessed.smi

> <i_m_source_file_index>
1290

> <i_lp_mmshare_version>
43012

> <i_f3d_flags>
0

> <s_epik_input>
Tz1jMW4oW0NIM10pYyg9TyluKFtDSDNdKWMoYzEyKW5bY0hdbjJbQ0gyXVtDQEhdKFtPSF0pYzNbY0hdW2NIXWMoQ2wpW2NIXVtjSF0z

> <s_epik_cmdline>
J2VwaWtfcHl0aG9uJywgJy1waCcsICc3LjAnLCAnLXRuJywgJzgnLCAnLW1hJywgJzIwMCcsICctbWV0YWxfYmluZGluZycsICctaW1hZScsICc8aW5maWxlLm1hZT4nLCAnLW9tYWUnLCAnPG91dGZpbGUubWFlPic=

> <r_lp_tautomer_probability>
1

> <r_epik_Ionization_Penalty>
1.48293e-06

> <r_epik_Ionization_Penalty_Charging>
3.74189e-09

> <r_epik_Ionization_Penalty_Neutral>
1.47919e-06

> <r_epik_State_Penalty>
-0

> <r_epik_Charging_Adjusted_Penalty>
3.74189e-09

> <i_epik_Tot_Q>
0

> <i_epik_Tot_abs_Q>
0

> <r_epik_Metal_State_Penalty>
-0

> <b_epik_Metal_Only>
0

> <s_lp_Force_Field>
OPLS_2005

> <r_lp_Energy>
35.4502

> <b_lp_Chiralities_Consistent>
1

> <s_lp_Variant>
AV-unprocessed.smi:1290-1

> <Gold.Version>
5.8.1

> <Gold.Id.Protein>
6NUR|6NUR_protein|mol2

> <Gold.PLP.Fitness>
52.4734

> <Gold.PLP.PLP>
-48.6510

> <Gold.PLP.part.hbond>
-3.4782

> <Gold.PLP.part.metal>
0.0000

> <Gold.PLP.part.buried>
1.3122

> <Gold.PLP.part.nonpolar>
-45.5211

> <Gold.PLP.part.repulsive>
0.0539

> <Gold.PLP.ligand.clash>
0.0000

> <Gold.PLP.ligand.torsion>
0.8971

> <Gold.PLP.Chemscore.Hbond>
1.8640

> <Gold.PLP.Chemscore.CHOScore>
0.0000

> <Gold.PLP.Chemscore.Metal>
0.0000

> <Gold.Chemscore.Hbonds>
donor molecule, donor type, donor heavy atom, donor atom, acceptor molecule, acceptor atom, score
      L1  H    12    31       P1  8028  0.78
      P1  H  7997  8010       L1     7  1.00

> <Gold.PLP.Chemscore.Internal.Correction>
0.0246

> <Gold.Rescore>
     Score         DG    S(hbond)    S(metal)    S(lipo)     H(rot)  DE(clash)    DE(int)     intcor
     10.16     -14.09       1.08        0.00      89.76       2.15       3.14       0.79       ----

> <Gold.Chemscore.Fitness>
10.1574

> <Gold.Chemscore.DG>
-14.0859

> <Gold.Chemscore.ZeroCoef>
-5.4800

> <Gold.Chemscore.Hbond>
1.0782

> <Gold.Chemscore.Metal>
0.0000

> <Gold.Chemscore.Lipo>
89.7597

> <Gold.Chemscore.Internal_Hbond>
0.0000

> <Gold.Chemscore.DEClash>
3.1398

> <Gold.Chemscore.DEInternal>
0.7886

> <Gold.Chemscore.Rot>
2.1474

> <Gold.Chemscore.Internal.Correction>
   9.000000E+99

> <Gold.Chemscore.Hbonds>
donor molecule, donor type, donor heavy atom, donor atom, acceptor molecule, acceptor atom, score
      L1  H    12    31       P1  8028  0.75
      P1  H  7997  8010       L1     7  0.16

> <Gold.Chemscore.Hbond.Weighted>
-3.6013

> <Gold.Chemscore.Metal.Weighted>
-0.0000

> <Gold.Chemscore.Lipo.Weighted>
-10.5019

> <Gold.Chemscore.Internal_Hbond.Weighted>
0.0000

> <Gold.Chemscore.DEClash.Weighted>
3.1398

> <Gold.Chemscore.DEInternal.Weighted>
0.7886

> <Gold.Chemscore.Rot.Weighted>
5.4974

> <Gold.Chemscore.Internal.Correction.Weighted>
   9.000000E+99

> <Gold.Protein.RotatedTorsions>
[ 6907 6896 6895 6894 ] final  143.87 input  -60.11 | X-H torsion
[ 7974 7965 7964 7962 ] final   44.18 input  175.53 | X-H torsion
[ 8008 7997 7996 7995 ] final    6.56 input   59.86 | X-H torsion
[ 10167 10162 10161 10158 ] final -116.95 input  -65.29 | X-H torsion
[ 10718 10713 10712 10709 ] final   79.12 input   66.30 | X-H torsion
[ 10763 10752 10751 10750 ] final   68.62 input  -60.55 | X-H torsion
[ 11005 11000 10999 10996 ] final  149.08 input  -57.11 | X-H torsion

> <Gold.Protein.ActiveResidues>
 VAL166  LYS551  ARG553  GLY616  TRP617  ASP618  TYR619  PRO620  LYS621  CYS622 
 ASP623  PHE694  ASN695  SER759  ASP760  ASP761  ALA762  ILE779  LEU786  VAL792 
 PHE793  MET794  SER795  GLU796  ALA797  LYS798  CYS799  TRP800  GLU811  SER814 

> <Gold.Protein.RotatedAtoms>
  152.2008  133.4840  159.5057 H   0  0  0  0  0  0  0  0  0  0  0  0  # atno 6907 bound_to 6896
  150.6969  134.1592  159.4179 H   0  0  0  0  0  0  0  0  0  0  0  0  # atno 6908 bound_to 6896
  151.9510  135.0169  160.0592 H   0  0  0  0  0  0  0  0  0  0  0  0  # atno 6909 bound_to 6896
  146.0591  139.5103  142.9669 H   0  0  0  0  0  0  0  0  0  0  0  0  # atno 7974 bound_to 7965
  154.7426  140.2752  155.6360 H   0  0  0  0  0  0  0  0  0  0  0  0  # atno 8008 bound_to 7997
  156.2877  140.2694  156.2084 H   0  0  0  0  0  0  0  0  0  0  0  0  # atno 8009 bound_to 7997
  155.0238  140.0371  157.2437 H   0  0  0  0  0  0  0  0  0  0  0  0  # atno 8010 bound_to 7997
  140.0737  143.4853  152.1965 H   0  0  0  0  0  0  0  0  0  0  0  0  # atno 10167 bound_to 10162
  157.6767  130.9899  150.1886 H   0  0  0  0  0  0  0  0  0  0  0  0  # atno 10718 bound_to 10713
  153.0245  135.5240  154.7163 H   0  0  0  0  0  0  0  0  0  0  0  0  # atno 10763 bound_to 10752
  154.6231  135.2891  155.0306 H   0  0  0  0  0  0  0  0  0  0  0  0  # atno 10764 bound_to 10752
  154.1285  135.6596  153.4969 H   0  0  0  0  0  0  0  0  0  0  0  0  # atno 10765 bound_to 10752
  140.1014  134.8981  157.1801 H   0  0  0  0  0  0  0  0  0  0  0  0  # atno 11005 bound_to 11000
  145.6591  141.0245  143.1718 LP  0  0  0  0  0  0  0  0  0  0  0  0  # atno 17320 bound_to 7965
  144.7165  139.8180  143.7397 LP  0  0  0  0  0  0  0  0  0  0  0  0  # atno 17321 bound_to 7965
  139.5821  144.7515  151.3614 LP  0  0  0  0  0  0  0  0  0  0  0  0  # atno 17342 bound_to 10162
  140.7113  143.7383  150.7572 LP  0  0  0  0  0  0  0  0  0  0  0  0  # atno 17343 bound_to 10162
  156.2602  130.3710  149.8138 LP  0  0  0  0  0  0  0  0  0  0  0  0  # atno 17370 bound_to 10713
  156.5886  130.8496  151.3402 LP  0  0  0  0  0  0  0  0  0  0  0  0  # atno 17371 bound_to 10713
  140.3215  134.2911  155.7245 LP  0  0  0  0  0  0  0  0  0  0  0  0  # atno 17394 bound_to 11000
  141.2106  133.7713  156.9917 LP  0  0  0  0  0  0  0  0  0  0  0  0  # atno 17395 bound_to 11000

$$$$
