AV-unprocessed.smi:1123|AV-procd|sdf|4829|dock8
  -GOLD-   22720 3393D 1   1.00000     0.00000
 Structure written by MMmdl.
 37 38  0  0  0  0  0  0  0  0  1 V2000
  150.4705  137.3422  154.9154 C   0  0  0  0  0  0  0  0  0  0  0  0
  150.9125  138.7495  154.4641 C   0  0  2  0  0  0  0  0  0  0  0  0
  151.9052  139.4008  155.4402 C   0  0  0  0  0  0  0  0  0  0  0  0
  153.0568  139.6578  155.0872 O   0  0  0  0  0  0  0  0  0  0  0  0
  151.4417  139.6611  156.6732 N   0  0  0  0  0  0  0  0  0  0  0  0
  152.2198  140.2529  157.7543 C   0  0  0  0  0  0  0  0  0  0  0  0
  151.3253  140.6304  158.9499 C   0  0  0  0  0  0  0  0  0  0  0  0
  151.2372  142.0634  159.2252 N   0  0  0  0  0  0  0  0  0  0  0  0
  152.3985  142.5218  159.9805 C   0  0  0  0  0  0  0  0  0  0  0  0
  152.3319  144.0287  160.2830 C   0  0  0  0  0  0  0  0  0  0  0  0
  152.2079  144.7530  159.0637 O   0  0  0  0  0  0  0  0  0  0  0  0
  151.0589  144.3715  158.3148 C   0  0  0  0  0  0  0  0  0  0  0  0
  151.1162  142.8644  158.0085 C   0  0  0  0  0  0  0  0  0  0  0  0
  149.7798  139.6376  154.2319 N   0  0  0  0  0  0  0  0  0  0  0  0
  148.6731  139.4443  153.5109 C   0  0  0  0  0  0  0  0  0  0  0  0
  147.8629  140.4929  153.4742 N   0  0  0  0  0  0  0  0  0  0  0  0
  148.5861  141.3658  154.2363 C   0  0  0  0  0  0  0  0  0  0  0  0
  149.7463  140.9082  154.7063 N   0  0  0  0  0  0  0  0  0  0  0  0
  151.3289  136.6789  155.0277 H   0  0  0  0  0  0  0  0  0  0  0  0
  149.8043  136.8904  154.1798 H   0  0  0  0  0  0  0  0  0  0  0  0
  149.9423  137.3628  155.8696 H   0  0  0  0  0  0  0  0  0  0  0  0
  151.4256  138.6315  153.5082 H   0  0  0  0  0  0  0  0  0  0  0  0
  150.4832  139.4214  156.8809 H   0  0  0  0  0  0  0  0  0  0  0  0
  152.9706  139.5201  158.0480 H   0  0  0  0  0  0  0  0  0  0  0  0
  152.7621  141.1275  157.3910 H   0  0  0  0  0  0  0  0  0  0  0  0
  150.3215  140.2541  158.7481 H   0  0  0  0  0  0  0  0  0  0  0  0
  151.6670  140.1048  159.8430 H   0  0  0  0  0  0  0  0  0  0  0  0
  152.4711  141.9702  160.9185 H   0  0  0  0  0  0  0  0  0  0  0  0
  153.3109  142.3075  159.4218 H   0  0  0  0  0  0  0  0  0  0  0  0
  151.4882  144.2556  160.9367 H   0  0  0  0  0  0  0  0  0  0  0  0
  153.2351  144.3525  160.8003 H   0  0  0  0  0  0  0  0  0  0  0  0
  150.1547  144.6175  158.8733 H   0  0  0  0  0  0  0  0  0  0  0  0
  151.0295  144.9459  157.3888 H   0  0  0  0  0  0  0  0  0  0  0  0
  151.9602  142.6631  157.3472 H   0  0  0  0  0  0  0  0  0  0  0  0
  150.2159  142.5887  157.4606 H   0  0  0  0  0  0  0  0  0  0  0  0
  148.4577  138.5183  152.9985 H   0  0  0  0  0  0  0  0  0  0  0  0
  148.2505  142.3707  154.4459 H   0  0  0  0  0  0  0  0  0  0  0  0
  1  2  1  0  0  0  0
  1 19  1  0  0  0  0
  1 20  1  0  0  0  0
  1 21  1  0  0  0  0
  2  3  1  0  0  0  0
  2 14  1  0  0  0  0
  2 22  1  0  0  0  0
  3  4  2  0  0  0  0
  3  5  1  0  0  0  0
  5  6  1  0  0  0  0
  5 23  1  0  0  0  0
  6  7  1  0  0  0  0
  6 24  1  0  0  0  0
  6 25  1  0  0  0  0
  7  8  1  0  0  0  0
  7 26  1  0  0  0  0
  7 27  1  0  0  0  0
  8 13  1  0  0  0  0
  8  9  1  0  0  0  0
  9 10  1  0  0  0  0
  9 28  1  0  0  0  0
  9 29  1  0  0  0  0
 10 11  1  0  0  0  0
 10 30  1  0  0  0  0
 10 31  1  0  0  0  0
 11 12  1  0  0  0  0
 12 13  1  0  0  0  0
 12 32  1  0  0  0  0
 12 33  1  0  0  0  0
 13 34  1  0  0  0  0
 13 35  1  0  0  0  0
 14 18  1  0  0  0  0
 14 15  1  0  0  0  0
 15 16  2  0  0  0  0
 15 36  1  0  0  0  0
 16 17  1  0  0  0  0
 17 18  2  0  0  0  0
 17 37  1  0  0  0  0
M  END
> <s_m_source_file>
AV-unprocessed.smi

> <i_m_source_file_index>
1123

> <i_lp_mmshare_version>
43012

> <i_f3d_flags>
0

> <s_epik_input>
bjFbY0hdbltjSF1uMVtDQEhdKFtDSDNdKUMoPU8pW05IXVtDSDJdW0NIMl1OMltDSDJdW0NIMl1PW0NIMl1bQ0gyXTI=

> <s_epik_cmdline>
J2VwaWtfcHl0aG9uJywgJy1waCcsICc3LjAnLCAnLXRuJywgJzgnLCAnLW1hJywgJzIwMCcsICctbWV0YWxfYmluZGluZycsICctaW1hZScsICc8aW5maWxlLm1hZT4nLCAnLW9tYWUnLCAnPG91dGZpbGUubWFlPic=

> <r_lp_tautomer_probability>
1

> <r_epik_Ionization_Penalty>
0.211373

> <r_epik_Ionization_Penalty_Charging>
0

> <r_epik_Ionization_Penalty_Neutral>
0.211373

> <r_epik_State_Penalty>
0.201459

> <r_epik_Charging_Adjusted_Penalty>
0.201459

> <i_epik_Tot_Q>
0

> <i_epik_Tot_abs_Q>
0

> <r_epik_Metal_State_Penalty>
0.201458

> <b_epik_Metal_Only>
0

> <s_lp_Force_Field>
OPLS_2005

> <r_lp_Energy>
26.6349

> <b_lp_Chiralities_Consistent>
1

> <s_lp_Variant>
AV-unprocessed.smi:1123-1

> <Gold.Version>
5.8.1

> <Gold.Id.Protein>
6NUR|6NUR_protein|mol2

> <Gold.PLP.Fitness>
41.0528

> <Gold.PLP.PLP>
-34.9095

> <Gold.PLP.part.hbond>
-2.7429

> <Gold.PLP.part.metal>
0.0000

> <Gold.PLP.part.buried>
-1.9772

> <Gold.PLP.part.nonpolar>
-30.8862

> <Gold.PLP.part.repulsive>
1.1134

> <Gold.PLP.ligand.clash>
0.0000

> <Gold.PLP.ligand.torsion>
0.7751

> <Gold.PLP.Chemscore.Hbond>
1.0000

> <Gold.PLP.Chemscore.CHOScore>
1.5208

> <Gold.PLP.Chemscore.Metal>
0.0000

> <Gold.Chemscore.Hbonds>
donor molecule, donor type, donor heavy atom, donor atom, acceptor molecule, acceptor atom, score
      P1  H  7997  8010       L1     4  1.00
      L1  C    15    36       P1  7948  0.88
      L1  C    17    37       P1  8028  0.59

> <Gold.PLP.Chemscore.Internal.Correction>
0.1311

> <Gold.Rescore>
     Score         DG    S(hbond)    S(metal)    S(lipo)     H(rot)  DE(clash)    DE(int)     intcor
      8.02     -10.09       1.00        0.00      67.91       2.61       0.06       2.02       ----

> <Gold.Chemscore.Fitness>
8.0151

> <Gold.Chemscore.DG>
-10.0854

> <Gold.Chemscore.ZeroCoef>
-5.4800

> <Gold.Chemscore.Hbond>
1.0001

> <Gold.Chemscore.Metal>
0.0000

> <Gold.Chemscore.Lipo>
67.9136

> <Gold.Chemscore.Internal_Hbond>
0.0000

> <Gold.Chemscore.DEClash>
0.0551

> <Gold.Chemscore.DEInternal>
2.0152

> <Gold.Chemscore.Rot>
2.6097

> <Gold.Chemscore.Internal.Correction>
   9.000000E+99

> <Gold.Chemscore.Hbonds>
donor molecule, donor type, donor heavy atom, donor atom, acceptor molecule, acceptor atom, score
      P1  H  7997  8010       L1     4  1.00

> <Gold.Chemscore.Hbond.Weighted>
-3.3404

> <Gold.Chemscore.Metal.Weighted>
-0.0000

> <Gold.Chemscore.Lipo.Weighted>
-7.9459

> <Gold.Chemscore.Internal_Hbond.Weighted>
0.0000

> <Gold.Chemscore.DEClash.Weighted>
0.0551

> <Gold.Chemscore.DEInternal.Weighted>
2.0152

> <Gold.Chemscore.Rot.Weighted>
6.6809

> <Gold.Chemscore.Internal.Correction.Weighted>
   9.000000E+99

> <Gold.Protein.RotatedTorsions>
[ 6907 6896 6895 6894 ] final -160.51 input  -60.11 | X-H torsion
[ 7974 7965 7964 7962 ] final   20.88 input  175.53 | X-H torsion
[ 8008 7997 7996 7995 ] final  106.07 input   59.86 | X-H torsion
[ 10167 10162 10161 10158 ] final  -24.16 input  -65.29 | X-H torsion
[ 10718 10713 10712 10709 ] final  -82.08 input   66.30 | X-H torsion
[ 10763 10752 10751 10750 ] final  -41.95 input  -60.55 | X-H torsion
[ 11005 11000 10999 10996 ] final  136.21 input  -57.11 | X-H torsion

> <Gold.Protein.ActiveResidues>
 VAL166  LYS551  ARG553  GLY616  TRP617  ASP618  TYR619  PRO620  LYS621  CYS622 
 ASP623  PHE694  ASN695  SER759  ASP760  ASP761  ALA762  ILE779  LEU786  VAL792 
 PHE793  MET794  SER795  GLU796  ALA797  LYS798  CYS799  TRP800  GLU811  SER814 

> <Gold.Protein.RotatedAtoms>
  151.3502  133.3928  159.2679 H   0  0  0  0  0  0  0  0  0  0  0  0  # atno 6907 bound_to 6896
  150.9807  134.9164  159.7853 H   0  0  0  0  0  0  0  0  0  0  0  0  # atno 6908 bound_to 6896
  152.5216  134.3466  159.9288 H   0  0  0  0  0  0  0  0  0  0  0  0  # atno 6909 bound_to 6896
  146.2094  139.8107  142.8701 H   0  0  0  0  0  0  0  0  0  0  0  0  # atno 7974 bound_to 7965
  156.1712  140.3119  155.8977 H   0  0  0  0  0  0  0  0  0  0  0  0  # atno 8008 bound_to 7997
  155.3582  140.0475  157.3063 H   0  0  0  0  0  0  0  0  0  0  0  0  # atno 8009 bound_to 7997
  154.5243  140.2209  155.8929 H   0  0  0  0  0  0  0  0  0  0  0  0  # atno 8010 bound_to 7997
  140.7288  143.4378  151.0703 H   0  0  0  0  0  0  0  0  0  0  0  0  # atno 10167 bound_to 10162
  156.0039  130.4623  150.4050 H   0  0  0  0  0  0  0  0  0  0  0  0  # atno 10718 bound_to 10713
  153.9710  135.6728  153.4747 H   0  0  0  0  0  0  0  0  0  0  0  0  # atno 10763 bound_to 10752
  153.0793  135.4932  154.8466 H   0  0  0  0  0  0  0  0  0  0  0  0  # atno 10764 bound_to 10752
  154.7219  135.3119  154.8994 H   0  0  0  0  0  0  0  0  0  0  0  0  # atno 10765 bound_to 10752
  140.0031  134.9470  157.0115 H   0  0  0  0  0  0  0  0  0  0  0  0  # atno 11005 bound_to 11000
  145.3199  141.0241  143.3506 LP  0  0  0  0  0  0  0  0  0  0  0  0  # atno 17320 bound_to 7965
  144.8874  139.4820  143.6694 LP  0  0  0  0  0  0  0  0  0  0  0  0  # atno 17321 bound_to 7965
  139.8042  143.8041  152.3166 LP  0  0  0  0  0  0  0  0  0  0  0  0  # atno 17342 bound_to 10162
  139.8068  144.7352  150.9750 LP  0  0  0  0  0  0  0  0  0  0  0  0  # atno 17343 bound_to 10162
  157.2116  131.0462  151.2596 LP  0  0  0  0  0  0  0  0  0  0  0  0  # atno 17370 bound_to 10713
  157.3883  130.7268  149.6679 LP  0  0  0  0  0  0  0  0  0  0  0  0  # atno 17371 bound_to 10713
  140.4691  134.1405  155.7201 LP  0  0  0  0  0  0  0  0  0  0  0  0  # atno 17394 bound_to 11000
  141.1657  133.8708  157.1722 LP  0  0  0  0  0  0  0  0  0  0  0  0  # atno 17395 bound_to 11000

$$$$
