AV-unprocessed.smi:995|AV-procd|sdf|4345|dock3
  -GOLD-   22720 2243D 1   1.00000     0.00000
 Structure written by MMmdl.
 37 38  0  0  0  0  0  0  0  0  1 V2000
  155.6259  141.2512  164.3275 O   0  0  0  0  0  0  0  0  0  0  0  0
  156.0149  140.1983  163.8228 C   0  0  0  0  0  0  0  0  0  0  0  0
  155.6703  139.7654  162.5954 N   0  0  0  0  0  0  0  0  0  0  0  0
  154.8312  140.3795  161.6253 C   0  0  0  0  0  0  0  0  0  0  0  0
  153.9016  141.4120  161.8981 C   0  0  0  0  0  0  0  0  0  0  0  0
  153.1277  141.9279  160.8407 C   0  0  0  0  0  0  0  0  0  0  0  0
  153.2965  141.3945  159.5478 C   0  0  0  0  0  0  0  0  0  0  0  0
  152.5393  141.9110  158.5164 O   0  0  0  0  0  0  0  0  0  0  0  0
  151.2614  142.4639  158.8212 C   0  0  0  0  0  0  0  0  0  0  0  0
  151.3478  143.9966  158.7719 C   0  0  0  0  0  0  0  0  0  0  0  0
  152.1007  144.3630  157.7339 F   0  0  0  0  0  0  0  0  0  0  0  0
  150.1131  144.4771  158.6191 F   0  0  0  0  0  0  0  0  0  0  0  0
  151.9396  144.5922  160.0597 C   0  0  0  0  0  0  0  0  0  0  0  0
  151.9912  145.9230  159.9954 F   0  0  0  0  0  0  0  0  0  0  0  0
  151.2218  144.2272  161.1221 F   0  0  0  0  0  0  0  0  0  0  0  0
  154.1727  140.3949  159.2820 N   0  0  0  0  0  0  0  0  0  0  0  0
  154.9125  139.9065  160.2992 C   0  0  0  0  0  0  0  0  0  0  0  0
  156.9685  139.2695  164.5990 C   0  0  2  0  0  0  0  0  0  0  0  0
  156.3014  138.4710  165.7442 C   0  0  0  0  0  0  0  0  0  0  0  0
  155.9695  139.3358  166.8243 O   0  0  0  0  0  0  0  0  0  0  0  0
  157.1205  139.9906  167.3383 C   0  0  0  0  0  0  0  0  0  0  0  0
  157.7511  140.8423  166.2253 C   0  0  0  0  0  0  0  0  0  0  0  0
  158.0812  139.9994  165.1234 O   0  0  0  0  0  0  0  0  0  0  0  0
  156.1138  138.9081  162.2983 H   0  0  0  0  0  0  0  0  0  0  0  0
  153.7553  141.8137  162.8879 H   0  0  0  0  0  0  0  0  0  0  0  0
  152.4148  142.7193  161.0193 H   0  0  0  0  0  0  0  0  0  0  0  0
  150.5173  142.1193  158.1009 H   0  0  0  0  0  0  0  0  0  0  0  0
  150.9436  142.1393  159.8135 H   0  0  0  0  0  0  0  0  0  0  0  0
  152.9589  144.2421  160.2249 H   0  0  0  0  0  0  0  0  0  0  0  0
  155.5972  139.1115  160.0420 H   0  0  0  0  0  0  0  0  0  0  0  0
  157.3626  138.5581  163.8724 H   0  0  0  0  0  0  0  0  0  0  0  0
  155.3988  137.9663  165.3976 H   0  0  0  0  0  0  0  0  0  0  0  0
  156.9735  137.6875  166.0976 H   0  0  0  0  0  0  0  0  0  0  0  0
  156.8263  140.6219  168.1768 H   0  0  0  0  0  0  0  0  0  0  0  0
  157.8333  139.2585  167.7211 H   0  0  0  0  0  0  0  0  0  0  0  0
  157.0764  141.6430  165.9201 H   0  0  0  0  0  0  0  0  0  0  0  0
  158.6612  141.3205  166.5874 H   0  0  0  0  0  0  0  0  0  0  0  0
  1  2  2  0  0  0  0
  2  3  1  0  0  0  0
  2 18  1  0  0  0  0
  3  4  1  0  0  0  0
  3 24  1  0  0  0  0
  4 17  1  0  0  0  0
  4  5  2  0  0  0  0
  5  6  1  0  0  0  0
  5 25  1  0  0  0  0
  6  7  2  0  0  0  0
  6 26  1  0  0  0  0
  7  8  1  0  0  0  0
  7 16  1  0  0  0  0
  8  9  1  0  0  0  0
  9 10  1  0  0  0  0
  9 27  1  0  0  0  0
  9 28  1  0  0  0  0
 10 11  1  0  0  0  0
 10 12  1  0  0  0  0
 10 13  1  0  0  0  0
 13 14  1  0  0  0  0
 13 15  1  0  0  0  0
 13 29  1  0  0  0  0
 16 17  2  0  0  0  0
 17 30  1  0  0  0  0
 18 23  1  0  0  0  0
 18 19  1  0  0  0  0
 18 31  1  0  0  0  0
 19 20  1  0  0  0  0
 19 32  1  0  0  0  0
 19 33  1  0  0  0  0
 20 21  1  0  0  0  0
 21 22  1  0  0  0  0
 21 34  1  0  0  0  0
 21 35  1  0  0  0  0
 22 23  1  0  0  0  0
 22 36  1  0  0  0  0
 22 37  1  0  0  0  0
M  END
> <s_m_source_file>
AV-unprocessed.smi

> <i_m_source_file_index>
995

> <i_lp_mmshare_version>
43012

> <i_f3d_flags>
0

> <s_epik_input>
TzFbQ0gyXVtDSDJdT1tDSDJdW0NASF0xQyg9TylbTkhdYzJbY0hdW2NIXWMobltjSF0yKU9bQ0gyXUMoRikoRilbQ0hdKEYpRg==

> <s_epik_cmdline>
J2VwaWtfcHl0aG9uJywgJy1waCcsICc3LjAnLCAnLXRuJywgJzgnLCAnLW1hJywgJzIwMCcsICctbWV0YWxfYmluZGluZycsICctaW1hZScsICc8aW5maWxlLm1hZT4nLCAnLW9tYWUnLCAnPG91dGZpbGUubWFlPic=

> <r_lp_tautomer_probability>
1

> <r_epik_Ionization_Penalty>
2.54436e-06

> <r_epik_Ionization_Penalty_Charging>
0

> <r_epik_Ionization_Penalty_Neutral>
2.54436e-06

> <r_epik_State_Penalty>
-0

> <r_epik_Charging_Adjusted_Penalty>
0

> <i_epik_Tot_Q>
0

> <i_epik_Tot_abs_Q>
0

> <r_epik_Metal_State_Penalty>
-0

> <b_epik_Metal_Only>
0

> <s_lp_Force_Field>
OPLS_2005

> <r_lp_Energy>
9.34037

> <b_lp_Chiralities_Consistent>
1

> <s_lp_Variant>
AV-unprocessed.smi:995-1

> <Gold.Version>
5.8.1

> <Gold.Id.Protein>
6NUR|6NUR_protein|mol2

> <Gold.PLP.Fitness>
40.2477

> <Gold.PLP.PLP>
-41.0206

> <Gold.PLP.part.hbond>
-2.5995

> <Gold.PLP.part.metal>
0.0000

> <Gold.PLP.part.buried>
-0.0037

> <Gold.PLP.part.nonpolar>
-38.1944

> <Gold.PLP.part.repulsive>
0.1049

> <Gold.PLP.ligand.clash>
0.0069

> <Gold.PLP.ligand.torsion>
1.3137

> <Gold.PLP.Chemscore.Hbond>
0.5814

> <Gold.PLP.Chemscore.CHOScore>
0.0000

> <Gold.PLP.Chemscore.Metal>
0.0000

> <Gold.Chemscore.Hbonds>
donor molecule, donor type, donor heavy atom, donor atom, acceptor molecule, acceptor atom, score
      P1  H  7997  8008       L1    16  0.56

> <Gold.PLP.Chemscore.Internal.Correction>
0.1174

> <Gold.Rescore>
     Score         DG    S(hbond)    S(metal)    S(lipo)     H(rot)  DE(clash)    DE(int)     intcor
      5.89     -10.57       0.48        0.00      76.23       2.12       0.95       3.73       ----

> <Gold.Chemscore.Fitness>
5.8894

> <Gold.Chemscore.DG>
-10.5703

> <Gold.Chemscore.ZeroCoef>
-5.4800

> <Gold.Chemscore.Hbond>
0.4765

> <Gold.Chemscore.Metal>
0.0000

> <Gold.Chemscore.Lipo>
76.2304

> <Gold.Chemscore.Internal_Hbond>
0.0000

> <Gold.Chemscore.DEClash>
0.9529

> <Gold.Chemscore.DEInternal>
3.7280

> <Gold.Chemscore.Rot>
2.1172

> <Gold.Chemscore.Internal.Correction>
   9.000000E+99

> <Gold.Chemscore.Hbonds>
donor molecule, donor type, donor heavy atom, donor atom, acceptor molecule, acceptor atom, score
      P1  H  7997  8008       L1    16  0.50

> <Gold.Chemscore.Hbond.Weighted>
-1.5914

> <Gold.Chemscore.Metal.Weighted>
-0.0000

> <Gold.Chemscore.Lipo.Weighted>
-8.9190

> <Gold.Chemscore.Internal_Hbond.Weighted>
0.0000

> <Gold.Chemscore.DEClash.Weighted>
0.9529

> <Gold.Chemscore.DEInternal.Weighted>
3.7280

> <Gold.Chemscore.Rot.Weighted>
5.4200

> <Gold.Chemscore.Internal.Correction.Weighted>
   9.000000E+99

> <Gold.Protein.RotatedTorsions>
[ 6907 6896 6895 6894 ] final  140.70 input  -60.11 | X-H torsion
[ 7974 7965 7964 7962 ] final   -0.00 input  175.53 | X-H torsion
[ 8008 7997 7996 7995 ] final -112.35 input   59.86 | X-H torsion
[ 10167 10162 10161 10158 ] final  122.64 input  -65.29 | X-H torsion
[ 10718 10713 10712 10709 ] final   13.83 input   66.30 | X-H torsion
[ 10763 10752 10751 10750 ] final -126.58 input  -60.55 | X-H torsion
[ 11005 11000 10999 10996 ] final   75.12 input  -57.11 | X-H torsion

> <Gold.Protein.ActiveResidues>
 VAL166  LYS551  ARG553  GLY616  TRP617  ASP618  TYR619  PRO620  LYS621  CYS622 
 ASP623  PHE694  ASN695  SER759  ASP760  ASP761  ALA762  ILE779  LEU786  VAL792 
 PHE793  MET794  SER795  GLU796  ALA797  LYS798  CYS799  TRP800  GLU811  SER814 

> <Gold.Protein.RotatedAtoms>
  152.2398  133.5126  159.5263 H   0  0  0  0  0  0  0  0  0  0  0  0  # atno 6907 bound_to 6896
  150.7061  134.1104  159.4007 H   0  0  0  0  0  0  0  0  0  0  0  0  # atno 6908 bound_to 6896
  151.9025  135.0372  160.0558 H   0  0  0  0  0  0  0  0  0  0  0  0  # atno 6909 bound_to 6896
  146.2431  140.1204  142.8341 H   0  0  0  0  0  0  0  0  0  0  0  0  # atno 7974 bound_to 7965
  155.0038  140.0394  157.2371 H   0  0  0  0  0  0  0  0  0  0  0  0  # atno 8008 bound_to 7997
  154.7520  140.2768  155.6261 H   0  0  0  0  0  0  0  0  0  0  0  0  # atno 8009 bound_to 7997
  156.2887  140.2645  156.2276 H   0  0  0  0  0  0  0  0  0  0  0  0  # atno 8010 bound_to 7997
  139.5846  144.7001  151.3441 H   0  0  0  0  0  0  0  0  0  0  0  0  # atno 10167 bound_to 10162
  157.0304  130.6190  149.5734 H   0  0  0  0  0  0  0  0  0  0  0  0  # atno 10718 bound_to 10713
  154.8746  135.3991  154.3454 H   0  0  0  0  0  0  0  0  0  0  0  0  # atno 10763 bound_to 10752
  153.4247  135.7024  153.6275 H   0  0  0  0  0  0  0  0  0  0  0  0  # atno 10764 bound_to 10752
  153.4922  135.3745  155.2467 H   0  0  0  0  0  0  0  0  0  0  0  0  # atno 10765 bound_to 10752
  139.9359  134.7490  156.1231 H   0  0  0  0  0  0  0  0  0  0  0  0  # atno 11005 bound_to 11000
  145.0411  140.8946  143.5052 LP  0  0  0  0  0  0  0  0  0  0  0  0  # atno 17320 bound_to 7965
  145.1285  139.2647  143.5552 LP  0  0  0  0  0  0  0  0  0  0  0  0  # atno 17321 bound_to 7965
  140.7120  143.7366  150.7584 LP  0  0  0  0  0  0  0  0  0  0  0  0  # atno 17342 bound_to 10162
  140.0907  143.4880  152.2480 LP  0  0  0  0  0  0  0  0  0  0  0  0  # atno 17343 bound_to 10162
  156.0071  130.5159  150.7868 LP  0  0  0  0  0  0  0  0  0  0  0  0  # atno 17370 bound_to 10713
  157.5182  131.0930  151.0112 LP  0  0  0  0  0  0  0  0  0  0  0  0  # atno 17371 bound_to 10713
  141.0972  133.6691  156.2671 LP  0  0  0  0  0  0  0  0  0  0  0  0  # atno 17394 bound_to 11000
  140.6078  134.5489  157.5528 LP  0  0  0  0  0  0  0  0  0  0  0  0  # atno 17395 bound_to 11000

$$$$
