AV-unprocessed.smi:2608|AV-procd|sdf|10204|dock8
  -GOLD-   2272014213D 1   1.00000     0.00000
 Structure written by MMmdl.
 40 41  0  0  0  0  0  0  0  0  1 V2000
  153.4495  143.2160  159.8589 C   0  0  0  0  0  0  0  0  0  0  0  0
  152.4267  143.9163  158.9514 C   0  0  0  0  0  0  0  0  0  0  0  0
  152.0065  145.2660  159.5613 C   0  0  0  0  0  0  0  0  0  0  0  0
  151.2319  142.9796  158.6582 C   0  0  0  0  0  0  0  0  0  0  0  0
  151.6087  141.7333  157.8507 C   0  0  0  0  0  0  0  0  0  0  0  0
  152.4613  140.9595  158.2853 O   0  0  0  0  0  0  0  0  0  0  0  0
  150.9573  141.5787  156.6842 N   0  0  0  0  0  0  0  0  0  0  0  0
  151.0736  140.5254  155.7334 C   0  0  0  0  0  0  0  0  0  0  0  0
  152.2274  139.7124  155.6207 C   0  0  0  0  0  0  0  0  0  0  0  0
  152.2647  138.7086  154.6356 C   0  0  0  0  0  0  0  0  0  0  0  0
  151.1508  138.5587  153.7900 C   0  0  0  0  0  0  0  0  0  0  0  0
  150.0509  139.3346  153.8734 N   0  0  0  0  0  0  0  0  0  0  0  0
  150.0108  140.3020  154.8211 C   0  0  0  0  0  0  0  0  0  0  0  0
  148.8524  141.0947  154.8846 N   0  0  0  0  0  0  0  0  0  0  0  0
  148.0247  141.0291  153.6872 C   0  0  0  0  0  0  0  0  0  0  0  0
  146.8705  142.0404  153.7943 C   0  0  0  0  0  0  0  0  0  0  0  0
  146.1261  141.7907  154.9834 O   0  0  0  0  0  0  0  0  0  0  0  0
  146.9260  141.9258  156.1553 C   0  0  0  0  0  0  0  0  0  0  0  0
  148.0842  140.9142  156.1099 C   0  0  0  0  0  0  0  0  0  0  0  0
  153.0170  142.9749  160.8304 H   0  0  0  0  0  0  0  0  0  0  0  0
  154.3220  143.8474  160.0298 H   0  0  0  0  0  0  0  0  0  0  0  0
  153.8023  142.2863  159.4116 H   0  0  0  0  0  0  0  0  0  0  0  0
  152.9307  144.1256  158.0065 H   0  0  0  0  0  0  0  0  0  0  0  0
  151.4433  145.1248  160.4842 H   0  0  0  0  0  0  0  0  0  0  0  0
  151.3871  145.8450  158.8770 H   0  0  0  0  0  0  0  0  0  0  0  0
  152.8778  145.8780  159.7956 H   0  0  0  0  0  0  0  0  0  0  0  0
  150.7761  142.6603  159.5970 H   0  0  0  0  0  0  0  0  0  0  0  0
  150.4545  143.5234  158.1199 H   0  0  0  0  0  0  0  0  0  0  0  0
  150.2239  142.2473  156.4973 H   0  0  0  0  0  0  0  0  0  0  0  0
  153.0871  139.8497  156.2581 H   0  0  0  0  0  0  0  0  0  0  0  0
  153.1301  138.0721  154.5276 H   0  0  0  0  0  0  0  0  0  0  0  0
  151.1451  137.8002  153.0213 H   0  0  0  0  0  0  0  0  0  0  0  0
  148.6308  141.2424  152.8059 H   0  0  0  0  0  0  0  0  0  0  0  0
  147.6239  140.0214  153.5693 H   0  0  0  0  0  0  0  0  0  0  0  0
  147.2492  143.0640  153.7982 H   0  0  0  0  0  0  0  0  0  0  0  0
  146.2080  141.9486  152.9334 H   0  0  0  0  0  0  0  0  0  0  0  0
  147.3037  142.9464  156.2344 H   0  0  0  0  0  0  0  0  0  0  0  0
  146.3045  141.7472  157.0328 H   0  0  0  0  0  0  0  0  0  0  0  0
  147.6893  139.8981  156.1518 H   0  0  0  0  0  0  0  0  0  0  0  0
  148.7328  141.0462  156.9769 H   0  0  0  0  0  0  0  0  0  0  0  0
  1  2  1  0  0  0  0
  1 20  1  0  0  0  0
  1 21  1  0  0  0  0
  1 22  1  0  0  0  0
  2  3  1  0  0  0  0
  2  4  1  0  0  0  0
  2 23  1  0  0  0  0
  3 24  1  0  0  0  0
  3 25  1  0  0  0  0
  3 26  1  0  0  0  0
  4  5  1  0  0  0  0
  4 27  1  0  0  0  0
  4 28  1  0  0  0  0
  5  6  2  0  0  0  0
  5  7  1  0  0  0  0
  7  8  1  0  0  0  0
  7 29  1  0  0  0  0
  8 13  1  0  0  0  0
  8  9  2  0  0  0  0
  9 10  1  0  0  0  0
  9 30  1  0  0  0  0
 10 11  2  0  0  0  0
 10 31  1  0  0  0  0
 11 12  1  0  0  0  0
 11 32  1  0  0  0  0
 12 13  2  0  0  0  0
 13 14  1  0  0  0  0
 14 19  1  0  0  0  0
 14 15  1  0  0  0  0
 15 16  1  0  0  0  0
 15 33  1  0  0  0  0
 15 34  1  0  0  0  0
 16 17  1  0  0  0  0
 16 35  1  0  0  0  0
 16 36  1  0  0  0  0
 17 18  1  0  0  0  0
 18 19  1  0  0  0  0
 18 37  1  0  0  0  0
 18 38  1  0  0  0  0
 19 39  1  0  0  0  0
 19 40  1  0  0  0  0
M  END
> <s_m_source_file>
AV-unprocessed.smi

> <i_m_source_file_index>
2608

> <i_lp_mmshare_version>
43012

> <i_f3d_flags>
0

> <s_epik_input>
W0NIM11bQ0hdKFtDSDNdKVtDSDJdQyg9TylbTkhdYzFbY0hdW2NIXVtjSF1uYzFOMltDSDJdW0NIMl1PW0NIMl1bQ0gyXTI=

> <s_epik_cmdline>
J2VwaWtfcHl0aG9uJywgJy1waCcsICc3LjAnLCAnLXRuJywgJzgnLCAnLW1hJywgJzIwMCcsICctbWV0YWxfYmluZGluZycsICctaW1hZScsICc8aW5maWxlLm1hZT4nLCAnLW9tYWUnLCAnPG91dGZpbGUubWFlPic=

> <r_lp_tautomer_probability>
1

> <r_epik_Ionization_Penalty>
0.0006373

> <r_epik_Ionization_Penalty_Charging>
0

> <r_epik_Ionization_Penalty_Neutral>
0.0006373

> <r_epik_State_Penalty>
0.000394234

> <r_epik_Charging_Adjusted_Penalty>
0.000394234

> <i_epik_Tot_Q>
0

> <i_epik_Tot_abs_Q>
0

> <r_epik_Metal_State_Penalty>
-0

> <b_epik_Metal_Only>
0

> <s_lp_Force_Field>
OPLS_2005

> <r_lp_Energy>
24.3939

> <b_lp_Chiralities_Consistent>
1

> <s_lp_Variant>
AV-unprocessed.smi:2608-1

> <Gold.Version>
5.8.1

> <Gold.Id.Protein>
6NUR|6NUR_protein|mol2

> <Gold.PLP.Fitness>
42.3370

> <Gold.PLP.PLP>
-39.6544

> <Gold.PLP.part.hbond>
0.0000

> <Gold.PLP.part.metal>
0.0000

> <Gold.PLP.part.buried>
-6.8790

> <Gold.PLP.part.nonpolar>
-33.3195

> <Gold.PLP.part.repulsive>
0.9518

> <Gold.PLP.ligand.clash>
0.0000

> <Gold.PLP.ligand.torsion>
0.3994

> <Gold.PLP.Chemscore.Hbond>
0.0000

> <Gold.PLP.Chemscore.CHOScore>
1.1150

> <Gold.PLP.Chemscore.Metal>
0.0000

> <Gold.Chemscore.Hbonds>
donor molecule, donor type, donor heavy atom, donor atom, acceptor molecule, acceptor atom, score
      L1  C    11    32       P1  7948  0.01
      L1  C    11    32       P1  7949  1.00

> <Gold.PLP.Chemscore.Internal.Correction>
0.1363

> <Gold.Rescore>
     Score         DG    S(hbond)    S(metal)    S(lipo)     H(rot)  DE(clash)    DE(int)     intcor
     10.41     -14.10       0.00        0.00     102.35       1.31       0.08       3.61       ----

> <Gold.Chemscore.Fitness>
10.4069

> <Gold.Chemscore.DG>
-14.0955

> <Gold.Chemscore.ZeroCoef>
-5.4800

> <Gold.Chemscore.Hbond>
0.0000

> <Gold.Chemscore.Metal>
0.0000

> <Gold.Chemscore.Lipo>
102.3485

> <Gold.Chemscore.Internal_Hbond>
0.0000

> <Gold.Chemscore.DEClash>
0.0800

> <Gold.Chemscore.DEInternal>
3.6087

> <Gold.Chemscore.Rot>
1.3122

> <Gold.Chemscore.Internal.Correction>
   9.000000E+99

> <Gold.Chemscore.Hbond.Weighted>
-0.0000

> <Gold.Chemscore.Metal.Weighted>
-0.0000

> <Gold.Chemscore.Lipo.Weighted>
-11.9748

> <Gold.Chemscore.Internal_Hbond.Weighted>
0.0000

> <Gold.Chemscore.DEClash.Weighted>
0.0800

> <Gold.Chemscore.DEInternal.Weighted>
3.6087

> <Gold.Chemscore.Rot.Weighted>
3.3592

> <Gold.Chemscore.Internal.Correction.Weighted>
   9.000000E+99

> <Gold.Protein.RotatedTorsions>
[ 6907 6896 6895 6894 ] final   68.82 input  -60.11 | X-H torsion
[ 7974 7965 7964 7962 ] final  -76.35 input  175.53 | X-H torsion
[ 8008 7997 7996 7995 ] final   35.31 input   59.86 | X-H torsion
[ 10167 10162 10161 10158 ] final -172.68 input  -65.29 | X-H torsion
[ 10718 10713 10712 10709 ] final  128.27 input   66.30 | X-H torsion
[ 10763 10752 10751 10750 ] final  103.31 input  -60.55 | X-H torsion
[ 11005 11000 10999 10996 ] final  -78.27 input  -57.11 | X-H torsion

> <Gold.Protein.ActiveResidues>
 VAL166  LYS551  ARG553  GLY616  TRP617  ASP618  TYR619  PRO620  LYS621  CYS622 
 ASP623  PHE694  ASN695  SER759  ASP760  ASP761  ALA762  ILE779  LEU786  VAL792 
 PHE793  MET794  SER795  GLU796  ALA797  LYS798  CYS799  TRP800  GLU811  SER814 

> <Gold.Protein.RotatedAtoms>
  152.4646  134.5106  159.9752 H   0  0  0  0  0  0  0  0  0  0  0  0  # atno 6907 bound_to 6896
  151.5146  133.3472  159.2899 H   0  0  0  0  0  0  0  0  0  0  0  0  # atno 6908 bound_to 6896
  150.8624  134.8008  159.7155 H   0  0  0  0  0  0  0  0  0  0  0  0  # atno 6909 bound_to 6896
  145.6140  140.9379  143.1174 H   0  0  0  0  0  0  0  0  0  0  0  0  # atno 7974 bound_to 7965
  155.1690  140.3290  155.4396 H   0  0  0  0  0  0  0  0  0  0  0  0  # atno 8008 bound_to 7997
  156.2517  140.1947  156.6744 H   0  0  0  0  0  0  0  0  0  0  0  0  # atno 8009 bound_to 7997
  154.6351  140.0577  156.9765 H   0  0  0  0  0  0  0  0  0  0  0  0  # atno 8010 bound_to 7997
  139.5731  144.1596  152.1412 H   0  0  0  0  0  0  0  0  0  0  0  0  # atno 10167 bound_to 10162
  157.5260  131.1098  150.9082 H   0  0  0  0  0  0  0  0  0  0  0  0  # atno 10718 bound_to 10713
  153.3509  135.3981  155.1645 H   0  0  0  0  0  0  0  0  0  0  0  0  # atno 10763 bound_to 10752
  154.8662  135.3656  154.5223 H   0  0  0  0  0  0  0  0  0  0  0  0  # atno 10764 bound_to 10752
  153.5674  135.7079  153.5580 H   0  0  0  0  0  0  0  0  0  0  0  0  # atno 10765 bound_to 10752
  141.1664  133.7056  156.7947 H   0  0  0  0  0  0  0  0  0  0  0  0  # atno 11005 bound_to 11000
  144.7258  139.7881  143.7365 LP  0  0  0  0  0  0  0  0  0  0  0  0  # atno 17320 bound_to 7965
  146.1482  139.4557  143.0065 LP  0  0  0  0  0  0  0  0  0  0  0  0  # atno 17321 bound_to 7965
  140.1133  144.5438  150.6911 LP  0  0  0  0  0  0  0  0  0  0  0  0  # atno 17342 bound_to 10162
  140.7014  143.2438  151.4852 LP  0  0  0  0  0  0  0  0  0  0  0  0  # atno 17343 bound_to 10162
  156.9679  130.5479  149.5289 LP  0  0  0  0  0  0  0  0  0  0  0  0  # atno 17370 bound_to 10713
  156.0387  130.5472  150.8717 LP  0  0  0  0  0  0  0  0  0  0  0  0  # atno 17371 bound_to 10713
  140.2300  134.8693  157.3466 LP  0  0  0  0  0  0  0  0  0  0  0  0  # atno 17394 bound_to 11000
  140.1901  134.4382  155.7721 LP  0  0  0  0  0  0  0  0  0  0  0  0  # atno 17395 bound_to 11000

$$$$
