AV-unprocessed.smi:275|AV-procd|sdf|2066|dock1
  -GOLD-   2262021313D 1   1.00000     0.00000
 Structure written by MMmdl.
 65 69  0  0  0  0  0  0  0  0  1 V2000
  149.9817  139.8614  154.7462 C   0  0  0  0  0  0  0  0  0  0  0  0
  151.0852  140.5181  155.5941 C   0  0  0  0  0  0  0  0  0  0  0  0
  152.3042  139.5814  155.6373 C   0  0  0  0  0  0  0  0  0  0  0  0
  150.6014  140.8669  157.0123 C   0  0  2  0  0  0  0  0  0  0  0  0
  149.2706  141.4684  157.0483 N   0  0  0  0  0  0  0  0  0  0  0  0
  148.1871  140.5666  157.2317 C   0  0  0  0  0  0  0  0  0  0  0  0
  146.9242  140.8800  156.8315 N   0  0  0  0  0  0  0  0  0  0  0  0
  145.9142  140.0253  157.0188 C   0  0  0  0  0  0  0  0  0  0  0  0
  145.9386  138.8170  157.5831 N   0  0  0  0  0  0  0  0  0  0  0  0
  147.1986  138.4942  157.9900 C   0  0  0  0  0  0  0  0  0  0  0  0
  148.3628  139.3001  157.8507 C   0  0  0  0  0  0  0  0  0  0  0  0
  149.4632  138.6411  158.3847 N   0  0  0  0  0  0  0  0  0  0  0  0
  148.9770  137.5099  158.8179 C   0  0  0  0  0  0  0  0  0  0  0  0
  147.6241  137.3422  158.6255 N   0  0  0  0  0  0  0  0  0  0  0  0
  146.8232  136.1941  159.0094 C   0  0  0  0  0  0  0  0  0  0  0  0
  147.4919  135.3247  160.1031 C   0  0  2  0  0  0  0  0  0  0  0  0
  147.7687  133.8774  159.6282 C   0  0  0  0  0  0  0  0  0  0  0  0
  148.7870  133.8394  158.6494 O   0  0  0  0  0  0  0  0  0  0  0  0
  146.6956  135.3725  161.4312 C   0  0  1  0  0  0  0  0  0  0  0  0
  145.2470  134.9281  161.3271 C   0  0  0  0  0  0  0  0  0  0  0  0
  144.8938  134.6229  162.7792 C   0  0  0  0  0  0  0  0  0  0  0  0
  146.1032  134.1866  163.3896 O   0  0  0  0  0  0  0  0  0  0  0  0
  147.2003  134.4084  162.5101 C   0  0  0  0  0  0  0  0  0  0  0  0
  149.6245  142.2318  158.2358 C   0  0  0  0  0  0  0  0  0  0  0  0
  151.0849  142.1298  157.7672 C   0  0  0  0  0  0  0  0  0  0  0  0
  152.1291  141.8790  158.8671 C   0  0  0  0  0  0  0  0  0  0  0  0
  152.3681  143.1113  159.7552 C   0  0  0  0  0  0  0  0  0  0  0  0
  152.8064  144.3206  158.9195 C   0  0  0  0  0  0  0  0  0  0  0  0
  151.8173  144.5930  157.7791 C   0  0  0  0  0  0  0  0  0  0  0  0
  151.5853  143.3302  156.9311 C   0  0  0  0  0  0  0  0  0  0  0  0
  149.5907  138.9651  155.2291 H   0  0  0  0  0  0  0  0  0  0  0  0
  150.3596  139.5729  153.7649 H   0  0  0  0  0  0  0  0  0  0  0  0
  149.1473  140.5397  154.5758 H   0  0  0  0  0  0  0  0  0  0  0  0
  151.3930  141.4307  155.0822 H   0  0  0  0  0  0  0  0  0  0  0  0
  152.0552  138.6373  156.1232 H   0  0  0  0  0  0  0  0  0  0  0  0
  153.1393  140.0173  156.1819 H   0  0  0  0  0  0  0  0  0  0  0  0
  152.6597  139.3529  154.6321 H   0  0  0  0  0  0  0  0  0  0  0  0
  150.6582  140.0038  157.6788 H   0  0  0  0  0  0  0  0  0  0  0  0
  144.9486  140.3584  156.6681 H   0  0  0  0  0  0  0  0  0  0  0  0
  149.5935  136.7652  159.3003 H   0  0  0  0  0  0  0  0  0  0  0  0
  145.8574  136.5675  159.3506 H   0  0  0  0  0  0  0  0  0  0  0  0
  146.6254  135.5963  158.1186 H   0  0  0  0  0  0  0  0  0  0  0  0
  148.4686  135.7677  160.3036 H   0  0  0  0  0  0  0  0  0  0  0  0
  148.0634  133.2413  160.4631 H   0  0  0  0  0  0  0  0  0  0  0  0
  146.8681  133.4241  159.2151 H   0  0  0  0  0  0  0  0  0  0  0  0
  148.5620  133.1831  158.0076 H   0  0  0  0  0  0  0  0  0  0  0  0
  146.7190  136.3852  161.8365 H   0  0  0  0  0  0  0  0  0  0  0  0
  144.5935  135.6846  160.8920 H   0  0  0  0  0  0  0  0  0  0  0  0
  145.1679  134.0211  160.7258 H   0  0  0  0  0  0  0  0  0  0  0  0
  144.5562  135.5268  163.2873 H   0  0  0  0  0  0  0  0  0  0  0  0
  144.1088  133.8715  162.8671 H   0  0  0  0  0  0  0  0  0  0  0  0
  147.4856  133.4510  162.0718 H   0  0  0  0  0  0  0  0  0  0  0  0
  148.0609  134.8006  163.0524 H   0  0  0  0  0  0  0  0  0  0  0  0
  149.2135  143.2414  158.2404 H   0  0  0  0  0  0  0  0  0  0  0  0
  149.4380  141.7130  159.1777 H   0  0  0  0  0  0  0  0  0  0  0  0
  151.8193  141.0457  159.4986 H   0  0  0  0  0  0  0  0  0  0  0  0
  153.0749  141.5710  158.4199 H   0  0  0  0  0  0  0  0  0  0  0  0
  151.4535  143.3538  160.2980 H   0  0  0  0  0  0  0  0  0  0  0  0
  153.1235  142.8873  160.5090 H   0  0  0  0  0  0  0  0  0  0  0  0
  152.9002  145.2023  159.5542 H   0  0  0  0  0  0  0  0  0  0  0  0
  153.7967  144.1326  158.5025 H   0  0  0  0  0  0  0  0  0  0  0  0
  150.8699  144.9399  158.1925 H   0  0  0  0  0  0  0  0  0  0  0  0
  152.1911  145.4008  157.1494 H   0  0  0  0  0  0  0  0  0  0  0  0
  152.5167  143.0829  156.4237 H   0  0  0  0  0  0  0  0  0  0  0  0
  150.8752  143.5678  156.1382 H   0  0  0  0  0  0  0  0  0  0  0  0
  1  2  1  0  0  0  0
  1 31  1  0  0  0  0
  1 32  1  0  0  0  0
  1 33  1  0  0  0  0
  2  3  1  0  0  0  0
  2  4  1  0  0  0  0
  2 34  1  0  0  0  0
  3 35  1  0  0  0  0
  3 36  1  0  0  0  0
  3 37  1  0  0  0  0
  4 25  1  0  0  0  0
  4  5  1  0  0  0  0
  4 38  1  0  0  0  0
  5  6  1  0  0  0  0
  5 24  1  0  0  0  0
  6 11  1  0  0  0  0
  6  7  2  0  0  0  0
  7  8  1  0  0  0  0
  8  9  2  0  0  0  0
  8 39  1  0  0  0  0
  9 10  1  0  0  0  0
 10 14  1  0  0  0  0
 10 11  2  0  0  0  0
 11 12  1  0  0  0  0
 12 13  2  0  0  0  0
 13 14  1  0  0  0  0
 13 40  1  0  0  0  0
 14 15  1  0  0  0  0
 15 16  1  0  0  0  0
 15 41  1  0  0  0  0
 15 42  1  0  0  0  0
 16 17  1  0  0  0  0
 16 19  1  0  0  0  0
 16 43  1  0  0  0  0
 17 18  1  0  0  0  0
 17 44  1  0  0  0  0
 17 45  1  0  0  0  0
 18 46  1  0  0  0  0
 19 23  1  0  0  0  0
 19 20  1  0  0  0  0
 19 47  1  0  0  0  0
 20 21  1  0  0  0  0
 20 48  1  0  0  0  0
 20 49  1  0  0  0  0
 21 22  1  0  0  0  0
 21 50  1  0  0  0  0
 21 51  1  0  0  0  0
 22 23  1  0  0  0  0
 23 52  1  0  0  0  0
 23 53  1  0  0  0  0
 24 25  1  0  0  0  0
 24 54  1  0  0  0  0
 24 55  1  0  0  0  0
 25 30  1  0  0  0  0
 25 26  1  0  0  0  0
 26 27  1  0  0  0  0
 26 56  1  0  0  0  0
 26 57  1  0  0  0  0
 27 28  1  0  0  0  0
 27 58  1  0  0  0  0
 27 59  1  0  0  0  0
 28 29  1  0  0  0  0
 28 60  1  0  0  0  0
 28 61  1  0  0  0  0
 29 30  1  0  0  0  0
 29 62  1  0  0  0  0
 29 63  1  0  0  0  0
 30 64  1  0  0  0  0
 30 65  1  0  0  0  0
M  END
> <s_m_source_file>
AV-unprocessed.smi

> <i_m_source_file_index>
275

> <i_lp_mmshare_version>
43012

> <i_f3d_flags>
0

> <s_epik_input>
W0NIMl0xW0NIMl1bQ0gyXVtDSDJdW0NIMl1DMTJbQ0BIXShbQ0hdKFtDSDNdKVtDSDNdKU4oW0NIMl0yKWMobltjSF1uMyljKGMzNCluW2NIXW40W0NIMl1bQ0BIXShbQ0gyXVtPSF0pW0NAQEhdNVtDSDJdW0NIMl1PW0NIMl01

> <s_epik_cmdline>
J2VwaWtfcHl0aG9uJywgJy1waCcsICc3LjAnLCAnLXRuJywgJzgnLCAnLW1hJywgJzIwMCcsICctbWV0YWxfYmluZGluZycsICctaW1hZScsICc8aW5maWxlLm1hZT4nLCAnLW9tYWUnLCAnPG91dGZpbGUubWFlPic=

> <r_lp_tautomer_probability>
1

> <r_epik_Ionization_Penalty>
0.00375122

> <r_epik_Ionization_Penalty_Charging>
0

> <r_epik_Ionization_Penalty_Neutral>
0.00375122

> <r_epik_State_Penalty>
0.00260593

> <r_epik_Charging_Adjusted_Penalty>
0.00260593

> <i_epik_Tot_Q>
0

> <i_epik_Tot_abs_Q>
0

> <r_epik_Metal_State_Penalty>
-0

> <b_epik_Metal_Only>
0

> <s_lp_Force_Field>
OPLS_2005

> <r_lp_Energy>
62.8916

> <b_lp_Chiralities_Consistent>
1

> <s_lp_Variant>
AV-unprocessed.smi:275-5

> <Gold.Version>
5.8.1

> <Gold.Id.Protein>
6NUR|6NUR_protein|mol2

> <Gold.PLP.Fitness>
45.2365

> <Gold.PLP.PLP>
-46.3715

> <Gold.PLP.part.hbond>
-2.0000

> <Gold.PLP.part.metal>
0.0000

> <Gold.PLP.part.buried>
-4.7969

> <Gold.PLP.part.nonpolar>
-39.6327

> <Gold.PLP.part.repulsive>
0.1578

> <Gold.PLP.ligand.clash>
0.0000

> <Gold.PLP.ligand.torsion>
2.3878

> <Gold.PLP.Chemscore.Hbond>
1.0000

> <Gold.PLP.Chemscore.CHOScore>
0.0000

> <Gold.PLP.Chemscore.Metal>
0.0000

> <Gold.Chemscore.Hbonds>
donor molecule, donor type, donor heavy atom, donor atom, acceptor molecule, acceptor atom, score
      P1  H  6896  6908       L1    18  0.99

> <Gold.PLP.Chemscore.Internal.Correction>
0.6407

> <Gold.Rescore>
     Score         DG    S(hbond)    S(metal)    S(lipo)     H(rot)  DE(clash)    DE(int)     intcor
     12.50     -18.31       0.98        0.00     137.16       2.54       1.96       3.85       ----

> <Gold.Chemscore.Fitness>
12.4994

> <Gold.Chemscore.DG>
-18.3087

> <Gold.Chemscore.ZeroCoef>
-5.4800

> <Gold.Chemscore.Hbond>
0.9812

> <Gold.Chemscore.Metal>
0.0000

> <Gold.Chemscore.Lipo>
137.1628

> <Gold.Chemscore.Internal_Hbond>
0.0000

> <Gold.Chemscore.DEClash>
1.9587

> <Gold.Chemscore.DEInternal>
3.8506

> <Gold.Chemscore.Rot>
2.5377

> <Gold.Chemscore.Internal.Correction>
   9.000000E+99

> <Gold.Chemscore.Hbonds>
donor molecule, donor type, donor heavy atom, donor atom, acceptor molecule, acceptor atom, score
      P1  H  6896  6908       L1    18  0.83

> <Gold.Chemscore.Hbond.Weighted>
-3.2773

> <Gold.Chemscore.Metal.Weighted>
-0.0000

> <Gold.Chemscore.Lipo.Weighted>
-16.0480

> <Gold.Chemscore.Internal_Hbond.Weighted>
0.0000

> <Gold.Chemscore.DEClash.Weighted>
1.9587

> <Gold.Chemscore.DEInternal.Weighted>
3.8506

> <Gold.Chemscore.Rot.Weighted>
6.4966

> <Gold.Chemscore.Internal.Correction.Weighted>
   9.000000E+99

> <Gold.Protein.RotatedTorsions>
[ 6907 6896 6895 6894 ] final  128.09 input  -60.11 | X-H torsion
[ 7974 7965 7964 7962 ] final    8.71 input  175.53 | X-H torsion
[ 8008 7997 7996 7995 ] final  163.24 input   59.86 | X-H torsion
[ 10167 10162 10161 10158 ] final    4.96 input  -65.29 | X-H torsion
[ 10718 10713 10712 10709 ] final   80.69 input   66.30 | X-H torsion
[ 10763 10752 10751 10750 ] final  106.80 input  -60.55 | X-H torsion
[ 11005 11000 10999 10996 ] final -129.43 input  -57.11 | X-H torsion

> <Gold.Protein.ActiveResidues>
 VAL166  LYS551  ARG553  GLY616  TRP617  ASP618  TYR619  PRO620  LYS621  CYS622 
 ASP623  PHE694  ASN695  SER759  ASP760  ASP761  ALA762  ILE779  LEU786  VAL792 
 PHE793  MET794  SER795  GLU796  ALA797  LYS798  CYS799  TRP800  GLU811  SER814 

> <Gold.Protein.RotatedAtoms>
  152.3752  133.6471  159.6117 H   0  0  0  0  0  0  0  0  0  0  0  0  # atno 6907 bound_to 6896
  150.7698  133.9205  159.3405 H   0  0  0  0  0  0  0  0  0  0  0  0  # atno 6908 bound_to 6896
  151.7021  135.0929  160.0304 H   0  0  0  0  0  0  0  0  0  0  0  0  # atno 6909 bound_to 6896
  146.2413  139.9893  142.8427 H   0  0  0  0  0  0  0  0  0  0  0  0  # atno 7974 bound_to 7965
  156.1972  140.1729  156.7974 H   0  0  0  0  0  0  0  0  0  0  0  0  # atno 8008 bound_to 7997
  154.5545  140.0711  156.8752 H   0  0  0  0  0  0  0  0  0  0  0  0  # atno 8009 bound_to 7997
  155.2966  140.3359  155.4252 H   0  0  0  0  0  0  0  0  0  0  0  0  # atno 8010 bound_to 7997
  140.6507  143.7551  150.7571 H   0  0  0  0  0  0  0  0  0  0  0  0  # atno 10167 bound_to 10162
  157.6813  130.9971  150.2116 H   0  0  0  0  0  0  0  0  0  0  0  0  # atno 10718 bound_to 10713
  153.3979  135.3865  155.1968 H   0  0  0  0  0  0  0  0  0  0  0  0  # atno 10763 bound_to 10752
  154.8726  135.3764  154.4655 H   0  0  0  0  0  0  0  0  0  0  0  0  # atno 10764 bound_to 10752
  153.5149  135.7087  153.5823 H   0  0  0  0  0  0  0  0  0  0  0  0  # atno 10765 bound_to 10752
  140.9432  134.1165  157.4131 H   0  0  0  0  0  0  0  0  0  0  0  0  # atno 11005 bound_to 11000
  145.1518  140.9627  143.4428 LP  0  0  0  0  0  0  0  0  0  0  0  0  # atno 17320 bound_to 7965
  145.0198  139.3435  143.6078 LP  0  0  0  0  0  0  0  0  0  0  0  0  # atno 17321 bound_to 7965
  140.1201  143.4620  152.2318 LP  0  0  0  0  0  0  0  0  0  0  0  0  # atno 17342 bound_to 10162
  139.5722  144.7469  151.3859 LP  0  0  0  0  0  0  0  0  0  0  0  0  # atno 17343 bound_to 10162
  156.2786  130.3730  149.7958 LP  0  0  0  0  0  0  0  0  0  0  0  0  # atno 17370 bound_to 10713
  156.5653  130.8401  151.3341 LP  0  0  0  0  0  0  0  0  0  0  0  0  # atno 17371 bound_to 10713
  139.8826  135.0043  156.6242 LP  0  0  0  0  0  0  0  0  0  0  0  0  # atno 17394 bound_to 11000
  140.7705  133.8742  155.8488 LP  0  0  0  0  0  0  0  0  0  0  0  0  # atno 17395 bound_to 11000

$$$$
