AV-unprocessed.smi:1726|AV-procd|sdf|6964|dock8
  -GOLD-   22720 8173D 1   1.00000     0.00000
 Structure written by MMmdl.
 42 43  0  0  0  0  0  0  0  0  3 V2000
  145.6522  135.5975  151.6049 C   0  0  0  0  0  0  0  0  0  0  0  0
  145.9584  134.2134  152.1956 C   0  0  0  0  0  0  0  0  0  0  0  0
  147.2667  134.1669  152.8968 N   0  3  2  0  0  0  0  0  0  0  0  0
  147.8171  132.7878  152.9595 C   0  0  0  0  0  0  0  0  0  0  0  0
  149.2292  132.7767  153.5683 C   0  0  0  0  0  0  0  0  0  0  0  0
  149.2355  133.4283  154.9568 C   0  0  0  0  0  0  0  0  0  0  0  0
  148.6428  134.8431  154.8738 C   0  0  2  0  0  0  0  0  0  0  0  0
  148.5960  135.4421  156.2041 N   0  0  0  0  0  0  0  0  0  0  0  0
  148.0026  134.8949  157.2749 C   0  0  0  0  0  0  0  0  0  0  0  0
  147.4279  133.8066  157.2405 O   0  0  0  0  0  0  0  0  0  0  0  0
  148.1498  135.6786  158.3579 N   0  0  0  0  0  0  0  0  0  0  0  0
  147.6706  135.4883  159.6651 C   0  0  0  0  0  0  0  0  0  0  0  0
  146.7055  134.5937  160.0156 C   0  0  0  0  0  0  0  0  0  0  0  0
  146.2383  134.4488  161.3886 C   0  0  0  0  0  0  0  0  0  0  0  0
  145.1148  133.5153  161.8034 C   0  0  0  0  0  0  0  0  0  0  0  0
  144.0936  133.5856  160.9489 F   0  0  0  0  0  0  0  0  0  0  0  0
  145.5359  132.2515  161.8523 F   0  0  0  0  0  0  0  0  0  0  0  0
  144.6683  133.8520  163.0124 F   0  0  0  0  0  0  0  0  0  0  0  0
  146.8587  135.3330  162.2497 C   0  0  0  0  0  0  0  0  0  0  0  0
  147.8229  136.2419  161.9863 N   0  5  0  0  0  0  0  0  0  0  0  0
  148.2605  136.3612  160.7010 C   0  0  0  0  0  0  0  0  0  0  0  0
  149.1316  137.1741  160.3891 O   0  0  0  0  0  0  0  0  0  0  0  0
  147.2353  134.8027  154.2410 C   0  0  0  0  0  0  0  0  0  0  0  0
  144.7411  135.5642  151.0071 H   0  0  0  0  0  0  0  0  0  0  0  0
  146.4598  135.9364  150.9553 H   0  0  0  0  0  0  0  0  0  0  0  0
  145.5010  136.3508  152.3776 H   0  0  0  0  0  0  0  0  0  0  0  0
  145.1604  133.8961  152.8685 H   0  0  0  0  0  0  0  0  0  0  0  0
  145.9696  133.4983  151.3721 H   0  0  0  0  0  0  0  0  0  0  0  0
  147.1491  132.1552  153.5464 H   0  0  0  0  0  0  0  0  0  0  0  0
  147.8585  132.3605  151.9567 H   0  0  0  0  0  0  0  0  0  0  0  0
  149.5980  131.7529  153.6358 H   0  0  0  0  0  0  0  0  0  0  0  0
  149.9163  133.3100  152.9098 H   0  0  0  0  0  0  0  0  0  0  0  0
  148.6550  132.8182  155.6505 H   0  0  0  0  0  0  0  0  0  0  0  0
  150.2533  133.4644  155.3472 H   0  0  0  0  0  0  0  0  0  0  0  0
  149.2969  135.4477  154.2419 H   0  0  0  0  0  0  0  0  0  0  0  0
  149.0487  136.3374  156.3194 H   0  0  0  0  0  0  0  0  0  0  0  0
  148.7149  136.5075  158.2423 H   0  0  0  0  0  0  0  0  0  0  0  0
  146.2376  133.9668  159.2747 H   0  0  0  0  0  0  0  0  0  0  0  0
  146.5277  135.3082  163.3098 H   0  0  0  0  0  0  0  0  0  0  0  0
  146.8509  135.8189  154.1599 H   0  0  0  0  0  0  0  0  0  0  0  0
  146.5451  134.2559  154.8858 H   0  0  0  0  0  0  0  0  0  0  0  0
  147.9121  134.7029  152.3341 H   0  0  0  0  0  0  0  0  0  0  0  0
  1  2  1  0  0  0  0
  1 24  1  0  0  0  0
  1 25  1  0  0  0  0
  1 26  1  0  0  0  0
  2  3  1  0  0  0  0
  2 27  1  0  0  0  0
  2 28  1  0  0  0  0
  3 23  1  0  0  0  0
  3  4  1  0  0  0  0
  3 42  1  0  0  0  0
  4  5  1  0  0  0  0
  4 29  1  0  0  0  0
  4 30  1  0  0  0  0
  5  6  1  0  0  0  0
  5 31  1  0  0  0  0
  5 32  1  0  0  0  0
  6  7  1  0  0  0  0
  6 33  1  0  0  0  0
  6 34  1  0  0  0  0
  7  8  1  0  0  0  0
  7 23  1  0  0  0  0
  7 35  1  0  0  0  0
  8  9  1  0  0  0  0
  8 36  1  0  0  0  0
  9 10  2  0  0  0  0
  9 11  1  0  0  0  0
 11 12  1  0  0  0  0
 11 37  1  0  0  0  0
 12 21  1  0  0  0  0
 12 13  2  0  0  0  0
 13 14  1  0  0  0  0
 13 38  1  0  0  0  0
 14 15  1  0  0  0  0
 14 19  2  0  0  0  0
 15 16  1  0  0  0  0
 15 17  1  0  0  0  0
 15 18  1  0  0  0  0
 19 20  1  0  0  0  0
 19 39  1  0  0  0  0
 20 21  1  0  0  0  0
 21 22  2  0  0  0  0
 23 40  1  0  0  0  0
 23 41  1  0  0  0  0
M  CHG  1   3   1
M  CHG  1  20  -1
M  END
> <s_m_source_file>
AV-unprocessed.smi

> <i_m_source_file_index>
1726

> <i_lp_mmshare_version>
43012

> <i_f3d_flags>
0

> <s_epik_input>
W0NIM11bQ0gyXU4xW0NIMl1bQ0gyXVtDSDJdW0NASF0oW0NIMl0xKVtOSF1DKD1PKVtOSF1jMltjSF1jKEMoRikoRilGKVtjSF1bbkhdYzI9Tw==

> <s_epik_cmdline>
J2VwaWtfcHl0aG9uJywgJy1waCcsICc3LjAnLCAnLXRuJywgJzgnLCAnLW1hJywgJzIwMCcsICctbWV0YWxfYmluZGluZycsICctaW1hZScsICc8aW5maWxlLm1hZT4nLCAnLW9tYWUnLCAnPG91dGZpbGUubWFlPic=

> <r_lp_tautomer_probability>
1

> <r_epik_Ionization_Penalty>
3.01007

> <r_epik_Ionization_Penalty_Charging>
0.14897

> <r_epik_Ionization_Penalty_Neutral>
2.8611

> <r_epik_State_Penalty>
2.85632

> <r_epik_Charging_Adjusted_Penalty>
3.00529

> <i_epik_Tot_Q>
0

> <i_epik_Tot_abs_Q>
2

> <r_epik_Metal_State_Penalty>
0.443826

> <b_epik_Metal_Only>
1

> <s_lp_Force_Field>
OPLS_2005

> <r_lp_Energy>
27.5552

> <b_lp_Chiralities_Consistent>
1

> <s_lp_Variant>
AV-unprocessed.smi:1726-8

> <Gold.Version>
5.8.1

> <Gold.Id.Protein>
6NUR|6NUR_protein|mol2

> <Gold.PLP.Fitness>
39.0440

> <Gold.PLP.PLP>
-32.8962

> <Gold.PLP.part.hbond>
-2.1409

> <Gold.PLP.part.metal>
0.0000

> <Gold.PLP.part.buried>
-4.1946

> <Gold.PLP.part.nonpolar>
-27.4943

> <Gold.PLP.part.repulsive>
0.0532

> <Gold.PLP.ligand.clash>
0.0000

> <Gold.PLP.ligand.torsion>
0.7980

> <Gold.PLP.Chemscore.Hbond>
2.5600

> <Gold.PLP.Chemscore.CHOScore>
0.0000

> <Gold.PLP.Chemscore.Metal>
0.0000

> <Gold.Chemscore.Hbonds>
donor molecule, donor type, donor heavy atom, donor atom, acceptor molecule, acceptor atom, score
      L1  H     3    42       P1  7948  2.00
      P1  H  6931  6943       L1    22  0.52

> <Gold.PLP.Chemscore.Internal.Correction>
0.0638

> <Gold.Rescore>
     Score         DG    S(hbond)    S(metal)    S(lipo)     H(rot)  DE(clash)    DE(int)     intcor
     12.46     -15.36       1.83        0.00      60.33       1.28       0.06       2.84       ----

> <Gold.Chemscore.Fitness>
12.4645

> <Gold.Chemscore.DG>
-15.3628

> <Gold.Chemscore.ZeroCoef>
-5.4800

> <Gold.Chemscore.Hbond>
1.8263

> <Gold.Chemscore.Metal>
0.0000

> <Gold.Chemscore.Lipo>
60.3312

> <Gold.Chemscore.Internal_Hbond>
0.0000

> <Gold.Chemscore.DEClash>
0.0551

> <Gold.Chemscore.DEInternal>
2.8432

> <Gold.Chemscore.Rot>
1.2796

> <Gold.Chemscore.Internal.Correction>
   9.000000E+99

> <Gold.Chemscore.Hbonds>
donor molecule, donor type, donor heavy atom, donor atom, acceptor molecule, acceptor atom, score
      L1  H     3    42       P1  7948  0.60
      P1  H  6931  6943       L1    22  0.12

> <Gold.Chemscore.Hbond.Weighted>
-6.0999

> <Gold.Chemscore.Metal.Weighted>
-0.0000

> <Gold.Chemscore.Lipo.Weighted>
-7.0588

> <Gold.Chemscore.Internal_Hbond.Weighted>
0.0000

> <Gold.Chemscore.DEClash.Weighted>
0.0551

> <Gold.Chemscore.DEInternal.Weighted>
2.8432

> <Gold.Chemscore.Rot.Weighted>
3.2759

> <Gold.Chemscore.Internal.Correction.Weighted>
   9.000000E+99

> <Gold.Protein.RotatedTorsions>
[ 6907 6896 6895 6894 ] final   27.69 input  -60.11 | X-H torsion
[ 7974 7965 7964 7962 ] final   82.12 input  175.53 | X-H torsion
[ 8008 7997 7996 7995 ] final   69.52 input   59.86 | X-H torsion
[ 10167 10162 10161 10158 ] final  123.56 input  -65.29 | X-H torsion
[ 10718 10713 10712 10709 ] final  -75.65 input   66.30 | X-H torsion
[ 10763 10752 10751 10750 ] final -156.31 input  -60.55 | X-H torsion
[ 11005 11000 10999 10996 ] final   25.34 input  -57.11 | X-H torsion

> <Gold.Protein.ActiveResidues>
 VAL166  LYS551  ARG553  GLY616  TRP617  ASP618  TYR619  PRO620  LYS621  CYS622 
 ASP623  PHE694  ASN695  SER759  ASP760  ASP761  ALA762  ILE779  LEU786  VAL792 
 PHE793  MET794  SER795  GLU796  ALA797  LYS798  CYS799  TRP800  GLU811  SER814 

> <Gold.Protein.RotatedAtoms>
  152.0060  134.9902  160.0566 H   0  0  0  0  0  0  0  0  0  0  0  0  # atno 6907 bound_to 6896
  152.1474  133.4496  159.4805 H   0  0  0  0  0  0  0  0  0  0  0  0  # atno 6908 bound_to 6896
  150.6871  134.2149  159.4417 H   0  0  0  0  0  0  0  0  0  0  0  0  # atno 6909 bound_to 6896
  145.6292  139.2401  143.2094 H   0  0  0  0  0  0  0  0  0  0  0  0  # atno 7974 bound_to 7965
  155.7249  140.3493  155.5033 H   0  0  0  0  0  0  0  0  0  0  0  0  # atno 8008 bound_to 7997
  155.9235  140.1071  157.1209 H   0  0  0  0  0  0  0  0  0  0  0  0  # atno 8009 bound_to 7997
  154.4073  140.1245  156.4697 H   0  0  0  0  0  0  0  0  0  0  0  0  # atno 8010 bound_to 7997
  139.5792  144.6978  151.3572 H   0  0  0  0  0  0  0  0  0  0  0  0  # atno 10167 bound_to 10162
  156.0200  130.4446  150.3075 H   0  0  0  0  0  0  0  0  0  0  0  0  # atno 10718 bound_to 10713
  154.7722  135.3148  154.8165 H   0  0  0  0  0  0  0  0  0  0  0  0  # atno 10763 bound_to 10752
  153.8898  135.6826  153.4765 H   0  0  0  0  0  0  0  0  0  0  0  0  # atno 10764 bound_to 10752
  153.1338  135.4768  154.9326 H   0  0  0  0  0  0  0  0  0  0  0  0  # atno 10765 bound_to 10752
  140.3489  134.2251  155.7682 H   0  0  0  0  0  0  0  0  0  0  0  0  # atno 11005 bound_to 11000
  146.1370  140.7109  142.9385 LP  0  0  0  0  0  0  0  0  0  0  0  0  # atno 17320 bound_to 7965
  144.7200  140.4342  143.7015 LP  0  0  0  0  0  0  0  0  0  0  0  0  # atno 17321 bound_to 7965
  140.7072  143.7483  150.7503 LP  0  0  0  0  0  0  0  0  0  0  0  0  # atno 17342 bound_to 10162
  140.1011  143.4787  152.2424 LP  0  0  0  0  0  0  0  0  0  0  0  0  # atno 17343 bound_to 10162
  157.1178  131.0238  151.3022 LP  0  0  0  0  0  0  0  0  0  0  0  0  # atno 17370 bound_to 10713
  157.4653  130.7677  149.7273 LP  0  0  0  0  0  0  0  0  0  0  0  0  # atno 17371 bound_to 10713
  141.2018  133.7954  157.0424 LP  0  0  0  0  0  0  0  0  0  0  0  0  # atno 17394 bound_to 11000
  140.0719  134.9697  157.1482 LP  0  0  0  0  0  0  0  0  0  0  0  0  # atno 17395 bound_to 11000

$$$$
