AV-unprocessed.smi:2063|AV-procd|sdf|8408|dock7
  -GOLD-   2272011 93D 1   1.00000     0.00000
 Structure written by MMmdl.
 39 40  0  0  0  0  0  0  0  0  1 V2000
  151.9890  140.3848  158.4541 C   0  0  0  0  0  0  0  0  0  0  0  0
  151.5156  140.8755  157.0781 C   0  0  0  0  0  0  0  0  0  0  0  0
  150.2995  141.8100  157.1563 C   0  0  0  0  0  0  0  0  0  0  0  0
  151.2981  139.7456  156.1204 C   0  0  0  0  0  0  0  0  0  0  0  0
  152.0100  139.5956  154.9951 N   0  0  0  0  0  0  0  0  0  0  0  0
  151.6291  138.4728  154.2747 N   0  0  0  0  0  0  0  0  0  0  0  0
  150.6358  137.8053  154.8773 C   0  0  0  0  0  0  0  0  0  0  0  0
  150.0574  136.6158  154.3604 N   0  0  0  0  0  0  0  0  0  0  0  0
  149.9369  135.4188  154.9612 C   0  0  0  0  0  0  0  0  0  0  0  0
  150.3421  135.1465  156.0913 O   0  0  0  0  0  0  0  0  0  0  0  0
  149.3063  134.5406  154.1668 N   0  0  0  0  0  0  0  0  0  0  0  0
  149.0072  133.1476  154.4970 C   0  0  2  0  0  0  0  0  0  0  0  0
  150.3019  132.4624  154.9583 C   0  0  0  0  0  0  0  0  0  0  0  0
  148.3772  132.4261  153.2869 C   0  0  2  0  0  0  0  0  0  0  0  0
  147.1072  133.0741  152.7322 C   0  0  0  0  0  0  0  0  0  0  0  0
  146.4608  131.9119  152.0151 C   0  0  0  0  0  0  0  0  0  0  0  0
  146.7731  130.7505  152.9542 C   0  0  0  0  0  0  0  0  0  0  0  0
  147.9691  131.1073  153.6440 O   0  0  0  0  0  0  0  0  0  0  0  0
  150.0803  138.5024  156.3892 S   0  0  0  0  0  0  0  0  0  0  0  0
  152.9021  139.7953  158.3671 H   0  0  0  0  0  0  0  0  0  0  0  0
  151.2342  139.7614  158.9347 H   0  0  0  0  0  0  0  0  0  0  0  0
  152.1993  141.2232  159.1188 H   0  0  0  0  0  0  0  0  0  0  0  0
  152.3325  141.4711  156.6685 H   0  0  0  0  0  0  0  0  0  0  0  0
  150.0437  142.2033  156.1719 H   0  0  0  0  0  0  0  0  0  0  0  0
  150.4984  142.6599  157.8098 H   0  0  0  0  0  0  0  0  0  0  0  0
  149.4237  141.2901  157.5455 H   0  0  0  0  0  0  0  0  0  0  0  0
  149.6835  136.6872  153.4258 H   0  0  0  0  0  0  0  0  0  0  0  0
  149.0081  134.8587  153.2565 H   0  0  0  0  0  0  0  0  0  0  0  0
  148.3017  133.1085  155.3289 H   0  0  0  0  0  0  0  0  0  0  0  0
  150.1169  131.4304  155.2571 H   0  0  0  0  0  0  0  0  0  0  0  0
  150.7344  132.9775  155.8167 H   0  0  0  0  0  0  0  0  0  0  0  0
  151.0504  132.4494  154.1651 H   0  0  0  0  0  0  0  0  0  0  0  0
  149.1085  132.3386  152.4813 H   0  0  0  0  0  0  0  0  0  0  0  0
  146.4625  133.4158  153.5435 H   0  0  0  0  0  0  0  0  0  0  0  0
  147.3105  133.9206  152.0758 H   0  0  0  0  0  0  0  0  0  0  0  0
  145.3924  132.0498  151.8468 H   0  0  0  0  0  0  0  0  0  0  0  0
  146.9428  131.7553  151.0490 H   0  0  0  0  0  0  0  0  0  0  0  0
  145.9758  130.6260  153.6875 H   0  0  0  0  0  0  0  0  0  0  0  0
  146.8899  129.8084  152.4183 H   0  0  0  0  0  0  0  0  0  0  0  0
  1  2  1  0  0  0  0
  1 20  1  0  0  0  0
  1 21  1  0  0  0  0
  1 22  1  0  0  0  0
  2  3  1  0  0  0  0
  2  4  1  0  0  0  0
  2 23  1  0  0  0  0
  3 24  1  0  0  0  0
  3 25  1  0  0  0  0
  3 26  1  0  0  0  0
  4 19  1  0  0  0  0
  4  5  2  0  0  0  0
  5  6  1  0  0  0  0
  6  7  2  0  0  0  0
  7  8  1  0  0  0  0
  7 19  1  0  0  0  0
  8  9  1  0  0  0  0
  8 27  1  0  0  0  0
  9 10  2  0  0  0  0
  9 11  1  0  0  0  0
 11 12  1  0  0  0  0
 11 28  1  0  0  0  0
 12 13  1  0  0  0  0
 12 14  1  0  0  0  0
 12 29  1  0  0  0  0
 13 30  1  0  0  0  0
 13 31  1  0  0  0  0
 13 32  1  0  0  0  0
 14 18  1  0  0  0  0
 14 15  1  0  0  0  0
 14 33  1  0  0  0  0
 15 16  1  0  0  0  0
 15 34  1  0  0  0  0
 15 35  1  0  0  0  0
 16 17  1  0  0  0  0
 16 36  1  0  0  0  0
 16 37  1  0  0  0  0
 17 18  1  0  0  0  0
 17 38  1  0  0  0  0
 17 39  1  0  0  0  0
M  END
> <s_m_source_file>
AV-unprocessed.smi

> <i_m_source_file_index>
2063

> <i_lp_mmshare_version>
43012

> <i_f3d_flags>
0

> <s_epik_input>
W0NIM11bQ0hdKFtDSDNdKWMxbm5jKHMxKVtOSF1DKD1PKVtOSF1bQ0BIXShbQ0gzXSlbQ0BASF0yW0NIMl1bQ0gyXVtDSDJdTzI=

> <s_epik_cmdline>
J2VwaWtfcHl0aG9uJywgJy1waCcsICc3LjAnLCAnLXRuJywgJzgnLCAnLW1hJywgJzIwMCcsICctbWV0YWxfYmluZGluZycsICctaW1hZScsICc8aW5maWxlLm1hZT4nLCAnLW9tYWUnLCAnPG91dGZpbGUubWFlPic=

> <r_lp_tautomer_probability>
1

> <r_epik_Ionization_Penalty>
0.00050567

> <r_epik_Ionization_Penalty_Charging>
0

> <r_epik_Ionization_Penalty_Neutral>
0.00050567

> <r_epik_State_Penalty>
-0

> <r_epik_Charging_Adjusted_Penalty>
0

> <i_epik_Tot_Q>
0

> <i_epik_Tot_abs_Q>
0

> <r_epik_Metal_State_Penalty>
0.219912

> <b_epik_Metal_Only>
0

> <s_lp_Force_Field>
OPLS_2005

> <r_lp_Energy>
10.8376

> <b_lp_Chiralities_Consistent>
1

> <s_lp_Variant>
AV-unprocessed.smi:2063-1

> <Gold.Version>
5.8.1

> <Gold.Id.Protein>
6NUR|6NUR_protein|mol2

> <Gold.PLP.Fitness>
36.3867

> <Gold.PLP.PLP>
-29.6193

> <Gold.PLP.part.hbond>
-3.6045

> <Gold.PLP.part.metal>
0.0000

> <Gold.PLP.part.buried>
-4.0094

> <Gold.PLP.part.nonpolar>
-23.0297

> <Gold.PLP.part.repulsive>
0.3464

> <Gold.PLP.ligand.clash>
0.0000

> <Gold.PLP.ligand.torsion>
0.6042

> <Gold.PLP.Chemscore.Hbond>
2.6296

> <Gold.PLP.Chemscore.CHOScore>
0.0000

> <Gold.PLP.Chemscore.Metal>
0.0000

> <Gold.Chemscore.Hbonds>
donor molecule, donor type, donor heavy atom, donor atom, acceptor molecule, acceptor atom, score
      L1  H     8    27       P1  7948  1.00
      L1  H    11    28       P1  7948  0.85
      P1  H  7989  7998       L1     5  0.64

> <Gold.PLP.Chemscore.Internal.Correction>
0.0869

> <Gold.Rescore>
     Score         DG    S(hbond)    S(metal)    S(lipo)     H(rot)  DE(clash)    DE(int)     intcor
     12.24     -13.88       1.63        0.00      56.20       1.42       0.00       1.63       ----

> <Gold.Chemscore.Fitness>
12.2441

> <Gold.Chemscore.DG>
-13.8808

> <Gold.Chemscore.ZeroCoef>
-5.4800

> <Gold.Chemscore.Hbond>
1.6314

> <Gold.Chemscore.Metal>
0.0000

> <Gold.Chemscore.Lipo>
56.1965

> <Gold.Chemscore.Internal_Hbond>
0.0000

> <Gold.Chemscore.DEClash>
0.0043

> <Gold.Chemscore.DEInternal>
1.6325

> <Gold.Chemscore.Rot>
1.4152

> <Gold.Chemscore.Internal.Correction>
   9.000000E+99

> <Gold.Chemscore.Hbonds>
donor molecule, donor type, donor heavy atom, donor atom, acceptor molecule, acceptor atom, score
      L1  H     8    27       P1  7948  0.50
      L1  H    11    28       P1  7948  0.14
      P1  H  7989  7998       L1     5  0.06

> <Gold.Chemscore.Hbond.Weighted>
-5.4488

> <Gold.Chemscore.Metal.Weighted>
-0.0000

> <Gold.Chemscore.Lipo.Weighted>
-6.5750

> <Gold.Chemscore.Internal_Hbond.Weighted>
0.0000

> <Gold.Chemscore.DEClash.Weighted>
0.0043

> <Gold.Chemscore.DEInternal.Weighted>
1.6325

> <Gold.Chemscore.Rot.Weighted>
3.6229

> <Gold.Chemscore.Internal.Correction.Weighted>
   9.000000E+99

> <Gold.Protein.RotatedTorsions>
[ 6907 6896 6895 6894 ] final -159.18 input  -60.11 | X-H torsion
[ 7974 7965 7964 7962 ] final  -27.29 input  175.53 | X-H torsion
[ 8008 7997 7996 7995 ] final   -8.74 input   59.86 | X-H torsion
[ 10167 10162 10161 10158 ] final  148.20 input  -65.29 | X-H torsion
[ 10718 10713 10712 10709 ] final -104.03 input   66.30 | X-H torsion
[ 10763 10752 10751 10750 ] final  169.87 input  -60.55 | X-H torsion
[ 11005 11000 10999 10996 ] final -124.13 input  -57.11 | X-H torsion

> <Gold.Protein.ActiveResidues>
 VAL166  LYS551  ARG553  GLY616  TRP617  ASP618  TYR619  PRO620  LYS621  CYS622 
 ASP623  PHE694  ASN695  SER759  ASP760  ASP761  ALA762  ILE779  LEU786  VAL792 
 PHE793  MET794  SER795  GLU796  ALA797  LYS798  CYS799  TRP800  GLU811  SER814 

> <Gold.Protein.RotatedAtoms>
  151.3295  133.4006  159.2661 H   0  0  0  0  0  0  0  0  0  0  0  0  # atno 6907 bound_to 6896
  150.9967  134.9290  159.7941 H   0  0  0  0  0  0  0  0  0  0  0  0  # atno 6908 bound_to 6896
  152.5263  134.3260  159.9218 H   0  0  0  0  0  0  0  0  0  0  0  0  # atno 6909 bound_to 6896
  146.1368  140.5133  142.8669 H   0  0  0  0  0  0  0  0  0  0  0  0  # atno 7974 bound_to 7965
  154.5713  140.2373  155.8188 H   0  0  0  0  0  0  0  0  0  0  0  0  # atno 8008 bound_to 7997
  156.2109  140.3026  155.9687 H   0  0  0  0  0  0  0  0  0  0  0  0  # atno 8009 bound_to 7997
  155.2708  140.0418  157.2997 H   0  0  0  0  0  0  0  0  0  0  0  0  # atno 8010 bound_to 7997
  139.4878  144.5697  151.7078 H   0  0  0  0  0  0  0  0  0  0  0  0  # atno 10167 bound_to 10162
  156.0288  130.5496  150.7338 H   0  0  0  0  0  0  0  0  0  0  0  0  # atno 10718 bound_to 10713
  154.3894  135.2754  155.2163 H   0  0  0  0  0  0  0  0  0  0  0  0  # atno 10763 bound_to 10752
  154.4236  135.5994  153.6028 H   0  0  0  0  0  0  0  0  0  0  0  0  # atno 10764 bound_to 10752
  152.9832  135.5978  154.4147 H   0  0  0  0  0  0  0  0  0  0  0  0  # atno 10765 bound_to 10752
  140.9865  134.0600  157.3705 H   0  0  0  0  0  0  0  0  0  0  0  0  # atno 11005 bound_to 11000
  144.7748  140.5716  143.6645 LP  0  0  0  0  0  0  0  0  0  0  0  0  # atno 17320 bound_to 7965
  145.5139  139.1478  143.3590 LP  0  0  0  0  0  0  0  0  0  0  0  0  # atno 17321 bound_to 7965
  140.5282  144.0772  150.6044 LP  0  0  0  0  0  0  0  0  0  0  0  0  # atno 17342 bound_to 10162
  140.3753  143.2832  152.0232 LP  0  0  0  0  0  0  0  0  0  0  0  0  # atno 17343 bound_to 10162
  157.4924  131.0912  151.0411 LP  0  0  0  0  0  0  0  0  0  0  0  0  # atno 17370 bound_to 10713
  157.0814  130.5904  149.5421 LP  0  0  0  0  0  0  0  0  0  0  0  0  # atno 17371 bound_to 10713
  139.8973  135.0149  156.7092 LP  0  0  0  0  0  0  0  0  0  0  0  0  # atno 17394 bound_to 11000
  140.7107  133.9226  155.8082 LP  0  0  0  0  0  0  0  0  0  0  0  0  # atno 17395 bound_to 11000

$$$$
