AV-unprocessed.smi:927|AV-procd|sdf|4187|dock1
  -GOLD-   22720 2 93D 1   1.00000     0.00000
 Structure written by MMmdl.
 21 21  0  0  0  0  0  0  0  0  2 V2000
  142.3803  132.5384  148.3610 N   0  3  0  0  0  0  0  0  0  0  0  0
  143.6684  132.6752  149.0636 C   0  0  0  0  0  0  0  0  0  0  0  0
  143.5364  132.3676  150.5660 C   0  0  2  0  0  0  0  0  0  0  0  0
  142.6438  133.3001  151.1445 O   0  0  0  0  0  0  0  0  0  0  0  0
  144.8929  132.3867  151.2529 C   0  0  0  0  0  0  0  0  0  0  0  0
  145.3711  131.2419  151.9245 C   0  0  0  0  0  0  0  0  0  0  0  0
  146.6363  131.3022  152.5429 C   0  0  0  0  0  0  0  0  0  0  0  0
  147.4188  132.4021  152.5241 N   0  0  0  0  0  0  0  0  0  0  0  0
  146.9579  133.4946  151.8786 C   0  0  0  0  0  0  0  0  0  0  0  0
  145.7085  133.5390  151.2282 C   0  0  0  0  0  0  0  0  0  0  0  0
  142.0234  131.6020  148.4869 H   0  0  0  0  0  0  0  0  0  0  0  0
  142.5197  132.7169  147.3764 H   0  0  0  0  0  0  0  0  0  0  0  0
  144.3779  131.9873  148.6022 H   0  0  0  0  0  0  0  0  0  0  0  0
  144.0542  133.6834  148.9067 H   0  0  0  0  0  0  0  0  0  0  0  0
  143.0988  131.3763  150.6943 H   0  0  0  0  0  0  0  0  0  0  0  0
  142.1764  133.7386  150.4492 H   0  0  0  0  0  0  0  0  0  0  0  0
  144.7862  130.3348  151.9687 H   0  0  0  0  0  0  0  0  0  0  0  0
  147.0303  130.4431  153.0653 H   0  0  0  0  0  0  0  0  0  0  0  0
  147.6049  134.3595  151.8785 H   0  0  0  0  0  0  0  0  0  0  0  0
  145.3889  134.4388  150.7232 H   0  0  0  0  0  0  0  0  0  0  0  0
  141.7192  133.2054  148.7326 H   0  0  0  0  0  0  0  0  0  0  0  0
  1  2  1  0  0  0  0
  1 11  1  0  0  0  0
  1 12  1  0  0  0  0
  1 21  1  0  0  0  0
  2  3  1  0  0  0  0
  2 13  1  0  0  0  0
  2 14  1  0  0  0  0
  3  4  1  0  0  0  0
  3  5  1  0  0  0  0
  3 15  1  0  0  0  0
  4 16  1  0  0  0  0
  5 10  1  0  0  0  0
  5  6  2  0  0  0  0
  6  7  1  0  0  0  0
  6 17  1  0  0  0  0
  7  8  2  0  0  0  0
  7 18  1  0  0  0  0
  8  9  1  0  0  0  0
  9 10  2  0  0  0  0
  9 19  1  0  0  0  0
 10 20  1  0  0  0  0
M  CHG  1   1   1
M  END
> <s_m_source_file>
AV-unprocessed.smi

> <i_m_source_file_index>
927

> <i_lp_mmshare_version>
43012

> <i_f3d_flags>
0

> <s_epik_input>
W05IMl1bQ0gyXVtDQEhdKFtPSF0pYzFbY0hdW2NIXW5bY0hdW2NIXTE=

> <s_epik_cmdline>
J2VwaWtfcHl0aG9uJywgJy1waCcsICc3LjAnLCAnLXRuJywgJzgnLCAnLW1hJywgJzIwMCcsICctbWV0YWxfYmluZGluZycsICctaW1hZScsICc8aW5maWxlLm1hZT4nLCAnLW9tYWUnLCAnPG91dGZpbGUubWFlPic=

> <r_epik_Ionization_Penalty>
0.0159363

> <r_epik_Ionization_Penalty_Charging>
0.0140431

> <r_epik_Ionization_Penalty_Neutral>
0.00189321

> <r_epik_State_Penalty>
0.0109628

> <r_epik_Charging_Adjusted_Penalty>
0.0250059

> <i_epik_Tot_Q>
1

> <i_epik_Tot_abs_Q>
1

> <r_epik_Metal_State_Penalty>
0.0113463

> <b_epik_Metal_Only>
0

> <s_lp_Force_Field>
OPLS_2005

> <r_lp_Energy>
4.52457

> <b_lp_Chiralities_Consistent>
1

> <s_lp_Variant>
AV-unprocessed.smi:927-1

> <Gold.Version>
5.8.1

> <Gold.Id.Protein>
6NUR|6NUR_protein|mol2

> <Gold.PLP.Fitness>
41.3713

> <Gold.PLP.PLP>
-23.5228

> <Gold.PLP.part.hbond>
-4.0000

> <Gold.PLP.part.metal>
0.0000

> <Gold.PLP.part.buried>
-4.4400

> <Gold.PLP.part.nonpolar>
-16.1818

> <Gold.PLP.part.repulsive>
0.3933

> <Gold.PLP.ligand.clash>
0.0000

> <Gold.PLP.ligand.torsion>
0.0191

> <Gold.PLP.Chemscore.Hbond>
4.9600

> <Gold.PLP.Chemscore.CHOScore>
1.0000

> <Gold.PLP.Chemscore.Metal>
0.0000

> <Gold.Chemscore.Hbonds>
donor molecule, donor type, donor heavy atom, donor atom, acceptor molecule, acceptor atom, score
      L1  H     1    11       P1 10952  0.94
      L1  H     1    12       P1 10195  1.00
      L1  H     1    21       P1 10186  2.00
      L1  H     4    16       P1 10186  1.00
      L1  C     9    19       P1  7948  1.00

> <Gold.PLP.Chemscore.Internal.Correction>
0.0068

> <Gold.Rescore>
     Score         DG    S(hbond)    S(metal)    S(lipo)     H(rot)  DE(clash)    DE(int)     intcor
     20.20     -20.23       3.85        0.00      57.57       1.90       0.03       0.00       ----

> <Gold.Chemscore.Fitness>
20.1973

> <Gold.Chemscore.DG>
-20.2321

> <Gold.Chemscore.ZeroCoef>
-5.4800

> <Gold.Chemscore.Hbond>
3.8550

> <Gold.Chemscore.Metal>
0.0000

> <Gold.Chemscore.Lipo>
57.5691

> <Gold.Chemscore.Internal_Hbond>
0.0000

> <Gold.Chemscore.DEClash>
0.0303

> <Gold.Chemscore.DEInternal>
0.0045

> <Gold.Chemscore.Rot>
1.8981

> <Gold.Chemscore.Internal.Correction>
   9.000000E+99

> <Gold.Chemscore.Hbonds>
donor molecule, donor type, donor heavy atom, donor atom, acceptor molecule, acceptor atom, score
      L1  H     1    11       P1 10952  0.85
      L1  H     1    12       P1 10195  0.88
      L1  H     1    21       P1 10186  0.99
      L1  H     4    16       P1 10186  0.93

> <Gold.Chemscore.Hbond.Weighted>
-12.8756

> <Gold.Chemscore.Metal.Weighted>
-0.0000

> <Gold.Chemscore.Lipo.Weighted>
-6.7356

> <Gold.Chemscore.Internal_Hbond.Weighted>
0.0000

> <Gold.Chemscore.DEClash.Weighted>
0.0303

> <Gold.Chemscore.DEInternal.Weighted>
0.0045

> <Gold.Chemscore.Rot.Weighted>
4.8592

> <Gold.Chemscore.Internal.Correction.Weighted>
   9.000000E+99

> <Gold.Protein.RotatedTorsions>
[ 6907 6896 6895 6894 ] final   94.96 input  -60.11 | X-H torsion
[ 7974 7965 7964 7962 ] final   87.35 input  175.53 | X-H torsion
[ 8008 7997 7996 7995 ] final -137.50 input   59.86 | X-H torsion
[ 10167 10162 10161 10158 ] final -153.28 input  -65.29 | X-H torsion
[ 10718 10713 10712 10709 ] final   22.44 input   66.30 | X-H torsion
[ 10763 10752 10751 10750 ] final  105.76 input  -60.55 | X-H torsion
[ 11005 11000 10999 10996 ] final   93.90 input  -57.11 | X-H torsion

> <Gold.Protein.ActiveResidues>
 VAL166  LYS551  ARG553  GLY616  TRP617  ASP618  TYR619  PRO620  LYS621  CYS622 
 ASP623  PHE694  ASN695  SER759  ASP760  ASP761  ALA762  ILE779  LEU786  VAL792 
 PHE793  MET794  SER795  GLU796  ALA797  LYS798  CYS799  TRP800  GLU811  SER814 

> <Gold.Protein.RotatedAtoms>
  152.5446  134.1113  159.8359 H   0  0  0  0  0  0  0  0  0  0  0  0  # atno 6907 bound_to 6896
  151.1179  133.5118  159.2610 H   0  0  0  0  0  0  0  0  0  0  0  0  # atno 6908 bound_to 6896
  151.1811  135.0371  159.8847 H   0  0  0  0  0  0  0  0  0  0  0  0  # atno 6909 bound_to 6896
  145.5601  139.2303  143.2464 H   0  0  0  0  0  0  0  0  0  0  0  0  # atno 7974 bound_to 7965
  155.4128  140.0513  157.3030 H   0  0  0  0  0  0  0  0  0  0  0  0  # atno 8008 bound_to 7997
  154.4938  140.2130  155.9450 H   0  0  0  0  0  0  0  0  0  0  0  0  # atno 8009 bound_to 7997
  156.1378  140.3160  155.8454 H   0  0  0  0  0  0  0  0  0  0  0  0  # atno 8010 bound_to 7997
  139.7110  143.9109  152.2468 H   0  0  0  0  0  0  0  0  0  0  0  0  # atno 10167 bound_to 10162
  157.1524  130.6680  149.6016 H   0  0  0  0  0  0  0  0  0  0  0  0  # atno 10718 bound_to 10713
  153.3838  135.3899  155.1875 H   0  0  0  0  0  0  0  0  0  0  0  0  # atno 10763 bound_to 10752
  154.8711  135.3732  154.4823 H   0  0  0  0  0  0  0  0  0  0  0  0  # atno 10764 bound_to 10752
  153.5303  135.7086  153.5748 H   0  0  0  0  0  0  0  0  0  0  0  0  # atno 10765 bound_to 10752
  139.8804  134.8816  156.3786 H   0  0  0  0  0  0  0  0  0  0  0  0  # atno 11005 bound_to 11000
  146.1857  140.6426  142.9169 LP  0  0  0  0  0  0  0  0  0  0  0  0  # atno 17320 bound_to 7965
  144.7487  140.5134  143.6817 LP  0  0  0  0  0  0  0  0  0  0  0  0  # atno 17321 bound_to 7965
  139.8978  144.6929  150.8699 LP  0  0  0  0  0  0  0  0  0  0  0  0  # atno 17342 bound_to 10162
  140.7733  143.3537  151.1963 LP  0  0  0  0  0  0  0  0  0  0  0  0  # atno 17343 bound_to 10162
  155.9768  130.4740  150.6553 LP  0  0  0  0  0  0  0  0  0  0  0  0  # atno 17370 bound_to 10713
  157.4208  131.0836  151.1132 LP  0  0  0  0  0  0  0  0  0  0  0  0  # atno 17371 bound_to 10713
  140.9414  133.7512  156.0152 LP  0  0  0  0  0  0  0  0  0  0  0  0  # atno 17394 bound_to 11000
  140.8214  134.3284  157.5380 LP  0  0  0  0  0  0  0  0  0  0  0  0  # atno 17395 bound_to 11000

$$$$
