AV-unprocessed.smi:2068|AV-procd|sdf|8427|dock8
  -GOLD-   2272011123D 1   1.00000     0.00000
 Structure written by MMmdl.
 33 34  0  0  0  0  0  0  0  0  1 V2000
  147.4880  136.3000  153.9488 N   0  0  0  0  0  0  0  0  0  0  0  0
  147.5988  137.4950  154.5359 C   0  0  0  0  0  0  0  0  0  0  0  0
  147.0565  137.7531  155.6087 O   0  0  0  0  0  0  0  0  0  0  0  0
  148.4432  138.5509  153.8199 C   0  0  0  0  0  0  0  0  0  0  0  0
  149.7075  138.8160  154.5848 C   0  0  0  0  0  0  0  0  0  0  0  0
  150.9810  138.4410  154.2298 C   0  0  0  0  0  0  0  0  0  0  0  0
  152.1653  138.9509  155.4031 S   0  0  0  0  0  0  0  0  0  0  0  0
  150.8671  139.6682  156.3439 C   0  0  0  0  0  0  0  0  0  0  0  0
  151.1105  140.3417  157.5693 N   0  0  0  0  0  0  0  0  0  0  0  0
  152.2803  140.4997  158.2166 C   0  0  0  0  0  0  0  0  0  0  0  0
  153.3660  140.0846  157.8100 O   0  0  0  0  0  0  0  0  0  0  0  0
  152.2093  141.2659  159.5430 C   0  0  0  0  0  0  0  0  0  0  0  0
  152.7629  142.7059  159.4623 C   0  0  2  0  0  0  0  0  0  0  0  0
  152.5798  143.4996  160.7338 C   0  0  0  0  0  0  0  0  0  0  0  0
  151.9658  144.6627  160.5304 C   0  0  0  0  0  0  0  0  0  0  0  0
  151.6130  144.8826  159.0857 C   0  0  0  0  0  0  0  0  0  0  0  0
  152.0507  143.5730  158.3923 C   0  0  0  0  0  0  0  0  0  0  0  0
  149.6573  139.5206  155.7923 N   0  0  0  0  0  0  0  0  0  0  0  0
  146.9323  135.5774  154.3830 H   0  0  0  0  0  0  0  0  0  0  0  0
  147.9524  136.1265  153.0689 H   0  0  0  0  0  0  0  0  0  0  0  0
  148.6731  138.2040  152.8116 H   0  0  0  0  0  0  0  0  0  0  0  0
  147.8573  139.4636  153.7034 H   0  0  0  0  0  0  0  0  0  0  0  0
  151.2914  137.8936  153.3519 H   0  0  0  0  0  0  0  0  0  0  0  0
  150.2979  140.7471  158.0102 H   0  0  0  0  0  0  0  0  0  0  0  0
  151.1657  141.2939  159.8581 H   0  0  0  0  0  0  0  0  0  0  0  0
  152.7476  140.7110  160.3135 H   0  0  0  0  0  0  0  0  0  0  0  0
  153.8322  142.6782  159.2465 H   0  0  0  0  0  0  0  0  0  0  0  0
  152.9348  143.1477  161.6915 H   0  0  0  0  0  0  0  0  0  0  0  0
  151.7444  145.3925  161.2951 H   0  0  0  0  0  0  0  0  0  0  0  0
  150.5436  145.0633  158.9745 H   0  0  0  0  0  0  0  0  0  0  0  0
  152.1558  145.7453  158.6983 H   0  0  0  0  0  0  0  0  0  0  0  0
  152.7102  143.7757  157.5478 H   0  0  0  0  0  0  0  0  0  0  0  0
  151.1746  143.0601  157.9936 H   0  0  0  0  0  0  0  0  0  0  0  0
  1  2  1  0  0  0  0
  1 19  1  0  0  0  0
  1 20  1  0  0  0  0
  2  3  2  0  0  0  0
  2  4  1  0  0  0  0
  4  5  1  0  0  0  0
  4 21  1  0  0  0  0
  4 22  1  0  0  0  0
  5 18  1  0  0  0  0
  5  6  2  0  0  0  0
  6  7  1  0  0  0  0
  6 23  1  0  0  0  0
  7  8  1  0  0  0  0
  8  9  1  0  0  0  0
  8 18  2  0  0  0  0
  9 10  1  0  0  0  0
  9 24  1  0  0  0  0
 10 11  2  0  0  0  0
 10 12  1  0  0  0  0
 12 13  1  0  0  0  0
 12 25  1  0  0  0  0
 12 26  1  0  0  0  0
 13 17  1  0  0  0  0
 13 14  1  0  0  0  0
 13 27  1  0  0  0  0
 14 15  2  0  0  0  0
 14 28  1  0  0  0  0
 15 16  1  0  0  0  0
 15 29  1  0  0  0  0
 16 17  1  0  0  0  0
 16 30  1  0  0  0  0
 16 31  1  0  0  0  0
 17 32  1  0  0  0  0
 17 33  1  0  0  0  0
M  END
> <s_m_source_file>
AV-unprocessed.smi

> <i_m_source_file_index>
2068

> <i_lp_mmshare_version>
43012

> <i_f3d_flags>
0

> <s_epik_input>
W05IMl1DKD1PKVtDSDJdYzFbY0hdc2MobjEpW05IXUMoPU8pW0NIMl1bQ0BASF0yW0NIXT1bQ0hdW0NIMl1bQ0gyXTI=

> <s_epik_cmdline>
J2VwaWtfcHl0aG9uJywgJy1waCcsICc3LjAnLCAnLXRuJywgJzgnLCAnLW1hJywgJzIwMCcsICctbWV0YWxfYmluZGluZycsICctaW1hZScsICc8aW5maWxlLm1hZT4nLCAnLW9tYWUnLCAnPG91dGZpbGUubWFlPic=

> <r_lp_tautomer_probability>
1

> <r_epik_Ionization_Penalty>
0.000253249

> <r_epik_Ionization_Penalty_Charging>
0

> <r_epik_Ionization_Penalty_Neutral>
0.000253249

> <r_epik_State_Penalty>
-0

> <r_epik_Charging_Adjusted_Penalty>
0

> <i_epik_Tot_Q>
0

> <i_epik_Tot_abs_Q>
0

> <r_epik_Metal_State_Penalty>
0.148671

> <b_epik_Metal_Only>
0

> <s_lp_Force_Field>
OPLS_2005

> <r_lp_Energy>
16.3977

> <b_lp_Chiralities_Consistent>
1

> <s_lp_Variant>
AV-unprocessed.smi:2068-1

> <Gold.Version>
5.8.1

> <Gold.Id.Protein>
6NUR|6NUR_protein|mol2

> <Gold.PLP.Fitness>
44.0879

> <Gold.PLP.PLP>
-36.4194

> <Gold.PLP.part.hbond>
-2.0000

> <Gold.PLP.part.metal>
0.0000

> <Gold.PLP.part.buried>
-2.7028

> <Gold.PLP.part.nonpolar>
-31.4854

> <Gold.PLP.part.repulsive>
0.1013

> <Gold.PLP.ligand.clash>
0.0000

> <Gold.PLP.ligand.torsion>
0.3942

> <Gold.PLP.Chemscore.Hbond>
2.0000

> <Gold.PLP.Chemscore.CHOScore>
0.8122

> <Gold.PLP.Chemscore.Metal>
0.0000

> <Gold.Chemscore.Hbonds>
donor molecule, donor type, donor heavy atom, donor atom, acceptor molecule, acceptor atom, score
      L1  H     1    20       P1  7948  1.00
      P1  H  7997  8008       L1    11  0.78
      L1  C     6    23       P1  7949  0.67

> <Gold.PLP.Chemscore.Internal.Correction>
0.0203

> <Gold.Rescore>
     Score         DG    S(hbond)    S(metal)    S(lipo)     H(rot)  DE(clash)    DE(int)     intcor
     16.02     -17.77       1.98        0.00      96.72       2.21       0.01       1.74       ----

> <Gold.Chemscore.Fitness>
16.0235

> <Gold.Chemscore.DG>
-17.7734

> <Gold.Chemscore.ZeroCoef>
-5.4800

> <Gold.Chemscore.Hbond>
1.9830

> <Gold.Chemscore.Metal>
0.0000

> <Gold.Chemscore.Lipo>
96.7162

> <Gold.Chemscore.Internal_Hbond>
0.0000

> <Gold.Chemscore.DEClash>
0.0089

> <Gold.Chemscore.DEInternal>
1.7409

> <Gold.Chemscore.Rot>
2.2053

> <Gold.Chemscore.Internal.Correction>
   9.000000E+99

> <Gold.Chemscore.Hbonds>
donor molecule, donor type, donor heavy atom, donor atom, acceptor molecule, acceptor atom, score
      L1  H     1    20       P1  7948  0.97
      P1  H  7997  8008       L1    11  0.74

> <Gold.Chemscore.Hbond.Weighted>
-6.6232

> <Gold.Chemscore.Metal.Weighted>
-0.0000

> <Gold.Chemscore.Lipo.Weighted>
-11.3158

> <Gold.Chemscore.Internal_Hbond.Weighted>
0.0000

> <Gold.Chemscore.DEClash.Weighted>
0.0089

> <Gold.Chemscore.DEInternal.Weighted>
1.7409

> <Gold.Chemscore.Rot.Weighted>
5.6456

> <Gold.Chemscore.Internal.Correction.Weighted>
   9.000000E+99

> <Gold.Protein.RotatedTorsions>
[ 6907 6896 6895 6894 ] final   52.25 input  -60.11 | X-H torsion
[ 7974 7965 7964 7962 ] final  -76.82 input  175.53 | X-H torsion
[ 8008 7997 7996 7995 ] final  -82.40 input   59.86 | X-H torsion
[ 10167 10162 10161 10158 ] final  -28.20 input  -65.29 | X-H torsion
[ 10718 10713 10712 10709 ] final  129.97 input   66.30 | X-H torsion
[ 10763 10752 10751 10750 ] final  -37.56 input  -60.55 | X-H torsion
[ 11005 11000 10999 10996 ] final  -93.55 input  -57.11 | X-H torsion

> <Gold.Protein.ActiveResidues>
 VAL166  LYS551  ARG553  GLY616  TRP617  ASP618  TYR619  PRO620  LYS621  CYS622 
 ASP623  PHE694  ASN695  SER759  ASP760  ASP761  ALA762  ILE779  LEU786  VAL792 
 PHE793  MET794  SER795  GLU796  ALA797  LYS798  CYS799  TRP800  GLU811  SER814 

> <Gold.Protein.RotatedAtoms>
  152.3213  134.7376  160.0312 H   0  0  0  0  0  0  0  0  0  0  0  0  # atno 6907 bound_to 6896
  151.7823  133.3345  159.3483 H   0  0  0  0  0  0  0  0  0  0  0  0  # atno 6908 bound_to 6896
  150.7372  134.5850  159.6002 H   0  0  0  0  0  0  0  0  0  0  0  0  # atno 6909 bound_to 6896
  145.6078  140.9394  143.1206 H   0  0  0  0  0  0  0  0  0  0  0  0  # atno 7974 bound_to 7965
  154.6082  140.0634  156.9459 H   0  0  0  0  0  0  0  0  0  0  0  0  # atno 8008 bound_to 7997
  155.2017  140.3315  155.4324 H   0  0  0  0  0  0  0  0  0  0  0  0  # atno 8009 bound_to 7997
  156.2360  140.1863  156.7100 H   0  0  0  0  0  0  0  0  0  0  0  0  # atno 8010 bound_to 7997
  140.7272  143.4030  151.1233 H   0  0  0  0  0  0  0  0  0  0  0  0  # atno 10167 bound_to 10162
  157.5105  131.1096  150.9299 H   0  0  0  0  0  0  0  0  0  0  0  0  # atno 10718 bound_to 10713
  153.8983  135.6805  153.4756 H   0  0  0  0  0  0  0  0  0  0  0  0  # atno 10763 bound_to 10752
  153.1143  135.4768  154.9086 H   0  0  0  0  0  0  0  0  0  0  0  0  # atno 10764 bound_to 10752
  154.7588  135.3205  154.8372 H   0  0  0  0  0  0  0  0  0  0  0  0  # atno 10765 bound_to 10752
  141.1494  133.7895  157.0175 H   0  0  0  0  0  0  0  0  0  0  0  0  # atno 11005 bound_to 11000
  144.7282  139.7807  143.7357 LP  0  0  0  0  0  0  0  0  0  0  0  0  # atno 17320 bound_to 7965
  146.1527  139.4616  143.0038 LP  0  0  0  0  0  0  0  0  0  0  0  0  # atno 17321 bound_to 7965
  139.7652  143.8576  152.3109 LP  0  0  0  0  0  0  0  0  0  0  0  0  # atno 17342 bound_to 10162
  139.8475  144.7180  150.9254 LP  0  0  0  0  0  0  0  0  0  0  0  0  # atno 17343 bound_to 10162
  156.9941  130.5575  149.5306 LP  0  0  0  0  0  0  0  0  0  0  0  0  # atno 17370 bound_to 10713
  156.0286  130.5378  150.8473 LP  0  0  0  0  0  0  0  0  0  0  0  0  # atno 17371 bound_to 10713
  140.0837  134.9633  157.1666 LP  0  0  0  0  0  0  0  0  0  0  0  0  # atno 17394 bound_to 11000
  140.3541  134.2566  155.7195 LP  0  0  0  0  0  0  0  0  0  0  0  0  # atno 17395 bound_to 11000

$$$$
