AV-unprocessed.smi:2505|AV-procd|sdf|9853|dock1
  -GOLD-   2272013483D 1   1.00000     0.00000
 Structure written by MMmdl.
 48 52  0  0  0  0  0  0  0  0  1 V2000
  147.7050  135.8389  155.8532 O   0  0  0  0  0  0  0  0  0  0  0  0
  148.0396  136.0061  154.6828 C   0  0  0  0  0  0  0  0  0  0  0  0
  148.8586  136.9825  154.2489 N   0  0  0  0  0  0  0  0  0  0  0  0
  149.5504  137.9631  155.0077 C   0  0  0  0  0  0  0  0  0  0  0  0
  149.5151  138.0799  156.4192 C   0  0  0  0  0  0  0  0  0  0  0  0
  150.1934  139.0518  157.0670 N   0  0  0  0  0  0  0  0  0  0  0  0
  150.8894  139.9101  156.3164 C   0  0  0  0  0  0  0  0  0  0  0  0
  151.6728  140.9582  157.0441 C   0  0  0  0  0  0  0  0  0  0  0  0
  151.7264  140.9764  158.5582 C   0  0  0  0  0  0  0  0  0  0  0  0
  150.9689  142.0487  157.8257 C   0  0  0  0  0  0  0  0  0  0  0  0
  150.9982  139.8961  154.9852 N   0  0  0  0  0  0  0  0  0  0  0  0
  150.3225  138.9289  154.3290 C   0  0  0  0  0  0  0  0  0  0  0  0
  147.6093  135.1824  153.7122 N   0  0  0  0  0  0  0  0  0  0  0  0
  146.7169  134.0287  153.8384 C   0  0  2  0  0  0  0  0  0  0  0  0
  147.3572  132.7568  153.2801 C   0  0  1  0  0  0  0  0  0  0  0  0
  147.8552  131.4913  153.8821 C   0  0  0  0  0  0  0  0  0  0  0  0
  147.1849  130.5035  152.8906 C   0  0  0  0  0  0  0  0  0  0  0  0
  146.2624  131.2958  152.1040 O   0  0  0  0  0  0  0  0  0  0  0  0
  145.9297  132.3740  152.9548 C   0  0  2  0  0  0  0  0  0  0  0  0
  145.6794  133.8665  152.6583 C   0  0  0  0  0  0  0  0  0  0  0  0
  144.2515  134.3736  152.9038 C   0  0  0  0  0  0  0  0  0  0  0  0
  143.8733  135.3572  151.7902 C   0  0  0  0  0  0  0  0  0  0  0  0
  145.1695  135.6566  151.0474 C   0  0  0  0  0  0  0  0  0  0  0  0
  146.0172  134.4060  151.2567 C   0  0  0  0  0  0  0  0  0  0  0  0
  149.0800  136.9616  153.2640 H   0  0  0  0  0  0  0  0  0  0  0  0
  148.9399  137.4189  157.0479 H   0  0  0  0  0  0  0  0  0  0  0  0
  152.5766  141.2257  156.4999 H   0  0  0  0  0  0  0  0  0  0  0  0
  151.1439  140.2310  159.0965 H   0  0  0  0  0  0  0  0  0  0  0  0
  152.6701  141.2545  159.0227 H   0  0  0  0  0  0  0  0  0  0  0  0
  151.4054  143.0448  157.7995 H   0  0  0  0  0  0  0  0  0  0  0  0
  149.8822  142.0169  157.8777 H   0  0  0  0  0  0  0  0  0  0  0  0
  150.4053  138.9246  153.2522 H   0  0  0  0  0  0  0  0  0  0  0  0
  147.9418  135.3775  152.7789 H   0  0  0  0  0  0  0  0  0  0  0  0
  146.2942  133.8932  154.8383 H   0  0  0  0  0  0  0  0  0  0  0  0
  147.9413  132.9869  152.3838 H   0  0  0  0  0  0  0  0  0  0  0  0
  148.9428  131.4178  153.8756 H   0  0  0  0  0  0  0  0  0  0  0  0
  147.4937  131.3548  154.9022 H   0  0  0  0  0  0  0  0  0  0  0  0
  147.9133  130.0305  152.2315 H   0  0  0  0  0  0  0  0  0  0  0  0
  146.6519  129.7174  153.4268 H   0  0  0  0  0  0  0  0  0  0  0  0
  145.3545  132.0225  153.8192 H   0  0  0  0  0  0  0  0  0  0  0  0
  143.5378  133.5493  152.9242 H   0  0  0  0  0  0  0  0  0  0  0  0
  144.1742  134.8607  153.8751 H   0  0  0  0  0  0  0  0  0  0  0  0
  143.1657  134.8817  151.1099 H   0  0  0  0  0  0  0  0  0  0  0  0
  143.4013  136.2616  152.1756 H   0  0  0  0  0  0  0  0  0  0  0  0
  145.0083  135.8855  149.9936 H   0  0  0  0  0  0  0  0  0  0  0  0
  145.6630  136.5163  151.5021 H   0  0  0  0  0  0  0  0  0  0  0  0
  147.0742  134.6321  151.1161 H   0  0  0  0  0  0  0  0  0  0  0  0
  145.7547  133.6628  150.5027 H   0  0  0  0  0  0  0  0  0  0  0  0
  1  2  2  0  0  0  0
  2  3  1  0  0  0  0
  2 13  1  0  0  0  0
  3  4  1  0  0  0  0
  3 25  1  0  0  0  0
  4 12  1  0  0  0  0
  4  5  2  0  0  0  0
  5  6  1  0  0  0  0
  5 26  1  0  0  0  0
  6  7  2  0  0  0  0
  7  8  1  0  0  0  0
  7 11  1  0  0  0  0
  8 10  1  0  0  0  0
  8  9  1  0  0  0  0
  8 27  1  0  0  0  0
  9 10  1  0  0  0  0
  9 28  1  0  0  0  0
  9 29  1  0  0  0  0
 10 30  1  0  0  0  0
 10 31  1  0  0  0  0
 11 12  2  0  0  0  0
 12 32  1  0  0  0  0
 13 14  1  0  0  0  0
 13 33  1  0  0  0  0
 14 20  1  0  0  0  0
 14 15  1  0  0  0  0
 14 34  1  0  0  0  0
 15 19  1  0  0  0  0
 15 16  1  0  0  0  0
 15 35  1  0  0  0  0
 16 17  1  0  0  0  0
 16 36  1  0  0  0  0
 16 37  1  0  0  0  0
 17 18  1  0  0  0  0
 17 38  1  0  0  0  0
 17 39  1  0  0  0  0
 18 19  1  0  0  0  0
 19 20  1  0  0  0  0
 19 40  1  0  0  0  0
 20 24  1  0  0  0  0
 20 21  1  0  0  0  0
 21 22  1  0  0  0  0
 21 41  1  0  0  0  0
 21 42  1  0  0  0  0
 22 23  1  0  0  0  0
 22 43  1  0  0  0  0
 22 44  1  0  0  0  0
 23 24  1  0  0  0  0
 23 45  1  0  0  0  0
 23 46  1  0  0  0  0
 24 47  1  0  0  0  0
 24 48  1  0  0  0  0
M  END
> <s_m_source_file>
AV-unprocessed.smi

> <i_m_source_file_index>
2505

> <i_lp_mmshare_version>
43012

> <i_f3d_flags>
0

> <s_epik_input>
W0NIMl0xW0NIMl1bQ0hdMWMobltjSF0yKW5bY0hdYzJbTkhdQyg9TylbTkhdW0NAQEhdM1tDQEBIXShbQ0gyXVtDSDJdTzQpW0NASF00QzM1W0NIMl1bQ0gyXVtDSDJdW0NIMl01

> <s_epik_cmdline>
J2VwaWtfcHl0aG9uJywgJy1waCcsICc3LjAnLCAnLXRuJywgJzgnLCAnLW1hJywgJzIwMCcsICctbWV0YWxfYmluZGluZycsICctaW1hZScsICc8aW5maWxlLm1hZT4nLCAnLW9tYWUnLCAnPG91dGZpbGUubWFlPic=

> <r_lp_tautomer_probability>
1

> <r_epik_Ionization_Penalty>
2.6075e-05

> <r_epik_Ionization_Penalty_Charging>
0

> <r_epik_Ionization_Penalty_Neutral>
2.6075e-05

> <r_epik_State_Penalty>
-0

> <r_epik_Charging_Adjusted_Penalty>
0

> <i_epik_Tot_Q>
0

> <i_epik_Tot_abs_Q>
0

> <r_epik_Metal_State_Penalty>
-0

> <b_epik_Metal_Only>
0

> <s_lp_Force_Field>
OPLS_2005

> <r_lp_Energy>
84.8822

> <b_lp_Chiralities_Consistent>
1

> <s_lp_Variant>
AV-unprocessed.smi:2505-1

> <Gold.Version>
5.8.1

> <Gold.Id.Protein>
6NUR|6NUR_protein|mol2

> <Gold.PLP.Fitness>
43.1641

> <Gold.PLP.PLP>
-31.2711

> <Gold.PLP.part.hbond>
-2.7438

> <Gold.PLP.part.metal>
0.0000

> <Gold.PLP.part.buried>
-5.2047

> <Gold.PLP.part.nonpolar>
-24.7112

> <Gold.PLP.part.repulsive>
0.2446

> <Gold.PLP.ligand.clash>
0.0000

> <Gold.PLP.ligand.torsion>
0.2177

> <Gold.PLP.Chemscore.Hbond>
2.9760

> <Gold.PLP.Chemscore.CHOScore>
1.0000

> <Gold.PLP.Chemscore.Metal>
0.0000

> <Gold.Chemscore.Hbonds>
donor molecule, donor type, donor heavy atom, donor atom, acceptor molecule, acceptor atom, score
      L1  H     3    25       P1  7948  0.99
      L1  H    13    33       P1  7948  0.96
      P1  H  7989  7998       L1    11  0.95
      L1  C    12    32       P1  7957  1.00

> <Gold.PLP.Chemscore.Internal.Correction>
0.4003

> <Gold.Rescore>
     Score         DG    S(hbond)    S(metal)    S(lipo)     H(rot)  DE(clash)    DE(int)     intcor
     18.17     -19.81       2.51        0.00      76.52       1.17       0.20       1.44       ----

> <Gold.Chemscore.Fitness>
18.1727

> <Gold.Chemscore.DG>
-19.8080

> <Gold.Chemscore.ZeroCoef>
-5.4800

> <Gold.Chemscore.Hbond>
2.5093

> <Gold.Chemscore.Metal>
0.0000

> <Gold.Chemscore.Lipo>
76.5231

> <Gold.Chemscore.Internal_Hbond>
0.0000

> <Gold.Chemscore.DEClash>
0.1996

> <Gold.Chemscore.DEInternal>
1.4357

> <Gold.Chemscore.Rot>
1.1744

> <Gold.Chemscore.Internal.Correction>
   9.000000E+99

> <Gold.Chemscore.Hbonds>
donor molecule, donor type, donor heavy atom, donor atom, acceptor molecule, acceptor atom, score
      L1  H     3    25       P1  7948  0.91
      L1  H    13    33       P1  7948  0.91
      P1  H  7989  7998       L1    11  0.22

> <Gold.Chemscore.Hbond.Weighted>
-8.3812

> <Gold.Chemscore.Metal.Weighted>
-0.0000

> <Gold.Chemscore.Lipo.Weighted>
-8.9532

> <Gold.Chemscore.Internal_Hbond.Weighted>
0.0000

> <Gold.Chemscore.DEClash.Weighted>
0.1996

> <Gold.Chemscore.DEInternal.Weighted>
1.4357

> <Gold.Chemscore.Rot.Weighted>
3.0064

> <Gold.Chemscore.Internal.Correction.Weighted>
   9.000000E+99

> <Gold.Protein.RotatedTorsions>
[ 6907 6896 6895 6894 ] final   69.42 input  -60.11 | X-H torsion
[ 7974 7965 7964 7962 ] final   22.42 input  175.53 | X-H torsion
[ 8008 7997 7996 7995 ] final    3.80 input   59.86 | X-H torsion
[ 10167 10162 10161 10158 ] final   88.64 input  -65.29 | X-H torsion
[ 10718 10713 10712 10709 ] final  106.64 input   66.30 | X-H torsion
[ 10763 10752 10751 10750 ] final -115.57 input  -60.55 | X-H torsion
[ 11005 11000 10999 10996 ] final  158.74 input  -57.11 | X-H torsion

> <Gold.Protein.ActiveResidues>
 VAL166  LYS551  ARG553  GLY616  TRP617  ASP618  TYR619  PRO620  LYS621  CYS622 
 ASP623  PHE694  ASN695  SER759  ASP760  ASP761  ALA762  ILE779  LEU786  VAL792 
 PHE793  MET794  SER795  GLU796  ALA797  LYS798  CYS799  TRP800  GLU811  SER814 

> <Gold.Protein.RotatedAtoms>
  152.4685  134.5018  159.9726 H   0  0  0  0  0  0  0  0  0  0  0  0  # atno 6907 bound_to 6896
  151.5050  133.3490  159.2883 H   0  0  0  0  0  0  0  0  0  0  0  0  # atno 6908 bound_to 6896
  150.8682  134.8078  159.7196 H   0  0  0  0  0  0  0  0  0  0  0  0  # atno 6909 bound_to 6896
  146.2029  139.7887  142.8748 H   0  0  0  0  0  0  0  0  0  0  0  0  # atno 7974 bound_to 7965
  154.7081  140.2687  155.6655 H   0  0  0  0  0  0  0  0  0  0  0  0  # atno 8008 bound_to 7997
  156.2786  140.2759  156.1638 H   0  0  0  0  0  0  0  0  0  0  0  0  # atno 8009 bound_to 7997
  155.0672  140.0372  157.2586 H   0  0  0  0  0  0  0  0  0  0  0  0  # atno 8010 bound_to 7997
  139.8652  144.6522  150.9012 H   0  0  0  0  0  0  0  0  0  0  0  0  # atno 10167 bound_to 10162
  157.6660  131.0855  150.6037 H   0  0  0  0  0  0  0  0  0  0  0  0  # atno 10718 bound_to 10713
  154.8486  135.4377  154.1684 H   0  0  0  0  0  0  0  0  0  0  0  0  # atno 10763 bound_to 10752
  153.2803  135.6953  153.7398 H   0  0  0  0  0  0  0  0  0  0  0  0  # atno 10764 bound_to 10752
  153.6604  135.3436  155.3100 H   0  0  0  0  0  0  0  0  0  0  0  0  # atno 10765 bound_to 10752
  140.1894  134.8418  157.2895 H   0  0  0  0  0  0  0  0  0  0  0  0  # atno 11005 bound_to 11000
  145.3421  141.0290  143.3387 LP  0  0  0  0  0  0  0  0  0  0  0  0  # atno 17320 bound_to 7965
  144.8725  139.5018  143.6761 LP  0  0  0  0  0  0  0  0  0  0  0  0  # atno 17321 bound_to 7965
  140.7769  143.3710  151.1649 LP  0  0  0  0  0  0  0  0  0  0  0  0  # atno 17342 bound_to 10162
  139.7336  143.9034  152.3027 LP  0  0  0  0  0  0  0  0  0  0  0  0  # atno 17343 bound_to 10162
  156.6338  130.4439  149.5777 LP  0  0  0  0  0  0  0  0  0  0  0  0  # atno 17370 bound_to 10713
  156.2261  130.6767  151.1417 LP  0  0  0  0  0  0  0  0  0  0  0  0  # atno 17371 bound_to 10713
  140.2177  134.4062  155.7581 LP  0  0  0  0  0  0  0  0  0  0  0  0  # atno 17394 bound_to 11000
  141.2226  133.7150  156.8439 LP  0  0  0  0  0  0  0  0  0  0  0  0  # atno 17395 bound_to 11000

$$$$
