#       Name:                AV-unprocessed.smi:2816
#       Creating user name   scv26
#       Creation time:       Fri Mar 27 15:28:30 2020


#       File generated by GOLD software.
#

@<TRIPOS>MOLECULE
AV-unprocessed.smi:2816
    46    48     1
SMALL
NO_CHARGES


@<TRIPOS>ATOM
      1 ****        -5.7382   0.7205   0.4430 C.3            1 S1                 0.0000
      2 ****        -4.2016   0.6420   0.4492 C.3            1 S1                 0.0000
      3 ****        -3.6472   1.2971  -0.8290 C.3            1 S1                 0.0000
      4 ****        -3.6579   1.3583   1.6992 C.3            1 S1                 0.0000
      5 ****        -3.7261  -1.1577   0.4846 S.o2           1 S1                 0.0000
      6 ****        -4.1299  -1.7196   1.7834 O.2            1 S1                 0.0000
      7 ****        -4.2268  -1.7787  -0.7520 O.2            1 S1                 0.0000
      8 ****        -1.9335  -1.1941   0.4172 C.ar           1 S1                 0.0000
      9 ****        -1.2777  -1.3493  -0.8207 C.ar           1 S1                 0.0000
     10 ****         0.1293  -1.3274  -0.8338 C.ar           1 S1                 0.0000
     11 ****         0.8251  -1.1410   0.3845 C.ar           1 S1                 0.0000
     12 ****         2.2238  -1.0964   0.4769 N.pl3          1 S1                 0.0000
     13 ****         3.0638  -1.0045  -0.7121 C.3            1 S1                 0.0000
     14 ****         2.9530   0.3298  -1.4592 C.3            1 S1                 0.0000
     15 ****         4.4228   0.7637  -1.5476 C.3            1 S1                 0.0000
     16 ****         4.9364   1.2841  -0.1996 C.3            1 S1                 0.0000
     17 ****         5.0459  -0.0071   0.6085 C.3            1 S1                 0.0000
     18 ****         4.5716  -1.0622  -0.4067 C.3            1 S1                 0.0000
     19 ****         5.0752  -0.4943  -1.6043 O.3            1 S1                 0.0000
     20 ****         0.0609  -0.9901   1.5620 C.ar           1 S1                 0.0000
     21 ****        -1.2881  -1.0075   1.5883 N.ar           1 S1                 0.0000
     22 ****        -6.0842   1.7545   0.4252 H              1 S1                 0.0000
     23 ****        -6.1619   0.2462   1.3287 H              1 S1                 0.0000
     24 ****        -6.1575   0.2187  -0.4296 H              1 S1                 0.0000
     25 ****        -4.0001   0.7853  -1.7248 H              1 S1                 0.0000
     26 ****        -2.5576   1.2825  -0.8478 H              1 S1                 0.0000
     27 ****        -3.9578   2.3397  -0.9035 H              1 S1                 0.0000
     28 ****        -3.9964   2.3942   1.7356 H              1 S1                 0.0000
     29 ****        -2.5689   1.3778   1.7131 H              1 S1                 0.0000
     30 ****        -3.9941   0.8726   2.6157 H              1 S1                 0.0000
     31 ****        -1.8334  -1.4781  -1.7375 H              1 S1                 0.0000
     32 ****         0.6485  -1.4491  -1.7722 H              1 S1                 0.0000
     33 ****         2.6514  -0.9265   1.3761 H              1 S1                 0.0000
     34 ****         2.8229  -1.8256  -1.3884 H              1 S1                 0.0000
     35 ****         2.5324   0.1720  -2.4529 H              1 S1                 0.0000
     36 ****         2.3399   1.0728  -0.9467 H              1 S1                 0.0000
     37 ****         4.6400   1.4236  -2.3877 H              1 S1                 0.0000
     38 ****         5.9161   1.7503  -0.3101 H              1 S1                 0.0000
     39 ****         4.2601   2.0110   0.2514 H              1 S1                 0.0000
     40 ****         6.0839  -0.1880   0.8901 H              1 S1                 0.0000
     41 ****         4.4503   0.0105   1.5212 H              1 S1                 0.0000
     42 ****         4.9400  -2.0675  -0.2009 H              1 S1                 0.0000
     43 ****         0.5474  -0.8427   2.5153 H              1 S1                 0.0000
     44 ****         6.0706  -0.4012  -1.5851 LP             1 S1                 0.0000
     45 ****         4.8051  -1.0203  -2.4108 LP             1 S1                 0.0000
     46 ****        -1.7914  -0.8866   2.4439 LP             1 S1                 0.0000
@<TRIPOS>BOND
    1    1    2 1     
    2    1   22 1     
    3    1   23 1     
    4    1   24 1     
    5    2    3 1     
    6    2    4 1     
    7    2    5 1     
    8    3   25 1     
    9    3   26 1     
   10    3   27 1     
   11    4   28 1     
   12    4   29 1     
   13    4   30 1     
   14    5    6 2     
   15    5    7 2     
   16    5    8 1     
   17    8   21 ar    
   18    8    9 ar    
   19    9   10 ar    
   20    9   31 1     
   21   10   11 ar    
   22   10   32 1     
   23   11   12 1     
   24   11   20 ar    
   25   12   13 1     
   26   12   33 1     
   27   13   18 1     
   28   13   14 1     
   29   13   34 1     
   30   14   15 1     
   31   14   35 1     
   32   14   36 1     
   33   15   19 1     
   34   15   16 1     
   35   15   37 1     
   36   16   17 1     
   37   16   38 1     
   38   16   39 1     
   39   17   18 1     
   40   17   40 1     
   41   17   41 1     
   42   18   19 1     
   43   18   42 1     
   44   20   21 ar    
   45   20   43 1     
   46   19   44 1     
   47   19   45 1     
   48   21   46 1     
@<TRIPOS>SUBSTRUCTURE
      1 S1             1
@<TRIPOS>SET
LONE_PAIRS      STATIC     ATOMS    <user>   **** ""
5 6 7 44 45 46
DONOR_HYDROGENS      STATIC     ATOMS    <user>   **** ""
1 33
ATOM$BLUE        STATIC     ATOMS    COLORGROUP SYSTEM
5 6 7 44 45 46
ATOM$RED        STATIC     ATOMS    COLORGROUP SYSTEM
1 33
