AV-unprocessed.smi:2971|AV-procd|sdf|11333|dock4
  -GOLD-   2272016243D 1   1.00000     0.00000
 Structure written by MMmdl.
 36 38  0  0  0  0  0  0  0  0  1 V2000
  151.1327  140.0449  154.7139 O   0  0  0  0  0  0  0  0  0  0  0  0
  150.0582  140.6783  155.3809 C   0  0  1  0  0  0  0  0  0  0  0  0
  150.5749  141.9836  156.0063 C   0  0  0  0  0  0  0  0  0  0  0  0
  151.3256  141.6702  157.1722 O   0  0  0  0  0  0  0  0  0  0  0  0
  151.5157  142.6591  158.1146 C   0  0  0  0  0  0  0  0  0  0  0  0
  151.1939  144.0253  157.9094 C   0  0  0  0  0  0  0  0  0  0  0  0
  151.4208  144.9726  158.9268 C   0  0  0  0  0  0  0  0  0  0  0  0
  151.9686  144.5702  160.1585 C   0  0  0  0  0  0  0  0  0  0  0  0
  152.2900  143.2171  160.3720 C   0  0  0  0  0  0  0  0  0  0  0  0
  152.0650  142.2689  159.3549 C   0  0  0  0  0  0  0  0  0  0  0  0
  152.3807  140.9699  159.5730 F   0  0  0  0  0  0  0  0  0  0  0  0
  148.9240  140.9367  154.3698 C   0  0  0  0  0  0  0  0  0  0  0  0
  147.6139  140.9694  154.9961 N   0  0  0  0  0  0  0  0  0  0  0  0
  147.1369  140.1110  155.9177 C   0  0  0  0  0  0  0  0  0  0  0  0
  145.9042  140.3236  156.3694 N   0  0  0  0  0  0  0  0  0  0  0  0
  145.5370  141.4524  155.6567 C   0  0  0  0  0  0  0  0  0  0  0  0
  144.3354  142.1962  155.6728 C   0  0  0  0  0  0  0  0  0  0  0  0
  144.1854  143.3295  154.8465 C   0  0  0  0  0  0  0  0  0  0  0  0
  145.2314  143.7349  153.9921 C   0  0  0  0  0  0  0  0  0  0  0  0
  146.4379  143.0099  153.9588 C   0  0  0  0  0  0  0  0  0  0  0  0
  146.5847  141.8813  154.7866 C   0  0  0  0  0  0  0  0  0  0  0  0
  150.8133  139.2436  154.3275 H   0  0  0  0  0  0  0  0  0  0  0  0
  149.6891  140.0171  156.1663 H   0  0  0  0  0  0  0  0  0  0  0  0
  151.1656  142.5515  155.2848 H   0  0  0  0  0  0  0  0  0  0  0  0
  149.7255  142.6017  156.3020 H   0  0  0  0  0  0  0  0  0  0  0  0
  150.7713  144.3738  156.9796 H   0  0  0  0  0  0  0  0  0  0  0  0
  151.1732  146.0109  158.7607 H   0  0  0  0  0  0  0  0  0  0  0  0
  152.1420  145.2975  160.9380 H   0  0  0  0  0  0  0  0  0  0  0  0
  152.7099  142.9052  161.3169 H   0  0  0  0  0  0  0  0  0  0  0  0
  149.0797  141.8914  153.8658 H   0  0  0  0  0  0  0  0  0  0  0  0
  148.9227  140.1724  153.5914 H   0  0  0  0  0  0  0  0  0  0  0  0
  147.7297  139.2830  156.2782 H   0  0  0  0  0  0  0  0  0  0  0  0
  143.5271  141.8939  156.3221 H   0  0  0  0  0  0  0  0  0  0  0  0
  143.2627  143.8904  154.8677 H   0  0  0  0  0  0  0  0  0  0  0  0
  145.1062  144.6028  153.3611 H   0  0  0  0  0  0  0  0  0  0  0  0
  147.2401  143.3148  153.3033 H   0  0  0  0  0  0  0  0  0  0  0  0
  1  2  1  0  0  0  0
  1 22  1  0  0  0  0
  2  3  1  0  0  0  0
  2 12  1  0  0  0  0
  2 23  1  0  0  0  0
  3  4  1  0  0  0  0
  3 24  1  0  0  0  0
  3 25  1  0  0  0  0
  4  5  1  0  0  0  0
  5 10  1  0  0  0  0
  5  6  2  0  0  0  0
  6  7  1  0  0  0  0
  6 26  1  0  0  0  0
  7  8  2  0  0  0  0
  7 27  1  0  0  0  0
  8  9  1  0  0  0  0
  8 28  1  0  0  0  0
  9 10  2  0  0  0  0
  9 29  1  0  0  0  0
 10 11  1  0  0  0  0
 12 13  1  0  0  0  0
 12 30  1  0  0  0  0
 12 31  1  0  0  0  0
 13 21  1  0  0  0  0
 13 14  1  0  0  0  0
 14 15  2  0  0  0  0
 14 32  1  0  0  0  0
 15 16  1  0  0  0  0
 16 21  2  0  0  0  0
 16 17  1  0  0  0  0
 17 18  2  0  0  0  0
 17 33  1  0  0  0  0
 18 19  1  0  0  0  0
 18 34  1  0  0  0  0
 19 20  2  0  0  0  0
 19 35  1  0  0  0  0
 20 21  1  0  0  0  0
 20 36  1  0  0  0  0
M  END
> <s_m_source_file>
AV-unprocessed.smi

> <i_m_source_file_index>
2971

> <i_lp_mmshare_version>
43012

> <i_f3d_flags>
0

> <s_epik_input>
W2NIXTFbY0hdW2NIXVtjSF1jKGMxMiluKFtjSF1uMilbQ0gyXVtDQEhdKFtPSF0pW0NIMl1PYzNbY0hdW2NIXVtjSF1bY0hdYzNG

> <s_epik_cmdline>
J2VwaWtfcHl0aG9uJywgJy1waCcsICc3LjAnLCAnLXRuJywgJzgnLCAnLW1hJywgJzIwMCcsICctbWV0YWxfYmluZGluZycsICctaW1hZScsICc8aW5maWxlLm1hZT4nLCAnLW9tYWUnLCAnPG91dGZpbGUubWFlPic=

> <r_lp_tautomer_probability>
1

> <r_epik_Ionization_Penalty>
0.0600913

> <r_epik_Ionization_Penalty_Charging>
0

> <r_epik_Ionization_Penalty_Neutral>
0.0600913

> <r_epik_State_Penalty>
0.0520726

> <r_epik_Charging_Adjusted_Penalty>
0.0520726

> <i_epik_Tot_Q>
0

> <i_epik_Tot_abs_Q>
0

> <r_epik_Metal_State_Penalty>
5.44269e-05

> <b_epik_Metal_Only>
0

> <s_lp_Force_Field>
OPLS_2005

> <r_lp_Energy>
16.3694

> <b_lp_Chiralities_Consistent>
1

> <s_lp_Variant>
AV-unprocessed.smi:2971-2

> <Gold.Version>
5.8.1

> <Gold.Id.Protein>
6NUR|6NUR_protein|mol2

> <Gold.PLP.Fitness>
47.7751

> <Gold.PLP.PLP>
-46.4076

> <Gold.PLP.part.hbond>
-1.0000

> <Gold.PLP.part.metal>
0.0000

> <Gold.PLP.part.buried>
-6.0614

> <Gold.PLP.part.nonpolar>
-39.9074

> <Gold.PLP.part.repulsive>
0.0586

> <Gold.PLP.ligand.clash>
0.0000

> <Gold.PLP.ligand.torsion>
0.8469

> <Gold.PLP.Chemscore.Hbond>
1.0000

> <Gold.PLP.Chemscore.CHOScore>
0.0000

> <Gold.PLP.Chemscore.Metal>
0.0000

> <Gold.Chemscore.Hbonds>
donor molecule, donor type, donor heavy atom, donor atom, acceptor molecule, acceptor atom, score
      P1  H  7989  7998       L1     1  1.00

> <Gold.PLP.Chemscore.Internal.Correction>
0.0612

> <Gold.Rescore>
     Score         DG    S(hbond)    S(metal)    S(lipo)     H(rot)  DE(clash)    DE(int)     intcor
     14.80     -16.05       0.83        0.00     118.62       2.37       0.16       1.08       ----

> <Gold.Chemscore.Fitness>
14.8028

> <Gold.Chemscore.DG>
-16.0502

> <Gold.Chemscore.ZeroCoef>
-5.4800

> <Gold.Chemscore.Hbond>
0.8287

> <Gold.Chemscore.Metal>
0.0000

> <Gold.Chemscore.Lipo>
118.6196

> <Gold.Chemscore.Internal_Hbond>
0.0000

> <Gold.Chemscore.DEClash>
0.1647

> <Gold.Chemscore.DEInternal>
1.0828

> <Gold.Chemscore.Rot>
2.3735

> <Gold.Chemscore.Internal.Correction>
   9.000000E+99

> <Gold.Chemscore.Hbonds>
donor molecule, donor type, donor heavy atom, donor atom, acceptor molecule, acceptor atom, score
      P1  H  7989  7998       L1     1  0.35

> <Gold.Chemscore.Hbond.Weighted>
-2.7679

> <Gold.Chemscore.Metal.Weighted>
-0.0000

> <Gold.Chemscore.Lipo.Weighted>
-13.8785

> <Gold.Chemscore.Internal_Hbond.Weighted>
0.0000

> <Gold.Chemscore.DEClash.Weighted>
0.1647

> <Gold.Chemscore.DEInternal.Weighted>
1.0828

> <Gold.Chemscore.Rot.Weighted>
6.0762

> <Gold.Chemscore.Internal.Correction.Weighted>
   9.000000E+99

> <Gold.Protein.RotatedTorsions>
[ 6907 6896 6895 6894 ] final   -2.81 input  -60.11 | X-H torsion
[ 7974 7965 7964 7962 ] final  113.00 input  175.53 | X-H torsion
[ 8008 7997 7996 7995 ] final   60.62 input   59.86 | X-H torsion
[ 10167 10162 10161 10158 ] final -108.22 input  -65.29 | X-H torsion
[ 10718 10713 10712 10709 ] final   95.57 input   66.30 | X-H torsion
[ 10763 10752 10751 10750 ] final  -64.56 input  -60.55 | X-H torsion
[ 11005 11000 10999 10996 ] final  -80.30 input  -57.11 | X-H torsion

> <Gold.Protein.ActiveResidues>
 VAL166  LYS551  ARG553  GLY616  TRP617  ASP618  TYR619  PRO620  LYS621  CYS622 
 ASP623  PHE694  ASN695  SER759  ASP760  ASP761  ALA762  ILE779  LEU786  VAL792 
 PHE793  MET794  SER795  GLU796  ALA797  LYS798  CYS799  TRP800  GLU811  SER814 

> <Gold.Protein.RotatedAtoms>
  151.5238  135.1067  159.9885 H   0  0  0  0  0  0  0  0  0  0  0  0  # atno 6907 bound_to 6896
  152.4608  133.7815  159.6864 H   0  0  0  0  0  0  0  0  0  0  0  0  # atno 6908 bound_to 6896
  150.8570  133.7635  159.3030 H   0  0  0  0  0  0  0  0  0  0  0  0  # atno 6909 bound_to 6896
  145.2225  139.2856  143.4211 H   0  0  0  0  0  0  0  0  0  0  0  0  # atno 7974 bound_to 7965
  155.5852  140.3492  155.4551 H   0  0  0  0  0  0  0  0  0  0  0  0  # atno 8008 bound_to 7997
  156.0343  140.1281  157.0250 H   0  0  0  0  0  0  0  0  0  0  0  0  # atno 8009 bound_to 7997
  154.4365  140.1037  156.6130 H   0  0  0  0  0  0  0  0  0  0  0  0  # atno 8010 bound_to 7997
  140.1685  143.4062  152.1372 H   0  0  0  0  0  0  0  0  0  0  0  0  # atno 10167 bound_to 10162
  157.6937  131.0550  150.4359 H   0  0  0  0  0  0  0  0  0  0  0  0  # atno 10718 bound_to 10713
  154.3320  135.6174  153.5556 H   0  0  0  0  0  0  0  0  0  0  0  0  # atno 10763 bound_to 10752
  152.9810  135.5749  154.4951 H   0  0  0  0  0  0  0  0  0  0  0  0  # atno 10764 bound_to 10752
  154.4639  135.2857  155.1669 H   0  0  0  0  0  0  0  0  0  0  0  0  # atno 10765 bound_to 10752
  141.1668  133.7144  156.8252 H   0  0  0  0  0  0  0  0  0  0  0  0  # atno 11005 bound_to 11000
  146.3372  140.2535  142.8599 LP  0  0  0  0  0  0  0  0  0  0  0  0  # atno 17320 bound_to 7965
  144.9752  140.8407  143.5431 LP  0  0  0  0  0  0  0  0  0  0  0  0  # atno 17321 bound_to 7965
  139.5349  144.7198  151.4929 LP  0  0  0  0  0  0  0  0  0  0  0  0  # atno 17342 bound_to 10162
  140.6597  143.8524  150.6874 LP  0  0  0  0  0  0  0  0  0  0  0  0  # atno 17343 bound_to 10162
  156.4722  130.4055  149.6511 LP  0  0  0  0  0  0  0  0  0  0  0  0  # atno 17370 bound_to 10713
  156.3587  130.7470  151.2440 LP  0  0  0  0  0  0  0  0  0  0  0  0  # atno 17371 bound_to 10713
  140.2090  134.8841  157.3254 LP  0  0  0  0  0  0  0  0  0  0  0  0  # atno 17394 bound_to 11000
  140.2106  134.4143  155.7614 LP  0  0  0  0  0  0  0  0  0  0  0  0  # atno 17395 bound_to 11000

$$$$
