#       Name:                AV-unprocessed.smi:3323
#       Creating user name   scv26
#       Creation time:       Fri Mar 27 19:12:34 2020


#       File generated by GOLD software.
#

@<TRIPOS>MOLECULE
AV-unprocessed.smi:3323
    42    43     1
SMALL
NO_CHARGES


@<TRIPOS>ATOM
      1 ****        -2.4744  -2.5910  -0.2205 C.3            1 S1                 0.0000
      2 ****        -1.9113  -1.7549   0.9338 C.3            1 S1                 0.0000
      3 ****        -2.1116  -0.2437   0.7054 C.3            1 S1                 0.0000
      4 ****        -1.6058   0.5838   1.9042 C.3            1 S1                 0.0000
      5 ****        -0.0652   0.6613   2.0222 C.3            1 S1                 0.0000
      6 ****         0.5486   1.3125   0.8681 N.am           1 S1                 0.0000
      7 ****         1.1976   0.6887  -0.1259 C.2            1 S1                 0.0000
      8 ****         1.3391  -0.5325  -0.1857 O.2            1 S1                 0.0000
      9 ****         1.6395   1.5677  -1.0416 N.am           1 S1                 0.0000
     10 ****         2.3714   1.3135  -2.2331 C.ar           1 S1                 0.0000
     11 ****         3.1476   0.1511  -2.4609 C.ar           1 S1                 0.0000
     12 ****         3.8430   0.0264  -3.6792 C.ar           1 S1                 0.0000
     13 ****         3.7438   1.0691  -4.6207 C.ar           1 S1                 0.0000
     14 ****         3.0190   2.1881  -4.4114 N.ar           1 S1                 0.0000
     15 ****         2.3558   2.3012  -3.2410 C.ar           1 S1                 0.0000
     16 ****        -2.2548   0.0259   3.1831 C.3            1 S1                 0.0000
     17 ****        -2.0722  -1.4986   3.2945 C.3            1 S1                 0.0000
     18 ****        -2.5820  -2.1400   2.1303 O.3            1 S1                 0.0000
     19 ****        -1.9816  -2.3416  -1.1606 H              1 S1                 0.0000
     20 ****        -3.5440  -2.4219  -0.3473 H              1 S1                 0.0000
     21 ****        -2.3244  -3.6555  -0.0390 H              1 S1                 0.0000
     22 ****        -0.8488  -1.9817   1.0305 H              1 S1                 0.0000
     23 ****        -1.6318   0.0703  -0.2211 H              1 S1                 0.0000
     24 ****        -3.1757  -0.0473   0.5675 H              1 S1                 0.0000
     25 ****        -1.9625   1.6067   1.7750 H              1 S1                 0.0000
     26 ****         0.1996   1.2511   2.9000 H              1 S1                 0.0000
     27 ****         0.3693  -0.3248   2.1885 H              1 S1                 0.0000
     28 ****         0.4746   2.3185   0.8263 H              1 S1                 0.0000
     29 ****         1.3726   2.5304  -0.8966 H              1 S1                 0.0000
     30 ****         3.2356  -0.6350  -1.7274 H              1 S1                 0.0000
     31 ****         4.4431  -0.8477  -3.8850 H              1 S1                 0.0000
     32 ****         4.2655   1.0052  -5.5642 H              1 S1                 0.0000
     33 ****         1.7885   3.2110  -3.1077 H              1 S1                 0.0000
     34 ****        -1.8517   0.5212   4.0671 H              1 S1                 0.0000
     35 ****        -3.3221   0.2500   3.1693 H              1 S1                 0.0000
     36 ****        -1.0241  -1.7630   3.4389 H              1 S1                 0.0000
     37 ****        -2.6120  -1.8743   4.1639 H              1 S1                 0.0000
     38 ****         0.9596  -1.1156   0.5326 LP             1 S1                 0.0000
     39 ****         1.8336  -0.9416  -0.9526 LP             1 S1                 0.0000
     40 ****         2.9747   2.9106  -5.1014 LP             1 S1                 0.0000
     41 ****        -2.4844  -3.1287   2.2444 LP             1 S1                 0.0000
     42 ****        -3.5506  -1.9089   2.0393 LP             1 S1                 0.0000
@<TRIPOS>BOND
    1    1    2 1     
    2    1   19 1     
    3    1   20 1     
    4    1   21 1     
    5    2   18 1     
    6    2    3 1     
    7    2   22 1     
    8    3    4 1     
    9    3   23 1     
   10    3   24 1     
   11    4    5 1     
   12    4   16 1     
   13    4   25 1     
   14    5    6 1     
   15    5   26 1     
   16    5   27 1     
   17    6    7 am    
   18    6   28 1     
   19    7    8 2     
   20    7    9 am    
   21    9   10 1     
   22    9   29 1     
   23   10   15 ar    
   24   10   11 ar    
   25   11   12 ar    
   26   11   30 1     
   27   12   13 ar    
   28   12   31 1     
   29   13   14 ar    
   30   13   32 1     
   31   14   15 ar    
   32   15   33 1     
   33   16   17 1     
   34   16   34 1     
   35   16   35 1     
   36   17   18 1     
   37   17   36 1     
   38   17   37 1     
   39    8   38 1     
   40    8   39 1     
   41   14   40 1     
   42   18   41 1     
   43   18   42 1     
@<TRIPOS>SUBSTRUCTURE
      1 S1             1
@<TRIPOS>SET
LONE_PAIRS      STATIC     ATOMS    <user>   **** ""
5 38 39 40 41 42
DONOR_HYDROGENS      STATIC     ATOMS    <user>   **** ""
2 28 29
ATOM$BLUE        STATIC     ATOMS    COLORGROUP SYSTEM
5 38 39 40 41 42
ATOM$RED        STATIC     ATOMS    COLORGROUP SYSTEM
2 28 29
