#       Name:                AV-unprocessed.smi:2216
#       Creating user name   scv26
#       Creation time:       Fri Mar 27 12:18:29 2020


#       File generated by GOLD software.
#

@<TRIPOS>MOLECULE
AV-unprocessed.smi:2216
    47    48     1
SMALL
NO_CHARGES


@<TRIPOS>ATOM
      1 ****        -4.6316   4.4136   0.0233 C.3            1 S1                 0.0000
      2 ****        -4.7167   2.9471   0.4111 C.2            1 S1                 0.0000
      3 ****        -3.6041   2.1905   0.5847 C.2            1 S1                 0.0000
      4 ****        -3.6776   0.7801   0.9657 C.2            1 S1                 0.0000
      5 ****        -2.6044  -0.0943   1.1809 N.am           1 S1                 0.0000
      6 ****        -1.2927   0.1208   0.9777 C.2            1 S1                 0.0000
      7 ****        -0.7917   1.1469   0.5185 O.2            1 S1                 0.0000
      8 ****        -0.5726  -0.9521   1.3349 N.am           1 S1                 0.0000
      9 ****         0.8767  -1.0664   1.2207 C.3            1 S1                 0.0000
     10 ****         1.2941  -1.5043  -0.1933 C.3            1 S1                 0.0000
     11 ****         2.8133  -1.6823  -0.3406 C.3            1 S1                 0.0000
     12 ****         3.1942  -2.2680  -1.7143 C.3            1 S1                 0.0000
     13 ****         4.7175  -2.3595  -1.8587 C.3            1 S1                 0.0000
     14 ****         5.3476  -0.9947  -1.5618 C.3            1 S1                 0.0000
     15 ****         4.8584  -0.4646  -0.2047 C.3            1 S1                 0.0000
     16 ****         3.4353  -0.4074  -0.1894 O.3            1 S1                 0.0000
     17 ****        -4.9764   0.3420   1.1274 C.2            1 S1                 0.0000
     18 ****        -6.1283   1.0293   0.9706 N.pl3          1 S1                -1.0000
     19 ****        -6.0494   2.3417   0.6076 C.2            1 S1                 0.0000
     20 ****        -7.0561   3.0293   0.4415 O.2            1 S1                 0.0000
     21 ****        -3.5963   4.7356  -0.0924 H              1 S1                 0.0000
     22 ****        -5.0947   5.0371   0.7887 H              1 S1                 0.0000
     23 ****        -5.1461   4.5884  -0.9220 H              1 S1                 0.0000
     24 ****        -2.6489   2.6693   0.4432 H              1 S1                 0.0000
     25 ****        -2.8633  -1.0037   1.5343 H              1 S1                 0.0000
     26 ****        -1.0655  -1.7516   1.7045 H              1 S1                 0.0000
     27 ****         1.3512  -0.1209   1.4887 H              1 S1                 0.0000
     28 ****         1.2157  -1.8000   1.9524 H              1 S1                 0.0000
     29 ****         0.7983  -2.4464  -0.4302 H              1 S1                 0.0000
     30 ****         0.9407  -0.7788  -0.9273 H              1 S1                 0.0000
     31 ****         3.1673  -2.3507   0.4466 H              1 S1                 0.0000
     32 ****         2.7493  -3.2553  -1.8418 H              1 S1                 0.0000
     33 ****         2.7901  -1.6385  -2.5082 H              1 S1                 0.0000
     34 ****         5.1086  -3.1039  -1.1640 H              1 S1                 0.0000
     35 ****         4.9860  -2.6931  -2.8615 H              1 S1                 0.0000
     36 ****         6.4352  -1.0709  -1.5691 H              1 S1                 0.0000
     37 ****         5.0778  -0.2875  -2.3471 H              1 S1                 0.0000
     38 ****         5.2158  -1.0943   0.6114 H              1 S1                 0.0000
     39 ****         5.2523   0.5366  -0.0296 H              1 S1                 0.0000
     40 ****        -5.1101  -0.7210   1.4230 H              1 S1                 0.0000
     41 ****        -1.3760   1.9160   0.2594 LP             1 S1                 0.0000
     42 ****         0.1997   1.2116   0.4045 LP             1 S1                 0.0000
     43 ****         3.1436  -0.0142   0.6825 LP             1 S1                 0.0000
     44 ****         3.1341   0.1827  -0.9385 LP             1 S1                 0.0000
     45 ****        -7.0140   0.5886   1.1165 LP             1 S1                 0.0000
     46 ****        -6.9676   3.9893   0.1757 LP             1 S1                 0.0000
     47 ****        -7.9627   2.6282   0.5722 LP             1 S1                 0.0000
@<TRIPOS>BOND
    1    1    2 1     
    2    1   21 1     
    3    1   22 1     
    4    1   23 1     
    5    2   19 1     
    6    2    3 2     
    7    3    4 1     
    8    3   24 1     
    9    4    5 1     
   10    4   17 2     
   11    5    6 am    
   12    5   25 1     
   13    6    7 2     
   14    6    8 am    
   15    8    9 1     
   16    8   26 1     
   17    9   10 1     
   18    9   27 1     
   19    9   28 1     
   20   10   11 1     
   21   10   29 1     
   22   10   30 1     
   23   11   16 1     
   24   11   12 1     
   25   11   31 1     
   26   12   13 1     
   27   12   32 1     
   28   12   33 1     
   29   13   14 1     
   30   13   34 1     
   31   13   35 1     
   32   14   15 1     
   33   14   36 1     
   34   14   37 1     
   35   15   16 1     
   36   15   38 1     
   37   15   39 1     
   38   17   18 1     
   39   17   40 1     
   40   18   19 1     
   41   19   20 2     
   42    7   41 1     
   43    7   42 1     
   44   16   43 1     
   45   16   44 1     
   46   18   45 1     
   47   20   46 1     
   48   20   47 1     
@<TRIPOS>SUBSTRUCTURE
      1 S1             1
@<TRIPOS>SET
LONE_PAIRS      STATIC     ATOMS    <user>   **** ""
7 41 42 43 44 45 46 47
DONOR_HYDROGENS      STATIC     ATOMS    <user>   **** ""
2 25 26
ATOM$BLUE        STATIC     ATOMS    COLORGROUP SYSTEM
7 41 42 43 44 45 46 47
ATOM$RED        STATIC     ATOMS    COLORGROUP SYSTEM
2 25 26
