AV-unprocessed.smi:72|AV-procd|sdf|727|dock1
  -GOLD-   2262017 53D 1   1.00000     0.00000
 Structure written by MMmdl.
 28 29  0  0  0  0  0  0  0  0  2 V2000
  151.0847  134.7361  156.3470 N   0  0  0  0  0  0  0  0  0  0  0  0
  151.0165  135.9353  155.9633 C   0  0  0  0  0  0  0  0  0  0  0  0
  149.7357  136.5115  155.6159 N   0  0  0  0  0  0  0  0  0  0  0  0
  149.7124  137.7553  155.2468 C   0  0  0  0  0  0  0  0  0  0  0  0
  150.9229  138.5633  155.1916 N   0  0  0  0  0  0  0  0  0  0  0  0
  150.8873  140.0100  154.7465 C   0  0  2  0  0  0  0  0  0  0  0  0
  151.3830  140.8261  155.7709 O   0  0  0  0  0  0  0  0  0  0  0  0
  150.4599  141.8754  156.0342 C   0  0  2  0  0  0  0  0  0  0  0  0
  150.6255  142.4093  157.4689 C   0  0  0  0  0  0  0  0  0  0  0  0
  149.7414  143.4749  157.7507 O   0  0  0  0  0  0  0  0  0  0  0  0
  149.0959  141.2954  155.6560 C   0  0  1  0  0  0  0  0  0  0  0  0
  148.1230  142.2872  155.3857 O   0  0  0  0  0  0  0  0  0  0  0  0
  149.4392  140.4383  154.4419 C   0  0  1  0  0  0  0  0  0  0  0  0
  149.3731  141.1543  153.2222 O   0  0  0  0  0  0  0  0  0  0  0  0
  152.1710  137.9617  155.5026 C   0  0  0  0  0  0  0  0  0  0  0  0
  153.1887  138.6471  155.3994 O   0  0  0  0  0  0  0  0  0  0  0  0
  152.1887  136.6552  155.8884 N   0  5  0  0  0  0  0  0  0  0  0  0
  151.5621  140.0802  153.8918 H   0  0  0  0  0  0  0  0  0  0  0  0
  150.7091  142.6771  155.3365 H   0  0  0  0  0  0  0  0  0  0  0  0
  148.7250  140.6412  156.4456 H   0  0  0  0  0  0  0  0  0  0  0  0
  148.7793  139.5732  154.3627 H   0  0  0  0  0  0  0  0  0  0  0  0
  150.1832  134.2827  156.3733 H   0  0  0  0  0  0  0  0  0  0  0  0
  148.7951  138.2660  154.9540 H   0  0  0  0  0  0  0  0  0  0  0  0
  150.4759  141.6096  158.1946 H   0  0  0  0  0  0  0  0  0  0  0  0
  151.6423  142.7775  157.6062 H   0  0  0  0  0  0  0  0  0  0  0  0
  149.4027  143.8081  156.9339 H   0  0  0  0  0  0  0  0  0  0  0  0
  148.5120  143.1344  155.5396 H   0  0  0  0  0  0  0  0  0  0  0  0
  149.3355  140.5294  152.5140 H   0  0  0  0  0  0  0  0  0  0  0  0
  1  2  2  0  0  0  0
  1 22  1  0  0  0  0
  2 17  1  0  0  0  0
  2  3  1  0  0  0  0
  3  4  2  0  0  0  0
  4  5  1  0  0  0  0
  4 23  1  0  0  0  0
  5  6  1  0  0  0  0
  5 15  1  0  0  0  0
  6 18  1  0  0  0  0
  6 13  1  0  0  0  0
  6  7  1  0  0  0  0
  7  8  1  0  0  0  0
  8 19  1  0  0  0  0
  8  9  1  0  0  0  0
  8 11  1  0  0  0  0
  9 10  1  0  0  0  0
  9 24  1  0  0  0  0
  9 25  1  0  0  0  0
 10 26  1  0  0  0  0
 11 20  1  0  0  0  0
 11 12  1  0  0  0  0
 11 13  1  0  0  0  0
 12 27  1  0  0  0  0
 13 21  1  0  0  0  0
 13 14  1  0  0  0  0
 14 28  1  0  0  0  0
 15 16  2  0  0  0  0
 15 17  1  0  0  0  0
M  CHG  1  17  -1
M  END
> <s_m_source_file>
AV-unprocessed.smi

> <i_m_source_file_index>
72

> <i_lp_mmshare_version>
43012

> <i_f3d_flags>
0

> <s_epik_input>
W05IMl1jMW5bY0hdbihjKD1PKW4xKVtDQEBIXTJPW0NASF0oW0NIMl1bT0hdKVtDQEBIXShbT0hdKVtDQEhdMltPSF0=

> <s_epik_cmdline>
J2VwaWtfcHl0aG9uJywgJy1waCcsICc3LjAnLCAnLXRuJywgJzgnLCAnLW1hJywgJzIwMCcsICctbWV0YWxfYmluZGluZycsICctaW1hZScsICc8aW5maWxlLm1hZT4nLCAnLW9tYWUnLCAnPG91dGZpbGUubWFlPic=

> <r_lp_tautomer_probability>
7.17554e-07

> <r_epik_Ionization_Penalty>
12.8705

> <r_epik_Ionization_Penalty_Charging>
5.64144

> <r_epik_Ionization_Penalty_Neutral>
7.22905

> <r_epik_State_Penalty>
3.30104

> <r_epik_Charging_Adjusted_Penalty>
8.94249

> <i_epik_Tot_Q>
-1

> <i_epik_Tot_abs_Q>
1

> <r_epik_Metal_State_Penalty>
0.529074

> <b_epik_Metal_Only>
1

> <s_epik_Chemistry_Notes>
This compound contains an acetal/aminal-like group ( X-CH(R)-Y where X, Y are N, S, or O) that may be acid/base labile, releasing an aldehyde.

> <s_lp_Force_Field>
OPLS_2005

> <r_lp_Energy>
37.824

> <b_lp_Chiralities_Consistent>
1

> <s_lp_Variant>
AV-unprocessed.smi:72-65

> <Gold.Version>
5.8.1

> <Gold.Id.Protein>
6NUR|6NUR_protein|mol2

> <Gold.PLP.Fitness>
46.5608

> <Gold.PLP.PLP>
-26.6419

> <Gold.PLP.part.hbond>
-8.1034

> <Gold.PLP.part.metal>
0.0000

> <Gold.PLP.part.buried>
-1.2181

> <Gold.PLP.part.nonpolar>
-17.9929

> <Gold.PLP.part.repulsive>
0.1307

> <Gold.PLP.ligand.clash>
0.0000

> <Gold.PLP.ligand.torsion>
0.0059

> <Gold.PLP.Chemscore.Hbond>
6.6403

> <Gold.PLP.Chemscore.CHOScore>
0.0000

> <Gold.PLP.Chemscore.Metal>
0.0000

> <Gold.Chemscore.Hbonds>
donor molecule, donor type, donor heavy atom, donor atom, acceptor molecule, acceptor atom, score
      L1  H    10    26       P1  8028  1.00
      L1  H    12    27       P1  8028  1.00
      L1  H    14    28       P1  7957  0.83
      P1  H  7997  8008       L1    16  0.98
      P1  H  8011  8017       L1    14  0.80
      P1  H 10752 10765       L1    17  1.80

> <Gold.PLP.Chemscore.Internal.Correction>
0.0099

> <Gold.Rescore>
     Score         DG    S(hbond)    S(metal)    S(lipo)     H(rot)  DE(clash)    DE(int)     intcor
      8.79     -11.45       3.90        0.00      28.03       4.04       1.35       1.31       ----

> <Gold.Chemscore.Fitness>
8.7887

> <Gold.Chemscore.DG>
-11.4467

> <Gold.Chemscore.ZeroCoef>
-5.4800

> <Gold.Chemscore.Hbond>
3.9012

> <Gold.Chemscore.Metal>
0.0000

> <Gold.Chemscore.Lipo>
28.0329

> <Gold.Chemscore.Internal_Hbond>
0.0000

> <Gold.Chemscore.DEClash>
1.3454

> <Gold.Chemscore.DEInternal>
1.3125

> <Gold.Chemscore.Rot>
4.0403

> <Gold.Chemscore.Internal.Correction>
   9.000000E+99

> <Gold.Chemscore.Hbonds>
donor molecule, donor type, donor heavy atom, donor atom, acceptor molecule, acceptor atom, score
      L1  H    10    26       P1  8028  0.82
      L1  H    12    27       P1  8028  0.99
      L1  H    14    28       P1  7957  0.78
      P1  H  7997  8008       L1    16  0.86
      P1  H  8011  8017       L1    14  0.12
      P1  H 10752 10765       L1    17  0.17

> <Gold.Chemscore.Hbond.Weighted>
-13.0299

> <Gold.Chemscore.Metal.Weighted>
-0.0000

> <Gold.Chemscore.Lipo.Weighted>
-3.2799

> <Gold.Chemscore.Internal_Hbond.Weighted>
0.0000

> <Gold.Chemscore.DEClash.Weighted>
1.3454

> <Gold.Chemscore.DEInternal.Weighted>
1.3125

> <Gold.Chemscore.Rot.Weighted>
10.3431

> <Gold.Chemscore.Internal.Correction.Weighted>
   9.000000E+99

> <Gold.Protein.RotatedTorsions>
[ 6907 6896 6895 6894 ] final -163.78 input  -60.11 | X-H torsion
[ 7974 7965 7964 7962 ] final    4.53 input  175.53 | X-H torsion
[ 8008 7997 7996 7995 ] final  -18.66 input   59.86 | X-H torsion
[ 10167 10162 10161 10158 ] final  -82.56 input  -65.29 | X-H torsion
[ 10718 10713 10712 10709 ] final  -16.67 input   66.30 | X-H torsion
[ 10763 10752 10751 10750 ] final -155.13 input  -60.55 | X-H torsion
[ 11005 11000 10999 10996 ] final   82.47 input  -57.11 | X-H torsion

> <Gold.Protein.ActiveResidues>
 VAL166  LYS551  ARG553  GLY616  TRP617  ASP618  TYR619  PRO620  LYS621  CYS622 
 ASP623  PHE694  ASN695  SER759  ASP760  ASP761  ALA762  ILE779  LEU786  VAL792 
 PHE793  MET794  SER795  GLU796  ALA797  LYS798  CYS799  TRP800  GLU811  SER814 

> <Gold.Protein.RotatedAtoms>
  151.4014  133.3756  159.2732 H   0  0  0  0  0  0  0  0  0  0  0  0  # atno 6907 bound_to 6896
  150.9431  134.8839  159.7635 H   0  0  0  0  0  0  0  0  0  0  0  0  # atno 6908 bound_to 6896
  152.5080  134.3965  159.9454 H   0  0  0  0  0  0  0  0  0  0  0  0  # atno 6909 bound_to 6896
  146.2443  140.0521  142.8374 H   0  0  0  0  0  0  0  0  0  0  0  0  # atno 7974 bound_to 7965
  154.4890  140.2110  155.9590 H   0  0  0  0  0  0  0  0  0  0  0  0  # atno 8008 bound_to 7997
  156.1278  140.3202  155.8272 H   0  0  0  0  0  0  0  0  0  0  0  0  # atno 8009 bound_to 7997
  155.4351  140.0506  157.3006 H   0  0  0  0  0  0  0  0  0  0  0  0  # atno 8010 bound_to 7997
  140.4308  143.2549  151.8762 H   0  0  0  0  0  0  0  0  0  0  0  0  # atno 10167 bound_to 10162
  156.5844  130.4782  149.6306 H   0  0  0  0  0  0  0  0  0  0  0  0  # atno 10718 bound_to 10713
  154.7809  135.3174  154.7991 H   0  0  0  0  0  0  0  0  0  0  0  0  # atno 10763 bound_to 10752
  153.8702  135.6845  153.4779 H   0  0  0  0  0  0  0  0  0  0  0  0  # atno 10764 bound_to 10752
  153.1446  135.4725  154.9484 H   0  0  0  0  0  0  0  0  0  0  0  0  # atno 10765 bound_to 10752
  139.9062  134.8074  156.2179 H   0  0  0  0  0  0  0  0  0  0  0  0  # atno 11005 bound_to 11000
  145.0975  140.9324  143.4732 LP  0  0  0  0  0  0  0  0  0  0  0  0  # atno 17320 bound_to 7965
  145.0707  139.3034  143.5833 LP  0  0  0  0  0  0  0  0  0  0  0  0  # atno 17321 bound_to 7965
  139.4785  144.5336  151.8630 LP  0  0  0  0  0  0  0  0  0  0  0  0  # atno 17342 bound_to 10162
  140.4429  144.1961  150.5892 LP  0  0  0  0  0  0  0  0  0  0  0  0  # atno 17343 bound_to 10162
  156.2604  130.6959  151.1725 LP  0  0  0  0  0  0  0  0  0  0  0  0  # atno 17370 bound_to 10713
  157.7319  131.0604  150.5656 LP  0  0  0  0  0  0  0  0  0  0  0  0  # atno 17371 bound_to 10713
  141.0424  133.6931  156.1622 LP  0  0  0  0  0  0  0  0  0  0  0  0  # atno 17394 bound_to 11000
  140.6935  134.4641  157.5588 LP  0  0  0  0  0  0  0  0  0  0  0  0  # atno 17395 bound_to 11000

$$$$
