AV-unprocessed.smi:160|AV-procd|sdf|1357|dock9
  -GOLD-   2262019 63D 1   1.00000     0.00000
 Structure written by MMmdl.
 29 30  0  0  0  0  0  0  0  0  1 V2000
  152.0023  138.0402  155.5945 N   0  0  0  0  0  0  0  0  0  0  0  0
  152.1500  139.0450  156.4640 C   0  0  0  0  0  0  0  0  0  0  0  0
  153.1042  139.1121  157.2373 O   0  0  0  0  0  0  0  0  0  0  0  0
  151.0781  140.0992  156.4490 C   0  0  0  0  0  0  0  0  0  0  0  0
  151.2156  141.2569  157.1612 N   0  0  0  0  0  0  0  0  0  0  0  0
  150.0639  141.8346  156.8442 C   0  0  0  0  0  0  0  0  0  0  0  0
  149.2979  141.1139  156.0190 N   0  0  0  0  0  0  0  0  0  0  0  0
  147.9475  141.4274  155.4458 C   0  0  2  0  0  0  0  0  0  0  0  0
  147.0820  140.3761  155.7590 O   0  0  0  0  0  0  0  0  0  0  0  0
  146.8872  139.5556  154.6113 C   0  0  1  0  0  0  0  0  0  0  0  0
  145.5857  138.7524  154.7563 C   0  0  0  0  0  0  0  0  0  0  0  0
  144.4999  139.6265  154.9798 O   0  0  0  0  0  0  0  0  0  0  0  0
  146.8447  140.6040  153.4988 C   0  0  2  0  0  0  0  0  0  0  0  0
  147.0235  140.0489  152.2091 O   0  0  0  0  0  0  0  0  0  0  0  0
  147.9495  141.5786  153.9049 C   0  0  2  0  0  0  0  0  0  0  0  0
  149.1947  141.2825  153.2895 O   0  0  0  0  0  0  0  0  0  0  0  0
  149.9531  139.9570  155.7466 N   0  0  0  0  0  0  0  0  0  0  0  0
  147.6353  142.3324  155.9682 H   0  0  0  0  0  0  0  0  0  0  0  0
  147.7442  138.8953  154.4654 H   0  0  0  0  0  0  0  0  0  0  0  0
  145.8853  141.1233  153.5284 H   0  0  0  0  0  0  0  0  0  0  0  0
  147.6777  142.6020  153.6444 H   0  0  0  0  0  0  0  0  0  0  0  0
  152.6889  137.3014  155.5567 H   0  0  0  0  0  0  0  0  0  0  0  0
  151.2011  138.0281  154.9796 H   0  0  0  0  0  0  0  0  0  0  0  0
  149.7740  142.8051  157.2192 H   0  0  0  0  0  0  0  0  0  0  0  0
  145.4010  138.1311  153.8795 H   0  0  0  0  0  0  0  0  0  0  0  0
  145.6501  138.0868  155.6175 H   0  0  0  0  0  0  0  0  0  0  0  0
  144.1456  139.8863  154.1432 H   0  0  0  0  0  0  0  0  0  0  0  0
  147.9495  139.9405  152.0555 H   0  0  0  0  0  0  0  0  0  0  0  0
  149.0600  140.6063  152.6433 H   0  0  0  0  0  0  0  0  0  0  0  0
  1  2  1  0  0  0  0
  1 22  1  0  0  0  0
  1 23  1  0  0  0  0
  2  3  2  0  0  0  0
  2  4  1  0  0  0  0
  4 17  2  0  0  0  0
  4  5  1  0  0  0  0
  5  6  2  0  0  0  0
  6  7  1  0  0  0  0
  6 24  1  0  0  0  0
  7  8  1  0  0  0  0
  7 17  1  0  0  0  0
  8 18  1  0  0  0  0
  8 15  1  0  0  0  0
  8  9  1  0  0  0  0
  9 10  1  0  0  0  0
 10 19  1  0  0  0  0
 10 11  1  0  0  0  0
 10 13  1  0  0  0  0
 11 12  1  0  0  0  0
 11 25  1  0  0  0  0
 11 26  1  0  0  0  0
 12 27  1  0  0  0  0
 13 20  1  0  0  0  0
 13 14  1  0  0  0  0
 13 15  1  0  0  0  0
 14 28  1  0  0  0  0
 15 21  1  0  0  0  0
 15 16  1  0  0  0  0
 16 29  1  0  0  0  0
M  END
> <s_m_source_file>
AV-unprocessed.smi

> <i_m_source_file_index>
160

> <i_lp_mmshare_version>
43012

> <i_f3d_flags>
0

> <s_epik_input>
W05IMl1DKD1PKWMxbltjSF1uKG4xKVtDQEBIXTJPW0NASF0oW0NIMl1bT0hdKVtDQEBIXShbT0hdKVtDQEhdMltPSF0=

> <s_epik_cmdline>
J2VwaWtfcHl0aG9uJywgJy1waCcsICc3LjAnLCAnLXRuJywgJzgnLCAnLW1hJywgJzIwMCcsICctbWV0YWxfYmluZGluZycsICctaW1hZScsICc8aW5maWxlLm1hZT4nLCAnLW9tYWUnLCAnPG91dGZpbGUubWFlPic=

> <r_lp_tautomer_probability>
1

> <r_epik_Ionization_Penalty>
1.06932e-05

> <r_epik_Ionization_Penalty_Charging>
0

> <r_epik_Ionization_Penalty_Neutral>
1.06932e-05

> <r_epik_State_Penalty>
-0

> <r_epik_Charging_Adjusted_Penalty>
0

> <i_epik_Tot_Q>
0

> <i_epik_Tot_abs_Q>
0

> <r_epik_Metal_State_Penalty>
0.0142097

> <b_epik_Metal_Only>
0

> <s_epik_Chemistry_Notes>
This compound contains an acetal/aminal-like group ( X-CH(R)-Y where X, Y are N, S, or O) that may be acid/base labile, releasing an aldehyde.

> <s_lp_Force_Field>
OPLS_2005

> <r_lp_Energy>
46.1783

> <b_lp_Chiralities_Consistent>
1

> <s_lp_Variant>
AV-unprocessed.smi:160-15

> <Gold.Version>
5.8.1

> <Gold.Id.Protein>
6NUR|6NUR_protein|mol2

> <Gold.PLP.Fitness>
39.9264

> <Gold.PLP.PLP>
-22.9115

> <Gold.PLP.part.hbond>
-5.3790

> <Gold.PLP.part.metal>
0.0000

> <Gold.PLP.part.buried>
-3.7493

> <Gold.PLP.part.nonpolar>
-14.1735

> <Gold.PLP.part.repulsive>
0.2459

> <Gold.PLP.ligand.clash>
0.0000

> <Gold.PLP.ligand.torsion>
0.0909

> <Gold.PLP.Chemscore.Hbond>
4.8553

> <Gold.PLP.Chemscore.CHOScore>
0.8716

> <Gold.PLP.Chemscore.Metal>
0.0000

> <Gold.Chemscore.Hbonds>
donor molecule, donor type, donor heavy atom, donor atom, acceptor molecule, acceptor atom, score
      L1  H    12    27       P1 10175  1.00
      L1  H    14    28       P1  7957  1.00
      L1  H    16    29       P1  7957  0.85
      P1  H  7997  8008       L1     3  1.00
      P1  H  8011  8017       L1    16  0.90
      L1  C     6    24       P1  8028  0.67

> <Gold.PLP.Chemscore.Internal.Correction>
0.0161

> <Gold.Rescore>
     Score         DG    S(hbond)    S(metal)    S(lipo)     H(rot)  DE(clash)    DE(int)     intcor
     11.20     -11.93       4.37        0.00      19.31       4.06       0.17       0.56       ----

> <Gold.Chemscore.Fitness>
11.2039

> <Gold.Chemscore.DG>
-11.9326

> <Gold.Chemscore.ZeroCoef>
-5.4800

> <Gold.Chemscore.Hbond>
4.3672

> <Gold.Chemscore.Metal>
0.0000

> <Gold.Chemscore.Lipo>
19.3131

> <Gold.Chemscore.Internal_Hbond>
0.0000

> <Gold.Chemscore.DEClash>
0.1684

> <Gold.Chemscore.DEInternal>
0.5603

> <Gold.Chemscore.Rot>
4.0600

> <Gold.Chemscore.Internal.Correction>
   9.000000E+99

> <Gold.Chemscore.Hbonds>
donor molecule, donor type, donor heavy atom, donor atom, acceptor molecule, acceptor atom, score
      L1  H    12    27       P1 10175  1.00
      L1  H    14    28       P1  7957  0.99
      L1  H    16    29       P1  7957  0.85
      P1  H  7997  8008       L1     3  0.99
      P1  H  8011  8017       L1    16  0.16

> <Gold.Chemscore.Hbond.Weighted>
-14.5866

> <Gold.Chemscore.Metal.Weighted>
-0.0000

> <Gold.Chemscore.Lipo.Weighted>
-2.2596

> <Gold.Chemscore.Internal_Hbond.Weighted>
0.0000

> <Gold.Chemscore.DEClash.Weighted>
0.1684

> <Gold.Chemscore.DEInternal.Weighted>
0.5603

> <Gold.Chemscore.Rot.Weighted>
10.3936

> <Gold.Chemscore.Internal.Correction.Weighted>
   9.000000E+99

> <Gold.Protein.RotatedTorsions>
[ 6907 6896 6895 6894 ] final  -23.23 input  -60.11 | X-H torsion
[ 7974 7965 7964 7962 ] final  116.71 input  175.53 | X-H torsion
[ 8008 7997 7996 7995 ] final  -77.23 input   59.86 | X-H torsion
[ 10167 10162 10161 10158 ] final -102.42 input  -65.29 | X-H torsion
[ 10718 10713 10712 10709 ] final   -2.81 input   66.30 | X-H torsion
[ 10763 10752 10751 10750 ] final  -87.70 input  -60.55 | X-H torsion
[ 11005 11000 10999 10996 ] final -119.57 input  -57.11 | X-H torsion

> <Gold.Protein.ActiveResidues>
 VAL166  LYS551  ARG553  GLY616  TRP617  ASP618  TYR619  PRO620  LYS621  CYS622 
 ASP623  PHE694  ASN695  SER759  ASP760  ASP761  ALA762  ILE779  LEU786  VAL792 
 PHE793  MET794  SER795  GLU796  ALA797  LYS798  CYS799  TRP800  GLU811  SER814 

> <Gold.Protein.RotatedAtoms>
  151.2070  135.0466  159.8895 H   0  0  0  0  0  0  0  0  0  0  0  0  # atno 6907 bound_to 6896
  152.5428  134.0787  159.8236 H   0  0  0  0  0  0  0  0  0  0  0  0  # atno 6908 bound_to 6896
  151.0935  133.5250  159.2645 H   0  0  0  0  0  0  0  0  0  0  0  0  # atno 6909 bound_to 6896
  145.1762  139.3074  143.4442 H   0  0  0  0  0  0  0  0  0  0  0  0  # atno 7974 bound_to 7965
  154.5577  140.0714  156.8770 H   0  0  0  0  0  0  0  0  0  0  0  0  # atno 8008 bound_to 7997
  155.2870  140.3375  155.4236 H   0  0  0  0  0  0  0  0  0  0  0  0  # atno 8009 bound_to 7997
  156.2016  140.1724  156.7873 H   0  0  0  0  0  0  0  0  0  0  0  0  # atno 8010 bound_to 7997
  140.2308  143.3608  152.0888 H   0  0  0  0  0  0  0  0  0  0  0  0  # atno 10167 bound_to 10162
  156.7853  130.5344  149.5744 H   0  0  0  0  0  0  0  0  0  0  0  0  # atno 10718 bound_to 10713
  154.6364  135.5404  153.7739 H   0  0  0  0  0  0  0  0  0  0  0  0  # atno 10763 bound_to 10752
  153.0311  135.6448  154.1224 H   0  0  0  0  0  0  0  0  0  0  0  0  # atno 10764 bound_to 10752
  154.1151  135.2924  155.3201 H   0  0  0  0  0  0  0  0  0  0  0  0  # atno 10765 bound_to 10752
  141.0206  134.0130  157.3288 H   0  0  0  0  0  0  0  0  0  0  0  0  # atno 11005 bound_to 11000
  146.3460  140.1926  142.8589 LP  0  0  0  0  0  0  0  0  0  0  0  0  # atno 17320 bound_to 7965
  145.0182  140.8771  143.5183 LP  0  0  0  0  0  0  0  0  0  0  0  0  # atno 17321 bound_to 7965
  139.5111  144.6894  151.5799 LP  0  0  0  0  0  0  0  0  0  0  0  0  # atno 17342 bound_to 10162
  140.6186  143.9301  150.6508 LP  0  0  0  0  0  0  0  0  0  0  0  0  # atno 17343 bound_to 10162
  156.1193  130.6098  151.0168 LP  0  0  0  0  0  0  0  0  0  0  0  0  # atno 17370 bound_to 10713
  157.6627  131.0878  150.7801 LP  0  0  0  0  0  0  0  0  0  0  0  0  # atno 17371 bound_to 10713
  139.9144  135.0195  156.7821 LP  0  0  0  0  0  0  0  0  0  0  0  0  # atno 17394 bound_to 11000
  140.6579  133.9671  155.7789 LP  0  0  0  0  0  0  0  0  0  0  0  0  # atno 17395 bound_to 11000

$$$$
