AV-unprocessed.smi:683|AV-procd|sdf|3331|dock1
  -GOLD-   22720 0303D 1   1.00000     0.00000
 Structure written by MMmdl.
 29 30  0  0  0  0  0  0  0  0  2 V2000
  153.8279  142.3307  163.8480 N   0  0  0  0  0  0  0  0  0  0  0  0
  153.3027  142.5877  162.8495 C   0  0  0  0  0  0  0  0  0  0  0  0
  152.6430  142.9106  161.5954 C   0  0  0  0  0  0  0  0  0  0  0  0
  151.9656  144.1376  161.4509 C   0  0  0  0  0  0  0  0  0  0  0  0
  151.3280  144.4471  160.2353 C   0  0  0  0  0  0  0  0  0  0  0  0
  151.3683  143.5327  159.1658 C   0  0  0  0  0  0  0  0  0  0  0  0
  152.0429  142.3012  159.2936 C   0  0  0  0  0  0  0  0  0  0  0  0
  152.0338  141.4669  158.1962 O   0  0  0  0  0  0  0  0  0  0  0  0
  150.9172  141.5237  157.3194 C   0  0  0  0  0  0  0  0  0  0  0  0
  151.3531  141.0310  155.9323 C   0  0  0  0  0  0  0  0  0  0  0  0
  150.1955  140.6412  155.1168 N   0  0  0  0  0  0  0  0  0  0  0  0
  149.1899  141.6009  154.9129 C   0  0  0  0  0  0  0  0  0  0  0  0
  148.0859  141.3366  154.1876 C   0  0  0  0  0  0  0  0  0  0  0  0
  146.8650  142.5367  153.9546 Cl  0  0  0  0  0  0  0  0  0  0  0  0
  147.9502  140.0023  153.6065 C   0  0  0  0  0  0  0  0  0  0  0  0
  146.9564  139.7284  152.9352 O   0  0  0  0  0  0  0  0  0  0  0  0
  148.9512  139.1039  153.8411 N   0  5  0  0  0  0  0  0  0  0  0  0
  150.0645  139.3904  154.5839 C   0  0  0  0  0  0  0  0  0  0  0  0
  150.9497  138.5598  154.7906 O   0  0  0  0  0  0  0  0  0  0  0  0
  152.6818  141.9957  160.5226 C   0  0  0  0  0  0  0  0  0  0  0  0
  151.9316  144.8451  162.2672 H   0  0  0  0  0  0  0  0  0  0  0  0
  150.8082  145.3870  160.1228 H   0  0  0  0  0  0  0  0  0  0  0  0
  150.8771  143.7796  158.2359 H   0  0  0  0  0  0  0  0  0  0  0  0
  150.1096  140.8960  157.6995 H   0  0  0  0  0  0  0  0  0  0  0  0
  150.5487  142.5483  157.2472 H   0  0  0  0  0  0  0  0  0  0  0  0
  151.9203  141.8155  155.4289 H   0  0  0  0  0  0  0  0  0  0  0  0
  152.0487  140.1962  156.0332 H   0  0  0  0  0  0  0  0  0  0  0  0
  149.3679  142.5573  155.3826 H   0  0  0  0  0  0  0  0  0  0  0  0
  153.2081  141.0626  160.6610 H   0  0  0  0  0  0  0  0  0  0  0  0
  1  2  3  0  0  0  0
  2  3  1  0  0  0  0
  3 20  1  0  0  0  0
  3  4  2  0  0  0  0
  4  5  1  0  0  0  0
  4 21  1  0  0  0  0
  5  6  2  0  0  0  0
  5 22  1  0  0  0  0
  6  7  1  0  0  0  0
  6 23  1  0  0  0  0
  7  8  1  0  0  0  0
  7 20  2  0  0  0  0
  8  9  1  0  0  0  0
  9 10  1  0  0  0  0
  9 24  1  0  0  0  0
  9 25  1  0  0  0  0
 10 11  1  0  0  0  0
 10 26  1  0  0  0  0
 10 27  1  0  0  0  0
 11 18  1  0  0  0  0
 11 12  1  0  0  0  0
 12 13  2  0  0  0  0
 12 28  1  0  0  0  0
 13 14  1  0  0  0  0
 13 15  1  0  0  0  0
 15 16  2  0  0  0  0
 15 17  1  0  0  0  0
 17 18  1  0  0  0  0
 18 19  2  0  0  0  0
 20 29  1  0  0  0  0
M  CHG  1  17  -1
M  END
> <s_m_source_file>
AV-unprocessed.smi

> <i_m_source_file_index>
683

> <i_lp_mmshare_version>
43012

> <i_f3d_flags>
0

> <s_epik_input>
TiNDYzFbY0hdW2NIXVtjSF1jKFtjSF0xKU9bQ0gyXVtDSDJdbjJbY0hdYyhDbCljKD1PKVtuSF1jMj1P

> <s_epik_cmdline>
J2VwaWtfcHl0aG9uJywgJy1waCcsICc3LjAnLCAnLXRuJywgJzgnLCAnLW1hJywgJzIwMCcsICctbWV0YWxfYmluZGluZycsICctaW1hZScsICc8aW5maWxlLm1hZT4nLCAnLW9tYWUnLCAnPG91dGZpbGUubWFlPic=

> <r_epik_Ionization_Penalty>
1.49102

> <r_epik_Ionization_Penalty_Charging>
6.47896e-09

> <r_epik_Ionization_Penalty_Neutral>
1.49102

> <r_epik_State_Penalty>
1.58045

> <r_epik_Charging_Adjusted_Penalty>
1.58045

> <i_epik_Tot_Q>
-1

> <i_epik_Tot_abs_Q>
1

> <r_epik_Metal_State_Penalty>
0.00788874

> <b_epik_Metal_Only>
0

> <s_lp_Force_Field>
OPLS_2005

> <r_lp_Energy>
20.1006

> <b_lp_Chiralities_Consistent>
1

> <s_lp_Variant>
AV-unprocessed.smi:683-2

> <Gold.Version>
5.8.1

> <Gold.Id.Protein>
6NUR|6NUR_protein|mol2

> <Gold.PLP.Fitness>
48.3829

> <Gold.PLP.PLP>
-46.5564

> <Gold.PLP.part.hbond>
0.0000

> <Gold.PLP.part.metal>
0.0000

> <Gold.PLP.part.buried>
-6.6442

> <Gold.PLP.part.nonpolar>
-39.7109

> <Gold.PLP.part.repulsive>
0.5995

> <Gold.PLP.ligand.clash>
0.0000

> <Gold.PLP.ligand.torsion>
0.6049

> <Gold.PLP.Chemscore.Hbond>
0.0000

> <Gold.PLP.Chemscore.CHOScore>
1.0000

> <Gold.PLP.Chemscore.Metal>
0.0000

> <Gold.Chemscore.Hbonds>
donor molecule, donor type, donor heavy atom, donor atom, acceptor molecule, acceptor atom, score
      L1  C    12    28       P1  8028  1.00

> <Gold.PLP.Chemscore.Internal.Correction>
0.0363

> <Gold.Rescore>
     Score         DG    S(hbond)    S(metal)    S(lipo)     H(rot)  DE(clash)    DE(int)     intcor
     11.28     -11.84       0.00        0.00      97.51       1.97       0.09       0.47       ----

> <Gold.Chemscore.Fitness>
11.2829

> <Gold.Chemscore.DG>
-11.8415

> <Gold.Chemscore.ZeroCoef>
-5.4800

> <Gold.Chemscore.Hbond>
0.0000

> <Gold.Chemscore.Metal>
0.0000

> <Gold.Chemscore.Lipo>
97.5129

> <Gold.Chemscore.Internal_Hbond>
0.0000

> <Gold.Chemscore.DEClash>
0.0881

> <Gold.Chemscore.DEInternal>
0.4705

> <Gold.Chemscore.Rot>
1.9717

> <Gold.Chemscore.Internal.Correction>
   9.000000E+99

> <Gold.Chemscore.Hbond.Weighted>
-0.0000

> <Gold.Chemscore.Metal.Weighted>
-0.0000

> <Gold.Chemscore.Lipo.Weighted>
-11.4090

> <Gold.Chemscore.Internal_Hbond.Weighted>
0.0000

> <Gold.Chemscore.DEClash.Weighted>
0.0881

> <Gold.Chemscore.DEInternal.Weighted>
0.4705

> <Gold.Chemscore.Rot.Weighted>
5.0475

> <Gold.Chemscore.Internal.Correction.Weighted>
   9.000000E+99

> <Gold.Protein.RotatedTorsions>
[ 6907 6896 6895 6894 ] final  -58.91 input  -60.11 | X-H torsion
[ 7974 7965 7964 7962 ] final  -15.90 input  175.53 | X-H torsion
[ 8008 7997 7996 7995 ] final   63.62 input   59.86 | X-H torsion
[ 10167 10162 10161 10158 ] final -156.60 input  -65.29 | X-H torsion
[ 10718 10713 10712 10709 ] final  -13.43 input   66.30 | X-H torsion
[ 10763 10752 10751 10750 ] final  -38.26 input  -60.55 | X-H torsion
[ 11005 11000 10999 10996 ] final  -33.90 input  -57.11 | X-H torsion

> <Gold.Protein.ActiveResidues>
 VAL166  LYS551  ARG553  GLY616  TRP617  ASP618  TYR619  PRO620  LYS621  CYS622 
 ASP623  PHE694  ASN695  SER759  ASP760  ASP761  ALA762  ILE779  LEU786  VAL792 
 PHE793  MET794  SER795  GLU796  ALA797  LYS798  CYS799  TRP800  GLU811  SER814 

> <Gold.Protein.RotatedAtoms>
  150.7970  134.7037  159.6564 H   0  0  0  0  0  0  0  0  0  0  0  0  # atno 6907 bound_to 6896
  152.4083  134.6165  160.0049 H   0  0  0  0  0  0  0  0  0  0  0  0  # atno 6908 bound_to 6896
  151.6415  133.3289  159.3167 H   0  0  0  0  0  0  0  0  0  0  0  0  # atno 6909 bound_to 6896
  146.2012  140.3559  142.8423 H   0  0  0  0  0  0  0  0  0  0  0  0  # atno 7974 bound_to 7965
  155.6331  140.3496  155.4689 H   0  0  0  0  0  0  0  0  0  0  0  0  # atno 8008 bound_to 7997
  155.9987  140.1209  157.0592 H   0  0  0  0  0  0  0  0  0  0  0  0  # atno 8009 bound_to 7997
  154.4242  140.1105  156.5653 H   0  0  0  0  0  0  0  0  0  0  0  0  # atno 8010 bound_to 7997
  139.6837  143.9538  152.2350 H   0  0  0  0  0  0  0  0  0  0  0  0  # atno 10167 bound_to 10162
  156.6304  130.4900  149.6131 H   0  0  0  0  0  0  0  0  0  0  0  0  # atno 10718 bound_to 10713
  153.9099  135.6793  153.4751 H   0  0  0  0  0  0  0  0  0  0  0  0  # atno 10763 bound_to 10752
  153.1084  135.4794  154.8989 H   0  0  0  0  0  0  0  0  0  0  0  0  # atno 10764 bound_to 10752
  154.7532  135.3190  154.8474 H   0  0  0  0  0  0  0  0  0  0  0  0  # atno 10765 bound_to 10752
  140.9673  133.7130  156.1466 H   0  0  0  0  0  0  0  0  0  0  0  0  # atno 11005 bound_to 11000
  144.8687  140.7242  143.6061 LP  0  0  0  0  0  0  0  0  0  0  0  0  # atno 17320 bound_to 7965
  145.3478  139.1714  143.4451 LP  0  0  0  0  0  0  0  0  0  0  0  0  # atno 17321 bound_to 7965
  139.9335  144.6727  150.8339 LP  0  0  0  0  0  0  0  0  0  0  0  0  # atno 17342 bound_to 10162
  140.7660  143.3293  151.2446 LP  0  0  0  0  0  0  0  0  0  0  0  0  # atno 17343 bound_to 10162
  156.2239  130.6754  151.1396 LP  0  0  0  0  0  0  0  0  0  0  0  0  # atno 17370 bound_to 10713
  157.7201  131.0686  150.6168 LP  0  0  0  0  0  0  0  0  0  0  0  0  # atno 17371 bound_to 10713
  140.7381  134.4181  157.5558 LP  0  0  0  0  0  0  0  0  0  0  0  0  # atno 17394 bound_to 11000
  139.8899  134.8818  156.2397 LP  0  0  0  0  0  0  0  0  0  0  0  0  # atno 17395 bound_to 11000

$$$$
