AV-unprocessed.smi:2354|AV-procd|sdf|9384|dock1
  -GOLD-   2272013 13D 1   1.00000     0.00000
 Structure written by MMmdl.
 44 45  0  0  0  0  0  0  0  0  2 V2000
  146.0630  132.0488  151.2117 C   0  0  0  0  0  0  0  0  0  0  0  0
  144.9486  133.0183  151.2977 N   0  3  0  0  0  0  0  0  0  0  0  0
  143.9107  132.7467  150.2773 C   0  0  0  0  0  0  0  0  0  0  0  0
  145.4160  134.4311  151.3037 C   0  0  0  0  0  0  0  0  0  0  0  0
  144.5548  135.3570  152.2057 C   0  0  0  0  0  0  0  0  0  0  0  0
  144.8872  136.8613  151.9715 C   0  0  0  0  0  0  0  0  0  0  0  0
  146.2345  137.2371  152.3976 N   0  0  0  0  0  0  0  0  0  0  0  0
  146.5433  138.2957  153.1607 C   0  0  0  0  0  0  0  0  0  0  0  0
  145.7093  139.0990  153.5782 O   0  0  0  0  0  0  0  0  0  0  0  0
  147.8672  138.3643  153.3831 N   0  0  0  0  0  0  0  0  0  0  0  0
  148.5897  139.3646  154.0852 C   0  0  0  0  0  0  0  0  0  0  0  0
  147.9346  140.5085  154.6049 C   0  0  0  0  0  0  0  0  0  0  0  0
  148.7027  141.4489  155.3121 C   0  0  0  0  0  0  0  0  0  0  0  0
  150.0734  141.1794  155.4633 C   0  0  0  0  0  0  0  0  0  0  0  0
  150.6514  140.0655  154.9650 N   0  0  0  0  0  0  0  0  0  0  0  0
  149.9149  139.1732  154.2946 N   0  0  0  0  0  0  0  0  0  0  0  0
  143.0559  135.0685  151.9834 C   0  0  0  0  0  0  0  0  0  0  0  0
  142.3381  135.5328  153.2545 C   0  0  0  0  0  0  0  0  0  0  0  0
  143.3870  135.4685  154.3710 C   0  0  0  0  0  0  0  0  0  0  0  0
  144.6904  135.0139  153.7016 C   0  0  0  0  0  0  0  0  0  0  0  0
  146.6037  132.1568  150.2705 H   0  0  0  0  0  0  0  0  0  0  0  0
  145.6907  131.0260  151.2777 H   0  0  0  0  0  0  0  0  0  0  0  0
  146.7664  132.1958  152.0318 H   0  0  0  0  0  0  0  0  0  0  0  0
  144.3081  132.8833  149.2706 H   0  0  0  0  0  0  0  0  0  0  0  0
  143.0518  133.4055  150.3965 H   0  0  0  0  0  0  0  0  0  0  0  0
  143.5489  131.7214  150.3622 H   0  0  0  0  0  0  0  0  0  0  0  0
  146.4480  134.4750  151.6555 H   0  0  0  0  0  0  0  0  0  0  0  0
  145.4556  134.8120  150.2816 H   0  0  0  0  0  0  0  0  0  0  0  0
  144.7311  137.1362  150.9274 H   0  0  0  0  0  0  0  0  0  0  0  0
  144.1905  137.4858  152.5310 H   0  0  0  0  0  0  0  0  0  0  0  0
  146.9894  136.6357  152.1019 H   0  0  0  0  0  0  0  0  0  0  0  0
  148.4358  137.6846  152.9003 H   0  0  0  0  0  0  0  0  0  0  0  0
  146.8740  140.6707  154.4869 H   0  0  0  0  0  0  0  0  0  0  0  0
  148.2569  142.3407  155.7272 H   0  0  0  0  0  0  0  0  0  0  0  0
  150.7160  141.8630  155.9979 H   0  0  0  0  0  0  0  0  0  0  0  0
  142.6465  135.5270  151.0841 H   0  0  0  0  0  0  0  0  0  0  0  0
  142.9014  133.9935  151.8773 H   0  0  0  0  0  0  0  0  0  0  0  0
  141.9872  136.5587  153.1338 H   0  0  0  0  0  0  0  0  0  0  0  0
  141.4669  134.9138  153.4719 H   0  0  0  0  0  0  0  0  0  0  0  0
  143.5125  136.4550  154.8191 H   0  0  0  0  0  0  0  0  0  0  0  0
  143.0918  134.7849  155.1681 H   0  0  0  0  0  0  0  0  0  0  0  0
  144.7783  133.9338  153.8265 H   0  0  0  0  0  0  0  0  0  0  0  0
  145.5695  135.4642  154.1644 H   0  0  0  0  0  0  0  0  0  0  0  0
  144.5177  132.8614  152.1977 H   0  0  0  0  0  0  0  0  0  0  0  0
  1  2  1  0  0  0  0
  1 21  1  0  0  0  0
  1 22  1  0  0  0  0
  1 23  1  0  0  0  0
  2  3  1  0  0  0  0
  2  4  1  0  0  0  0
  2 44  1  0  0  0  0
  3 24  1  0  0  0  0
  3 25  1  0  0  0  0
  3 26  1  0  0  0  0
  4  5  1  0  0  0  0
  4 27  1  0  0  0  0
  4 28  1  0  0  0  0
  5 20  1  0  0  0  0
  5  6  1  0  0  0  0
  5 17  1  0  0  0  0
  6  7  1  0  0  0  0
  6 29  1  0  0  0  0
  6 30  1  0  0  0  0
  7  8  1  0  0  0  0
  7 31  1  0  0  0  0
  8  9  2  0  0  0  0
  8 10  1  0  0  0  0
 10 11  1  0  0  0  0
 10 32  1  0  0  0  0
 11 16  1  0  0  0  0
 11 12  2  0  0  0  0
 12 13  1  0  0  0  0
 12 33  1  0  0  0  0
 13 14  2  0  0  0  0
 13 34  1  0  0  0  0
 14 15  1  0  0  0  0
 14 35  1  0  0  0  0
 15 16  2  0  0  0  0
 17 18  1  0  0  0  0
 17 36  1  0  0  0  0
 17 37  1  0  0  0  0
 18 19  1  0  0  0  0
 18 38  1  0  0  0  0
 18 39  1  0  0  0  0
 19 20  1  0  0  0  0
 19 40  1  0  0  0  0
 19 41  1  0  0  0  0
 20 42  1  0  0  0  0
 20 43  1  0  0  0  0
M  CHG  1   2   1
M  END
> <s_m_source_file>
AV-unprocessed.smi

> <i_m_source_file_index>
2354

> <i_lp_mmshare_version>
43012

> <i_f3d_flags>
0

> <s_epik_input>
W0NIMl0xW0NIMl1bQ0gyXVtDSDJdQzEoW0NIMl1OKFtDSDNdKVtDSDNdKVtDSDJdW05IXUMoPU8pW05IXWMyW2NIXVtjSF1bY0hdbm4y

> <s_epik_cmdline>
J2VwaWtfcHl0aG9uJywgJy1waCcsICc3LjAnLCAnLXRuJywgJzgnLCAnLW1hJywgJzIwMCcsICctbWV0YWxfYmluZGluZycsICctaW1hZScsICc8aW5maWxlLm1hZT4nLCAnLW9tYWUnLCAnPG91dGZpbGUubWFlPic=

> <r_lp_tautomer_probability>
1

> <r_epik_Ionization_Penalty>
0.0045793

> <r_epik_Ionization_Penalty_Charging>
0.000516438

> <r_epik_Ionization_Penalty_Neutral>
0.00406287

> <r_epik_State_Penalty>
-0

> <r_epik_Charging_Adjusted_Penalty>
0.000516438

> <i_epik_Tot_Q>
1

> <i_epik_Tot_abs_Q>
1

> <r_epik_Metal_State_Penalty>
-0

> <b_epik_Metal_Only>
0

> <s_lp_Force_Field>
OPLS_2005

> <r_lp_Energy>
45.7912

> <b_lp_Chiralities_Consistent>
1

> <s_lp_Variant>
AV-unprocessed.smi:2354-1

> <Gold.Version>
5.8.1

> <Gold.Id.Protein>
6NUR|6NUR_protein|mol2

> <Gold.PLP.Fitness>
36.5406

> <Gold.PLP.PLP>
-28.1785

> <Gold.PLP.part.hbond>
-3.0892

> <Gold.PLP.part.metal>
0.0000

> <Gold.PLP.part.buried>
-4.9941

> <Gold.PLP.part.nonpolar>
-21.0937

> <Gold.PLP.part.repulsive>
1.3083

> <Gold.PLP.ligand.clash>
0.0000

> <Gold.PLP.ligand.torsion>
0.6153

> <Gold.PLP.Chemscore.Hbond>
3.0000

> <Gold.PLP.Chemscore.CHOScore>
0.0000

> <Gold.PLP.Chemscore.Metal>
0.0000

> <Gold.Chemscore.Hbonds>
donor molecule, donor type, donor heavy atom, donor atom, acceptor molecule, acceptor atom, score
      L1  H     7    31       P1  7948  1.00
      L1  H    10    32       P1  7948  1.00
      P1  H  7989  7998       L1    15  0.95

> <Gold.PLP.Chemscore.Internal.Correction>
0.5927

> <Gold.Rescore>
     Score         DG    S(hbond)    S(metal)    S(lipo)     H(rot)  DE(clash)    DE(int)     intcor
     12.76     -14.92       1.96        0.00      64.17       1.81       0.04       2.12       ----

> <Gold.Chemscore.Fitness>
12.7611

> <Gold.Chemscore.DG>
-14.9165

> <Gold.Chemscore.ZeroCoef>
-5.4800

> <Gold.Chemscore.Hbond>
1.9633

> <Gold.Chemscore.Metal>
0.0000

> <Gold.Chemscore.Lipo>
64.1693

> <Gold.Chemscore.Internal_Hbond>
0.0000

> <Gold.Chemscore.DEClash>
0.0361

> <Gold.Chemscore.DEInternal>
2.1193

> <Gold.Chemscore.Rot>
1.8080

> <Gold.Chemscore.Internal.Correction>
   9.000000E+99

> <Gold.Chemscore.Hbonds>
donor molecule, donor type, donor heavy atom, donor atom, acceptor molecule, acceptor atom, score
      L1  H     7    31       P1  7948  0.92
      L1  H    10    32       P1  7948  1.00
      P1  H  7989  7998       L1    15  0.05

> <Gold.Chemscore.Hbond.Weighted>
-6.5573

> <Gold.Chemscore.Metal.Weighted>
-0.0000

> <Gold.Chemscore.Lipo.Weighted>
-7.5078

> <Gold.Chemscore.Internal_Hbond.Weighted>
0.0000

> <Gold.Chemscore.DEClash.Weighted>
0.0361

> <Gold.Chemscore.DEInternal.Weighted>
2.1193

> <Gold.Chemscore.Rot.Weighted>
4.6286

> <Gold.Chemscore.Internal.Correction.Weighted>
   9.000000E+99

> <Gold.Protein.RotatedTorsions>
[ 6907 6896 6895 6894 ] final   98.70 input  -60.11 | X-H torsion
[ 7974 7965 7964 7962 ] final  -24.17 input  175.53 | X-H torsion
[ 8008 7997 7996 7995 ] final -171.98 input   59.86 | X-H torsion
[ 10167 10162 10161 10158 ] final   28.10 input  -65.29 | X-H torsion
[ 10718 10713 10712 10709 ] final  -61.16 input   66.30 | X-H torsion
[ 10763 10752 10751 10750 ] final  111.26 input  -60.55 | X-H torsion
[ 11005 11000 10999 10996 ] final -134.68 input  -57.11 | X-H torsion

> <Gold.Protein.ActiveResidues>
 VAL166  LYS551  ARG553  GLY616  TRP617  ASP618  TYR619  PRO620  LYS621  CYS622 
 ASP623  PHE694  ASN695  SER759  ASP760  ASP761  ALA762  ILE779  LEU786  VAL792 
 PHE793  MET794  SER795  GLU796  ALA797  LYS798  CYS799  TRP800  GLU811  SER814 

> <Gold.Protein.RotatedAtoms>
  152.5405  134.0541  159.8122 H   0  0  0  0  0  0  0  0  0  0  0  0  # atno 6907 bound_to 6896
  151.0678  133.5483  159.2636 H   0  0  0  0  0  0  0  0  0  0  0  0  # atno 6908 bound_to 6896
  151.2357  135.0579  159.9059 H   0  0  0  0  0  0  0  0  0  0  0  0  # atno 6909 bound_to 6896
  146.1571  140.4716  142.8587 H   0  0  0  0  0  0  0  0  0  0  0  0  # atno 7974 bound_to 7965
  155.9386  140.1104  157.1074 H   0  0  0  0  0  0  0  0  0  0  0  0  # atno 8008 bound_to 7997
  154.4084  140.1223  156.4963 H   0  0  0  0  0  0  0  0  0  0  0  0  # atno 8009 bound_to 7997
  155.6991  140.3472  155.4927 H   0  0  0  0  0  0  0  0  0  0  0  0  # atno 8010 bound_to 7997
  140.4882  144.0509  150.6288 H   0  0  0  0  0  0  0  0  0  0  0  0  # atno 10167 bound_to 10162
  156.0940  130.4195  150.0956 H   0  0  0  0  0  0  0  0  0  0  0  0  # atno 10718 bound_to 10713
  153.4608  135.3722  155.2337 H   0  0  0  0  0  0  0  0  0  0  0  0  # atno 10763 bound_to 10752
  154.8757  135.3908  154.3927 H   0  0  0  0  0  0  0  0  0  0  0  0  # atno 10764 bound_to 10752
  153.4500  135.7085  153.6179 H   0  0  0  0  0  0  0  0  0  0  0  0  # atno 10765 bound_to 10752
  140.8968  134.1742  157.4489 H   0  0  0  0  0  0  0  0  0  0  0  0  # atno 11005 bound_to 11000
  144.7977  140.6155  143.6499 LP  0  0  0  0  0  0  0  0  0  0  0  0  # atno 17320 bound_to 7965
  145.4681  139.1506  143.3829 LP  0  0  0  0  0  0  0  0  0  0  0  0  # atno 17321 bound_to 7965
  140.3771  143.2823  152.0213 LP  0  0  0  0  0  0  0  0  0  0  0  0  # atno 17342 bound_to 10162
  139.4846  144.6184  151.7301 LP  0  0  0  0  0  0  0  0  0  0  0  0  # atno 17343 bound_to 10162
  156.8959  130.9604  151.3582 LP  0  0  0  0  0  0  0  0  0  0  0  0  # atno 17370 bound_to 10713
  157.6097  130.8573  149.8932 LP  0  0  0  0  0  0  0  0  0  0  0  0  # atno 17371 bound_to 10713
  139.8736  134.9881  156.5399 LP  0  0  0  0  0  0  0  0  0  0  0  0  # atno 17394 bound_to 11000
  140.8279  133.8302  155.8957 LP  0  0  0  0  0  0  0  0  0  0  0  0  # atno 17395 bound_to 11000

$$$$
