#       Name:                AV-unprocessed.smi:2832
#       Creating user name   scv26
#       Creation time:       Fri Mar 27 15:35:59 2020


#       File generated by GOLD software.
#

@<TRIPOS>MOLECULE
AV-unprocessed.smi:2832
    40    40     1
SMALL
NO_CHARGES


@<TRIPOS>ATOM
      1 ****        -3.9814   0.8523   1.3844 C.3            1 S1                 0.0000
      2 ****        -2.4546   0.9668   1.4454 C.3            1 S1                 0.0000
      3 ****        -1.7645  -0.4160   1.4854 C.3            1 S1                 0.0000
      4 ****        -0.2044  -0.4406   1.4039 C.3            1 S1                 0.0000
      5 ****         0.2816  -1.9074   1.4504 C.3            1 S1                 0.0000
      6 ****         0.3662   0.1650   0.1874 N.am           1 S1                 0.0000
      7 ****        -0.1460   0.3283  -1.0464 C.2            1 S1                 0.0000
      8 ****        -1.2219  -0.1325  -1.4255 O.2            1 S1                 0.0000
      9 ****         0.7107   1.1362  -2.0226 C.3            1 S1                 0.0000
     10 ****         1.9510   0.4467  -2.3347 N.pl3          1 S1                 0.0000
     11 ****         2.1351  -0.6769  -3.1141 C.2            1 S1                 0.0000
     12 ****         3.4714  -0.9578  -3.1139 C.2            1 S1                 0.0000
     13 ****         4.0312   0.0649  -2.2981 C.2            1 S1                 0.0000
     14 ****         3.1199   0.9052  -1.8356 N.2            1 S1                 0.0000
     15 ****         0.3471   0.3448   2.6206 C.2            1 S1                 0.0000
     16 ****         0.5874  -0.2929   3.6703 O.co2          1 S1                 0.0000
     17 ****         0.5121   1.5799   2.4949 O.co2          1 S1                -1.0000
     18 ****        -4.4440   1.8393   1.3753 H              1 S1                 0.0000
     19 ****        -4.3703   0.3099   2.2466 H              1 S1                 0.0000
     20 ****        -4.3000   0.3269   0.4837 H              1 S1                 0.0000
     21 ****        -2.1124   1.5446   0.5881 H              1 S1                 0.0000
     22 ****        -2.1869   1.5467   2.3285 H              1 S1                 0.0000
     23 ****        -2.0703  -0.9091   2.4098 H              1 S1                 0.0000
     24 ****        -2.1796  -1.0468   0.6996 H              1 S1                 0.0000
     25 ****        -0.1116  -2.4406   2.3169 H              1 S1                 0.0000
     26 ****         1.3703  -1.9691   1.4893 H              1 S1                 0.0000
     27 ****        -0.0427  -2.4548   0.5647 H              1 S1                 0.0000
     28 ****         1.2689   0.5933   0.3363 H              1 S1                 0.0000
     29 ****         0.1635   1.3044  -2.9510 H              1 S1                 0.0000
     30 ****         0.9296   2.1165  -1.5957 H              1 S1                 0.0000
     31 ****         1.3075  -1.1780  -3.5944 H              1 S1                 0.0000
     32 ****         3.9725  -1.7704  -3.6184 H              1 S1                 0.0000
     33 ****         5.0658   0.2215  -2.0305 H              1 S1                 0.0000
     34 ****        -1.7833  -0.6726  -0.7985 LP             1 S1                 0.0000
     35 ****        -1.5351   0.0330  -2.3607 LP             1 S1                 0.0000
     36 ****         3.2639   1.7015  -1.2481 LP             1 S1                 0.0000
     37 ****         0.9340   0.1850   4.4774 LP             1 S1                 0.0000
     38 ****         0.4327  -1.2804   3.7019 LP             1 S1                 0.0000
     39 ****         0.8563   2.1191   3.2635 LP             1 S1                 0.0000
     40 ****         0.2996   2.0268   1.6259 LP             1 S1                 0.0000
@<TRIPOS>BOND
    1    1    2 1     
    2    1   18 1     
    3    1   19 1     
    4    1   20 1     
    5    2    3 1     
    6    2   21 1     
    7    2   22 1     
    8    3    4 1     
    9    3   23 1     
   10    3   24 1     
   11    4    5 1     
   12    4    6 1     
   13    4   15 1     
   14    5   25 1     
   15    5   26 1     
   16    5   27 1     
   17    6    7 am    
   18    6   28 1     
   19    7    8 2     
   20    7    9 1     
   21    9   10 1     
   22    9   29 1     
   23    9   30 1     
   24   10   14 1     
   25   10   11 1     
   26   11   12 2     
   27   11   31 1     
   28   12   13 1     
   29   12   32 1     
   30   13   14 2     
   31   13   33 1     
   32   15   16 ar    
   33   15   17 ar    
   34    8   34 1     
   35    8   35 1     
   36   14   36 1     
   37   16   37 1     
   38   16   38 1     
   39   17   39 1     
   40   17   40 1     
@<TRIPOS>SUBSTRUCTURE
      1 S1             1
@<TRIPOS>SET
LONE_PAIRS      STATIC     ATOMS    <user>   **** ""
7 34 35 36 37 38 39 40
DONOR_HYDROGENS      STATIC     ATOMS    <user>   **** ""
1 28
ATOM$BLUE        STATIC     ATOMS    COLORGROUP SYSTEM
7 34 35 36 37 38 39 40
ATOM$RED        STATIC     ATOMS    COLORGROUP SYSTEM
1 28
