#       Name:                AV-unprocessed.smi:1748
#       Creating user name   scv26
#       Creation time:       Fri Mar 27 08:26:08 2020


#       File generated by GOLD software.
#

@<TRIPOS>MOLECULE
AV-unprocessed.smi:1748
    44    45     1
SMALL
NO_CHARGES


@<TRIPOS>ATOM
      1 ****        -2.5606  -2.8319   1.5754 C.3            1 S1                 0.0000
      2 ****        -2.1742  -2.2239   0.2843 N.4            1 S1                 1.0000
      3 ****        -2.6193  -3.0304  -0.8800 C.3            1 S1                 0.0000
      4 ****        -2.0886  -2.4411  -2.1988 C.3            1 S1                 0.0000
      5 ****        -2.4703  -0.9576  -2.3452 C.3            1 S1                 0.0000
      6 ****        -2.0395  -0.1511  -1.1062 C.3            1 S1                 0.0000
      7 ****        -0.5805  -0.0555  -1.0583 N.am           1 S1                 0.0000
      8 ****         0.1178   0.8050  -0.3038 C.2            1 S1                 0.0000
      9 ****        -0.4118   1.6288   0.4415 O.2            1 S1                 0.0000
     10 ****         1.4395   0.6112  -0.4579 N.am           1 S1                 0.0000
     11 ****         2.5126   1.2864   0.1471 C.2            1 S1                 0.0000
     12 ****         2.4264   2.5116   0.7352 C.2            1 S1                 0.0000
     13 ****         3.5794   3.1712   1.3349 C.2            1 S1                 0.0000
     14 ****         3.5002   4.4898   2.0838 C.3            1 S1                 0.0000
     15 ****         4.3530   4.5119   3.1084 F              1 S1                 0.0000
     16 ****         3.8077   5.4954   1.2655 F              1 S1                 0.0000
     17 ****         2.2707   4.6983   2.5551 F              1 S1                 0.0000
     18 ****         4.7283   2.4101   1.2381 C.2            1 S1                 0.0000
     19 ****         4.9035   1.2054   0.6517 N.pl3          1 S1                -1.0000
     20 ****         3.8190   0.5984   0.0927 C.2            1 S1                 0.0000
     21 ****         3.9052  -0.5033  -0.4513 O.2            1 S1                 0.0000
     22 ****        -2.6094  -0.8093   0.1705 C.3            1 S1                 0.0000
     23 ****        -3.6454  -2.8731   1.6805 H              1 S1                 0.0000
     24 ****        -2.1571  -2.2546   2.4080 H              1 S1                 0.0000
     25 ****        -2.1689  -3.8464   1.6553 H              1 S1                 0.0000
     26 ****        -2.2646  -4.0561  -0.7717 H              1 S1                 0.0000
     27 ****        -3.7095  -3.0718  -0.8995 H              1 S1                 0.0000
     28 ****        -1.0037  -2.5484  -2.2350 H              1 S1                 0.0000
     29 ****        -2.4793  -3.0096  -3.0433 H              1 S1                 0.0000
     30 ****        -2.0249  -0.5394  -3.2489 H              1 S1                 0.0000
     31 ****        -3.5507  -0.8756  -2.4710 H              1 S1                 0.0000
     32 ****        -2.4429   0.8591  -1.1967 H              1 S1                 0.0000
     33 ****        -0.0629  -0.6925  -1.6465 H              1 S1                 0.0000
     34 ****         1.7177  -0.1546  -1.0541 H              1 S1                 0.0000
     35 ****         1.4933   3.0502   0.7557 H              1 S1                 0.0000
     36 ****         5.6434   2.8304   1.7070 H              1 S1                 0.0000
     37 ****        -3.6996  -0.7661   0.1577 H              1 S1                 0.0000
     38 ****        -2.2915  -0.2556   1.0548 H              1 S1                 0.0000
     39 ****        -1.1642  -2.2152   0.2634 H              1 S1                 0.0000
     40 ****        -1.4086   1.6780   0.5045 LP             1 S1                 0.0000
     41 ****         0.1547   2.2490   0.9842 LP             1 S1                 0.0000
     42 ****         5.8041   0.7713   0.6286 LP             1 S1                 0.0000
     43 ****         3.0937  -0.9274  -0.8531 LP             1 S1                 0.0000
     44 ****         4.7868  -0.9737  -0.4911 LP             1 S1                 0.0000
@<TRIPOS>BOND
    1    1    2 1     
    2    1   23 1     
    3    1   24 1     
    4    1   25 1     
    5    2   22 1     
    6    2    3 1     
    7    2   39 1     
    8    3    4 1     
    9    3   26 1     
   10    3   27 1     
   11    4    5 1     
   12    4   28 1     
   13    4   29 1     
   14    5    6 1     
   15    5   30 1     
   16    5   31 1     
   17    6    7 1     
   18    6   22 1     
   19    6   32 1     
   20    7    8 am    
   21    7   33 1     
   22    8    9 2     
   23    8   10 am    
   24   10   11 1     
   25   10   34 1     
   26   11   20 1     
   27   11   12 2     
   28   12   13 1     
   29   12   35 1     
   30   13   14 1     
   31   13   18 2     
   32   14   15 1     
   33   14   16 1     
   34   14   17 1     
   35   18   19 1     
   36   18   36 1     
   37   19   20 1     
   38   20   21 2     
   39   22   37 1     
   40   22   38 1     
   41    9   40 1     
   42    9   41 1     
   43   19   42 1     
   44   21   43 1     
   45   21   44 1     
@<TRIPOS>SUBSTRUCTURE
      1 S1             1
@<TRIPOS>SET
LONE_PAIRS      STATIC     ATOMS    <user>   **** ""
5 40 41 42 43 44
DONOR_HYDROGENS      STATIC     ATOMS    <user>   **** ""
3 39 33 34
ATOM$BLUE        STATIC     ATOMS    COLORGROUP SYSTEM
5 40 41 42 43 44
ATOM$RED        STATIC     ATOMS    COLORGROUP SYSTEM
3 39 33 34
