#       Name:                AV-unprocessed.smi:2390
#       Creating user name   scv26
#       Creation time:       Fri Mar 27 13:10:40 2020


#       File generated by GOLD software.
#

@<TRIPOS>MOLECULE
AV-unprocessed.smi:2390
    51    52     1
SMALL
NO_CHARGES


@<TRIPOS>ATOM
      1 ****        -3.3682   4.5086   1.8934 C.3            1 S1                 0.0000
      2 ****        -3.6698   3.0560   1.5908 C.ar           1 S1                 0.0000
      3 ****        -4.9942   2.6138   1.4033 C.ar           1 S1                 0.0000
      4 ****        -5.2049   1.2516   1.1245 C.ar           1 S1                 0.0000
      5 ****        -4.0908   0.3938   1.0448 C.ar           1 S1                 0.0000
      6 ****        -2.7941   0.9174   1.2479 C.ar           1 S1                 0.0000
      7 ****        -1.7396  -0.0283   1.1452 N.am           1 S1                 0.0000
      8 ****        -0.4188   0.1820   1.2842 C.2            1 S1                 0.0000
      9 ****         0.1043   1.2628   1.5574 O.2            1 S1                 0.0000
     10 ****         0.2738  -0.9484   1.0817 N.am           1 S1                 0.0000
     11 ****         1.7311  -1.0760   1.1074 C.3            1 S1                 0.0000
     12 ****         2.1697  -1.7428   2.4240 C.3            1 S1                 0.0000
     13 ****         2.2448  -1.7856  -0.1851 C.3            1 S1                 0.0000
     14 ****         1.7491  -3.2546  -0.2110 C.3            1 S1                 0.0000
     15 ****         1.9219  -1.0547  -1.4370 N.3            1 S1                 0.0000
     16 ****         2.4525  -1.7191  -2.6332 C.3            1 S1                 0.0000
     17 ****         2.1317  -0.9596  -3.9322 C.3            1 S1                 0.0000
     18 ****         2.6313   0.3676  -3.8480 O.3            1 S1                 0.0000
     19 ****         2.0799   1.0743  -2.7460 C.3            1 S1                 0.0000
     20 ****         2.4046   0.3317  -1.4388 C.3            1 S1                 0.0000
     21 ****        -2.6016   2.2330   1.5168 N.ar           1 S1                 0.0000
     22 ****        -4.2607   5.1268   1.7927 H              1 S1                 0.0000
     23 ****        -2.6114   4.8915   1.2080 H              1 S1                 0.0000
     24 ****        -2.9939   4.6124   2.9121 H              1 S1                 0.0000
     25 ****        -5.8276   3.2978   1.4706 H              1 S1                 0.0000
     26 ****        -6.2041   0.8704   0.9732 H              1 S1                 0.0000
     27 ****        -4.2353  -0.6552   0.8295 H              1 S1                 0.0000
     28 ****        -2.0225  -0.9720   0.9267 H              1 S1                 0.0000
     29 ****        -0.2445  -1.7859   0.8604 H              1 S1                 0.0000
     30 ****         2.1905  -0.0900   1.1576 H              1 S1                 0.0000
     31 ****         3.2421  -1.9397   2.4279 H              1 S1                 0.0000
     32 ****         1.6512  -2.6833   2.6086 H              1 S1                 0.0000
     33 ****         1.9548  -1.0923   3.2725 H              1 S1                 0.0000
     34 ****         3.3319  -1.8264  -0.1010 H              1 S1                 0.0000
     35 ****         1.9527  -3.7784   0.7207 H              1 S1                 0.0000
     36 ****         2.2520  -3.8450  -0.9752 H              1 S1                 0.0000
     37 ****         0.6760  -3.3125  -0.3956 H              1 S1                 0.0000
     38 ****         3.5332  -1.8379  -2.5411 H              1 S1                 0.0000
     39 ****         2.0311  -2.7170  -2.7388 H              1 S1                 0.0000
     40 ****         2.5916  -1.4583  -4.7855 H              1 S1                 0.0000
     41 ****         1.0559  -0.9412  -4.1141 H              1 S1                 0.0000
     42 ****         2.4980   2.0806  -2.7235 H              1 S1                 0.0000
     43 ****         1.0009   1.1784  -2.8722 H              1 S1                 0.0000
     44 ****         1.9442   0.9036  -0.6362 H              1 S1                 0.0000
     45 ****         3.4817   0.3500  -1.2668 H              1 S1                 0.0000
     46 ****        -0.4651   2.0734   1.6946 LP             1 S1                 0.0000
     47 ****         1.0984   1.3299   1.6421 LP             1 S1                 0.0000
     48 ****         0.9223  -1.0542  -1.4663 LP             1 S1                 0.0000
     49 ****         2.4009   0.8535  -4.6911 LP             1 S1                 0.0000
     50 ****         3.6253   0.3325  -3.7445 LP             1 S1                 0.0000
     51 ****        -1.6783   2.5897   1.6588 LP             1 S1                 0.0000
@<TRIPOS>BOND
    1    1    2 1     
    2    1   22 1     
    3    1   23 1     
    4    1   24 1     
    5    2   21 ar    
    6    2    3 ar    
    7    3    4 ar    
    8    3   25 1     
    9    4    5 ar    
   10    4   26 1     
   11    5    6 ar    
   12    5   27 1     
   13    6    7 1     
   14    6   21 ar    
   15    7    8 am    
   16    7   28 1     
   17    8    9 2     
   18    8   10 am    
   19   10   11 1     
   20   10   29 1     
   21   11   12 1     
   22   11   13 1     
   23   11   30 1     
   24   12   31 1     
   25   12   32 1     
   26   12   33 1     
   27   13   14 1     
   28   13   15 1     
   29   13   34 1     
   30   14   35 1     
   31   14   36 1     
   32   14   37 1     
   33   15   20 1     
   34   15   16 1     
   35   16   17 1     
   36   16   38 1     
   37   16   39 1     
   38   17   18 1     
   39   17   40 1     
   40   17   41 1     
   41   18   19 1     
   42   19   20 1     
   43   19   42 1     
   44   19   43 1     
   45   20   44 1     
   46   20   45 1     
   47    9   46 1     
   48    9   47 1     
   49   15   48 1     
   50   18   49 1     
   51   18   50 1     
   52   21   51 1     
@<TRIPOS>SUBSTRUCTURE
      1 S1             1
@<TRIPOS>SET
LONE_PAIRS      STATIC     ATOMS    <user>   **** ""
6 46 47 48 49 50 51
DONOR_HYDROGENS      STATIC     ATOMS    <user>   **** ""
2 28 29
ATOM$BLUE        STATIC     ATOMS    COLORGROUP SYSTEM
6 46 47 48 49 50 51
ATOM$RED        STATIC     ATOMS    COLORGROUP SYSTEM
2 28 29
