AV-unprocessed.smi:1372|AV-procd|sdf|5584|dock1
  -GOLD-   22720 5183D 1   1.00000     0.00000
 Structure written by MMmdl.
 42 44  0  0  0  0  0  0  0  0  2 V2000
  148.8887  135.9436  154.9896 C   0  0  0  0  0  0  0  0  0  0  0  0
  150.3419  136.7419  155.7850 S   0  0  0  0  0  0  0  0  0  0  0  0
  149.8947  137.4061  157.0186 O   0  0  0  0  0  0  0  0  0  0  0  0
  151.4370  135.7615  155.8459 O   0  0  0  0  0  0  0  0  0  0  0  0
  150.7892  138.0376  154.5507 C   0  0  0  0  0  0  0  0  0  0  0  0
  149.7275  139.0911  154.4971 C   0  0  0  0  0  0  0  0  0  0  0  0
  148.8385  139.2801  153.4799 N   0  3  0  0  0  0  0  0  0  0  0  0
  148.0115  140.3659  153.7667 C   0  0  0  0  0  0  0  0  0  0  0  0
  146.9747  140.9396  153.0375 C   0  0  0  0  0  0  0  0  0  0  0  0
  146.3321  142.0521  153.6195 C   0  0  0  0  0  0  0  0  0  0  0  0
  146.7264  142.5525  154.8775 C   0  0  0  0  0  0  0  0  0  0  0  0
  147.7786  141.9614  155.6078 C   0  0  0  0  0  0  0  0  0  0  0  0
  148.4072  140.8608  155.0258 C   0  0  0  0  0  0  0  0  0  0  0  0
  149.4598  140.0387  155.4435 N   0  0  0  0  0  0  0  0  0  0  0  0
  150.0933  140.3004  156.7461 C   0  0  0  0  0  0  0  0  0  0  0  0
  151.5573  140.7656  156.6170 C   0  0  2  0  0  0  0  0  0  0  0  0
  152.4202  139.6458  156.6534 O   0  0  0  0  0  0  0  0  0  0  0  0
  151.9056  141.7917  157.6828 C   0  0  0  0  0  0  0  0  0  0  0  0
  152.7882  141.4500  158.7298 C   0  0  0  0  0  0  0  0  0  0  0  0
  153.1215  142.3995  159.7154 C   0  0  0  0  0  0  0  0  0  0  0  0
  152.5761  143.6963  159.6585 C   0  0  0  0  0  0  0  0  0  0  0  0
  151.6971  144.0438  158.6151 C   0  0  0  0  0  0  0  0  0  0  0  0
  151.3633  143.0949  157.6294 C   0  0  0  0  0  0  0  0  0  0  0  0
  148.5216  135.1414  155.6295 H   0  0  0  0  0  0  0  0  0  0  0  0
  149.1798  135.5306  154.0239 H   0  0  0  0  0  0  0  0  0  0  0  0
  148.0988  136.6809  154.8475 H   0  0  0  0  0  0  0  0  0  0  0  0
  151.7445  138.4808  154.8311 H   0  0  0  0  0  0  0  0  0  0  0  0
  150.9059  137.5561  153.5807 H   0  0  0  0  0  0  0  0  0  0  0  0
  146.6728  140.5591  152.0726 H   0  0  0  0  0  0  0  0  0  0  0  0
  145.5218  142.5318  153.0899 H   0  0  0  0  0  0  0  0  0  0  0  0
  146.2119  143.4077  155.2913 H   0  0  0  0  0  0  0  0  0  0  0  0
  148.0741  142.3543  156.5694 H   0  0  0  0  0  0  0  0  0  0  0  0
  149.4973  141.0428  157.2779 H   0  0  0  0  0  0  0  0  0  0  0  0
  150.0295  139.3885  157.3400 H   0  0  0  0  0  0  0  0  0  0  0  0
  151.6932  141.2293  155.6391 H   0  0  0  0  0  0  0  0  0  0  0  0
  151.9995  138.9589  157.1478 H   0  0  0  0  0  0  0  0  0  0  0  0
  153.2144  140.4591  158.7812 H   0  0  0  0  0  0  0  0  0  0  0  0
  153.7965  142.1329  160.5152 H   0  0  0  0  0  0  0  0  0  0  0  0
  152.8322  144.4242  160.4142 H   0  0  0  0  0  0  0  0  0  0  0  0
  151.2798  145.0387  158.5702 H   0  0  0  0  0  0  0  0  0  0  0  0
  150.6909  143.3715  156.8305 H   0  0  0  0  0  0  0  0  0  0  0  0
  148.8128  138.7131  152.6416 H   0  0  0  0  0  0  0  0  0  0  0  0
  1  2  1  0  0  0  0
  1 24  1  0  0  0  0
  1 25  1  0  0  0  0
  1 26  1  0  0  0  0
  2  3  2  0  0  0  0
  2  4  2  0  0  0  0
  2  5  1  0  0  0  0
  5  6  1  0  0  0  0
  5 27  1  0  0  0  0
  5 28  1  0  0  0  0
  6 14  1  0  0  0  0
  6  7  2  0  0  0  0
  7  8  1  0  0  0  0
  7 42  1  0  0  0  0
  8 13  2  0  0  0  0
  8  9  1  0  0  0  0
  9 10  2  0  0  0  0
  9 29  1  0  0  0  0
 10 11  1  0  0  0  0
 10 30  1  0  0  0  0
 11 12  2  0  0  0  0
 11 31  1  0  0  0  0
 12 13  1  0  0  0  0
 12 32  1  0  0  0  0
 13 14  1  0  0  0  0
 14 15  1  0  0  0  0
 15 16  1  0  0  0  0
 15 33  1  0  0  0  0
 15 34  1  0  0  0  0
 16 17  1  0  0  0  0
 16 18  1  0  0  0  0
 16 35  1  0  0  0  0
 17 36  1  0  0  0  0
 18 23  1  0  0  0  0
 18 19  2  0  0  0  0
 19 20  1  0  0  0  0
 19 37  1  0  0  0  0
 20 21  2  0  0  0  0
 20 38  1  0  0  0  0
 21 22  1  0  0  0  0
 21 39  1  0  0  0  0
 22 23  2  0  0  0  0
 22 40  1  0  0  0  0
 23 41  1  0  0  0  0
M  CHG  1   7   1
M  END
> <s_m_source_file>
AV-unprocessed.smi

> <i_m_source_file_index>
1372

> <i_lp_mmshare_version>
43012

> <i_f3d_flags>
0

> <s_epik_input>
W2NIXTFbY0hdW2NIXVtjSF1jKGMxMiluKGMobjIpW0NIMl1TKD1PKSg9TylbQ0gzXSlbQ0gyXVtDQEhdKFtPSF0pYzNbY0hdW2NIXVtjSF1bY0hdW2NIXTM=

> <s_epik_cmdline>
J2VwaWtfcHl0aG9uJywgJy1waCcsICc3LjAnLCAnLXRuJywgJzgnLCAnLW1hJywgJzIwMCcsICctbWV0YWxfYmluZGluZycsICctaW1hZScsICc8aW5maWxlLm1hZT4nLCAnLW9tYWUnLCAnPG91dGZpbGUubWFlPic=

> <r_epik_Ionization_Penalty>
2.1801

> <r_epik_Ionization_Penalty_Charging>
2.1801

> <r_epik_Ionization_Penalty_Neutral>
1.34362e-06

> <r_epik_State_Penalty>
2.32206

> <r_epik_Charging_Adjusted_Penalty>
4.50216

> <i_epik_Tot_Q>
1

> <i_epik_Tot_abs_Q>
1

> <r_epik_Metal_State_Penalty>
6.40294

> <b_epik_Metal_Only>
0

> <s_lp_Force_Field>
OPLS_2005

> <r_lp_Energy>
10.6003

> <b_lp_Chiralities_Consistent>
1

> <s_lp_Variant>
AV-unprocessed.smi:1372-3

> <Gold.Version>
5.8.1

> <Gold.Id.Protein>
6NUR|6NUR_protein|mol2

> <Gold.PLP.Fitness>
51.9019

> <Gold.PLP.PLP>
-41.6194

> <Gold.PLP.part.hbond>
-4.0000

> <Gold.PLP.part.metal>
0.0000

> <Gold.PLP.part.buried>
-0.0789

> <Gold.PLP.part.nonpolar>
-38.5768

> <Gold.PLP.part.repulsive>
0.0799

> <Gold.PLP.ligand.clash>
0.0000

> <Gold.PLP.ligand.torsion>
0.9799

> <Gold.PLP.Chemscore.Hbond>
4.0000

> <Gold.PLP.Chemscore.CHOScore>
0.0000

> <Gold.PLP.Chemscore.Metal>
0.0000

> <Gold.Chemscore.Hbonds>
donor molecule, donor type, donor heavy atom, donor atom, acceptor molecule, acceptor atom, score
      L1  H     7    42       P1  7957  0.06
      P1  H  7997  8010       L1    17  1.00
      P1  H 10752 10763       L1     4  1.00

> <Gold.PLP.Chemscore.Internal.Correction>
0.2422

> <Gold.Rescore>
     Score         DG    S(hbond)    S(metal)    S(lipo)     H(rot)  DE(clash)    DE(int)     intcor
     20.64     -23.33       2.89        0.00     122.59       2.40       1.74       0.94       ----

> <Gold.Chemscore.Fitness>
20.6432

> <Gold.Chemscore.DG>
-23.3287

> <Gold.Chemscore.ZeroCoef>
-5.4800

> <Gold.Chemscore.Hbond>
2.8852

> <Gold.Chemscore.Metal>
0.0000

> <Gold.Chemscore.Lipo>
122.5933

> <Gold.Chemscore.Internal_Hbond>
0.0000

> <Gold.Chemscore.DEClash>
1.7449

> <Gold.Chemscore.DEInternal>
0.9406

> <Gold.Chemscore.Rot>
2.3951

> <Gold.Chemscore.Internal.Correction>
   9.000000E+99

> <Gold.Chemscore.Hbonds>
donor molecule, donor type, donor heavy atom, donor atom, acceptor molecule, acceptor atom, score
      L1  H     7    42       P1  7957  0.08
      P1  H  7997  8010       L1    17  0.86
      P1  H 10752 10763       L1     4  1.00

> <Gold.Chemscore.Hbond.Weighted>
-9.6367

> <Gold.Chemscore.Metal.Weighted>
-0.0000

> <Gold.Chemscore.Lipo.Weighted>
-14.3434

> <Gold.Chemscore.Internal_Hbond.Weighted>
0.0000

> <Gold.Chemscore.DEClash.Weighted>
1.7449

> <Gold.Chemscore.DEInternal.Weighted>
0.9406

> <Gold.Chemscore.Rot.Weighted>
6.1314

> <Gold.Chemscore.Internal.Correction.Weighted>
   9.000000E+99

> <Gold.Protein.RotatedTorsions>
[ 6907 6896 6895 6894 ] final   -3.59 input  -60.11 | X-H torsion
[ 7974 7965 7964 7962 ] final  -38.27 input  175.53 | X-H torsion
[ 8008 7997 7996 7995 ] final   70.68 input   59.86 | X-H torsion
[ 10167 10162 10161 10158 ] final   66.20 input  -65.29 | X-H torsion
[ 10718 10713 10712 10709 ] final -128.59 input   66.30 | X-H torsion
[ 10763 10752 10751 10750 ] final   83.02 input  -60.55 | X-H torsion
[ 11005 11000 10999 10996 ] final  -74.94 input  -57.11 | X-H torsion

> <Gold.Protein.ActiveResidues>
 VAL166  LYS551  ARG553  GLY616  TRP617  ASP618  TYR619  PRO620  LYS621  CYS622 
 ASP623  PHE694  ASN695  SER759  ASP760  ASP761  ALA762  ILE779  LEU786  VAL792 
 PHE793  MET794  SER795  GLU796  ALA797  LYS798  CYS799  TRP800  GLU811  SER814 

> <Gold.Protein.RotatedAtoms>
  151.5112  135.1065  159.9854 H   0  0  0  0  0  0  0  0  0  0  0  0  # atno 6907 bound_to 6896
  152.4660  133.7921  159.6918 H   0  0  0  0  0  0  0  0  0  0  0  0  # atno 6908 bound_to 6896
  150.8645  133.7531  159.3007 H   0  0  0  0  0  0  0  0  0  0  0  0  # atno 6909 bound_to 6896
  146.0502  140.6492  142.9046 H   0  0  0  0  0  0  0  0  0  0  0  0  # atno 7974 bound_to 7965
  155.7424  140.3490  155.5110 H   0  0  0  0  0  0  0  0  0  0  0  0  # atno 8008 bound_to 7997
  155.9082  140.1046  157.1321 H   0  0  0  0  0  0  0  0  0  0  0  0  # atno 8009 bound_to 7997
  154.4052  140.1273  156.4509 H   0  0  0  0  0  0  0  0  0  0  0  0  # atno 8010 bound_to 7997
  140.1030  144.4886  150.7025 H   0  0  0  0  0  0  0  0  0  0  0  0  # atno 10167 bound_to 10162
  156.1966  130.6830  151.0488 H   0  0  0  0  0  0  0  0  0  0  0  0  # atno 10718 bound_to 10713
  153.1254  135.4707  154.9263 H   0  0  0  0  0  0  0  0  0  0  0  0  # atno 10763 bound_to 10752
  154.7615  135.3133  154.8372 H   0  0  0  0  0  0  0  0  0  0  0  0  # atno 10764 bound_to 10752
  153.8926  135.6883  153.4813 H   0  0  0  0  0  0  0  0  0  0  0  0  # atno 10765 bound_to 10752
  141.1640  133.6929  156.7441 H   0  0  0  0  0  0  0  0  0  0  0  0  # atno 11005 bound_to 11000
  144.7118  140.4067  143.7074 LP  0  0  0  0  0  0  0  0  0  0  0  0  # atno 17320 bound_to 7965
  145.6738  139.1604  143.2739 LP  0  0  0  0  0  0  0  0  0  0  0  0  # atno 17321 bound_to 7965
  140.6967  143.2408  151.4980 LP  0  0  0  0  0  0  0  0  0  0  0  0  # atno 17342 bound_to 10162
  139.5660  144.2040  152.1766 LP  0  0  0  0  0  0  0  0  0  0  0  0  # atno 17343 bound_to 10162
  157.6961  131.0793  150.6965 LP  0  0  0  0  0  0  0  0  0  0  0  0  # atno 17370 bound_to 10713
  156.7021  130.4626  149.5570 LP  0  0  0  0  0  0  0  0  0  0  0  0  # atno 17371 bound_to 10713
  140.2652  134.8435  157.3796 LP  0  0  0  0  0  0  0  0  0  0  0  0  # atno 17394 bound_to 11000
  140.1573  134.4773  155.7919 LP  0  0  0  0  0  0  0  0  0  0  0  0  # atno 17395 bound_to 11000

$$$$
