#       Name:                AV-unprocessed.smi:1970
#       Creating user name   scv26
#       Creation time:       Fri Mar 27 10:13:04 2020


#       File generated by GOLD software.
#

@<TRIPOS>MOLECULE
AV-unprocessed.smi:1970
    38    39     1
SMALL
NO_CHARGES


@<TRIPOS>ATOM
      1 ****         0.2122   1.6070  -1.2391 O.2            1 S1                 0.0000
      2 ****        -0.1293   0.5438  -1.7571 C.2            1 S1                 0.0000
      3 ****        -1.6158   0.2089  -1.9042 C.3            1 S1                 0.0000
      4 ****        -2.2706   0.1326  -0.5969 N.am           1 S1                 0.0000
      5 ****        -2.9669   1.3075  -0.0835 C.3            1 S1                 0.0000
      6 ****        -3.2580   1.0062   1.6783 S.3            1 S1                 0.0000
      7 ****        -2.9810  -0.7648   1.5097 C.3            1 S1                 0.0000
      8 ****        -2.2700  -0.9631   0.1824 C.2            1 S1                 0.0000
      9 ****        -1.7493  -2.0387  -0.1116 O.2            1 S1                 0.0000
     10 ****         0.7403  -0.3684  -2.2192 N.am           1 S1                 0.0000
     11 ****         2.1958  -0.2741  -2.1322 C.3            1 S1                 0.0000
     12 ****         2.7583  -0.9426  -0.8605 C.3            1 S1                 0.0000
     13 ****         2.2762  -0.3069   0.4331 C.ar           1 S1                 0.0000
     14 ****         1.2775  -0.9260   1.2154 C.ar           1 S1                 0.0000
     15 ****         0.8367  -0.2721   2.3819 C.ar           1 S1                 0.0000
     16 ****         1.4140   0.9654   2.7246 C.ar           1 S1                 0.0000
     17 ****         2.4129   1.4946   1.8833 C.ar           1 S1                 0.0000
     18 ****         2.8416   0.8766   0.7616 N.ar           1 S1                 0.0000
     19 ****        -2.0894   0.9853  -2.5065 H              1 S1                 0.0000
     20 ****        -1.7488  -0.7254  -2.4530 H              1 S1                 0.0000
     21 ****        -2.3816   2.2175  -0.2189 H              1 S1                 0.0000
     22 ****        -3.9192   1.4263  -0.6009 H              1 S1                 0.0000
     23 ****        -2.3825  -1.1404   2.3397 H              1 S1                 0.0000
     24 ****        -3.9348  -1.2926   1.4984 H              1 S1                 0.0000
     25 ****         0.3645  -1.2080  -2.6360 H              1 S1                 0.0000
     26 ****         2.6125  -0.7664  -3.0110 H              1 S1                 0.0000
     27 ****         2.5180   0.7671  -2.1875 H              1 S1                 0.0000
     28 ****         2.4972  -2.0017  -0.8575 H              1 S1                 0.0000
     29 ****         3.8479  -0.9024  -0.8812 H              1 S1                 0.0000
     30 ****         0.8465  -1.8713   0.9211 H              1 S1                 0.0000
     31 ****         0.0669  -0.7098   3.0000 H              1 S1                 0.0000
     32 ****         1.0996   1.4964   3.6108 H              1 S1                 0.0000
     33 ****         2.8792   2.4403   2.1164 H              1 S1                 0.0000
     34 ****        -0.4811   2.2507  -0.9150 LP             1 S1                 0.0000
     35 ****         1.1829   1.8270  -1.1424 LP             1 S1                 0.0000
     36 ****        -1.2814  -2.1444  -0.9890 LP             1 S1                 0.0000
     37 ****        -1.7941  -2.8070   0.5269 LP             1 S1                 0.0000
     38 ****         3.5558   1.2821   0.1911 LP             1 S1                 0.0000
@<TRIPOS>BOND
    1    1    2 2     
    2    2    3 1     
    3    2   10 am    
    4    3    4 1     
    5    3   19 1     
    6    3   20 1     
    7    4    8 am    
    8    4    5 1     
    9    5    6 1     
   10    5   21 1     
   11    5   22 1     
   12    6    7 1     
   13    7    8 1     
   14    7   23 1     
   15    7   24 1     
   16    8    9 2     
   17   10   11 1     
   18   10   25 1     
   19   11   12 1     
   20   11   26 1     
   21   11   27 1     
   22   12   13 1     
   23   12   28 1     
   24   12   29 1     
   25   13   18 ar    
   26   13   14 ar    
   27   14   15 ar    
   28   14   30 1     
   29   15   16 ar    
   30   15   31 1     
   31   16   17 ar    
   32   16   32 1     
   33   17   18 ar    
   34   17   33 1     
   35    1   34 1     
   36    1   35 1     
   37    9   36 1     
   38    9   37 1     
   39   18   38 1     
@<TRIPOS>SUBSTRUCTURE
      1 S1             1
@<TRIPOS>SET
LONE_PAIRS      STATIC     ATOMS    <user>   **** ""
5 34 35 36 37 38
DONOR_HYDROGENS      STATIC     ATOMS    <user>   **** ""
1 25
ATOM$BLUE        STATIC     ATOMS    COLORGROUP SYSTEM
5 34 35 36 37 38
ATOM$RED        STATIC     ATOMS    COLORGROUP SYSTEM
1 25
