AV-unprocessed.smi:2788|AV-procd|sdf|10761|dock7
  -GOLD-   2272015193D 1   1.00000     0.00000
 Structure written by MMmdl.
 47 48  0  0  0  0  0  0  0  0  1 V2000
  149.5587  135.1431  156.2811 C   0  0  0  0  0  0  0  0  0  0  0  0
  149.8832  133.6774  156.2425 C   0  0  0  0  0  0  0  0  0  0  0  0
  150.2786  133.0676  157.3472 N   0  0  0  0  0  0  0  0  0  0  0  0
  150.4772  131.7292  156.9959 O   0  0  0  0  0  0  0  0  0  0  0  0
  150.1884  131.5833  155.6783 C   0  0  0  0  0  0  0  0  0  0  0  0
  150.3160  130.2066  155.1199 C   0  0  0  0  0  0  0  0  0  0  0  0
  149.8087  132.7817  155.1374 C   0  0  0  0  0  0  0  0  0  0  0  0
  149.3810  133.0885  153.7244 C   0  0  0  0  0  0  0  0  0  0  0  0
  147.8553  133.0855  153.6541 C   0  0  0  0  0  0  0  0  0  0  0  0
  147.2274  132.0906  154.0137 O   0  0  0  0  0  0  0  0  0  0  0  0
  147.2891  134.2008  153.1569 N   0  0  0  0  0  0  0  0  0  0  0  0
  145.8734  134.4615  152.8536 C   0  0  2  0  0  0  0  0  0  0  0  0
  145.8124  135.8958  152.2784 C   0  0  0  0  0  0  0  0  0  0  0  0
  145.0335  134.4096  154.1635 C   0  0  0  0  0  0  0  0  0  0  0  0
  145.0058  133.1157  154.7368 O   0  0  0  0  0  0  0  0  0  0  0  0
  145.3516  133.4104  151.8070 C   0  0  0  0  0  0  0  0  0  0  0  0
  146.2469  133.2690  150.5449 C   0  0  0  0  0  0  0  0  0  0  0  0
  145.7618  132.1411  149.6213 C   0  0  0  0  0  0  0  0  0  0  0  0
  144.3002  132.3540  149.2051 C   0  0  0  0  0  0  0  0  0  0  0  0
  143.3956  132.4939  150.4369 C   0  0  0  0  0  0  0  0  0  0  0  0
  143.8806  133.6201  151.3650 C   0  0  0  0  0  0  0  0  0  0  0  0
  148.4820  135.2996  156.3463 H   0  0  0  0  0  0  0  0  0  0  0  0
  149.9139  135.6487  155.3833 H   0  0  0  0  0  0  0  0  0  0  0  0
  150.0194  135.6344  157.1386 H   0  0  0  0  0  0  0  0  0  0  0  0
  150.2385  130.2133  154.0330 H   0  0  0  0  0  0  0  0  0  0  0  0
  149.5282  129.5612  155.5090 H   0  0  0  0  0  0  0  0  0  0  0  0
  151.2773  129.7677  155.3868 H   0  0  0  0  0  0  0  0  0  0  0  0
  149.7541  134.0590  153.3954 H   0  0  0  0  0  0  0  0  0  0  0  0
  149.7740  132.3586  153.0159 H   0  0  0  0  0  0  0  0  0  0  0  0
  147.9226  134.9473  152.9117 H   0  0  0  0  0  0  0  0  0  0  0  0
  144.7896  136.2098  152.0721 H   0  0  0  0  0  0  0  0  0  0  0  0
  146.3823  135.9928  151.3548 H   0  0  0  0  0  0  0  0  0  0  0  0
  146.2288  136.6220  152.9773 H   0  0  0  0  0  0  0  0  0  0  0  0
  145.4447  135.0815  154.9158 H   0  0  0  0  0  0  0  0  0  0  0  0
  144.0072  134.7336  153.9915 H   0  0  0  0  0  0  0  0  0  0  0  0
  144.1158  132.7990  154.7190 H   0  0  0  0  0  0  0  0  0  0  0  0
  145.3723  132.4395  152.3033 H   0  0  0  0  0  0  0  0  0  0  0  0
  146.2580  134.2022  149.9824 H   0  0  0  0  0  0  0  0  0  0  0  0
  147.2818  133.0626  150.8142 H   0  0  0  0  0  0  0  0  0  0  0  0
  146.3957  132.0889  148.7357 H   0  0  0  0  0  0  0  0  0  0  0  0
  145.8637  131.1820  150.1308 H   0  0  0  0  0  0  0  0  0  0  0  0
  144.2214  133.2499  148.5879 H   0  0  0  0  0  0  0  0  0  0  0  0
  143.9632  131.5210  148.5875 H   0  0  0  0  0  0  0  0  0  0  0  0
  142.3700  132.6885  150.1221 H   0  0  0  0  0  0  0  0  0  0  0  0
  143.3761  131.5512  150.9852 H   0  0  0  0  0  0  0  0  0  0  0  0
  143.2159  133.6577  152.2266 H   0  0  0  0  0  0  0  0  0  0  0  0
  143.7722  134.5730  150.8470 H   0  0  0  0  0  0  0  0  0  0  0  0
  1  2  1  0  0  0  0
  1 22  1  0  0  0  0
  1 23  1  0  0  0  0
  1 24  1  0  0  0  0
  2  7  1  0  0  0  0
  2  3  2  0  0  0  0
  3  4  1  0  0  0  0
  4  5  1  0  0  0  0
  5  6  1  0  0  0  0
  5  7  2  0  0  0  0
  6 25  1  0  0  0  0
  6 26  1  0  0  0  0
  6 27  1  0  0  0  0
  7  8  1  0  0  0  0
  8  9  1  0  0  0  0
  8 28  1  0  0  0  0
  8 29  1  0  0  0  0
  9 10  2  0  0  0  0
  9 11  1  0  0  0  0
 11 12  1  0  0  0  0
 11 30  1  0  0  0  0
 12 13  1  0  0  0  0
 12 14  1  0  0  0  0
 12 16  1  0  0  0  0
 13 31  1  0  0  0  0
 13 32  1  0  0  0  0
 13 33  1  0  0  0  0
 14 15  1  0  0  0  0
 14 34  1  0  0  0  0
 14 35  1  0  0  0  0
 15 36  1  0  0  0  0
 16 21  1  0  0  0  0
 16 17  1  0  0  0  0
 16 37  1  0  0  0  0
 17 18  1  0  0  0  0
 17 38  1  0  0  0  0
 17 39  1  0  0  0  0
 18 19  1  0  0  0  0
 18 40  1  0  0  0  0
 18 41  1  0  0  0  0
 19 20  1  0  0  0  0
 19 42  1  0  0  0  0
 19 43  1  0  0  0  0
 20 21  1  0  0  0  0
 20 44  1  0  0  0  0
 20 45  1  0  0  0  0
 21 46  1  0  0  0  0
 21 47  1  0  0  0  0
M  END
> <s_m_source_file>
AV-unprocessed.smi

> <i_m_source_file_index>
2788

> <i_lp_mmshare_version>
43012

> <i_f3d_flags>
0

> <s_epik_input>
W0NIM11jMW5vYyhbQ0gzXSljMVtDSDJdQyg9TylbTkhdW0NAQF0oW0NIM10pKFtDSDJdW09IXSlbQ0hdMltDSDJdW0NIMl1bQ0gyXVtDSDJdW0NIMl0y

> <s_epik_cmdline>
J2VwaWtfcHl0aG9uJywgJy1waCcsICc3LjAnLCAnLXRuJywgJzgnLCAnLW1hJywgJzIwMCcsICctbWV0YWxfYmluZGluZycsICctaW1hZScsICc8aW5maWxlLm1hZT4nLCAnLW9tYWUnLCAnPG91dGZpbGUubWFlPic=

> <r_lp_tautomer_probability>
1

> <r_epik_Ionization_Penalty>
1.3408e-07

> <r_epik_Ionization_Penalty_Charging>
0

> <r_epik_Ionization_Penalty_Neutral>
1.3408e-07

> <r_epik_State_Penalty>
-0

> <r_epik_Charging_Adjusted_Penalty>
0

> <i_epik_Tot_Q>
0

> <i_epik_Tot_abs_Q>
0

> <r_epik_Metal_State_Penalty>
-0

> <b_epik_Metal_Only>
0

> <s_lp_Force_Field>
OPLS_2005

> <r_lp_Energy>
14.1961

> <b_lp_Chiralities_Consistent>
1

> <s_lp_Variant>
AV-unprocessed.smi:2788-2

> <Gold.Version>
5.8.1

> <Gold.Id.Protein>
6NUR|6NUR_protein|mol2

> <Gold.PLP.Fitness>
45.7329

> <Gold.PLP.PLP>
-37.5018

> <Gold.PLP.part.hbond>
-3.0000

> <Gold.PLP.part.metal>
0.0000

> <Gold.PLP.part.buried>
-5.3583

> <Gold.PLP.part.nonpolar>
-29.7863

> <Gold.PLP.part.repulsive>
0.0508

> <Gold.PLP.ligand.clash>
0.0000

> <Gold.PLP.ligand.torsion>
0.4057

> <Gold.PLP.Chemscore.Hbond>
2.9920

> <Gold.PLP.Chemscore.CHOScore>
0.0000

> <Gold.PLP.Chemscore.Metal>
0.0000

> <Gold.Chemscore.Hbonds>
donor molecule, donor type, donor heavy atom, donor atom, acceptor molecule, acceptor atom, score
      L1  H    11    30       P1  7948  1.00
      L1  H    15    36       P1 10957  1.00
      P1  H  6896  6908       L1     3  0.89

> <Gold.PLP.Chemscore.Internal.Correction>
0.0665

> <Gold.Rescore>
     Score         DG    S(hbond)    S(metal)    S(lipo)     H(rot)  DE(clash)    DE(int)     intcor
     19.67     -20.36       2.89        0.00      93.52       2.24       0.02       0.67       ----

> <Gold.Chemscore.Fitness>
19.6704

> <Gold.Chemscore.DG>
-20.3571

> <Gold.Chemscore.ZeroCoef>
-5.4800

> <Gold.Chemscore.Hbond>
2.8919

> <Gold.Chemscore.Metal>
0.0000

> <Gold.Chemscore.Lipo>
93.5178

> <Gold.Chemscore.Internal_Hbond>
0.0000

> <Gold.Chemscore.DEClash>
0.0197

> <Gold.Chemscore.DEInternal>
0.6670

> <Gold.Chemscore.Rot>
2.2357

> <Gold.Chemscore.Internal.Correction>
   9.000000E+99

> <Gold.Chemscore.Hbonds>
donor molecule, donor type, donor heavy atom, donor atom, acceptor molecule, acceptor atom, score
      L1  H    11    30       P1  7948  0.95
      L1  H    15    36       P1 10957  1.00
      P1  H  6896  6908       L1     3  0.67

> <Gold.Chemscore.Hbond.Weighted>
-9.6590

> <Gold.Chemscore.Metal.Weighted>
-0.0000

> <Gold.Chemscore.Lipo.Weighted>
-10.9416

> <Gold.Chemscore.Internal_Hbond.Weighted>
0.0000

> <Gold.Chemscore.DEClash.Weighted>
0.0197

> <Gold.Chemscore.DEInternal.Weighted>
0.6670

> <Gold.Chemscore.Rot.Weighted>
5.7235

> <Gold.Chemscore.Internal.Correction.Weighted>
   9.000000E+99

> <Gold.Protein.RotatedTorsions>
[ 6907 6896 6895 6894 ] final   93.73 input  -60.11 | X-H torsion
[ 7974 7965 7964 7962 ] final   -6.13 input  175.53 | X-H torsion
[ 8008 7997 7996 7995 ] final  173.69 input   59.86 | X-H torsion
[ 10167 10162 10161 10158 ] final  -60.41 input  -65.29 | X-H torsion
[ 10718 10713 10712 10709 ] final   57.09 input   66.30 | X-H torsion
[ 10763 10752 10751 10750 ] final  -48.09 input  -60.55 | X-H torsion
[ 11005 11000 10999 10996 ] final  -36.08 input  -57.11 | X-H torsion

> <Gold.Protein.ActiveResidues>
 VAL166  LYS551  ARG553  GLY616  TRP617  ASP618  TYR619  PRO620  LYS621  CYS622 
 ASP623  PHE694  ASN695  SER759  ASP760  ASP761  ALA762  ILE779  LEU786  VAL792 
 PHE793  MET794  SER795  GLU796  ALA797  LYS798  CYS799  TRP800  GLU811  SER814 

> <Gold.Protein.RotatedAtoms>
  152.5452  134.1302  159.8435 H   0  0  0  0  0  0  0  0  0  0  0  0  # atno 6907 bound_to 6896
  151.1349  133.5004  159.2605 H   0  0  0  0  0  0  0  0  0  0  0  0  # atno 6908 bound_to 6896
  151.1636  135.0295  159.8775 H   0  0  0  0  0  0  0  0  0  0  0  0  # atno 6909 bound_to 6896
  146.2338  140.2125  142.8335 H   0  0  0  0  0  0  0  0  0  0  0  0  # atno 7974 bound_to 7965
  156.1049  140.1453  156.9417 H   0  0  0  0  0  0  0  0  0  0  0  0  # atno 8008 bound_to 7997
  154.4727  140.0904  156.7230 H   0  0  0  0  0  0  0  0  0  0  0  0  # atno 8009 bound_to 7997
  155.4696  140.3441  155.4326 H   0  0  0  0  0  0  0  0  0  0  0  0  # atno 8010 bound_to 7997
  140.6073  143.2377  151.5791 H   0  0  0  0  0  0  0  0  0  0  0  0  # atno 10167 bound_to 10162
  157.5486  130.8749  149.8929 H   0  0  0  0  0  0  0  0  0  0  0  0  # atno 10718 bound_to 10713
  154.0720  135.6603  153.4825 H   0  0  0  0  0  0  0  0  0  0  0  0  # atno 10763 bound_to 10752
  153.0387  135.5159  154.7557 H   0  0  0  0  0  0  0  0  0  0  0  0  # atno 10764 bound_to 10752
  154.6626  135.3017  154.9814 H   0  0  0  0  0  0  0  0  0  0  0  0  # atno 10765 bound_to 10752
  140.9847  133.7037  156.1744 H   0  0  0  0  0  0  0  0  0  0  0  0  # atno 11005 bound_to 11000
  144.9695  140.8355  143.5464 LP  0  0  0  0  0  0  0  0  0  0  0  0  # atno 17320 bound_to 7965
  145.2105  139.2207  143.5145 LP  0  0  0  0  0  0  0  0  0  0  0  0  # atno 17321 bound_to 7965
  139.5334  144.2849  152.1199 LP  0  0  0  0  0  0  0  0  0  0  0  0  # atno 17342 bound_to 10162
  140.2041  144.4628  150.6417 LP  0  0  0  0  0  0  0  0  0  0  0  0  # atno 17343 bound_to 10162
  156.0557  130.3709  150.1097 LP  0  0  0  0  0  0  0  0  0  0  0  0  # atno 17370 bound_to 10713
  156.9272  130.9702  151.3539 LP  0  0  0  0  0  0  0  0  0  0  0  0  # atno 17371 bound_to 10713
  140.7133  134.4438  157.5580 LP  0  0  0  0  0  0  0  0  0  0  0  0  # atno 17394 bound_to 11000
  139.8965  134.8658  156.2084 LP  0  0  0  0  0  0  0  0  0  0  0  0  # atno 17395 bound_to 11000

$$$$
