#       Name:                AV-unprocessed.smi:1591
#       Creating user name   scv26
#       Creation time:       Fri Mar 27 07:03:44 2020


#       File generated by GOLD software.
#

@<TRIPOS>MOLECULE
AV-unprocessed.smi:1591
    58    61     1
SMALL
NO_CHARGES


@<TRIPOS>ATOM
      1 ****        -0.6817   0.7459   3.0395 C.3            1 S1                 0.0000
      2 ****        -1.1897  -0.0338   1.8162 C.3            1 S1                 0.0000
      3 ****        -0.6978   0.5287   0.4576 C.3            1 S1                 0.0000
      4 ****         0.7676   0.5349   0.4485 N.am           1 S1                 0.0000
      5 ****         1.5604   1.6173   0.4927 C.2            1 S1                 0.0000
      6 ****         1.1392   2.7736   0.4977 O.2            1 S1                 0.0000
      7 ****         3.0662   1.3431   0.5356 C.3            1 S1                 0.0000
      8 ****         3.5674   1.3526   1.9181 N.am           1 S1                 0.0000
      9 ****         3.5960   0.1230   2.6000 C.2            1 S1                 0.0000
     10 ****         4.0153   0.0260   3.8757 C.2            1 S1                 0.0000
     11 ****         4.4470   1.2415   4.5536 C.2            1 S1                 0.0000
     12 ****         4.8330   1.1721   5.7188 O.2            1 S1                 0.0000
     13 ****         4.4000   2.4110   3.8509 N.pl3          1 S1                -1.0000
     14 ****         3.9705   2.4946   2.5531 C.2            1 S1                 0.0000
     15 ****         3.9358   3.5613   1.9397 O.2            1 S1                 0.0000
     16 ****        -1.2524  -0.2005  -0.8117 C.3            1 S1                 0.0000
     17 ****        -0.7611   0.5361  -2.0948 C.3            1 S1                 0.0000
     18 ****        -1.3013  -0.1449  -3.3690 C.3            1 S1                 0.0000
     19 ****        -0.8071  -1.6049  -3.4186 C.3            1 S1                 0.0000
     20 ****        -1.3212  -2.3561  -2.1736 C.3            1 S1                 0.0000
     21 ****        -2.8636  -2.3325  -2.1575 C.3            1 S1                 0.0000
     22 ****        -3.3481  -0.8686  -2.1122 C.3            1 S1                 0.0000
     23 ****        -2.8419  -0.1144  -3.3569 C.3            1 S1                 0.0000
     24 ****        -2.8090  -0.1885  -0.8355 C.3            1 S1                 0.0000
     25 ****        -0.7768  -1.6804  -0.8959 C.3            1 S1                 0.0000
     26 ****        -1.1295   0.3606   3.9557 H              1 S1                 0.0000
     27 ****        -0.9360   1.8036   2.9651 H              1 S1                 0.0000
     28 ****         0.4002   0.6677   3.1498 H              1 S1                 0.0000
     29 ****        -0.8964  -1.0778   1.9241 H              1 S1                 0.0000
     30 ****        -2.2773  -0.0155   1.8568 H              1 S1                 0.0000
     31 ****        -1.0577   1.5579   0.4063 H              1 S1                 0.0000
     32 ****         1.2181  -0.3684   0.4414 H              1 S1                 0.0000
     33 ****         3.2810   0.3850   0.0590 H              1 S1                 0.0000
     34 ****         3.5836   2.0848  -0.0750 H              1 S1                 0.0000
     35 ****         3.2526  -0.7270   2.0286 H              1 S1                 0.0000
     36 ****         4.0283  -0.9263   4.3851 H              1 S1                 0.0000
     37 ****        -1.0765   1.5803  -2.0728 H              1 S1                 0.0000
     38 ****         0.3281   0.5524  -2.1441 H              1 S1                 0.0000
     39 ****        -0.9371   0.3899  -4.2468 H              1 S1                 0.0000
     40 ****        -1.1599  -2.0930  -4.3279 H              1 S1                 0.0000
     41 ****         0.2826  -1.6346  -3.4552 H              1 S1                 0.0000
     42 ****        -0.9766  -3.3901  -2.2086 H              1 S1                 0.0000
     43 ****        -3.2583  -2.8341  -3.0420 H              1 S1                 0.0000
     44 ****        -3.2417  -2.8838  -1.2958 H              1 S1                 0.0000
     45 ****        -4.4383  -0.8498  -2.0985 H              1 S1                 0.0000
     46 ****        -3.2008   0.9153  -3.3475 H              1 S1                 0.0000
     47 ****        -3.2375  -0.5717  -4.2647 H              1 S1                 0.0000
     48 ****        -3.2178  -0.7166   0.0251 H              1 S1                 0.0000
     49 ****        -3.1808   0.8352  -0.7737 H              1 S1                 0.0000
     50 ****         0.3121  -1.7388  -0.8940 H              1 S1                 0.0000
     51 ****        -1.1132  -2.2425  -0.0245 H              1 S1                 0.0000
     52 ****         0.1549   2.9473   0.4678 LP             1 S1                 0.0000
     53 ****         1.7813   3.5395   0.5317 LP             1 S1                 0.0000
     54 ****         4.8478   0.2896   6.1889 LP             1 S1                 0.0000
     55 ****         5.1322   1.9981   6.1965 LP             1 S1                 0.0000
     56 ****         4.6946   3.2504   4.3076 LP             1 S1                 0.0000
     57 ****         3.6165   3.5831   0.9923 LP             1 S1                 0.0000
     58 ****         4.2270   4.4060   2.3888 LP             1 S1                 0.0000
@<TRIPOS>BOND
    1    1    2 1     
    2    1   26 1     
    3    1   27 1     
    4    1   28 1     
    5    2    3 1     
    6    2   29 1     
    7    2   30 1     
    8    3    4 1     
    9    3   16 1     
   10    3   31 1     
   11    4    5 am    
   12    4   32 1     
   13    5    6 2     
   14    5    7 1     
   15    7    8 1     
   16    7   33 1     
   17    7   34 1     
   18    8   14 am    
   19    8    9 1     
   20    9   10 2     
   21    9   35 1     
   22   10   11 1     
   23   10   36 1     
   24   11   12 2     
   25   11   13 1     
   26   13   14 1     
   27   14   15 2     
   28   16   24 1     
   29   16   25 1     
   30   16   17 1     
   31   17   18 1     
   32   17   37 1     
   33   17   38 1     
   34   18   23 1     
   35   18   19 1     
   36   18   39 1     
   37   19   20 1     
   38   19   40 1     
   39   19   41 1     
   40   20   21 1     
   41   20   25 1     
   42   20   42 1     
   43   21   22 1     
   44   21   43 1     
   45   21   44 1     
   46   22   23 1     
   47   22   24 1     
   48   22   45 1     
   49   23   46 1     
   50   23   47 1     
   51   24   48 1     
   52   24   49 1     
   53   25   50 1     
   54   25   51 1     
   55    6   52 1     
   56    6   53 1     
   57   12   54 1     
   58   12   55 1     
   59   13   56 1     
   60   15   57 1     
   61   15   58 1     
@<TRIPOS>SUBSTRUCTURE
      1 S1             1
@<TRIPOS>SET
LONE_PAIRS      STATIC     ATOMS    <user>   **** ""
7 52 53 54 55 56 57 58
DONOR_HYDROGENS      STATIC     ATOMS    <user>   **** ""
1 32
ATOM$BLUE        STATIC     ATOMS    COLORGROUP SYSTEM
7 52 53 54 55 56 57 58
ATOM$RED        STATIC     ATOMS    COLORGROUP SYSTEM
1 32
