#       Name:                AV-unprocessed.smi:101
#       Creating user name   scv26
#       Creation time:       Thu Mar 26 17:44:46 2020


#       File generated by GOLD software.
#

@<TRIPOS>MOLECULE
AV-unprocessed.smi:101
    56    58     1
SMALL
NO_CHARGES


@<TRIPOS>ATOM
      1 ****        -3.4113   2.4287   3.1876 C.3            1 S1                 0.0000
      2 ****        -3.5410   2.5666   1.6807 C.2            1 S1                 0.0000
      3 ****        -2.5326   2.2502   0.8380 C.2            1 S1                 0.0000
      4 ****        -2.6567   2.3773  -0.5354 N.am           1 S1                 0.0000
      5 ****        -1.5191   2.0198  -1.4745 C.3            1 S1                 0.0000
      6 ****        -0.3115   2.0117  -0.7663 O.3            1 S1                 0.0000
      7 ****         0.1665   0.6780  -0.6329 C.3            1 S1                 0.0000
      8 ****         1.6853   0.7037  -0.4225 C.3            1 S1                 0.0000
      9 ****         2.1509  -0.6064  -0.1431 O.3            1 S1                 0.0000
     10 ****         3.4691  -0.8365   0.0072 C.2            1 S1                 0.0000
     11 ****         4.3278   0.0450  -0.0643 O.2            1 S1                 0.0000
     12 ****         3.7812  -2.2712   0.2701 C.ar           1 S1                 0.0000
     13 ****         5.1219  -2.6574   0.5036 C.ar           1 S1                 0.0000
     14 ****         5.4476  -4.0050   0.7519 C.ar           1 S1                 0.0000
     15 ****         4.4368  -4.9835   0.7680 C.ar           1 S1                 0.0000
     16 ****         3.0994  -4.6126   0.5362 C.ar           1 S1                 0.0000
     17 ****         2.7714  -3.2650   0.2891 C.ar           1 S1                 0.0000
     18 ****        -0.2866   0.0358  -1.9429 C.3            1 S1                 0.0000
     19 ****        -0.2778  -1.3793  -1.9128 O.3            1 S1                 0.0000
     20 ****        -1.6819   0.6238  -2.1251 C.3            1 S1                 0.0000
     21 ****        -2.6772  -0.1783  -1.5053 O.3            1 S1                 0.0000
     22 ****        -3.8769   2.8458  -1.0880 C.2            1 S1                 0.0000
     23 ****        -3.9597   2.9273  -2.3139 O.2            1 S1                 0.0000
     24 ****        -4.8985   3.1705  -0.2459 N.pl3          1 S1                -1.0000
     25 ****        -4.8009   3.0578   1.1099 C.2            1 S1                 0.0000
     26 ****        -5.7317   3.3530   1.8589 O.2            1 S1                 0.0000
     27 ****        -2.4225   2.0657   3.4694 H              1 S1                 0.0000
     28 ****        -4.1511   1.7251   3.5705 H              1 S1                 0.0000
     29 ****        -3.5686   3.3924   3.6732 H              1 S1                 0.0000
     30 ****        -1.6087   1.8873   1.2607 H              1 S1                 0.0000
     31 ****        -1.4678   2.8334  -2.2000 H              1 S1                 0.0000
     32 ****        -0.3323   0.2102   0.2178 H              1 S1                 0.0000
     33 ****         2.1841   1.1058  -1.3055 H              1 S1                 0.0000
     34 ****         1.9305   1.3553   0.4174 H              1 S1                 0.0000
     35 ****         5.9153  -1.9238   0.4956 H              1 S1                 0.0000
     36 ****         6.4748  -4.2878   0.9298 H              1 S1                 0.0000
     37 ****         4.6870  -6.0171   0.9575 H              1 S1                 0.0000
     38 ****         2.3226  -5.3629   0.5468 H              1 S1                 0.0000
     39 ****         1.7353  -3.0149   0.1126 H              1 S1                 0.0000
     40 ****         0.3571   0.3768  -2.7551 H              1 S1                 0.0000
     41 ****        -0.9126  -1.6625  -1.2720 H              1 S1                 0.0000
     42 ****        -1.9362   0.7381  -3.1794 H              1 S1                 0.0000
     43 ****        -3.5035   0.2777  -1.5661 H              1 S1                 0.0000
     44 ****        -0.4578   2.4033   0.1421 LP             1 S1                 0.0000
     45 ****         0.3653   2.5581  -1.2597 LP             1 S1                 0.0000
     46 ****         4.0591   0.9916  -0.2427 LP             1 S1                 0.0000
     47 ****         5.2932  -0.1864   0.0561 LP             1 S1                 0.0000
     48 ****         0.6317  -1.7075  -1.6574 LP             1 S1                 0.0000
     49 ****        -0.5212  -1.7392  -2.8135 LP             1 S1                 0.0000
     50 ****        -2.4424  -0.3271  -0.5448 LP             1 S1                 0.0000
     51 ****        -2.7415  -1.0597  -1.9732 LP             1 S1                 0.0000
     52 ****        -3.1817   2.6673  -2.8860 LP             1 S1                 0.0000
     53 ****        -4.8048   3.2535  -2.7374 LP             1 S1                 0.0000
     54 ****        -5.7551   3.5053  -0.6385 LP             1 S1                 0.0000
     55 ****        -5.6265   3.2576   2.8487 LP             1 S1                 0.0000
     56 ****        -6.5932   3.6884   1.4776 LP             1 S1                 0.0000
@<TRIPOS>BOND
    1    1    2 1     
    2    1   27 1     
    3    1   28 1     
    4    1   29 1     
    5    2   25 1     
    6    2    3 2     
    7    3    4 1     
    8    3   30 1     
    9    4    5 1     
   10    4   22 am    
   11    5   20 1     
   12    5    6 1     
   13    5   31 1     
   14    6    7 1     
   15    7    8 1     
   16    7   18 1     
   17    7   32 1     
   18    8    9 1     
   19    8   33 1     
   20    8   34 1     
   21    9   10 1     
   22   10   11 2     
   23   10   12 1     
   24   12   17 ar    
   25   12   13 ar    
   26   13   14 ar    
   27   13   35 1     
   28   14   15 ar    
   29   14   36 1     
   30   15   16 ar    
   31   15   37 1     
   32   16   17 ar    
   33   16   38 1     
   34   17   39 1     
   35   18   19 1     
   36   18   20 1     
   37   18   40 1     
   38   19   41 1     
   39   20   21 1     
   40   20   42 1     
   41   21   43 1     
   42   22   23 2     
   43   22   24 1     
   44   24   25 1     
   45   25   26 2     
   46    6   44 1     
   47    6   45 1     
   48   11   46 1     
   49   11   47 1     
   50   19   48 1     
   51   19   49 1     
   52   21   50 1     
   53   21   51 1     
   54   23   52 1     
   55   23   53 1     
   56   24   54 1     
   57   26   55 1     
   58   26   56 1     
@<TRIPOS>SUBSTRUCTURE
      1 S1             1
@<TRIPOS>SET
LONE_PAIRS      STATIC     ATOMS    <user>   **** ""
13 44 45 46 47 48 49 50 51 52 53 54 55 56
DONOR_HYDROGENS      STATIC     ATOMS    <user>   **** ""
2 41 43
ATOM$BLUE        STATIC     ATOMS    COLORGROUP SYSTEM
13 44 45 46 47 48 49 50 51 52 53 54 55 56
ATOM$RED        STATIC     ATOMS    COLORGROUP SYSTEM
2 41 43
