AV-unprocessed.smi:1066|AV-procd|sdf|4670|dock8
  -GOLD-   22720 3183D 1   1.00000     0.00000
 Structure written by MMmdl.
 38 40  0  0  0  0  0  0  0  0  2 V2000
  151.4614  138.6086  156.7285 C   0  0  0  0  0  0  0  0  0  0  0  0
  151.7141  139.9554  157.3432 C   0  0  0  0  0  0  0  0  0  0  0  0
  152.8185  140.1469  158.0528 N   0  0  0  0  0  0  0  0  0  0  0  0
  152.7783  141.4738  158.4958 O   0  0  0  0  0  0  0  0  0  0  0  0
  151.6350  142.0157  158.0184 C   0  0  0  0  0  0  0  0  0  0  0  0
  151.1795  143.6407  158.3472 Cl  0  0  0  0  0  0  0  0  0  0  0  0
  150.9047  141.1277  157.2820 C   0  0  0  0  0  0  0  0  0  0  0  0
  149.5803  141.3189  156.5854 C   0  0  0  0  0  0  0  0  0  0  0  0
  149.5442  140.4901  155.3009 C   0  0  0  0  0  0  0  0  0  0  0  0
  150.5866  140.2452  154.6949 O   0  0  0  0  0  0  0  0  0  0  0  0
  148.3383  140.0608  154.8986 N   0  0  0  0  0  0  0  0  0  0  0  0
  148.0961  139.2254  153.7291 C   0  0  2  0  0  0  0  0  0  0  0  0
  147.2712  139.9021  152.6321 C   0  0  0  0  0  0  0  0  0  0  0  0
  146.5042  138.7491  151.9603 C   0  0  0  0  0  0  0  0  0  0  0  0
  146.7537  137.5362  152.7742 N   0  3  2  0  0  0  0  0  0  0  0  0
  145.6033  136.6129  152.8647 C   0  0  0  0  0  0  0  0  0  0  0  0
  145.9619  135.1742  152.5785 C   0  0  0  0  0  0  0  0  0  0  0  0
  145.2218  135.9923  151.5422 C   0  0  0  0  0  0  0  0  0  0  0  0
  147.2557  138.0020  154.0779 C   0  0  0  0  0  0  0  0  0  0  0  0
  150.4056  138.4704  156.4946 H   0  0  0  0  0  0  0  0  0  0  0  0
  151.7550  137.8032  157.4024 H   0  0  0  0  0  0  0  0  0  0  0  0
  152.0246  138.4909  155.8027 H   0  0  0  0  0  0  0  0  0  0  0  0
  148.7453  141.0214  157.2205 H   0  0  0  0  0  0  0  0  0  0  0  0
  149.4121  142.3681  156.3400 H   0  0  0  0  0  0  0  0  0  0  0  0
  147.5358  140.3161  155.4566 H   0  0  0  0  0  0  0  0  0  0  0  0
  149.0446  138.8840  153.3090 H   0  0  0  0  0  0  0  0  0  0  0  0
  146.5615  140.6079  153.0667 H   0  0  0  0  0  0  0  0  0  0  0  0
  147.8967  140.4531  151.9288 H   0  0  0  0  0  0  0  0  0  0  0  0
  145.4393  138.9836  151.9168 H   0  0  0  0  0  0  0  0  0  0  0  0
  146.8475  138.5770  150.9397 H   0  0  0  0  0  0  0  0  0  0  0  0
  144.8407  136.8563  153.6026 H   0  0  0  0  0  0  0  0  0  0  0  0
  147.0044  134.9327  152.3777 H   0  0  0  0  0  0  0  0  0  0  0  0
  145.3982  134.4028  153.0993 H   0  0  0  0  0  0  0  0  0  0  0  0
  144.1713  135.7582  151.3810 H   0  0  0  0  0  0  0  0  0  0  0  0
  145.7721  136.2950  150.6533 H   0  0  0  0  0  0  0  0  0  0  0  0
  147.8321  137.2285  154.5866 H   0  0  0  0  0  0  0  0  0  0  0  0
  146.4167  138.2812  154.7189 H   0  0  0  0  0  0  0  0  0  0  0  0
  147.5157  137.0420  152.3318 H   0  0  0  0  0  0  0  0  0  0  0  0
  1  2  1  0  0  0  0
  1 20  1  0  0  0  0
  1 21  1  0  0  0  0
  1 22  1  0  0  0  0
  2  7  1  0  0  0  0
  2  3  2  0  0  0  0
  3  4  1  0  0  0  0
  4  5  1  0  0  0  0
  5  6  1  0  0  0  0
  5  7  2  0  0  0  0
  7  8  1  0  0  0  0
  8  9  1  0  0  0  0
  8 23  1  0  0  0  0
  8 24  1  0  0  0  0
  9 10  2  0  0  0  0
  9 11  1  0  0  0  0
 11 12  1  0  0  0  0
 11 25  1  0  0  0  0
 12 19  1  0  0  0  0
 12 13  1  0  0  0  0
 12 26  1  0  0  0  0
 13 14  1  0  0  0  0
 13 27  1  0  0  0  0
 13 28  1  0  0  0  0
 14 15  1  0  0  0  0
 14 29  1  0  0  0  0
 14 30  1  0  0  0  0
 15 16  1  0  0  0  0
 15 19  1  0  0  0  0
 15 38  1  0  0  0  0
 16 18  1  0  0  0  0
 16 17  1  0  0  0  0
 16 31  1  0  0  0  0
 17 18  1  0  0  0  0
 17 32  1  0  0  0  0
 17 33  1  0  0  0  0
 18 34  1  0  0  0  0
 18 35  1  0  0  0  0
 19 36  1  0  0  0  0
 19 37  1  0  0  0  0
M  CHG  1  15   1
M  END
> <s_m_source_file>
AV-unprocessed.smi

> <i_m_source_file_index>
1066

> <i_lp_mmshare_version>
43012

> <i_f3d_flags>
0

> <s_epik_input>
W0NIM11jMW5vYyhDbCljMVtDSDJdQyg9TylbTkhdW0NAQEhdMltDSDJdW0NIMl1OKFtDSDJdMilbQ0hdM1tDSDJdW0NIMl0z

> <s_epik_cmdline>
J2VwaWtfcHl0aG9uJywgJy1waCcsICc3LjAnLCAnLXRuJywgJzgnLCAnLW1hJywgJzIwMCcsICctbWV0YWxfYmluZGluZycsICctaW1hZScsICc8aW5maWxlLm1hZT4nLCAnLW9tYWUnLCAnPG91dGZpbGUubWFlPic=

> <r_epik_Ionization_Penalty>
0.00108138

> <r_epik_Ionization_Penalty_Charging>
0.00108128

> <r_epik_Ionization_Penalty_Neutral>
9.66632e-08

> <r_epik_State_Penalty>
0.000708577

> <r_epik_Charging_Adjusted_Penalty>
0.00178986

> <i_epik_Tot_Q>
1

> <i_epik_Tot_abs_Q>
1

> <r_epik_Metal_State_Penalty>
-0

> <b_epik_Metal_Only>
0

> <s_lp_Force_Field>
OPLS_2005

> <r_lp_Energy>
30.9378

> <b_lp_Chiralities_Consistent>
1

> <s_lp_Variant>
AV-unprocessed.smi:1066-3

> <Gold.Version>
5.8.1

> <Gold.Id.Protein>
6NUR|6NUR_protein|mol2

> <Gold.PLP.Fitness>
36.4495

> <Gold.PLP.PLP>
-26.1402

> <Gold.PLP.part.hbond>
-3.0000

> <Gold.PLP.part.metal>
0.0000

> <Gold.PLP.part.buried>
1.3225

> <Gold.PLP.part.nonpolar>
-24.2771

> <Gold.PLP.part.repulsive>
0.1604

> <Gold.PLP.ligand.clash>
0.0000

> <Gold.PLP.ligand.torsion>
1.4655

> <Gold.PLP.Chemscore.Hbond>
3.9913

> <Gold.PLP.Chemscore.CHOScore>
0.0000

> <Gold.PLP.Chemscore.Metal>
0.0000

> <Gold.Chemscore.Hbonds>
donor molecule, donor type, donor heavy atom, donor atom, acceptor molecule, acceptor atom, score
      L1  H    15    38       P1  7948  2.00
      P1  H  7989  7998       L1    10  1.00
      P1  H  7997  8010       L1     3  0.99

> <Gold.PLP.Chemscore.Internal.Correction>
1.2665

> <Gold.Rescore>
     Score         DG    S(hbond)    S(metal)    S(lipo)     H(rot)  DE(clash)    DE(int)     intcor
     12.99     -18.29       2.25        0.00      79.60       1.57       1.48       3.82       ----

> <Gold.Chemscore.Fitness>
12.9874

> <Gold.Chemscore.DG>
-18.2903

> <Gold.Chemscore.ZeroCoef>
-5.4800

> <Gold.Chemscore.Hbond>
2.2511

> <Gold.Chemscore.Metal>
0.0000

> <Gold.Chemscore.Lipo>
79.6034

> <Gold.Chemscore.Internal_Hbond>
0.0000

> <Gold.Chemscore.DEClash>
1.4835

> <Gold.Chemscore.DEInternal>
3.8194

> <Gold.Chemscore.Rot>
1.5711

> <Gold.Chemscore.Internal.Correction>
   9.000000E+99

> <Gold.Chemscore.Hbonds>
donor molecule, donor type, donor heavy atom, donor atom, acceptor molecule, acceptor atom, score
      L1  H    15    38       P1  7948  1.00
      P1  H  7989  7998       L1    10  0.99
      P1  H  7997  8010       L1     3  0.32

> <Gold.Chemscore.Hbond.Weighted>
-7.5188

> <Gold.Chemscore.Metal.Weighted>
-0.0000

> <Gold.Chemscore.Lipo.Weighted>
-9.3136

> <Gold.Chemscore.Internal_Hbond.Weighted>
0.0000

> <Gold.Chemscore.DEClash.Weighted>
1.4835

> <Gold.Chemscore.DEInternal.Weighted>
3.8194

> <Gold.Chemscore.Rot.Weighted>
4.0221

> <Gold.Chemscore.Internal.Correction.Weighted>
   9.000000E+99

> <Gold.Protein.RotatedTorsions>
[ 6907 6896 6895 6894 ] final  -39.68 input  -60.11 | X-H torsion
[ 7974 7965 7964 7962 ] final    5.18 input  175.53 | X-H torsion
[ 8008 7997 7996 7995 ] final   44.62 input   59.86 | X-H torsion
[ 10167 10162 10161 10158 ] final   29.91 input  -65.29 | X-H torsion
[ 10718 10713 10712 10709 ] final   12.17 input   66.30 | X-H torsion
[ 10763 10752 10751 10750 ] final   69.47 input  -60.55 | X-H torsion
[ 11005 11000 10999 10996 ] final   79.83 input  -57.11 | X-H torsion

> <Gold.Protein.ActiveResidues>
 VAL166  LYS551  ARG553  GLY616  TRP617  ASP618  TYR619  PRO620  LYS621  CYS622 
 ASP623  PHE694  ASN695  SER759  ASP760  ASP761  ALA762  ILE779  LEU786  VAL792 
 PHE793  MET794  SER795  GLU796  ALA797  LYS798  CYS799  TRP800  GLU811  SER814 

> <Gold.Protein.RotatedAtoms>
  150.9875  134.9217  159.7879 H   0  0  0  0  0  0  0  0  0  0  0  0  # atno 6907 bound_to 6896
  152.5241  134.3326  159.9198 H   0  0  0  0  0  0  0  0  0  0  0  0  # atno 6908 bound_to 6896
  151.3333  133.3950  159.2699 H   0  0  0  0  0  0  0  0  0  0  0  0  # atno 6909 bound_to 6896
  146.2441  140.0423  142.8381 H   0  0  0  0  0  0  0  0  0  0  0  0  # atno 7974 bound_to 7965
  155.3223  140.3397  155.4241 H   0  0  0  0  0  0  0  0  0  0  0  0  # atno 8008 bound_to 7997
  156.1903  140.1695  156.8143 H   0  0  0  0  0  0  0  0  0  0  0  0  # atno 8009 bound_to 7997
  154.5434  140.0720  156.8531 H   0  0  0  0  0  0  0  0  0  0  0  0  # atno 8010 bound_to 7997
  140.4724  144.0742  150.6241 H   0  0  0  0  0  0  0  0  0  0  0  0  # atno 10167 bound_to 10162
  157.0062  130.6099  149.5702 H   0  0  0  0  0  0  0  0  0  0  0  0  # atno 10718 bound_to 10713
  153.0289  135.5209  154.7293 H   0  0  0  0  0  0  0  0  0  0  0  0  # atno 10763 bound_to 10752
  154.6325  135.2902  155.0201 H   0  0  0  0  0  0  0  0  0  0  0  0  # atno 10764 bound_to 10752
  154.1148  135.6616  153.4944 H   0  0  0  0  0  0  0  0  0  0  0  0  # atno 10765 bound_to 10752
  139.9157  134.7873  156.1830 H   0  0  0  0  0  0  0  0  0  0  0  0  # atno 11005 bound_to 11000
  145.1058  140.9374  143.4686 LP  0  0  0  0  0  0  0  0  0  0  0  0  # atno 17320 bound_to 7965
  145.0626  139.3093  143.5872 LP  0  0  0  0  0  0  0  0  0  0  0  0  # atno 17321 bound_to 7965
  140.3960  143.2728  152.0004 LP  0  0  0  0  0  0  0  0  0  0  0  0  # atno 17342 bound_to 10162
  139.4820  144.6037  151.7559 LP  0  0  0  0  0  0  0  0  0  0  0  0  # atno 17343 bound_to 10162
  156.0152  130.5246  150.8114 LP  0  0  0  0  0  0  0  0  0  0  0  0  # atno 17370 bound_to 10713
  157.5354  131.0938  150.9900 LP  0  0  0  0  0  0  0  0  0  0  0  0  # atno 17371 bound_to 10713
  141.0630  133.6832  156.1990 LP  0  0  0  0  0  0  0  0  0  0  0  0  # atno 17394 bound_to 11000
  140.6630  134.4948  157.5584 LP  0  0  0  0  0  0  0  0  0  0  0  0  # atno 17395 bound_to 11000

$$$$
