AV-unprocessed.smi:2340|AV-procd|sdf|9345|dock9
  -GOLD-   2272012563D 1   1.00000     0.00000
 Structure written by MMmdl.
 40 41  0  0  0  0  0  0  0  0  1 V2000
  144.2651  132.4915  149.2378 C   0  0  0  0  0  0  0  0  0  0  0  0
  144.6518  133.2487  150.4691 C   0  0  0  0  0  0  0  0  0  0  0  0
  144.0965  134.4164  150.9292 C   0  0  0  0  0  0  0  0  0  0  0  0
  144.8454  134.9530  152.4079 S   0  0  0  0  0  0  0  0  0  0  0  0
  145.9033  133.5472  152.3482 C   0  0  0  0  0  0  0  0  0  0  0  0
  146.9461  133.2631  153.3830 C   0  0  1  0  0  0  0  0  0  0  0  0
  148.3222  133.0054  152.7442 C   0  0  0  0  0  0  0  0  0  0  0  0
  146.9527  134.3387  154.4913 C   0  0  0  0  0  0  0  0  0  0  0  0
  147.7593  135.5045  154.1443 N   0  0  0  0  0  0  0  0  0  0  0  0
  148.0939  136.4870  154.9915 C   0  0  0  0  0  0  0  0  0  0  0  0
  147.7440  136.5295  156.1710 O   0  0  0  0  0  0  0  0  0  0  0  0
  148.8648  137.4099  154.4009 N   0  0  0  0  0  0  0  0  0  0  0  0
  149.4240  138.5832  155.0647 C   0  0  2  0  0  0  0  0  0  0  0  0
  148.7604  139.8611  154.5940 C   0  0  0  0  0  0  0  0  0  0  0  0
  149.8274  140.9087  154.8972 C   0  0  0  0  0  0  0  0  0  0  0  0
  151.0807  140.2369  154.8139 O   0  0  0  0  0  0  0  0  0  0  0  0
  150.8829  138.8343  154.6641 C   0  0  1  0  0  0  0  0  0  0  0  0
  151.9139  138.0623  155.4967 C   0  0  0  0  0  0  0  0  0  0  0  0
  145.6804  132.7684  151.2844 N   0  0  0  0  0  0  0  0  0  0  0  0
  143.4959  133.0172  148.6713 H   0  0  0  0  0  0  0  0  0  0  0  0
  143.8724  131.5063  149.4899 H   0  0  0  0  0  0  0  0  0  0  0  0
  145.1205  132.3488  148.5772 H   0  0  0  0  0  0  0  0  0  0  0  0
  143.2947  134.9914  150.4903 H   0  0  0  0  0  0  0  0  0  0  0  0
  146.6498  132.3246  153.8535 H   0  0  0  0  0  0  0  0  0  0  0  0
  148.2642  132.2079  152.0029 H   0  0  0  0  0  0  0  0  0  0  0  0
  149.0609  132.7038  153.4868 H   0  0  0  0  0  0  0  0  0  0  0  0
  148.6986  133.8979  152.2438 H   0  0  0  0  0  0  0  0  0  0  0  0
  145.9355  134.6818  154.6832 H   0  0  0  0  0  0  0  0  0  0  0  0
  147.3147  133.9127  155.4287 H   0  0  0  0  0  0  0  0  0  0  0  0
  148.0953  135.5588  153.1938 H   0  0  0  0  0  0  0  0  0  0  0  0
  149.0975  137.2836  153.4267 H   0  0  0  0  0  0  0  0  0  0  0  0
  149.3310  138.5146  156.1507 H   0  0  0  0  0  0  0  0  0  0  0  0
  148.5779  139.8256  153.5187 H   0  0  0  0  0  0  0  0  0  0  0  0
  147.8124  140.0624  155.0937 H   0  0  0  0  0  0  0  0  0  0  0  0
  149.7830  141.7557  154.2122 H   0  0  0  0  0  0  0  0  0  0  0  0
  149.7079  141.2890  155.9123 H   0  0  0  0  0  0  0  0  0  0  0  0
  151.0194  138.6041  153.6059 H   0  0  0  0  0  0  0  0  0  0  0  0
  151.7921  136.9861  155.3747 H   0  0  0  0  0  0  0  0  0  0  0  0
  151.8178  138.2930  156.5580 H   0  0  0  0  0  0  0  0  0  0  0  0
  152.9287  138.3171  155.1906 H   0  0  0  0  0  0  0  0  0  0  0  0
  1  2  1  0  0  0  0
  1 20  1  0  0  0  0
  1 21  1  0  0  0  0
  1 22  1  0  0  0  0
  2 19  1  0  0  0  0
  2  3  2  0  0  0  0
  3  4  1  0  0  0  0
  3 23  1  0  0  0  0
  4  5  1  0  0  0  0
  5  6  1  0  0  0  0
  5 19  2  0  0  0  0
  6  7  1  0  0  0  0
  6  8  1  0  0  0  0
  6 24  1  0  0  0  0
  7 25  1  0  0  0  0
  7 26  1  0  0  0  0
  7 27  1  0  0  0  0
  8  9  1  0  0  0  0
  8 28  1  0  0  0  0
  8 29  1  0  0  0  0
  9 10  1  0  0  0  0
  9 30  1  0  0  0  0
 10 11  2  0  0  0  0
 10 12  1  0  0  0  0
 12 13  1  0  0  0  0
 12 31  1  0  0  0  0
 13 17  1  0  0  0  0
 13 14  1  0  0  0  0
 13 32  1  0  0  0  0
 14 15  1  0  0  0  0
 14 33  1  0  0  0  0
 14 34  1  0  0  0  0
 15 16  1  0  0  0  0
 15 35  1  0  0  0  0
 15 36  1  0  0  0  0
 16 17  1  0  0  0  0
 17 18  1  0  0  0  0
 17 37  1  0  0  0  0
 18 38  1  0  0  0  0
 18 39  1  0  0  0  0
 18 40  1  0  0  0  0
M  END
> <s_m_source_file>
AV-unprocessed.smi

> <i_m_source_file_index>
2340

> <i_lp_mmshare_version>
43012

> <i_f3d_flags>
0

> <s_epik_input>
W0NIM11jMVtjSF1zYyhuMSlbQ0BIXShbQ0gzXSlbQ0gyXVtOSF1DKD1PKVtOSF1bQ0BASF0yW0NIMl1bQ0gyXU9bQ0BIXTJbQ0gzXQ==

> <s_epik_cmdline>
J2VwaWtfcHl0aG9uJywgJy1waCcsICc3LjAnLCAnLXRuJywgJzgnLCAnLW1hJywgJzIwMCcsICctbWV0YWxfYmluZGluZycsICctaW1hZScsICc8aW5maWxlLm1hZT4nLCAnLW9tYWUnLCAnPG91dGZpbGUubWFlPic=

> <r_epik_Ionization_Penalty>
0.00156622

> <r_epik_Ionization_Penalty_Charging>
0

> <r_epik_Ionization_Penalty_Neutral>
0.00156622

> <r_epik_State_Penalty>
0.00101902

> <r_epik_Charging_Adjusted_Penalty>
0.00101902

> <i_epik_Tot_Q>
0

> <i_epik_Tot_abs_Q>
0

> <r_epik_Metal_State_Penalty>
-0

> <b_epik_Metal_Only>
0

> <s_lp_Force_Field>
OPLS_2005

> <r_lp_Energy>
4.85076

> <b_lp_Chiralities_Consistent>
1

> <s_lp_Variant>
AV-unprocessed.smi:2340-2

> <Gold.Version>
5.8.1

> <Gold.Id.Protein>
6NUR|6NUR_protein|mol2

> <Gold.PLP.Fitness>
41.1887

> <Gold.PLP.PLP>
-30.0772

> <Gold.PLP.part.hbond>
-2.9682

> <Gold.PLP.part.metal>
0.0000

> <Gold.PLP.part.buried>
-4.1553

> <Gold.PLP.part.nonpolar>
-23.9033

> <Gold.PLP.part.repulsive>
0.2156

> <Gold.PLP.ligand.clash>
0.0000

> <Gold.PLP.ligand.torsion>
0.4983

> <Gold.PLP.Chemscore.Hbond>
2.9920

> <Gold.PLP.Chemscore.CHOScore>
1.0000

> <Gold.PLP.Chemscore.Metal>
0.0000

> <Gold.Chemscore.Hbonds>
donor molecule, donor type, donor heavy atom, donor atom, acceptor molecule, acceptor atom, score
      L1  H     9    30       P1  7948  1.00
      L1  H    12    31       P1  7948  0.99
      P1  H  7989  7998       L1    16  1.00
      L1  C     3    23       P1 10186  0.98

> <Gold.PLP.Chemscore.Internal.Correction>
0.1321

> <Gold.Rescore>
     Score         DG    S(hbond)    S(metal)    S(lipo)     H(rot)  DE(clash)    DE(int)     intcor
     18.33     -18.85       2.38        0.00      79.91       1.53       0.04       0.47       ----

> <Gold.Chemscore.Fitness>
18.3326

> <Gold.Chemscore.DG>
-18.8464

> <Gold.Chemscore.ZeroCoef>
-5.4800

> <Gold.Chemscore.Hbond>
2.3774

> <Gold.Chemscore.Metal>
0.0000

> <Gold.Chemscore.Lipo>
79.9081

> <Gold.Chemscore.Internal_Hbond>
0.0000

> <Gold.Chemscore.DEClash>
0.0418

> <Gold.Chemscore.DEInternal>
0.4720

> <Gold.Chemscore.Rot>
1.5325

> <Gold.Chemscore.Internal.Correction>
   9.000000E+99

> <Gold.Chemscore.Hbonds>
donor molecule, donor type, donor heavy atom, donor atom, acceptor molecule, acceptor atom, score
      L1  H     9    30       P1  7948  0.99
      L1  H    12    31       P1  7948  0.93
      P1  H  7989  7998       L1    16  0.19

> <Gold.Chemscore.Hbond.Weighted>
-7.9405

> <Gold.Chemscore.Metal.Weighted>
-0.0000

> <Gold.Chemscore.Lipo.Weighted>
-9.3493

> <Gold.Chemscore.Internal_Hbond.Weighted>
0.0000

> <Gold.Chemscore.DEClash.Weighted>
0.0418

> <Gold.Chemscore.DEInternal.Weighted>
0.4720

> <Gold.Chemscore.Rot.Weighted>
3.9233

> <Gold.Chemscore.Internal.Correction.Weighted>
   9.000000E+99

> <Gold.Protein.RotatedTorsions>
[ 6907 6896 6895 6894 ] final -144.28 input  -60.11 | X-H torsion
[ 7974 7965 7964 7962 ] final  -51.11 input  175.53 | X-H torsion
[ 8008 7997 7996 7995 ] final  -85.29 input   59.86 | X-H torsion
[ 10167 10162 10161 10158 ] final  147.45 input  -65.29 | X-H torsion
[ 10718 10713 10712 10709 ] final   47.01 input   66.30 | X-H torsion
[ 10763 10752 10751 10750 ] final   92.43 input  -60.55 | X-H torsion
[ 11005 11000 10999 10996 ] final  113.86 input  -57.11 | X-H torsion

> <Gold.Protein.ActiveResidues>
 VAL166  LYS551  ARG553  GLY616  TRP617  ASP618  TYR619  PRO620  LYS621  CYS622 
 ASP623  PHE694  ASN695  SER759  ASP760  ASP761  ALA762  ILE779  LEU786  VAL792 
 PHE793  MET794  SER795  GLU796  ALA797  LYS798  CYS799  TRP800  GLU811  SER814 

> <Gold.Protein.RotatedAtoms>
  151.1118  133.5167  159.2605 H   0  0  0  0  0  0  0  0  0  0  0  0  # atno 6907 bound_to 6896
  151.1958  135.0421  159.8861 H   0  0  0  0  0  0  0  0  0  0  0  0  # atno 6908 bound_to 6896
  152.5450  134.0953  159.8348 H   0  0  0  0  0  0  0  0  0  0  0  0  # atno 6909 bound_to 6896
  145.9225  140.7821  142.9640 H   0  0  0  0  0  0  0  0  0  0  0  0  # atno 7974 bound_to 7965
  154.6391  140.0593  156.9824 H   0  0  0  0  0  0  0  0  0  0  0  0  # atno 8008 bound_to 7997
  155.1546  140.3277  155.4405 H   0  0  0  0  0  0  0  0  0  0  0  0  # atno 8009 bound_to 7997
  156.2522  140.1941  156.6656 H   0  0  0  0  0  0  0  0  0  0  0  0  # atno 8010 bound_to 7997
  139.4890  144.5754  151.6975 H   0  0  0  0  0  0  0  0  0  0  0  0  # atno 10167 bound_to 10162
  157.4541  130.8156  149.7818 H   0  0  0  0  0  0  0  0  0  0  0  0  # atno 10718 bound_to 10713
  153.2191  135.4362  155.0468 H   0  0  0  0  0  0  0  0  0  0  0  0  # atno 10763 bound_to 10752
  154.8240  135.3352  154.6954 H   0  0  0  0  0  0  0  0  0  0  0  0  # atno 10764 bound_to 10752
  153.7387  135.7006  153.5028 H   0  0  0  0  0  0  0  0  0  0  0  0  # atno 10765 bound_to 10752
  139.8964  134.9557  156.6804 H   0  0  0  0  0  0  0  0  0  0  0  0  # atno 11005 bound_to 11000
  144.6754  140.1998  143.7388 LP  0  0  0  0  0  0  0  0  0  0  0  0  # atno 17320 bound_to 7965
  145.8531  139.2185  143.1760 LP  0  0  0  0  0  0  0  0  0  0  0  0  # atno 17321 bound_to 7965
  140.5349  144.0671  150.6067 LP  0  0  0  0  0  0  0  0  0  0  0  0  # atno 17342 bound_to 10162
  140.3674  143.2874  152.0316 LP  0  0  0  0  0  0  0  0  0  0  0  0  # atno 17343 bound_to 10162
  155.9999  130.3886  150.2645 LP  0  0  0  0  0  0  0  0  0  0  0  0  # atno 17370 bound_to 10713
  157.0819  131.0145  151.3153 LP  0  0  0  0  0  0  0  0  0  0  0  0  # atno 17371 bound_to 10713
  140.7303  133.9064  155.8207 LP  0  0  0  0  0  0  0  0  0  0  0  0  # atno 17394 bound_to 11000
  141.0158  134.0957  157.4173 LP  0  0  0  0  0  0  0  0  0  0  0  0  # atno 17395 bound_to 11000

$$$$
