AV-unprocessed.smi:2715|AV-procd|sdf|10482|dock6
  -GOLD-   2272014523D 1   1.00000     0.00000
 Structure written by MMmdl.
 38 39  0  0  0  0  0  0  0  0  1 V2000
  145.5982  142.4895  156.8996 C   0  0  0  0  0  0  0  0  0  0  0  0
  146.3371  141.9661  155.7161 C   0  0  0  0  0  0  0  0  0  0  0  0
  147.3588  141.1104  155.8027 N   0  0  0  0  0  0  0  0  0  0  0  0
  147.8872  140.7726  154.5517 C   0  0  0  0  0  0  0  0  0  0  0  0
  149.0467  139.8231  154.4581 C   0  0  0  0  0  0  0  0  0  0  0  0
  150.1926  140.2865  155.3590 C   0  0  0  0  0  0  0  0  0  0  0  0
  151.3503  140.2578  154.9426 O   0  0  0  0  0  0  0  0  0  0  0  0
  149.8557  140.6978  156.5922 N   0  0  0  0  0  0  0  0  0  0  0  0
  150.7809  141.1582  157.6236 C   0  0  0  0  0  0  0  0  0  0  0  0
  151.3070  142.5744  157.3266 C   0  0  0  0  0  0  0  0  0  0  0  0
  151.7130  143.3465  158.5724 C   0  0  0  0  0  0  0  0  0  0  0  0
  151.5219  144.6759  158.6816 C   0  0  0  0  0  0  0  0  0  0  0  0
  151.8695  145.4879  159.9167 C   0  0  0  0  0  0  0  0  0  0  0  0
  152.1280  144.5985  161.1443 C   0  0  0  0  0  0  0  0  0  0  0  0
  153.0018  143.3926  160.7777 C   0  0  0  0  0  0  0  0  0  0  0  0
  152.3329  142.5243  159.6971 C   0  0  0  0  0  0  0  0  0  0  0  0
  147.2371  141.3847  153.5083 C   0  0  0  0  0  0  0  0  0  0  0  0
  145.9446  142.4138  154.0606 S   0  0  0  0  0  0  0  0  0  0  0  0
  146.1467  142.2795  157.8186 H   0  0  0  0  0  0  0  0  0  0  0  0
  144.6164  142.0202  156.9622 H   0  0  0  0  0  0  0  0  0  0  0  0
  145.4667  143.5680  156.8111 H   0  0  0  0  0  0  0  0  0  0  0  0
  148.7513  138.8135  154.7469 H   0  0  0  0  0  0  0  0  0  0  0  0
  149.4022  139.7562  153.4291 H   0  0  0  0  0  0  0  0  0  0  0  0
  148.8760  140.6861  156.8369 H   0  0  0  0  0  0  0  0  0  0  0  0
  150.3282  141.1126  158.6153 H   0  0  0  0  0  0  0  0  0  0  0  0
  151.6192  140.4619  157.6457 H   0  0  0  0  0  0  0  0  0  0  0  0
  152.1694  142.5146  156.6621 H   0  0  0  0  0  0  0  0  0  0  0  0
  150.5459  143.1346  156.7817 H   0  0  0  0  0  0  0  0  0  0  0  0
  151.0931  145.2269  157.8572 H   0  0  0  0  0  0  0  0  0  0  0  0
  152.7512  146.0881  159.6907 H   0  0  0  0  0  0  0  0  0  0  0  0
  151.0569  146.1831  160.1288 H   0  0  0  0  0  0  0  0  0  0  0  0
  152.5969  145.1824  161.9367 H   0  0  0  0  0  0  0  0  0  0  0  0
  151.1769  144.2421  161.5427 H   0  0  0  0  0  0  0  0  0  0  0  0
  153.9668  143.7477  160.4134 H   0  0  0  0  0  0  0  0  0  0  0  0
  153.2093  142.7900  161.6622 H   0  0  0  0  0  0  0  0  0  0  0  0
  151.5501  141.9157  160.1495 H   0  0  0  0  0  0  0  0  0  0  0  0
  153.0666  141.8327  159.2823 H   0  0  0  0  0  0  0  0  0  0  0  0
  147.4428  141.2949  152.4519 H   0  0  0  0  0  0  0  0  0  0  0  0
  1  2  1  0  0  0  0
  1 19  1  0  0  0  0
  1 20  1  0  0  0  0
  1 21  1  0  0  0  0
  2 18  1  0  0  0  0
  2  3  2  0  0  0  0
  3  4  1  0  0  0  0
  4  5  1  0  0  0  0
  4 17  2  0  0  0  0
  5  6  1  0  0  0  0
  5 22  1  0  0  0  0
  5 23  1  0  0  0  0
  6  7  2  0  0  0  0
  6  8  1  0  0  0  0
  8  9  1  0  0  0  0
  8 24  1  0  0  0  0
  9 10  1  0  0  0  0
  9 25  1  0  0  0  0
  9 26  1  0  0  0  0
 10 11  1  0  0  0  0
 10 27  1  0  0  0  0
 10 28  1  0  0  0  0
 11 16  1  0  0  0  0
 11 12  2  0  0  0  0
 12 13  1  0  0  0  0
 12 29  1  0  0  0  0
 13 14  1  0  0  0  0
 13 30  1  0  0  0  0
 13 31  1  0  0  0  0
 14 15  1  0  0  0  0
 14 32  1  0  0  0  0
 14 33  1  0  0  0  0
 15 16  1  0  0  0  0
 15 34  1  0  0  0  0
 15 35  1  0  0  0  0
 16 36  1  0  0  0  0
 16 37  1  0  0  0  0
 17 18  1  0  0  0  0
 17 38  1  0  0  0  0
M  END
> <s_m_source_file>
AV-unprocessed.smi

> <i_m_source_file_index>
2715

> <i_lp_mmshare_version>
43012

> <i_f3d_flags>
0

> <s_epik_input>
W0NIM11jMW5jKFtjSF1zMSlbQ0gyXUMoPU8pW05IXVtDSDJdW0NIMl1DMj1bQ0hdW0NIMl1bQ0gyXVtDSDJdW0NIMl0y

> <s_epik_cmdline>
J2VwaWtfcHl0aG9uJywgJy1waCcsICc3LjAnLCAnLXRuJywgJzgnLCAnLW1hJywgJzIwMCcsICctbWV0YWxfYmluZGluZycsICctaW1hZScsICc8aW5maWxlLm1hZT4nLCAnLW9tYWUnLCAnPG91dGZpbGUubWFlPic=

> <r_lp_tautomer_probability>
1

> <r_epik_Ionization_Penalty>
5.73492e-05

> <r_epik_Ionization_Penalty_Charging>
0

> <r_epik_Ionization_Penalty_Neutral>
5.73492e-05

> <r_epik_State_Penalty>
-0

> <r_epik_Charging_Adjusted_Penalty>
0

> <i_epik_Tot_Q>
0

> <i_epik_Tot_abs_Q>
0

> <r_epik_Metal_State_Penalty>
-0

> <b_epik_Metal_Only>
0

> <s_lp_Force_Field>
OPLS_2005

> <r_lp_Energy>
6.36926

> <b_lp_Chiralities_Consistent>
1

> <s_lp_Variant>
AV-unprocessed.smi:2715-1

> <Gold.Version>
5.8.1

> <Gold.Id.Protein>
6NUR|6NUR_protein|mol2

> <Gold.PLP.Fitness>
46.4020

> <Gold.PLP.PLP>
-42.1039

> <Gold.PLP.part.hbond>
-1.0000

> <Gold.PLP.part.metal>
0.0000

> <Gold.PLP.part.buried>
-6.3392

> <Gold.PLP.part.nonpolar>
-34.9351

> <Gold.PLP.part.repulsive>
0.1530

> <Gold.PLP.ligand.clash>
0.0000

> <Gold.PLP.ligand.torsion>
0.8588

> <Gold.PLP.Chemscore.Hbond>
1.0000

> <Gold.PLP.Chemscore.CHOScore>
0.9986

> <Gold.PLP.Chemscore.Metal>
0.0000

> <Gold.Chemscore.Hbonds>
donor molecule, donor type, donor heavy atom, donor atom, acceptor molecule, acceptor atom, score
      P1  H  7989  7998       L1     7  1.00
      L1  C    17    38       P1  7957  0.35

> <Gold.PLP.Chemscore.Internal.Correction>
0.0200

> <Gold.Rescore>
     Score         DG    S(hbond)    S(metal)    S(lipo)     H(rot)  DE(clash)    DE(int)     intcor
     16.84     -18.79       0.98        0.00     118.54       1.50       1.29       0.66       ----

> <Gold.Chemscore.Fitness>
16.8384

> <Gold.Chemscore.DG>
-18.7921

> <Gold.Chemscore.ZeroCoef>
-5.4800

> <Gold.Chemscore.Hbond>
0.9803

> <Gold.Chemscore.Metal>
0.0000

> <Gold.Chemscore.Lipo>
118.5394

> <Gold.Chemscore.Internal_Hbond>
0.0000

> <Gold.Chemscore.DEClash>
1.2912

> <Gold.Chemscore.DEInternal>
0.6626

> <Gold.Chemscore.Rot>
1.4965

> <Gold.Chemscore.Internal.Correction>
   9.000000E+99

> <Gold.Chemscore.Hbonds>
donor molecule, donor type, donor heavy atom, donor atom, acceptor molecule, acceptor atom, score
      P1  H  7989  7998       L1     7  0.92

> <Gold.Chemscore.Hbond.Weighted>
-3.2741

> <Gold.Chemscore.Metal.Weighted>
-0.0000

> <Gold.Chemscore.Lipo.Weighted>
-13.8691

> <Gold.Chemscore.Internal_Hbond.Weighted>
0.0000

> <Gold.Chemscore.DEClash.Weighted>
1.2912

> <Gold.Chemscore.DEInternal.Weighted>
0.6626

> <Gold.Chemscore.Rot.Weighted>
3.8311

> <Gold.Chemscore.Internal.Correction.Weighted>
   9.000000E+99

> <Gold.Protein.RotatedTorsions>
[ 6907 6896 6895 6894 ] final   90.27 input  -60.11 | X-H torsion
[ 7974 7965 7964 7962 ] final    6.36 input  175.53 | X-H torsion
[ 8008 7997 7996 7995 ] final  -39.61 input   59.86 | X-H torsion
[ 10167 10162 10161 10158 ] final  -60.14 input  -65.29 | X-H torsion
[ 10718 10713 10712 10709 ] final  -85.90 input   66.30 | X-H torsion
[ 10763 10752 10751 10750 ] final  162.19 input  -60.55 | X-H torsion
[ 11005 11000 10999 10996 ] final  -91.68 input  -57.11 | X-H torsion

> <Gold.Protein.ActiveResidues>
 VAL166  LYS551  ARG553  GLY616  TRP617  ASP618  TYR619  PRO620  LYS621  CYS622 
 ASP623  PHE694  ASN695  SER759  ASP760  ASP761  ALA762  ILE779  LEU786  VAL792 
 PHE793  MET794  SER795  GLU796  ALA797  LYS798  CYS799  TRP800  GLU811  SER814 

> <Gold.Protein.RotatedAtoms>
  152.5443  134.1837  159.8645 H   0  0  0  0  0  0  0  0  0  0  0  0  # atno 6907 bound_to 6896
  151.1838  133.4702  159.2602 H   0  0  0  0  0  0  0  0  0  0  0  0  # atno 6908 bound_to 6896
  151.1152  135.0060  159.8568 H   0  0  0  0  0  0  0  0  0  0  0  0  # atno 6909 bound_to 6896
  146.2435  140.0245  142.8395 H   0  0  0  0  0  0  0  0  0  0  0  0  # atno 7974 bound_to 7965
  154.4021  140.1547  156.2891 H   0  0  0  0  0  0  0  0  0  0  0  0  # atno 8008 bound_to 7997
  155.8801  140.3444  155.5860 H   0  0  0  0  0  0  0  0  0  0  0  0  # atno 8009 bound_to 7997
  155.7677  140.0826  157.2114 H   0  0  0  0  0  0  0  0  0  0  0  0  # atno 8010 bound_to 7997
  140.6090  143.2382  151.5753 H   0  0  0  0  0  0  0  0  0  0  0  0  # atno 10167 bound_to 10162
  155.9993  130.4746  150.4633 H   0  0  0  0  0  0  0  0  0  0  0  0  # atno 10718 bound_to 10713
  154.2746  135.2765  155.2723 H   0  0  0  0  0  0  0  0  0  0  0  0  # atno 10763 bound_to 10752
  154.5271  135.5740  153.6732 H   0  0  0  0  0  0  0  0  0  0  0  0  # atno 10764 bound_to 10752
  152.9939  135.6218  154.2902 H   0  0  0  0  0  0  0  0  0  0  0  0  # atno 10765 bound_to 10752
  141.1539  133.7771  156.9913 H   0  0  0  0  0  0  0  0  0  0  0  0  # atno 11005 bound_to 11000
  145.1211  140.9463  143.4600 LP  0  0  0  0  0  0  0  0  0  0  0  0  # atno 17320 bound_to 7965
  145.0480  139.3204  143.5943 LP  0  0  0  0  0  0  0  0  0  0  0  0  # atno 17321 bound_to 7965
  139.5347  144.2815  152.1225 LP  0  0  0  0  0  0  0  0  0  0  0  0  # atno 17342 bound_to 10162
  140.2011  144.4657  150.6431 LP  0  0  0  0  0  0  0  0  0  0  0  0  # atno 17343 bound_to 10162
  157.2655  131.0576  151.2293 LP  0  0  0  0  0  0  0  0  0  0  0  0  # atno 17370 bound_to 10713
  157.3393  130.7025  149.6371 LP  0  0  0  0  0  0  0  0  0  0  0  0  # atno 17371 bound_to 10713
  140.1001  134.9541  157.1909 LP  0  0  0  0  0  0  0  0  0  0  0  0  # atno 17394 bound_to 11000
  140.3330  134.2788  155.7224 LP  0  0  0  0  0  0  0  0  0  0  0  0  # atno 17395 bound_to 11000

$$$$
