AV-unprocessed.smi:72|AV-procd|sdf|715|dock7
  -GOLD-   2262017 43D 1   1.00000     0.00000
 Structure written by MMmdl.
 28 29  0  0  0  0  0  0  0  0  2 V2000
  148.4171  136.8241  160.8758 N   0  0  0  0  0  0  0  0  0  0  0  0
  148.6830  136.8954  159.6457 C   0  0  0  0  0  0  0  0  0  0  0  0
  148.3397  138.0823  158.8953 N   0  0  0  0  0  0  0  0  0  0  0  0
  148.5712  138.0774  157.6186 C   0  0  0  0  0  0  0  0  0  0  0  0
  149.1137  136.9074  156.9328 N   0  0  0  0  0  0  0  0  0  0  0  0
  149.4047  136.9208  155.4358 C   0  0  2  0  0  0  0  0  0  0  0  0
  150.7915  136.9016  155.2226 O   0  0  0  0  0  0  0  0  0  0  0  0
  151.2826  138.1748  154.8042 C   0  0  2  0  0  0  0  0  0  0  0  0
  151.6589  139.0509  156.0217 C   0  0  0  0  0  0  0  0  0  0  0  0
  151.8995  140.3776  155.6033 O   0  0  0  0  0  0  0  0  0  0  0  0
  150.1050  138.6902  153.9713 C   0  0  2  0  0  0  0  0  0  0  0  0
  150.0987  140.0964  153.8203 O   0  0  0  0  0  0  0  0  0  0  0  0
  148.8823  138.1986  154.7343 C   0  0  1  0  0  0  0  0  0  0  0  0
  147.8473  137.9114  153.8152 O   0  0  0  0  0  0  0  0  0  0  0  0
  149.5520  135.8066  157.7215 C   0  0  0  0  0  0  0  0  0  0  0  0
  150.1489  134.8872  157.1623 O   0  0  0  0  0  0  0  0  0  0  0  0
  149.3095  135.8179  159.0619 N   0  5  0  0  0  0  0  0  0  0  0  0
  148.9638  135.9939  155.0654 H   0  0  0  0  0  0  0  0  0  0  0  0
  152.1590  138.0457  154.1678 H   0  0  0  0  0  0  0  0  0  0  0  0
  150.1480  138.2244  152.9850 H   0  0  0  0  0  0  0  0  0  0  0  0
  148.5643  138.9352  155.4741 H   0  0  0  0  0  0  0  0  0  0  0  0
  148.7129  135.9483  161.2820 H   0  0  0  0  0  0  0  0  0  0  0  0
  148.3712  138.9452  156.9903 H   0  0  0  0  0  0  0  0  0  0  0  0
  150.8309  139.0999  156.7284 H   0  0  0  0  0  0  0  0  0  0  0  0
  152.5130  138.6592  156.5719 H   0  0  0  0  0  0  0  0  0  0  0  0
  152.6503  140.7082  156.0725 H   0  0  0  0  0  0  0  0  0  0  0  0
  149.5964  140.3080  153.0480 H   0  0  0  0  0  0  0  0  0  0  0  0
  148.1520  137.2305  153.2336 H   0  0  0  0  0  0  0  0  0  0  0  0
  1  2  2  0  0  0  0
  1 22  1  0  0  0  0
  2 17  1  0  0  0  0
  2  3  1  0  0  0  0
  3  4  2  0  0  0  0
  4  5  1  0  0  0  0
  4 23  1  0  0  0  0
  5  6  1  0  0  0  0
  5 15  1  0  0  0  0
  6 18  1  0  0  0  0
  6 13  1  0  0  0  0
  6  7  1  0  0  0  0
  7  8  1  0  0  0  0
  8 19  1  0  0  0  0
  8  9  1  0  0  0  0
  8 11  1  0  0  0  0
  9 10  1  0  0  0  0
  9 24  1  0  0  0  0
  9 25  1  0  0  0  0
 10 26  1  0  0  0  0
 11 20  1  0  0  0  0
 11 12  1  0  0  0  0
 11 13  1  0  0  0  0
 12 27  1  0  0  0  0
 13 21  1  0  0  0  0
 13 14  1  0  0  0  0
 14 28  1  0  0  0  0
 15 16  2  0  0  0  0
 15 17  1  0  0  0  0
M  CHG  1  17  -1
M  END
> <s_m_source_file>
AV-unprocessed.smi

> <i_m_source_file_index>
72

> <i_lp_mmshare_version>
43012

> <i_f3d_flags>
0

> <s_epik_input>
W05IMl1jMW5bY0hdbihjKD1PKW4xKVtDQEBIXTJPW0NASF0oW0NIMl1bT0hdKVtDQEBIXShbT0hdKVtDQEhdMltPSF0=

> <s_epik_cmdline>
J2VwaWtfcHl0aG9uJywgJy1waCcsICc3LjAnLCAnLXRuJywgJzgnLCAnLW1hJywgJzIwMCcsICctbWV0YWxfYmluZGluZycsICctaW1hZScsICc8aW5maWxlLm1hZT4nLCAnLW9tYWUnLCAnPG91dGZpbGUubWFlPic=

> <r_lp_tautomer_probability>
7.17554e-07

> <r_epik_Ionization_Penalty>
12.8705

> <r_epik_Ionization_Penalty_Charging>
5.64144

> <r_epik_Ionization_Penalty_Neutral>
7.22905

> <r_epik_State_Penalty>
3.30104

> <r_epik_Charging_Adjusted_Penalty>
8.94249

> <i_epik_Tot_Q>
-1

> <i_epik_Tot_abs_Q>
1

> <r_epik_Metal_State_Penalty>
0.529074

> <b_epik_Metal_Only>
1

> <s_epik_Chemistry_Notes>
This compound contains an acetal/aminal-like group ( X-CH(R)-Y where X, Y are N, S, or O) that may be acid/base labile, releasing an aldehyde.

> <s_lp_Force_Field>
OPLS_2005

> <r_lp_Energy>
34.2271

> <b_lp_Chiralities_Consistent>
1

> <s_lp_Variant>
AV-unprocessed.smi:72-53

> <Gold.Version>
5.8.1

> <Gold.Id.Protein>
6NUR|6NUR_protein|mol2

> <Gold.PLP.Fitness>
38.3655

> <Gold.PLP.PLP>
-21.5573

> <Gold.PLP.part.hbond>
-7.7607

> <Gold.PLP.part.metal>
0.0000

> <Gold.PLP.part.buried>
-3.3462

> <Gold.PLP.part.nonpolar>
-11.0611

> <Gold.PLP.part.repulsive>
0.1196

> <Gold.PLP.ligand.clash>
0.0000

> <Gold.PLP.ligand.torsion>
0.1159

> <Gold.PLP.Chemscore.Hbond>
5.6480

> <Gold.PLP.Chemscore.CHOScore>
0.0000

> <Gold.PLP.Chemscore.Metal>
0.0000

> <Gold.Chemscore.Hbonds>
donor molecule, donor type, donor heavy atom, donor atom, acceptor molecule, acceptor atom, score
      L1  H    12    27       P1  7957  0.82
      L1  H    14    28       P1  7948  1.00
      P1  H  6896  6907       L1    17  2.00
      P1  H  6931  6943       L1     1  1.00
      P1  H  7989  7998       L1    12  0.83

> <Gold.PLP.Chemscore.Internal.Correction>
0.0960

> <Gold.Rescore>
     Score         DG    S(hbond)    S(metal)    S(lipo)     H(rot)  DE(clash)    DE(int)     intcor
     10.44     -12.27       4.18        0.00      27.13       4.04       0.39       1.44       ----

> <Gold.Chemscore.Fitness>
10.4416

> <Gold.Chemscore.DG>
-12.2707

> <Gold.Chemscore.ZeroCoef>
-5.4800

> <Gold.Chemscore.Hbond>
4.1794

> <Gold.Chemscore.Metal>
0.0000

> <Gold.Chemscore.Lipo>
27.1321

> <Gold.Chemscore.Internal_Hbond>
0.0000

> <Gold.Chemscore.DEClash>
0.3922

> <Gold.Chemscore.DEInternal>
1.4369

> <Gold.Chemscore.Rot>
4.0403

> <Gold.Chemscore.Internal.Correction>
   9.000000E+99

> <Gold.Chemscore.Hbonds>
donor molecule, donor type, donor heavy atom, donor atom, acceptor molecule, acceptor atom, score
      L1  H    12    27       P1  7957  0.81
      L1  H    14    28       P1  7948  1.00
      P1  H  6896  6907       L1    17  0.26
      P1  H  6931  6943       L1     1  0.65
      P1  H  7989  7998       L1    10  0.45

> <Gold.Chemscore.Hbond.Weighted>
-13.9593

> <Gold.Chemscore.Metal.Weighted>
-0.0000

> <Gold.Chemscore.Lipo.Weighted>
-3.1745

> <Gold.Chemscore.Internal_Hbond.Weighted>
0.0000

> <Gold.Chemscore.DEClash.Weighted>
0.3922

> <Gold.Chemscore.DEInternal.Weighted>
1.4369

> <Gold.Chemscore.Rot.Weighted>
10.3431

> <Gold.Chemscore.Internal.Correction.Weighted>
   9.000000E+99

> <Gold.Protein.RotatedTorsions>
[ 6907 6896 6895 6894 ] final  -53.70 input  -60.11 | X-H torsion
[ 7974 7965 7964 7962 ] final   77.92 input  175.53 | X-H torsion
[ 8008 7997 7996 7995 ] final  149.19 input   59.86 | X-H torsion
[ 10167 10162 10161 10158 ] final   37.28 input  -65.29 | X-H torsion
[ 10718 10713 10712 10709 ] final -100.13 input   66.30 | X-H torsion
[ 10763 10752 10751 10750 ] final   70.05 input  -60.55 | X-H torsion
[ 11005 11000 10999 10996 ] final   37.48 input  -57.11 | X-H torsion

> <Gold.Protein.ActiveResidues>
 VAL166  LYS551  ARG553  GLY616  TRP617  ASP618  TYR619  PRO620  LYS621  CYS622 
 ASP623  PHE694  ASN695  SER759  ASP760  ASP761  ALA762  ILE779  LEU786  VAL792 
 PHE793  MET794  SER795  GLU796  ALA797  LYS798  CYS799  TRP800  GLU811  SER814 

> <Gold.Protein.RotatedAtoms>
  150.8404  134.7693  159.6926 H   0  0  0  0  0  0  0  0  0  0  0  0  # atno 6907 bound_to 6896
  152.4492  134.5426  159.9853 H   0  0  0  0  0  0  0  0  0  0  0  0  # atno 6908 bound_to 6896
  151.5567  133.3371  159.2999 H   0  0  0  0  0  0  0  0  0  0  0  0  # atno 6909 bound_to 6896
  145.6839  139.2532  143.1798 H   0  0  0  0  0  0  0  0  0  0  0  0  # atno 7974 bound_to 7965
  156.2764  140.2108  156.5819 H   0  0  0  0  0  0  0  0  0  0  0  0  # atno 8008 bound_to 7997
  154.7052  140.0517  157.0520 H   0  0  0  0  0  0  0  0  0  0  0  0  # atno 8009 bound_to 7997
  155.0680  140.3173  155.4642 H   0  0  0  0  0  0  0  0  0  0  0  0  # atno 8010 bound_to 7997
  140.4047  144.1675  150.6135 H   0  0  0  0  0  0  0  0  0  0  0  0  # atno 10167 bound_to 10162
  156.0154  130.5313  150.6771 H   0  0  0  0  0  0  0  0  0  0  0  0  # atno 10718 bound_to 10713
  153.0320  135.5188  154.7382 H   0  0  0  0  0  0  0  0  0  0  0  0  # atno 10763 bound_to 10752
  154.6389  135.2910  155.0129 H   0  0  0  0  0  0  0  0  0  0  0  0  # atno 10764 bound_to 10752
  154.1054  135.6630  153.4928 H   0  0  0  0  0  0  0  0  0  0  0  0  # atno 10765 bound_to 10752
  140.2222  134.3627  155.8000 H   0  0  0  0  0  0  0  0  0  0  0  0  # atno 11005 bound_to 11000
  146.0941  140.7622  142.9581 LP  0  0  0  0  0  0  0  0  0  0  0  0  # atno 17320 bound_to 7965
  144.7017  140.3683  143.7150 LP  0  0  0  0  0  0  0  0  0  0  0  0  # atno 17321 bound_to 7965
  140.4702  143.2416  151.9100 LP  0  0  0  0  0  0  0  0  0  0  0  0  # atno 17342 bound_to 10162
  139.4784  144.5378  151.8573 LP  0  0  0  0  0  0  0  0  0  0  0  0  # atno 17343 bound_to 10162
  157.4481  131.0869  151.0874 LP  0  0  0  0  0  0  0  0  0  0  0  0  # atno 17370 bound_to 10713
  157.1398  130.6138  149.5552 LP  0  0  0  0  0  0  0  0  0  0  0  0  # atno 17371 bound_to 10713
  141.2222  133.7199  156.8594 LP  0  0  0  0  0  0  0  0  0  0  0  0  # atno 17394 bound_to 11000
  140.1838  134.9014  157.2980 LP  0  0  0  0  0  0  0  0  0  0  0  0  # atno 17395 bound_to 11000

$$$$
