AV-unprocessed.smi:1893|AV-procd|sdf|7672|dock5
  -GOLD-   22720 9413D 1   1.00000     0.00000
 Structure written by MMmdl.
 43 44  0  0  0  0  0  0  0  0  2 V2000
  144.8320  134.7552  154.1050 C   0  0  0  0  0  0  0  0  0  0  0  0
  146.1514  134.8509  153.3084 C   0  0  1  0  0  0  0  0  0  0  0  0
  146.5512  133.5039  152.6696 C   0  0  0  0  0  0  0  0  0  0  0  0
  145.6644  133.1485  151.4669 C   0  0  0  0  0  0  0  0  0  0  0  0
  145.6661  134.3000  150.4540 C   0  0  0  0  0  0  0  0  0  0  0  0
  145.2629  135.6259  151.1191 C   0  0  0  0  0  0  0  0  0  0  0  0
  146.1459  135.9324  152.2781 N   0  3  1  0  0  0  0  0  0  0  0  0
  145.9393  137.2925  152.8378 C   0  0  0  0  0  0  0  0  0  0  0  0
  146.5481  138.3864  151.9396 C   0  0  0  0  0  0  0  0  0  0  0  0
  147.1109  139.4779  152.7251 N   0  0  0  0  0  0  0  0  0  0  0  0
  146.5390  140.0136  153.8155 C   0  0  0  0  0  0  0  0  0  0  0  0
  145.4759  139.6038  154.2833 O   0  0  0  0  0  0  0  0  0  0  0  0
  147.2805  141.1916  154.4657 C   0  0  2  0  0  0  0  0  0  0  0  0
  147.2090  142.4766  153.6158 C   0  0  0  0  0  0  0  0  0  0  0  0
  148.6521  140.8072  154.7776 N   0  0  0  0  0  0  0  0  0  0  0  0
  149.6460  141.5276  155.3025 C   0  0  0  0  0  0  0  0  0  0  0  0
  150.7618  140.8411  155.5043 N   0  0  0  0  0  0  0  0  0  0  0  0
  150.3573  139.6138  155.0615 C   0  0  0  0  0  0  0  0  0  0  0  0
  149.0991  139.5352  154.6286 N   0  0  0  0  0  0  0  0  0  0  0  0
  144.8953  133.9709  154.8596 H   0  0  0  0  0  0  0  0  0  0  0  0
  143.9778  134.5227  153.4702 H   0  0  0  0  0  0  0  0  0  0  0  0
  144.6091  135.6829  154.6317 H   0  0  0  0  0  0  0  0  0  0  0  0
  146.9356  135.0995  154.0250 H   0  0  0  0  0  0  0  0  0  0  0  0
  147.5894  133.5590  152.3389 H   0  0  0  0  0  0  0  0  0  0  0  0
  146.5129  132.7057  153.4115 H   0  0  0  0  0  0  0  0  0  0  0  0
  146.0230  132.2334  150.9948 H   0  0  0  0  0  0  0  0  0  0  0  0
  144.6453  132.9459  151.7972 H   0  0  0  0  0  0  0  0  0  0  0  0
  146.6605  134.3995  150.0165 H   0  0  0  0  0  0  0  0  0  0  0  0
  144.9876  134.0737  149.6308 H   0  0  0  0  0  0  0  0  0  0  0  0
  145.3267  136.4205  150.3767 H   0  0  0  0  0  0  0  0  0  0  0  0
  144.2211  135.5899  151.4385 H   0  0  0  0  0  0  0  0  0  0  0  0
  144.8737  137.4630  152.9994 H   0  0  0  0  0  0  0  0  0  0  0  0
  146.4155  137.3590  153.8173 H   0  0  0  0  0  0  0  0  0  0  0  0
  147.3466  137.9630  151.3296 H   0  0  0  0  0  0  0  0  0  0  0  0
  145.8111  138.7912  151.2454 H   0  0  0  0  0  0  0  0  0  0  0  0
  147.9839  139.8716  152.4042 H   0  0  0  0  0  0  0  0  0  0  0  0
  146.7866  141.4077  155.4146 H   0  0  0  0  0  0  0  0  0  0  0  0
  146.1747  142.7695  153.4334 H   0  0  0  0  0  0  0  0  0  0  0  0
  147.6930  142.3572  152.6456 H   0  0  0  0  0  0  0  0  0  0  0  0
  147.6972  143.3066  154.1272 H   0  0  0  0  0  0  0  0  0  0  0  0
  149.5498  142.5751  155.5477 H   0  0  0  0  0  0  0  0  0  0  0  0
  151.0065  138.7507  155.0665 H   0  0  0  0  0  0  0  0  0  0  0  0
  147.0861  135.9388  151.9094 H   0  0  0  0  0  0  0  0  0  0  0  0
  1  2  1  0  0  0  0
  1 20  1  0  0  0  0
  1 21  1  0  0  0  0
  1 22  1  0  0  0  0
  2  7  1  0  0  0  0
  2  3  1  0  0  0  0
  2 23  1  0  0  0  0
  3  4  1  0  0  0  0
  3 24  1  0  0  0  0
  3 25  1  0  0  0  0
  4  5  1  0  0  0  0
  4 26  1  0  0  0  0
  4 27  1  0  0  0  0
  5  6  1  0  0  0  0
  5 28  1  0  0  0  0
  5 29  1  0  0  0  0
  6  7  1  0  0  0  0
  6 30  1  0  0  0  0
  6 31  1  0  0  0  0
  7  8  1  0  0  0  0
  7 43  1  0  0  0  0
  8  9  1  0  0  0  0
  8 32  1  0  0  0  0
  8 33  1  0  0  0  0
  9 10  1  0  0  0  0
  9 34  1  0  0  0  0
  9 35  1  0  0  0  0
 10 11  1  0  0  0  0
 10 36  1  0  0  0  0
 11 12  2  0  0  0  0
 11 13  1  0  0  0  0
 13 14  1  0  0  0  0
 13 15  1  0  0  0  0
 13 37  1  0  0  0  0
 14 38  1  0  0  0  0
 14 39  1  0  0  0  0
 14 40  1  0  0  0  0
 15 19  1  0  0  0  0
 15 16  1  0  0  0  0
 16 17  2  0  0  0  0
 16 41  1  0  0  0  0
 17 18  1  0  0  0  0
 18 19  2  0  0  0  0
 18 42  1  0  0  0  0
M  CHG  1   7   1
M  END
> <s_m_source_file>
AV-unprocessed.smi

> <i_m_source_file_index>
1893

> <i_lp_mmshare_version>
43012

> <i_f3d_flags>
0

> <s_epik_input>
W0NIM11bQ0BASF0xW0NIMl1bQ0gyXVtDSDJdW0NIMl1OMVtDSDJdW0NIMl1bTkhdQyg9TylbQ0BIXShbQ0gzXSluMltjSF1uW2NIXW4y

> <s_epik_cmdline>
J2VwaWtfcHl0aG9uJywgJy1waCcsICc3LjAnLCAnLXRuJywgJzgnLCAnLW1hJywgJzIwMCcsICctbWV0YWxfYmluZGluZycsICctaW1hZScsICc8aW5maWxlLm1hZT4nLCAnLW9tYWUnLCAnPG91dGZpbGUubWFlPic=

> <r_lp_tautomer_probability>
1

> <r_epik_Ionization_Penalty>
0.00266409

> <r_epik_Ionization_Penalty_Charging>
0.00265606

> <r_epik_Ionization_Penalty_Neutral>
8.02794e-06

> <r_epik_State_Penalty>
0.00184955

> <r_epik_Charging_Adjusted_Penalty>
0.00450561

> <i_epik_Tot_Q>
1

> <i_epik_Tot_abs_Q>
1

> <r_epik_Metal_State_Penalty>
-0

> <b_epik_Metal_Only>
0

> <s_lp_Force_Field>
OPLS_2005

> <r_lp_Energy>
25.286

> <b_lp_Chiralities_Consistent>
1

> <s_lp_Variant>
AV-unprocessed.smi:1893-2

> <Gold.Version>
5.8.1

> <Gold.Id.Protein>
6NUR|6NUR_protein|mol2

> <Gold.PLP.Fitness>
40.4293

> <Gold.PLP.PLP>
-29.7133

> <Gold.PLP.part.hbond>
-3.0000

> <Gold.PLP.part.metal>
0.0000

> <Gold.PLP.part.buried>
-1.3406

> <Gold.PLP.part.nonpolar>
-25.8010

> <Gold.PLP.part.repulsive>
1.0842

> <Gold.PLP.ligand.clash>
0.0000

> <Gold.PLP.ligand.torsion>
0.8536

> <Gold.PLP.Chemscore.Hbond>
3.2873

> <Gold.PLP.Chemscore.CHOScore>
0.7999

> <Gold.PLP.Chemscore.Metal>
0.0000

> <Gold.Chemscore.Hbonds>
donor molecule, donor type, donor heavy atom, donor atom, acceptor molecule, acceptor atom, score
      L1  H     7    43       P1  7948  2.00
      L1  H    10    36       P1  7957  0.99
      P1  H  7989  7998       L1    17  0.02
      L1  C    16    41       P1  8028  1.00

> <Gold.PLP.Chemscore.Internal.Correction>
0.1616

> <Gold.Rescore>
     Score         DG    S(hbond)    S(metal)    S(lipo)     H(rot)  DE(clash)    DE(int)     intcor
      7.32     -12.41       1.98        0.00      58.17       2.54       1.57       3.52       ----

> <Gold.Chemscore.Fitness>
7.3190

> <Gold.Chemscore.DG>
-12.4056

> <Gold.Chemscore.ZeroCoef>
-5.4800

> <Gold.Chemscore.Hbond>
1.9810

> <Gold.Chemscore.Metal>
0.0000

> <Gold.Chemscore.Lipo>
58.1687

> <Gold.Chemscore.Internal_Hbond>
0.0000

> <Gold.Chemscore.DEClash>
1.5673

> <Gold.Chemscore.DEInternal>
3.5193

> <Gold.Chemscore.Rot>
2.5377

> <Gold.Chemscore.Internal.Correction>
   9.000000E+99

> <Gold.Chemscore.Hbonds>
donor molecule, donor type, donor heavy atom, donor atom, acceptor molecule, acceptor atom, score
      L1  H     7    43       P1  7948  1.00
      L1  H    10    36       P1  7957  0.90

> <Gold.Chemscore.Hbond.Weighted>
-6.6165

> <Gold.Chemscore.Metal.Weighted>
-0.0000

> <Gold.Chemscore.Lipo.Weighted>
-6.8057

> <Gold.Chemscore.Internal_Hbond.Weighted>
0.0000

> <Gold.Chemscore.DEClash.Weighted>
1.5673

> <Gold.Chemscore.DEInternal.Weighted>
3.5193

> <Gold.Chemscore.Rot.Weighted>
6.4966

> <Gold.Chemscore.Internal.Correction.Weighted>
   9.000000E+99

> <Gold.Protein.RotatedTorsions>
[ 6907 6896 6895 6894 ] final   90.40 input  -60.11 | X-H torsion
[ 7974 7965 7964 7962 ] final  -16.24 input  175.53 | X-H torsion
[ 8008 7997 7996 7995 ] final  -76.91 input   59.86 | X-H torsion
[ 10167 10162 10161 10158 ] final  -39.58 input  -65.29 | X-H torsion
[ 10718 10713 10712 10709 ] final  -66.56 input   66.30 | X-H torsion
[ 10763 10752 10751 10750 ] final  -74.67 input  -60.55 | X-H torsion
[ 11005 11000 10999 10996 ] final -159.03 input  -57.11 | X-H torsion

> <Gold.Protein.ActiveResidues>
 VAL166  LYS551  ARG553  GLY616  TRP617  ASP618  TYR619  PRO620  LYS621  CYS622 
 ASP623  PHE694  ASN695  SER759  ASP760  ASP761  ALA762  ILE779  LEU786  VAL792 
 PHE793  MET794  SER795  GLU796  ALA797  LYS798  CYS799  TRP800  GLU811  SER814 

> <Gold.Protein.RotatedAtoms>
  152.5444  134.1817  159.8637 H   0  0  0  0  0  0  0  0  0  0  0  0  # atno 6907 bound_to 6896
  151.1819  133.4713  159.2601 H   0  0  0  0  0  0  0  0  0  0  0  0  # atno 6908 bound_to 6896
  151.1170  135.0070  159.8576 H   0  0  0  0  0  0  0  0  0  0  0  0  # atno 6909 bound_to 6896
  146.1996  140.3608  142.8428 H   0  0  0  0  0  0  0  0  0  0  0  0  # atno 7974 bound_to 7965
  154.5548  140.0719  156.8725 H   0  0  0  0  0  0  0  0  0  0  0  0  # atno 8008 bound_to 7997
  155.2924  140.3379  155.4233 H   0  0  0  0  0  0  0  0  0  0  0  0  # atno 8009 bound_to 7997
  156.1992  140.1715  156.7920 H   0  0  0  0  0  0  0  0  0  0  0  0  # atno 8010 bound_to 7997
  140.7060  143.3206  151.2802 H   0  0  0  0  0  0  0  0  0  0  0  0  # atno 10167 bound_to 10162
  156.0605  130.4264  150.1727 H   0  0  0  0  0  0  0  0  0  0  0  0  # atno 10718 bound_to 10713
  154.4762  135.5857  153.6357 H   0  0  0  0  0  0  0  0  0  0  0  0  # atno 10763 bound_to 10752
  152.9841  135.6079  154.3304 H   0  0  0  0  0  0  0  0  0  0  0  0  # atno 10764 bound_to 10752
  154.3191  135.2844  155.2508 H   0  0  0  0  0  0  0  0  0  0  0  0  # atno 10765 bound_to 10752
  140.6471  134.4490  157.5234 H   0  0  0  0  0  0  0  0  0  0  0  0  # atno 11005 bound_to 11000
  144.8655  140.7199  143.6080 LP  0  0  0  0  0  0  0  0  0  0  0  0  # atno 17320 bound_to 7965
  145.3528  139.1702  143.4425 LP  0  0  0  0  0  0  0  0  0  0  0  0  # atno 17321 bound_to 7965
  139.6658  144.0107  152.2722 LP  0  0  0  0  0  0  0  0  0  0  0  0  # atno 17342 bound_to 10162
  139.9690  144.6507  150.8007 LP  0  0  0  0  0  0  0  0  0  0  0  0  # atno 17343 bound_to 10162
  156.9796  130.9860  151.3440 LP  0  0  0  0  0  0  0  0  0  0  0  0  # atno 17370 bound_to 10713
  157.5611  130.8246  149.8267 LP  0  0  0  0  0  0  0  0  0  0  0  0  # atno 17371 bound_to 10713
  139.9059  134.8450  156.1709 LP  0  0  0  0  0  0  0  0  0  0  0  0  # atno 17394 bound_to 11000
  141.0564  133.6863  156.1869 LP  0  0  0  0  0  0  0  0  0  0  0  0  # atno 17395 bound_to 11000

$$$$
