AV-unprocessed.smi:2829|AV-procd|sdf|10899|dock5
  -GOLD-   2272015343D 1   1.00000     0.00000
 Structure written by MMmdl.
 50 53  0  0  0  0  0  0  0  0  1 V2000
  145.3378  128.8551  151.8133 C   0  0  0  0  0  0  0  0  0  0  0  0
  146.7173  128.7348  152.4999 C   0  0  0  0  0  0  0  0  0  0  0  0
  146.5196  127.9219  153.7965 C   0  0  0  0  0  0  0  0  0  0  0  0
  147.6497  127.9687  151.5386 C   0  0  0  0  0  0  0  0  0  0  0  0
  147.3297  130.1067  152.8350 C   0  0  0  0  0  0  0  0  0  0  0  0
  148.5693  130.2614  153.4960 C   0  0  0  0  0  0  0  0  0  0  0  0
  149.0197  131.5692  153.7442 C   0  0  0  0  0  0  0  0  0  0  0  0
  148.2173  132.6475  153.3211 C   0  0  0  0  0  0  0  0  0  0  0  0
  148.7318  133.9386  153.6073 N   0  0  0  0  0  0  0  0  0  0  0  0
  149.4659  134.3248  154.6691 C   0  0  0  0  0  0  0  0  0  0  0  0
  149.7375  133.6097  155.6316 O   0  0  0  0  0  0  0  0  0  0  0  0
  149.8881  135.5993  154.6085 N   0  0  0  0  0  0  0  0  0  0  0  0
  150.6972  136.3208  155.5901 C   0  0  1  0  0  0  0  0  0  0  0  0
  151.0012  137.7525  155.1441 C   0  0  2  0  0  0  0  0  0  0  0  0
  152.2264  138.4557  154.6844 C   0  0  0  0  0  0  0  0  0  0  0  0
  152.0400  139.7547  155.5094 C   0  0  0  0  0  0  0  0  0  0  0  0
  150.9468  139.4898  156.4219 O   0  0  0  0  0  0  0  0  0  0  0  0
  150.9898  138.0904  156.6258 C   0  0  1  0  0  0  0  0  0  0  0  0
  149.8742  137.0403  156.7139 C   0  0  0  0  0  0  0  0  0  0  0  0
  149.5406  136.3465  158.0399 C   0  0  0  0  0  0  0  0  0  0  0  0
  148.0682  136.3244  157.6151 C   0  0  0  0  0  0  0  0  0  0  0  0
  148.3858  137.4149  156.5864 C   0  0  0  0  0  0  0  0  0  0  0  0
  147.0361  132.4254  152.6925 N   0  0  0  0  0  0  0  0  0  0  0  0
  146.6013  131.1846  152.4551 N   0  0  0  0  0  0  0  0  0  0  0  0
  144.9217  127.8723  151.5887 H   0  0  0  0  0  0  0  0  0  0  0  0
  145.4032  129.3959  150.8683 H   0  0  0  0  0  0  0  0  0  0  0  0
  144.6148  129.3692  152.4480 H   0  0  0  0  0  0  0  0  0  0  0  0
  145.8671  128.4458  154.4962 H   0  0  0  0  0  0  0  0  0  0  0  0
  147.4655  127.7359  154.3067 H   0  0  0  0  0  0  0  0  0  0  0  0
  146.0698  126.9499  153.5919 H   0  0  0  0  0  0  0  0  0  0  0  0
  147.2335  126.9970  151.2710 H   0  0  0  0  0  0  0  0  0  0  0  0
  148.6287  127.7860  151.9832 H   0  0  0  0  0  0  0  0  0  0  0  0
  147.8079  128.5245  150.6138 H   0  0  0  0  0  0  0  0  0  0  0  0
  149.1724  129.4244  153.8118 H   0  0  0  0  0  0  0  0  0  0  0  0
  149.9607  131.7364  154.2480 H   0  0  0  0  0  0  0  0  0  0  0  0
  148.5600  134.6415  152.9040 H   0  0  0  0  0  0  0  0  0  0  0  0
  149.5985  136.1316  153.8008 H   0  0  0  0  0  0  0  0  0  0  0  0
  151.5796  135.7829  155.9472 H   0  0  0  0  0  0  0  0  0  0  0  0
  150.1291  138.1663  154.6237 H   0  0  0  0  0  0  0  0  0  0  0  0
  153.1346  137.9199  154.9640 H   0  0  0  0  0  0  0  0  0  0  0  0
  152.2331  138.6373  153.6094 H   0  0  0  0  0  0  0  0  0  0  0  0
  152.9477  139.9971  156.0633 H   0  0  0  0  0  0  0  0  0  0  0  0
  151.7904  140.6073  154.8774 H   0  0  0  0  0  0  0  0  0  0  0  0
  151.8973  137.7849  157.1570 H   0  0  0  0  0  0  0  0  0  0  0  0
  149.9916  135.3626  158.1701 H   0  0  0  0  0  0  0  0  0  0  0  0
  149.7182  136.9882  158.9041 H   0  0  0  0  0  0  0  0  0  0  0  0
  147.7747  135.3808  157.1535 H   0  0  0  0  0  0  0  0  0  0  0  0
  147.3670  136.6256  158.3936 H   0  0  0  0  0  0  0  0  0  0  0  0
  148.1741  138.4174  156.9609 H   0  0  0  0  0  0  0  0  0  0  0  0
  147.9414  137.2531  155.6042 H   0  0  0  0  0  0  0  0  0  0  0  0
  1  2  1  0  0  0  0
  1 25  1  0  0  0  0
  1 26  1  0  0  0  0
  1 27  1  0  0  0  0
  2  3  1  0  0  0  0
  2  4  1  0  0  0  0
  2  5  1  0  0  0  0
  3 28  1  0  0  0  0
  3 29  1  0  0  0  0
  3 30  1  0  0  0  0
  4 31  1  0  0  0  0
  4 32  1  0  0  0  0
  4 33  1  0  0  0  0
  5 24  1  0  0  0  0
  5  6  2  0  0  0  0
  6  7  1  0  0  0  0
  6 34  1  0  0  0  0
  7  8  2  0  0  0  0
  7 35  1  0  0  0  0
  8  9  1  0  0  0  0
  8 23  1  0  0  0  0
  9 10  1  0  0  0  0
  9 36  1  0  0  0  0
 10 11  2  0  0  0  0
 10 12  1  0  0  0  0
 12 13  1  0  0  0  0
 12 37  1  0  0  0  0
 13 19  1  0  0  0  0
 13 14  1  0  0  0  0
 13 38  1  0  0  0  0
 14 18  1  0  0  0  0
 14 15  1  0  0  0  0
 14 39  1  0  0  0  0
 15 16  1  0  0  0  0
 15 40  1  0  0  0  0
 15 41  1  0  0  0  0
 16 17  1  0  0  0  0
 16 42  1  0  0  0  0
 16 43  1  0  0  0  0
 17 18  1  0  0  0  0
 18 19  1  0  0  0  0
 18 44  1  0  0  0  0
 19 22  1  0  0  0  0
 19 20  1  0  0  0  0
 20 21  1  0  0  0  0
 20 45  1  0  0  0  0
 20 46  1  0  0  0  0
 21 22  1  0  0  0  0
 21 47  1  0  0  0  0
 21 48  1  0  0  0  0
 22 49  1  0  0  0  0
 22 50  1  0  0  0  0
 23 24  2  0  0  0  0
M  END
> <s_m_source_file>
AV-unprocessed.smi

> <i_m_source_file_index>
2829

> <i_lp_mmshare_version>
43012

> <i_f3d_flags>
0

> <s_epik_input>
W0NIM11DKFtDSDNdKShbQ0gzXSljMVtjSF1bY0hdYyhubjEpW05IXUMoPU8pW05IXVtDQEBIXTJbQ0BIXShbQ0gyXVtDSDJdTzMpW0NAQEhdM0MyNFtDSDJdW0NIMl1bQ0gyXTQ=

> <s_epik_cmdline>
J2VwaWtfcHl0aG9uJywgJy1waCcsICc3LjAnLCAnLXRuJywgJzgnLCAnLW1hJywgJzIwMCcsICctbWV0YWxfYmluZGluZycsICctaW1hZScsICc8aW5maWxlLm1hZT4nLCAnLW9tYWUnLCAnPG91dGZpbGUubWFlPic=

> <r_lp_tautomer_probability>
1

> <r_epik_Ionization_Penalty>
0.011915

> <r_epik_Ionization_Penalty_Charging>
0

> <r_epik_Ionization_Penalty_Neutral>
0.011915

> <r_epik_State_Penalty>
0.00486223

> <r_epik_Charging_Adjusted_Penalty>
0.00486223

> <i_epik_Tot_Q>
0

> <i_epik_Tot_abs_Q>
0

> <r_epik_Metal_State_Penalty>
-0

> <b_epik_Metal_Only>
0

> <s_lp_Force_Field>
OPLS_2005

> <r_lp_Energy>
82.5072

> <b_lp_Chiralities_Consistent>
1

> <s_lp_Variant>
AV-unprocessed.smi:2829-2

> <Gold.Version>
5.8.1

> <Gold.Id.Protein>
6NUR|6NUR_protein|mol2

> <Gold.PLP.Fitness>
41.8116

> <Gold.PLP.PLP>
-36.3411

> <Gold.PLP.part.hbond>
-2.0000

> <Gold.PLP.part.metal>
0.0000

> <Gold.PLP.part.buried>
-4.9243

> <Gold.PLP.part.nonpolar>
-30.0438

> <Gold.PLP.part.repulsive>
0.3353

> <Gold.PLP.ligand.clash>
0.0000

> <Gold.PLP.ligand.torsion>
0.4264

> <Gold.PLP.Chemscore.Hbond>
2.0000

> <Gold.PLP.Chemscore.CHOScore>
0.0000

> <Gold.PLP.Chemscore.Metal>
0.0000

> <Gold.Chemscore.Hbonds>
donor molecule, donor type, donor heavy atom, donor atom, acceptor molecule, acceptor atom, score
      L1  H     9    36       P1  7948  1.00
      L1  H    12    37       P1  7948  1.00

> <Gold.PLP.Chemscore.Internal.Correction>
0.3233

> <Gold.Rescore>
     Score         DG    S(hbond)    S(metal)    S(lipo)     H(rot)  DE(clash)    DE(int)     intcor
     15.62     -17.49       1.50        0.00      85.30       1.16       0.07       1.79       ----

> <Gold.Chemscore.Fitness>
15.6225

> <Gold.Chemscore.DG>
-17.4853

> <Gold.Chemscore.ZeroCoef>
-5.4800

> <Gold.Chemscore.Hbond>
1.4968

> <Gold.Chemscore.Metal>
0.0000

> <Gold.Chemscore.Lipo>
85.2989

> <Gold.Chemscore.Internal_Hbond>
0.0000

> <Gold.Chemscore.DEClash>
0.0700

> <Gold.Chemscore.DEInternal>
1.7929

> <Gold.Chemscore.Rot>
1.1618

> <Gold.Chemscore.Internal.Correction>
   9.000000E+99

> <Gold.Chemscore.Hbonds>
donor molecule, donor type, donor heavy atom, donor atom, acceptor molecule, acceptor atom, score
      L1  H     9    36       P1  7948  0.25
      L1  H    12    37       P1  7948  0.45

> <Gold.Chemscore.Hbond.Weighted>
-4.9995

> <Gold.Chemscore.Metal.Weighted>
-0.0000

> <Gold.Chemscore.Lipo.Weighted>
-9.9800

> <Gold.Chemscore.Internal_Hbond.Weighted>
0.0000

> <Gold.Chemscore.DEClash.Weighted>
0.0700

> <Gold.Chemscore.DEInternal.Weighted>
1.7929

> <Gold.Chemscore.Rot.Weighted>
2.9741

> <Gold.Chemscore.Internal.Correction.Weighted>
   9.000000E+99

> <Gold.Protein.RotatedTorsions>
[ 6907 6896 6895 6894 ] final -132.30 input  -60.11 | X-H torsion
[ 7974 7965 7964 7962 ] final    2.62 input  175.53 | X-H torsion
[ 8008 7997 7996 7995 ] final  146.31 input   59.86 | X-H torsion
[ 10167 10162 10161 10158 ] final  -22.54 input  -65.29 | X-H torsion
[ 10718 10713 10712 10709 ] final  137.41 input   66.30 | X-H torsion
[ 10763 10752 10751 10750 ] final   72.46 input  -60.55 | X-H torsion
[ 11005 11000 10999 10996 ] final   50.92 input  -57.11 | X-H torsion

> <Gold.Protein.ActiveResidues>
 VAL166  LYS551  ARG553  GLY616  TRP617  ASP618  TYR619  PRO620  LYS621  CYS622 
 ASP623  PHE694  ASN695  SER759  ASP760  ASP761  ALA762  ILE779  LEU786  VAL792 
 PHE793  MET794  SER795  GLU796  ALA797  LYS798  CYS799  TRP800  GLU811  SER814 

> <Gold.Protein.RotatedAtoms>
  150.9608  133.6447  159.2754 H   0  0  0  0  0  0  0  0  0  0  0  0  # atno 6907 bound_to 6896
  151.3770  135.0932  159.9493 H   0  0  0  0  0  0  0  0  0  0  0  0  # atno 6908 bound_to 6896
  152.5147  133.9150  159.7561 H   0  0  0  0  0  0  0  0  0  0  0  0  # atno 6909 bound_to 6896
  146.2444  140.0809  142.8357 H   0  0  0  0  0  0  0  0  0  0  0  0  # atno 7974 bound_to 7965
  156.2859  140.2186  156.5356 H   0  0  0  0  0  0  0  0  0  0  0  0  # atno 8008 bound_to 7997
  154.7412  140.0487  157.0835 H   0  0  0  0  0  0  0  0  0  0  0  0  # atno 8009 bound_to 7997
  155.0228  140.3126  155.4790 H   0  0  0  0  0  0  0  0  0  0  0  0  # atno 8010 bound_to 7997
  140.7286  143.4525  151.0495 H   0  0  0  0  0  0  0  0  0  0  0  0  # atno 10167 bound_to 10162
  157.4363  131.1053  151.0193 H   0  0  0  0  0  0  0  0  0  0  0  0  # atno 10718 bound_to 10713
  153.0460  135.5099  154.7747 H   0  0  0  0  0  0  0  0  0  0  0  0  # atno 10763 bound_to 10752
  154.6646  135.2944  154.9824 H   0  0  0  0  0  0  0  0  0  0  0  0  # atno 10764 bound_to 10752
  154.0663  135.6684  153.4871 H   0  0  0  0  0  0  0  0  0  0  0  0  # atno 10765 bound_to 10752
  140.0976  134.5124  155.8792 H   0  0  0  0  0  0  0  0  0  0  0  0  # atno 11005 bound_to 11000
  145.0734  140.9171  143.4868 LP  0  0  0  0  0  0  0  0  0  0  0  0  # atno 17320 bound_to 7965
  145.0948  139.2864  143.5716 LP  0  0  0  0  0  0  0  0  0  0  0  0  # atno 17321 bound_to 7965
  139.8203  143.7829  152.3176 LP  0  0  0  0  0  0  0  0  0  0  0  0  # atno 17342 bound_to 10162
  139.7910  144.7410  150.9956 LP  0  0  0  0  0  0  0  0  0  0  0  0  # atno 17343 bound_to 10162
  157.1072  130.6006  149.5473 LP  0  0  0  0  0  0  0  0  0  0  0  0  # atno 17370 bound_to 10713
  155.9932  130.4992  150.7370 LP  0  0  0  0  0  0  0  0  0  0  0  0  # atno 17371 bound_to 10713
  141.2096  133.6686  156.6454 LP  0  0  0  0  0  0  0  0  0  0  0  0  # atno 17394 bound_to 11000
  140.3264  134.7965  157.4292 LP  0  0  0  0  0  0  0  0  0  0  0  0  # atno 17395 bound_to 11000

$$$$
