AV-unprocessed.smi:197|AV-procd|sdf|1548|dock10
  -GOLD-   2262019413D 1   1.00000     0.00000
 Structure written by MMmdl.
 54 57  0  0  0  0  0  0  0  0  1 V2000
  151.7791  145.5710  159.9533 C   0  0  0  0  0  0  0  0  0  0  0  0
  152.4296  144.3173  159.8148 O   0  0  0  0  0  0  0  0  0  0  0  0
  151.5530  143.2281  159.5556 C   0  0  0  0  0  0  0  0  0  0  0  0
  152.2870  142.0169  158.9488 C   0  0  0  0  0  0  0  0  0  0  0  0
  152.8576  141.0240  159.9961 C   0  0  2  0  0  0  0  0  0  0  0  0
  154.0719  141.6294  160.7398 C   0  0  0  0  0  0  0  0  0  0  0  0
  154.6041  140.6963  161.6732 O   0  0  0  0  0  0  0  0  0  0  0  0
  155.0708  139.5150  161.0356 C   0  0  0  0  0  0  0  0  0  0  0  0
  153.8901  138.8282  160.3370 C   0  0  0  0  0  0  0  0  0  0  0  0
  153.2582  139.7447  159.3950 N   0  0  0  0  0  0  0  0  0  0  0  0
  152.3273  139.0998  158.6558 C   0  0  0  0  0  0  0  0  0  0  0  0
  151.4985  138.2539  159.3155 N   0  0  0  0  0  0  0  0  0  0  0  0
  150.5653  137.5737  158.6433 C   0  0  0  0  0  0  0  0  0  0  0  0
  150.2954  137.5947  157.3364 N   0  0  0  0  0  0  0  0  0  0  0  0
  151.1170  138.4577  156.6725 C   0  0  0  0  0  0  0  0  0  0  0  0
  152.1524  139.2457  157.2496 C   0  0  0  0  0  0  0  0  0  0  0  0
  152.7760  140.0017  156.2643 N   0  0  0  0  0  0  0  0  0  0  0  0
  152.1551  139.6687  155.1662 C   0  0  0  0  0  0  0  0  0  0  0  0
  151.1360  138.7559  155.3208 N   0  0  0  0  0  0  0  0  0  0  0  0
  150.2871  138.2122  154.2709 C   0  0  0  0  0  0  0  0  0  0  0  0
  148.9179  138.9279  154.1136 C   0  0  1  0  0  0  0  0  0  0  0  0
  148.5236  138.8528  152.7545 O   0  0  0  0  0  0  0  0  0  0  0  0
  147.8068  138.3327  154.9742 C   0  0  0  0  0  0  0  0  0  0  0  0
  147.9646  139.0930  156.2803 C   0  0  0  0  0  0  0  0  0  0  0  0
  148.2290  140.4165  155.8459 O   0  0  0  0  0  0  0  0  0  0  0  0
  148.9910  140.3875  154.6392 C   0  0  2  0  0  0  0  0  0  0  0  0
  148.4153  141.4709  153.7115 C   0  0  0  0  0  0  0  0  0  0  0  0
  152.5257  146.3499  160.1066 H   0  0  0  0  0  0  0  0  0  0  0  0
  151.1054  145.5902  160.8095 H   0  0  0  0  0  0  0  0  0  0  0  0
  151.2127  145.8228  159.0559 H   0  0  0  0  0  0  0  0  0  0  0  0
  151.0312  142.9388  160.4690 H   0  0  0  0  0  0  0  0  0  0  0  0
  150.7786  143.5743  158.8722 H   0  0  0  0  0  0  0  0  0  0  0  0
  151.5964  141.5139  158.2735 H   0  0  0  0  0  0  0  0  0  0  0  0
  153.0979  142.3734  158.3130 H   0  0  0  0  0  0  0  0  0  0  0  0
  152.0875  140.8188  160.7394 H   0  0  0  0  0  0  0  0  0  0  0  0
  154.8493  141.9348  160.0374 H   0  0  0  0  0  0  0  0  0  0  0  0
  153.7804  142.5190  161.2969 H   0  0  0  0  0  0  0  0  0  0  0  0
  155.8620  139.7548  160.3233 H   0  0  0  0  0  0  0  0  0  0  0  0
  155.5034  138.8523  161.7852 H   0  0  0  0  0  0  0  0  0  0  0  0
  154.2396  137.9356  159.8160 H   0  0  0  0  0  0  0  0  0  0  0  0
  153.1590  138.5036  161.0789 H   0  0  0  0  0  0  0  0  0  0  0  0
  149.9460  136.9181  159.2376 H   0  0  0  0  0  0  0  0  0  0  0  0
  152.4206  140.0886  154.2068 H   0  0  0  0  0  0  0  0  0  0  0  0
  150.8458  138.2537  153.3352 H   0  0  0  0  0  0  0  0  0  0  0  0
  150.1308  137.1523  154.4779 H   0  0  0  0  0  0  0  0  0  0  0  0
  148.9122  139.5779  152.2894 H   0  0  0  0  0  0  0  0  0  0  0  0
  146.8288  138.5677  154.5504 H   0  0  0  0  0  0  0  0  0  0  0  0
  147.8535  137.2522  155.0988 H   0  0  0  0  0  0  0  0  0  0  0  0
  147.0732  139.0477  156.9061 H   0  0  0  0  0  0  0  0  0  0  0  0
  148.8109  138.7162  156.8563 H   0  0  0  0  0  0  0  0  0  0  0  0
  150.0214  140.6502  154.8832 H   0  0  0  0  0  0  0  0  0  0  0  0
  148.9705  141.5270  152.7747 H   0  0  0  0  0  0  0  0  0  0  0  0
  148.4703  142.4521  154.1832 H   0  0  0  0  0  0  0  0  0  0  0  0
  147.3686  141.2768  153.4751 H   0  0  0  0  0  0  0  0  0  0  0  0
  1  2  1  0  0  0  0
  1 28  1  0  0  0  0
  1 29  1  0  0  0  0
  1 30  1  0  0  0  0
  2  3  1  0  0  0  0
  3  4  1  0  0  0  0
  3 31  1  0  0  0  0
  3 32  1  0  0  0  0
  4  5  1  0  0  0  0
  4 33  1  0  0  0  0
  4 34  1  0  0  0  0
  5 10  1  0  0  0  0
  5  6  1  0  0  0  0
  5 35  1  0  0  0  0
  6  7  1  0  0  0  0
  6 36  1  0  0  0  0
  6 37  1  0  0  0  0
  7  8  1  0  0  0  0
  8  9  1  0  0  0  0
  8 38  1  0  0  0  0
  8 39  1  0  0  0  0
  9 10  1  0  0  0  0
  9 40  1  0  0  0  0
  9 41  1  0  0  0  0
 10 11  1  0  0  0  0
 11 16  1  0  0  0  0
 11 12  2  0  0  0  0
 12 13  1  0  0  0  0
 13 14  2  0  0  0  0
 13 42  1  0  0  0  0
 14 15  1  0  0  0  0
 15 19  1  0  0  0  0
 15 16  2  0  0  0  0
 16 17  1  0  0  0  0
 17 18  2  0  0  0  0
 18 19  1  0  0  0  0
 18 43  1  0  0  0  0
 19 20  1  0  0  0  0
 20 21  1  0  0  0  0
 20 44  1  0  0  0  0
 20 45  1  0  0  0  0
 21 26  1  0  0  0  0
 21 22  1  0  0  0  0
 21 23  1  0  0  0  0
 22 46  1  0  0  0  0
 23 24  1  0  0  0  0
 23 47  1  0  0  0  0
 23 48  1  0  0  0  0
 24 25  1  0  0  0  0
 24 49  1  0  0  0  0
 24 50  1  0  0  0  0
 25 26  1  0  0  0  0
 26 27  1  0  0  0  0
 26 51  1  0  0  0  0
 27 52  1  0  0  0  0
 27 53  1  0  0  0  0
 27 54  1  0  0  0  0
M  END
> <s_m_source_file>
AV-unprocessed.smi

> <i_m_source_file_index>
197

> <i_lp_mmshare_version>
43012

> <i_f3d_flags>
0

> <s_epik_input>
W0NIM11PW0NIMl1bQ0gyXVtDQEBIXTFbQ0gyXU9bQ0gyXVtDSDJdTjFjKG5bY0hdbjIpYyhjMjMpbltjSF1uM1tDSDJdW0NAQF00KFtPSF0pW0NIMl1bQ0gyXU9bQ0BIXTRbQ0gzXQ==

> <s_epik_cmdline>
J2VwaWtfcHl0aG9uJywgJy1waCcsICc3LjAnLCAnLXRuJywgJzgnLCAnLW1hJywgJzIwMCcsICctbWV0YWxfYmluZGluZycsICctaW1hZScsICc8aW5maWxlLm1hZT4nLCAnLW9tYWUnLCAnPG91dGZpbGUubWFlPic=

> <r_lp_tautomer_probability>
1

> <r_epik_Ionization_Penalty>
0.000106218

> <r_epik_Ionization_Penalty_Charging>
0

> <r_epik_Ionization_Penalty_Neutral>
0.000106218

> <r_epik_State_Penalty>
-0

> <r_epik_Charging_Adjusted_Penalty>
0

> <i_epik_Tot_Q>
0

> <i_epik_Tot_abs_Q>
0

> <r_epik_Metal_State_Penalty>
-0

> <b_epik_Metal_Only>
0

> <s_lp_Force_Field>
OPLS_2005

> <r_lp_Energy>
44.1389

> <b_lp_Chiralities_Consistent>
1

> <s_lp_Variant>
AV-unprocessed.smi:197-5

> <Gold.Version>
5.8.1

> <Gold.Id.Protein>
6NUR|6NUR_protein|mol2

> <Gold.PLP.Fitness>
44.8376

> <Gold.PLP.PLP>
-42.3185

> <Gold.PLP.part.hbond>
-3.4003

> <Gold.PLP.part.metal>
0.0000

> <Gold.PLP.part.buried>
-3.3297

> <Gold.PLP.part.nonpolar>
-34.8198

> <Gold.PLP.part.repulsive>
0.0485

> <Gold.PLP.ligand.clash>
0.0000

> <Gold.PLP.ligand.torsion>
1.8752

> <Gold.PLP.Chemscore.Hbond>
2.0000

> <Gold.PLP.Chemscore.CHOScore>
0.0000

> <Gold.PLP.Chemscore.Metal>
0.0000

> <Gold.Chemscore.Hbonds>
donor molecule, donor type, donor heavy atom, donor atom, acceptor molecule, acceptor atom, score
      L1  H    22    46       P1  7957  0.63
      P1  H  7997  8009       L1    17  1.00

> <Gold.PLP.Chemscore.Internal.Correction>
0.2695

> <Gold.Rescore>
     Score         DG    S(hbond)    S(metal)    S(lipo)     H(rot)  DE(clash)    DE(int)     intcor
     14.04     -15.94       1.97        0.00      95.10       2.84       0.07       1.84       ----

> <Gold.Chemscore.Fitness>
14.0387

> <Gold.Chemscore.DG>
-15.9416

> <Gold.Chemscore.ZeroCoef>
-5.4800

> <Gold.Chemscore.Hbond>
1.9745

> <Gold.Chemscore.Metal>
0.0000

> <Gold.Chemscore.Lipo>
95.0975

> <Gold.Chemscore.Internal_Hbond>
0.0000

> <Gold.Chemscore.DEClash>
0.0664

> <Gold.Chemscore.DEInternal>
1.8365

> <Gold.Chemscore.Rot>
2.8358

> <Gold.Chemscore.Internal.Correction>
   9.000000E+99

> <Gold.Chemscore.Hbonds>
donor molecule, donor type, donor heavy atom, donor atom, acceptor molecule, acceptor atom, score
      L1  H    22    46       P1  7957  0.61
      P1  H  7997  8009       L1    17  0.91

> <Gold.Chemscore.Hbond.Weighted>
-6.5947

> <Gold.Chemscore.Metal.Weighted>
-0.0000

> <Gold.Chemscore.Lipo.Weighted>
-11.1264

> <Gold.Chemscore.Internal_Hbond.Weighted>
0.0000

> <Gold.Chemscore.DEClash.Weighted>
0.0664

> <Gold.Chemscore.DEInternal.Weighted>
1.8365

> <Gold.Chemscore.Rot.Weighted>
7.2596

> <Gold.Chemscore.Internal.Correction.Weighted>
   9.000000E+99

> <Gold.Protein.RotatedTorsions>
[ 6907 6896 6895 6894 ] final   64.98 input  -60.11 | X-H torsion
[ 7974 7965 7964 7962 ] final  158.21 input  175.53 | X-H torsion
[ 8008 7997 7996 7995 ] final -162.43 input   59.86 | X-H torsion
[ 10167 10162 10161 10158 ] final  177.42 input  -65.29 | X-H torsion
[ 10718 10713 10712 10709 ] final  -54.98 input   66.30 | X-H torsion
[ 10763 10752 10751 10750 ] final  176.97 input  -60.55 | X-H torsion
[ 11005 11000 10999 10996 ] final  -68.78 input  -57.11 | X-H torsion

> <Gold.Protein.ActiveResidues>
 VAL166  LYS551  ARG553  GLY616  TRP617  ASP618  TYR619  PRO620  LYS621  CYS622 
 ASP623  PHE694  ASN695  SER759  ASP760  ASP761  ALA762  ILE779  LEU786  VAL792 
 PHE793  MET794  SER795  GLU796  ALA797  LYS798  CYS799  TRP800  GLU811  SER814 

> <Gold.Protein.RotatedAtoms>
  152.4373  134.5661  159.9907 H   0  0  0  0  0  0  0  0  0  0  0  0  # atno 6907 bound_to 6896
  151.5768  133.3377  159.3008 H   0  0  0  0  0  0  0  0  0  0  0  0  # atno 6908 bound_to 6896
  150.8273  134.7545  159.6888 H   0  0  0  0  0  0  0  0  0  0  0  0  # atno 6909 bound_to 6896
  144.7859  139.7447  143.6241 H   0  0  0  0  0  0  0  0  0  0  0  0  # atno 7974 bound_to 7965
  155.8066  140.0899  157.1927 H   0  0  0  0  0  0  0  0  0  0  0  0  # atno 8008 bound_to 7997
  154.3980  140.1462  156.3397 H   0  0  0  0  0  0  0  0  0  0  0  0  # atno 8009 bound_to 7997
  155.8408  140.3439  155.5633 H   0  0  0  0  0  0  0  0  0  0  0  0  # atno 8010 bound_to 7997
  139.5252  144.2800  152.0555 H   0  0  0  0  0  0  0  0  0  0  0  0  # atno 10167 bound_to 10162
  156.1406  130.4155  150.0109 H   0  0  0  0  0  0  0  0  0  0  0  0  # atno 10718 bound_to 10713
  154.4883  135.2778  155.1517 H   0  0  0  0  0  0  0  0  0  0  0  0  # atno 10763 bound_to 10752
  154.3199  135.6212  153.5506 H   0  0  0  0  0  0  0  0  0  0  0  0  # atno 10764 bound_to 10752
  152.9884  135.5740  154.5299 H   0  0  0  0  0  0  0  0  0  0  0  0  # atno 10765 bound_to 10752
  141.1540  133.6749  156.6499 H   0  0  0  0  0  0  0  0  0  0  0  0  # atno 11005 bound_to 11000
  146.2090  139.5433  142.9694 LP  0  0  0  0  0  0  0  0  0  0  0  0  # atno 17320 bound_to 7965
  145.5924  141.0367  143.2063 LP  0  0  0  0  0  0  0  0  0  0  0  0  # atno 17321 bound_to 7965
  140.2256  144.4422  150.6322 LP  0  0  0  0  0  0  0  0  0  0  0  0  # atno 17342 bound_to 10162
  140.6390  143.2200  151.6332 LP  0  0  0  0  0  0  0  0  0  0  0  0  # atno 17343 bound_to 10162
  156.7996  130.9285  151.3646 LP  0  0  0  0  0  0  0  0  0  0  0  0  # atno 17370 bound_to 10713
  157.6572  130.8935  149.9754 LP  0  0  0  0  0  0  0  0  0  0  0  0  # atno 17371 bound_to 10713
  140.3329  134.7914  157.4339 LP  0  0  0  0  0  0  0  0  0  0  0  0  # atno 17394 bound_to 11000
  140.1002  134.5483  155.8360 LP  0  0  0  0  0  0  0  0  0  0  0  0  # atno 17395 bound_to 11000

$$$$
