AV-unprocessed.smi:262|AV-procd|sdf|2002|dock3
  -GOLD-   2262021193D 1   1.00000     0.00000
 Structure written by MMmdl.
 59 63  0  0  0  0  0  0  0  0  1 V2000
  145.2235  135.9113  149.9555 O   0  0  0  0  0  0  0  0  0  0  0  0
  144.9363  135.1558  151.1192 C   0  0  0  0  0  0  0  0  0  0  0  0
  144.3583  136.1239  152.1815 C   0  0  0  0  0  0  0  0  0  0  0  0
  145.3390  137.0413  152.7430 N   0  0  0  0  0  0  0  0  0  0  0  0
  146.0352  138.0157  152.0667 C   0  0  0  0  0  0  0  0  0  0  0  0
  146.8625  138.7121  152.7958 N   0  0  0  0  0  0  0  0  0  0  0  0
  146.7376  138.1778  154.0750 C   0  0  0  0  0  0  0  0  0  0  0  0
  147.3396  138.4459  155.3434 C   0  0  0  0  0  0  0  0  0  0  0  0
  148.2568  139.4159  155.6005 N   0  0  0  0  0  0  0  0  0  0  0  0
  149.6397  139.2343  155.1739 C   0  0  0  0  0  0  0  0  0  0  0  0
  150.3932  140.5768  155.1975 C   0  0  0  0  0  0  0  0  0  0  0  0
  150.3407  141.1612  156.5423 N   0  0  0  0  0  0  0  0  0  0  0  0
  151.0758  142.4250  156.6000 C   0  0  0  0  0  0  0  0  0  0  0  0
  151.2673  142.9390  158.0415 C   0  0  1  0  0  0  0  0  0  0  0  0
  152.3010  142.1544  158.8235 C   0  0  0  0  0  0  0  0  0  0  0  0
  152.6364  143.1188  159.9560 C   0  0  0  0  0  0  0  0  0  0  0  0
  152.5067  144.4230  159.3989 O   0  0  0  0  0  0  0  0  0  0  0  0
  151.8471  144.3520  158.1379 C   0  0  0  0  0  0  0  0  0  0  0  0
  148.9352  141.4218  156.8643 C   0  0  0  0  0  0  0  0  0  0  0  0
  148.1370  140.1057  156.8833 C   0  0  0  0  0  0  0  0  0  0  0  0
  146.9514  137.6687  156.3886 N   0  0  0  0  0  0  0  0  0  0  0  0
  146.0451  136.7025  156.2213 C   0  0  0  0  0  0  0  0  0  0  0  0
  145.4054  136.3450  155.1082 N   0  0  0  0  0  0  0  0  0  0  0  0
  145.7861  137.1159  154.0505 C   0  0  0  0  0  0  0  0  0  0  0  0
  143.8954  134.0793  150.7512 C   0  0  0  0  0  0  0  0  0  0  0  0
  144.4814  132.9962  149.8280 C   0  0  0  0  0  0  0  0  0  0  0  0
  145.6318  132.4158  150.4301 O   0  0  0  0  0  0  0  0  0  0  0  0
  146.6833  133.3547  150.6182 C   0  0  0  0  0  0  0  0  0  0  0  0
  146.2365  134.4647  151.5867 C   0  0  0  0  0  0  0  0  0  0  0  0
  145.4142  135.3135  149.2484 H   0  0  0  0  0  0  0  0  0  0  0  0
  143.5410  136.7101  151.7585 H   0  0  0  0  0  0  0  0  0  0  0  0
  143.9256  135.5546  153.0054 H   0  0  0  0  0  0  0  0  0  0  0  0
  145.9050  138.1990  151.0099 H   0  0  0  0  0  0  0  0  0  0  0  0
  150.1337  138.5158  155.8293 H   0  0  0  0  0  0  0  0  0  0  0  0
  149.6672  138.8316  154.1610 H   0  0  0  0  0  0  0  0  0  0  0  0
  151.4245  140.3986  154.8968 H   0  0  0  0  0  0  0  0  0  0  0  0
  149.9624  141.2653  154.4687 H   0  0  0  0  0  0  0  0  0  0  0  0
  152.0411  142.3146  156.1036 H   0  0  0  0  0  0  0  0  0  0  0  0
  150.5274  143.1837  156.0395 H   0  0  0  0  0  0  0  0  0  0  0  0
  150.3325  142.8980  158.6006 H   0  0  0  0  0  0  0  0  0  0  0  0
  151.9304  141.1933  159.1809 H   0  0  0  0  0  0  0  0  0  0  0  0
  153.1874  141.9735  158.2133 H   0  0  0  0  0  0  0  0  0  0  0  0
  151.9165  143.0150  160.7689 H   0  0  0  0  0  0  0  0  0  0  0  0
  153.6342  142.9545  160.3632 H   0  0  0  0  0  0  0  0  0  0  0  0
  152.5870  144.5229  157.3549 H   0  0  0  0  0  0  0  0  0  0  0  0
  151.0801  145.1218  158.0481 H   0  0  0  0  0  0  0  0  0  0  0  0
  148.8636  141.8947  157.8445 H   0  0  0  0  0  0  0  0  0  0  0  0
  148.5032  142.1165  156.1416 H   0  0  0  0  0  0  0  0  0  0  0  0
  147.0974  140.3306  157.1212 H   0  0  0  0  0  0  0  0  0  0  0  0
  148.5072  139.4520  157.6742 H   0  0  0  0  0  0  0  0  0  0  0  0
  145.7960  136.1366  157.1065 H   0  0  0  0  0  0  0  0  0  0  0  0
  143.5375  133.5971  151.6618 H   0  0  0  0  0  0  0  0  0  0  0  0
  143.0214  134.5357  150.2846 H   0  0  0  0  0  0  0  0  0  0  0  0
  143.7424  132.2128  149.6583 H   0  0  0  0  0  0  0  0  0  0  0  0
  144.7349  133.4064  148.8493 H   0  0  0  0  0  0  0  0  0  0  0  0
  147.5493  132.8328  151.0259 H   0  0  0  0  0  0  0  0  0  0  0  0
  146.9911  133.7711  149.6577 H   0  0  0  0  0  0  0  0  0  0  0  0
  147.0428  135.1890  151.7060 H   0  0  0  0  0  0  0  0  0  0  0  0
  146.0737  134.0217  152.5701 H   0  0  0  0  0  0  0  0  0  0  0  0
  1  2  1  0  0  0  0
  1 30  1  0  0  0  0
  2 29  1  0  0  0  0
  2  3  1  0  0  0  0
  2 25  1  0  0  0  0
  3  4  1  0  0  0  0
  3 31  1  0  0  0  0
  3 32  1  0  0  0  0
  4 24  1  0  0  0  0
  4  5  1  0  0  0  0
  5  6  2  0  0  0  0
  5 33  1  0  0  0  0
  6  7  1  0  0  0  0
  7 24  2  0  0  0  0
  7  8  1  0  0  0  0
  8  9  1  0  0  0  0
  8 21  2  0  0  0  0
  9 20  1  0  0  0  0
  9 10  1  0  0  0  0
 10 11  1  0  0  0  0
 10 34  1  0  0  0  0
 10 35  1  0  0  0  0
 11 12  1  0  0  0  0
 11 36  1  0  0  0  0
 11 37  1  0  0  0  0
 12 13  1  0  0  0  0
 12 19  1  0  0  0  0
 13 14  1  0  0  0  0
 13 38  1  0  0  0  0
 13 39  1  0  0  0  0
 14 18  1  0  0  0  0
 14 15  1  0  0  0  0
 14 40  1  0  0  0  0
 15 16  1  0  0  0  0
 15 41  1  0  0  0  0
 15 42  1  0  0  0  0
 16 17  1  0  0  0  0
 16 43  1  0  0  0  0
 16 44  1  0  0  0  0
 17 18  1  0  0  0  0
 18 45  1  0  0  0  0
 18 46  1  0  0  0  0
 19 20  1  0  0  0  0
 19 47  1  0  0  0  0
 19 48  1  0  0  0  0
 20 49  1  0  0  0  0
 20 50  1  0  0  0  0
 21 22  1  0  0  0  0
 22 23  2  0  0  0  0
 22 51  1  0  0  0  0
 23 24  1  0  0  0  0
 25 26  1  0  0  0  0
 25 52  1  0  0  0  0
 25 53  1  0  0  0  0
 26 27  1  0  0  0  0
 26 54  1  0  0  0  0
 26 55  1  0  0  0  0
 27 28  1  0  0  0  0
 28 29  1  0  0  0  0
 28 56  1  0  0  0  0
 28 57  1  0  0  0  0
 29 58  1  0  0  0  0
 29 59  1  0  0  0  0
M  END
> <s_m_source_file>
AV-unprocessed.smi

> <i_m_source_file_index>
262

> <i_lp_mmshare_version>
43012

> <i_f3d_flags>
0

> <s_epik_input>
W0NIMl0xW0NIMl1PW0NIMl1bQ0gyXUMxKFtPSF0pW0NIMl1uKFtjSF1uMiljKGMyMyluW2NIXW5jM040W0NIMl1bQ0gyXU4oW0NIMl1bQ0gyXTQpW0NIMl1bQ0BASF01W0NIMl1bQ0gyXU9bQ0gyXTU=

> <s_epik_cmdline>
J2VwaWtfcHl0aG9uJywgJy1waCcsICc3LjAnLCAnLXRuJywgJzgnLCAnLW1hJywgJzIwMCcsICctbWV0YWxfYmluZGluZycsICctaW1hZScsICc8aW5maWxlLm1hZT4nLCAnLW9tYWUnLCAnPG91dGZpbGUubWFlPic=

> <r_lp_tautomer_probability>
1

> <r_epik_Ionization_Penalty>
2.38637

> <r_epik_Ionization_Penalty_Charging>
0

> <r_epik_Ionization_Penalty_Neutral>
2.38637

> <r_epik_State_Penalty>
2.53316

> <r_epik_Charging_Adjusted_Penalty>
2.53316

> <i_epik_Tot_Q>
0

> <i_epik_Tot_abs_Q>
0

> <r_epik_Metal_State_Penalty>
2.52423

> <b_epik_Metal_Only>
0

> <s_lp_Force_Field>
OPLS_2005

> <r_lp_Energy>
58.0525

> <b_lp_Chiralities_Consistent>
1

> <s_lp_Variant>
AV-unprocessed.smi:262-4

> <Gold.Version>
5.8.1

> <Gold.Id.Protein>
6NUR|6NUR_protein|mol2

> <Gold.PLP.Fitness>
47.8249

> <Gold.PLP.PLP>
-43.1495

> <Gold.PLP.part.hbond>
-1.9801

> <Gold.PLP.part.metal>
0.0000

> <Gold.PLP.part.buried>
-5.7732

> <Gold.PLP.part.nonpolar>
-36.5938

> <Gold.PLP.part.repulsive>
0.4970

> <Gold.PLP.ligand.clash>
0.0000

> <Gold.PLP.ligand.torsion>
0.7420

> <Gold.PLP.Chemscore.Hbond>
1.0000

> <Gold.PLP.Chemscore.CHOScore>
0.8862

> <Gold.PLP.Chemscore.Metal>
0.0000

> <Gold.Chemscore.Hbonds>
donor molecule, donor type, donor heavy atom, donor atom, acceptor molecule, acceptor atom, score
      L1  H     1    30       P1  7921  1.00
      L1  C     5    33       P1 10171  0.98

> <Gold.PLP.Chemscore.Internal.Correction>
0.5007

> <Gold.Rescore>
     Score         DG    S(hbond)    S(metal)    S(lipo)     H(rot)  DE(clash)    DE(int)     intcor
     14.61     -15.46       0.97        0.00     112.04       2.49       0.01       0.84       ----

> <Gold.Chemscore.Fitness>
14.6118

> <Gold.Chemscore.DG>
-15.4636

> <Gold.Chemscore.ZeroCoef>
-5.4800

> <Gold.Chemscore.Hbond>
0.9693

> <Gold.Chemscore.Metal>
0.0000

> <Gold.Chemscore.Lipo>
112.0437

> <Gold.Chemscore.Internal_Hbond>
0.0000

> <Gold.Chemscore.DEClash>
0.0111

> <Gold.Chemscore.DEInternal>
0.8407

> <Gold.Chemscore.Rot>
2.4855

> <Gold.Chemscore.Internal.Correction>
   9.000000E+99

> <Gold.Chemscore.Hbonds>
donor molecule, donor type, donor heavy atom, donor atom, acceptor molecule, acceptor atom, score
      L1  H     1    30       P1  7921  0.98

> <Gold.Chemscore.Hbond.Weighted>
-3.2373

> <Gold.Chemscore.Metal.Weighted>
-0.0000

> <Gold.Chemscore.Lipo.Weighted>
-13.1091

> <Gold.Chemscore.Internal_Hbond.Weighted>
0.0000

> <Gold.Chemscore.DEClash.Weighted>
0.0111

> <Gold.Chemscore.DEInternal.Weighted>
0.8407

> <Gold.Chemscore.Rot.Weighted>
6.3629

> <Gold.Chemscore.Internal.Correction.Weighted>
   9.000000E+99

> <Gold.Protein.RotatedTorsions>
[ 6907 6896 6895 6894 ] final -142.10 input  -60.11 | X-H torsion
[ 7974 7965 7964 7962 ] final  -42.90 input  175.53 | X-H torsion
[ 8008 7997 7996 7995 ] final   20.27 input   59.86 | X-H torsion
[ 10167 10162 10161 10158 ] final    2.92 input  -65.29 | X-H torsion
[ 10718 10713 10712 10709 ] final  -73.69 input   66.30 | X-H torsion
[ 10763 10752 10751 10750 ] final   55.55 input  -60.55 | X-H torsion
[ 11005 11000 10999 10996 ] final -155.65 input  -57.11 | X-H torsion

> <Gold.Protein.ActiveResidues>
 VAL166  LYS551  ARG553  GLY616  TRP617  ASP618  TYR619  PRO620  LYS621  CYS622 
 ASP623  PHE694  ASN695  SER759  ASP760  ASP761  ALA762  ILE779  LEU786  VAL792 
 PHE793  MET794  SER795  GLU796  ALA797  LYS798  CYS799  TRP800  GLU811  SER814 

> <Gold.Protein.RotatedAtoms>
  151.0825  133.5379  159.2619 H   0  0  0  0  0  0  0  0  0  0  0  0  # atno 6907 bound_to 6896
  151.2276  135.0542  159.8985 H   0  0  0  0  0  0  0  0  0  0  0  0  # atno 6908 bound_to 6896
  152.5425  134.0619  159.8209 H   0  0  0  0  0  0  0  0  0  0  0  0  # atno 6909 bound_to 6896
  146.0071  140.7008  142.9242 H   0  0  0  0  0  0  0  0  0  0  0  0  # atno 7974 bound_to 7965
  154.9331  140.3043  155.5158 H   0  0  0  0  0  0  0  0  0  0  0  0  # atno 8008 bound_to 7997
  156.3002  140.2350  156.4329 H   0  0  0  0  0  0  0  0  0  0  0  0  # atno 8009 bound_to 7997
  154.8218  140.0423  157.1405 H   0  0  0  0  0  0  0  0  0  0  0  0  # atno 8010 bound_to 7997
  140.6611  143.7300  150.7741 H   0  0  0  0  0  0  0  0  0  0  0  0  # atno 10167 bound_to 10162
  156.0271  130.4400  150.2780 H   0  0  0  0  0  0  0  0  0  0  0  0  # atno 10718 bound_to 10713
  152.9818  135.5707  154.5085 H   0  0  0  0  0  0  0  0  0  0  0  0  # atno 10763 bound_to 10752
  154.4593  135.2781  155.1726 H   0  0  0  0  0  0  0  0  0  0  0  0  # atno 10764 bound_to 10752
  154.3321  135.6247  153.5609 H   0  0  0  0  0  0  0  0  0  0  0  0  # atno 10765 bound_to 10752
  140.6842  134.4112  157.5224 H   0  0  0  0  0  0  0  0  0  0  0  0  # atno 11005 bound_to 11000
  144.6939  140.3333  143.7212 LP  0  0  0  0  0  0  0  0  0  0  0  0  # atno 17320 bound_to 7965
  145.7400  139.1761  143.2381 LP  0  0  0  0  0  0  0  0  0  0  0  0  # atno 17321 bound_to 7965
  140.0969  143.4824  152.2447 LP  0  0  0  0  0  0  0  0  0  0  0  0  # atno 17342 bound_to 10162
  139.5846  144.7525  151.3554 LP  0  0  0  0  0  0  0  0  0  0  0  0  # atno 17343 bound_to 10162
  157.0883  131.0162  151.3131 LP  0  0  0  0  0  0  0  0  0  0  0  0  # atno 17370 bound_to 10713
  157.4874  130.7801  149.7473 LP  0  0  0  0  0  0  0  0  0  0  0  0  # atno 17371 bound_to 10713
  139.8942  134.8711  156.2185 LP  0  0  0  0  0  0  0  0  0  0  0  0  # atno 17394 bound_to 11000
  141.0293  133.6997  156.1403 LP  0  0  0  0  0  0  0  0  0  0  0  0  # atno 17395 bound_to 11000

$$$$
