AV-unprocessed.smi:867|AV-procd|sdf|3994|dock5
  -GOLD-   22720 1473D 1   1.00000     0.00000
 Structure written by MMmdl.
 53 56  0  0  0  0  0  0  0  0  2 V2000
  148.8836  138.8399  154.9007 O   0  0  0  0  0  0  0  0  0  0  0  0
  148.0870  139.6392  155.3936 C   0  0  0  0  0  0  0  0  0  0  0  0
  146.8170  139.3053  155.6831 N   0  0  0  0  0  0  0  0  0  0  0  0
  146.2047  137.9980  155.4575 C   0  0  0  0  0  0  0  0  0  0  0  0
  145.0006  138.0776  154.5001 C   0  0  0  0  0  0  0  0  0  0  0  0
  145.2498  137.4195  153.1543 C   0  0  0  0  0  0  0  0  0  0  0  0
  144.5361  136.2669  152.7657 C   0  0  0  0  0  0  0  0  0  0  0  0
  144.7859  135.7098  151.4973 C   0  0  0  0  0  0  0  0  0  0  0  0
  145.7451  136.3283  150.6708 C   0  0  0  0  0  0  0  0  0  0  0  0
  146.4370  137.4297  151.0335 N   0  0  0  0  0  0  0  0  0  0  0  0
  146.1902  137.9587  152.2510 C   0  0  0  0  0  0  0  0  0  0  0  0
  148.3861  140.9446  155.6042 N   0  0  0  0  0  0  0  0  0  0  0  0
  147.6530  141.8640  156.4841 C   0  0  0  0  0  0  0  0  0  0  0  0
  148.4685  142.0784  157.7726 C   0  0  0  0  0  0  0  0  0  0  0  0
  149.8458  142.5714  157.4809 N   0  3  0  0  0  0  0  0  0  0  0  0
  150.6494  142.7914  158.7179 C   0  0  2  0  0  0  0  0  0  0  0  0
  150.2417  144.0454  159.5302 C   0  0  0  0  0  0  0  0  0  0  0  0
  151.5858  144.7580  159.7739 C   0  0  2  0  0  0  0  0  0  0  0  0
  152.0248  145.4475  158.4711 C   0  0  0  0  0  0  0  0  0  0  0  0
  152.4100  144.2558  157.5767 C   0  0  0  0  0  0  0  0  0  0  0  0
  152.1628  143.0379  158.4940 C   0  0  1  0  0  0  0  0  0  0  0  0
  152.5682  143.5957  159.8543 C   0  0  0  0  0  0  0  0  0  0  0  0
  150.5410  141.7241  156.4698 C   0  0  0  0  0  0  0  0  0  0  0  0
  149.6760  141.5169  155.2139 C   0  0  0  0  0  0  0  0  0  0  0  0
  146.2160  140.0249  156.0572 H   0  0  0  0  0  0  0  0  0  0  0  0
  146.9398  137.2869  155.0773 H   0  0  0  0  0  0  0  0  0  0  0  0
  145.8774  137.6067  156.4209 H   0  0  0  0  0  0  0  0  0  0  0  0
  144.1334  137.6058  154.9631 H   0  0  0  0  0  0  0  0  0  0  0  0
  144.7276  139.1217  154.3411 H   0  0  0  0  0  0  0  0  0  0  0  0
  143.8031  135.8217  153.4223 H   0  0  0  0  0  0  0  0  0  0  0  0
  144.2552  134.8301  151.1651 H   0  0  0  0  0  0  0  0  0  0  0  0
  145.9622  135.9276  149.6918 H   0  0  0  0  0  0  0  0  0  0  0  0
  146.7533  138.8435  152.5088 H   0  0  0  0  0  0  0  0  0  0  0  0
  147.5125  142.8151  155.9680 H   0  0  0  0  0  0  0  0  0  0  0  0
  146.6509  141.5217  156.7423 H   0  0  0  0  0  0  0  0  0  0  0  0
  147.9356  142.7810  158.4123 H   0  0  0  0  0  0  0  0  0  0  0  0
  148.5330  141.1395  158.3253 H   0  0  0  0  0  0  0  0  0  0  0  0
  150.5377  141.9084  159.3503 H   0  0  0  0  0  0  0  0  0  0  0  0
  149.5467  144.7000  159.0034 H   0  0  0  0  0  0  0  0  0  0  0  0
  149.7746  143.7541  160.4717 H   0  0  0  0  0  0  0  0  0  0  0  0
  151.5812  145.4219  160.6390 H   0  0  0  0  0  0  0  0  0  0  0  0
  151.2350  146.0604  158.0348 H   0  0  0  0  0  0  0  0  0  0  0  0
  152.8884  146.0910  158.6450 H   0  0  0  0  0  0  0  0  0  0  0  0
  151.8268  144.2225  156.6565 H   0  0  0  0  0  0  0  0  0  0  0  0
  153.4623  144.3177  157.2960 H   0  0  0  0  0  0  0  0  0  0  0  0
  152.7175  142.1464  158.2000 H   0  0  0  0  0  0  0  0  0  0  0  0
  153.6115  143.9137  159.8995 H   0  0  0  0  0  0  0  0  0  0  0  0
  152.3663  142.9146  160.6831 H   0  0  0  0  0  0  0  0  0  0  0  0
  151.4817  142.1835  156.1681 H   0  0  0  0  0  0  0  0  0  0  0  0
  150.7869  140.7583  156.9142 H   0  0  0  0  0  0  0  0  0  0  0  0
  150.2071  140.8973  154.4895 H   0  0  0  0  0  0  0  0  0  0  0  0
  149.5076  142.4720  154.7141 H   0  0  0  0  0  0  0  0  0  0  0  0
  149.7350  143.4784  157.0508 H   0  0  0  0  0  0  0  0  0  0  0  0
  1  2  2  0  0  0  0
  2  3  1  0  0  0  0
  2 12  1  0  0  0  0
  3  4  1  0  0  0  0
  3 25  1  0  0  0  0
  4  5  1  0  0  0  0
  4 26  1  0  0  0  0
  4 27  1  0  0  0  0
  5  6  1  0  0  0  0
  5 28  1  0  0  0  0
  5 29  1  0  0  0  0
  6 11  1  0  0  0  0
  6  7  2  0  0  0  0
  7  8  1  0  0  0  0
  7 30  1  0  0  0  0
  8  9  2  0  0  0  0
  8 31  1  0  0  0  0
  9 10  1  0  0  0  0
  9 32  1  0  0  0  0
 10 11  2  0  0  0  0
 11 33  1  0  0  0  0
 12 24  1  0  0  0  0
 12 13  1  0  0  0  0
 13 14  1  0  0  0  0
 13 34  1  0  0  0  0
 13 35  1  0  0  0  0
 14 15  1  0  0  0  0
 14 36  1  0  0  0  0
 14 37  1  0  0  0  0
 15 16  1  0  0  0  0
 15 23  1  0  0  0  0
 15 53  1  0  0  0  0
 16 21  1  0  0  0  0
 16 17  1  0  0  0  0
 16 38  1  0  0  0  0
 17 18  1  0  0  0  0
 17 39  1  0  0  0  0
 17 40  1  0  0  0  0
 18 22  1  0  0  0  0
 18 19  1  0  0  0  0
 18 41  1  0  0  0  0
 19 20  1  0  0  0  0
 19 42  1  0  0  0  0
 19 43  1  0  0  0  0
 20 21  1  0  0  0  0
 20 44  1  0  0  0  0
 20 45  1  0  0  0  0
 21 22  1  0  0  0  0
 21 46  1  0  0  0  0
 22 47  1  0  0  0  0
 22 48  1  0  0  0  0
 23 24  1  0  0  0  0
 23 49  1  0  0  0  0
 23 50  1  0  0  0  0
 24 51  1  0  0  0  0
 24 52  1  0  0  0  0
M  CHG  1  15   1
M  END
> <s_m_source_file>
AV-unprocessed.smi

> <i_m_source_file_index>
867

> <i_lp_mmshare_version>
43012

> <i_f3d_flags>
0

> <s_epik_input>
W0NIMl0xW0NIMl1bQ0BASF0oW0NIMl0yKVtDQEBIXShbQ0gyXVtDQEhdMTIpTihbQ0gyXVtDSDJdMylbQ0gyXVtDSDJdTjNDKD1PKVtOSF1bQ0gyXVtDSDJdYzRbY0hdW2NIXVtjSF1uW2NIXTQ=

> <s_epik_cmdline>
J2VwaWtfcHl0aG9uJywgJy1waCcsICc3LjAnLCAnLXRuJywgJzgnLCAnLW1hJywgJzIwMCcsICctbWV0YWxfYmluZGluZycsICctaW1hZScsICc8aW5maWxlLm1hZT4nLCAnLW9tYWUnLCAnPG91dGZpbGUubWFlPic=

> <r_epik_Ionization_Penalty>
0.0161279

> <r_epik_Ionization_Penalty_Charging>
0.00262064

> <r_epik_Ionization_Penalty_Neutral>
0.0135072

> <r_epik_State_Penalty>
0.0104914

> <r_epik_Charging_Adjusted_Penalty>
0.013112

> <i_epik_Tot_Q>
1

> <i_epik_Tot_abs_Q>
1

> <r_epik_Metal_State_Penalty>
0.0102536

> <b_epik_Metal_Only>
0

> <s_lp_Force_Field>
OPLS_2005

> <r_lp_Energy>
96.6143

> <b_lp_Chiralities_Consistent>
1

> <s_lp_Variant>
AV-unprocessed.smi:867-1

> <Gold.Version>
5.8.1

> <Gold.Id.Protein>
6NUR|6NUR_protein|mol2

> <Gold.PLP.Fitness>
49.0215

> <Gold.PLP.PLP>
-38.4302

> <Gold.PLP.part.hbond>
-2.0000

> <Gold.PLP.part.metal>
0.0000

> <Gold.PLP.part.buried>
-3.3692

> <Gold.PLP.part.nonpolar>
-36.5677

> <Gold.PLP.part.repulsive>
2.5834

> <Gold.PLP.ligand.clash>
0.0000

> <Gold.PLP.ligand.torsion>
0.7661

> <Gold.PLP.Chemscore.Hbond>
3.0000

> <Gold.PLP.Chemscore.CHOScore>
1.0000

> <Gold.PLP.Chemscore.Metal>
0.0000

> <Gold.Chemscore.Hbonds>
donor molecule, donor type, donor heavy atom, donor atom, acceptor molecule, acceptor atom, score
      L1  H    15    53       P1  8028  1.95
      P1  H  7954  7966       L1    10  0.80
      L1  C     9    32       P1  7921  1.00

> <Gold.PLP.Chemscore.Internal.Correction>
0.1235

> <Gold.Rescore>
     Score         DG    S(hbond)    S(metal)    S(lipo)     H(rot)  DE(clash)    DE(int)     intcor
     20.39     -22.65       1.78        0.00     126.03       1.37       1.52       0.75       ----

> <Gold.Chemscore.Fitness>
20.3892

> <Gold.Chemscore.DG>
-22.6548

> <Gold.Chemscore.ZeroCoef>
-5.4800

> <Gold.Chemscore.Hbond>
1.7798

> <Gold.Chemscore.Metal>
0.0000

> <Gold.Chemscore.Lipo>
126.0283

> <Gold.Chemscore.Internal_Hbond>
0.0000

> <Gold.Chemscore.DEClash>
1.5157

> <Gold.Chemscore.DEInternal>
0.7498

> <Gold.Chemscore.Rot>
1.3731

> <Gold.Chemscore.Internal.Correction>
   9.000000E+99

> <Gold.Chemscore.Hbonds>
donor molecule, donor type, donor heavy atom, donor atom, acceptor molecule, acceptor atom, score
      L1  H    15    53       P1  8028  0.87
      P1  H  7954  7966       L1    10  0.72

> <Gold.Chemscore.Hbond.Weighted>
-5.9447

> <Gold.Chemscore.Metal.Weighted>
-0.0000

> <Gold.Chemscore.Lipo.Weighted>
-14.7453

> <Gold.Chemscore.Internal_Hbond.Weighted>
0.0000

> <Gold.Chemscore.DEClash.Weighted>
1.5157

> <Gold.Chemscore.DEInternal.Weighted>
0.7498

> <Gold.Chemscore.Rot.Weighted>
3.5152

> <Gold.Chemscore.Internal.Correction.Weighted>
   9.000000E+99

> <Gold.Protein.RotatedTorsions>
[ 6907 6896 6895 6894 ] final  -99.35 input  -60.11 | X-H torsion
[ 7974 7965 7964 7962 ] final   80.92 input  175.53 | X-H torsion
[ 8008 7997 7996 7995 ] final   14.99 input   59.86 | X-H torsion
[ 10167 10162 10161 10158 ] final  174.16 input  -65.29 | X-H torsion
[ 10718 10713 10712 10709 ] final  178.53 input   66.30 | X-H torsion
[ 10763 10752 10751 10750 ] final -129.12 input  -60.55 | X-H torsion
[ 11005 11000 10999 10996 ] final   71.18 input  -57.11 | X-H torsion

> <Gold.Protein.ActiveResidues>
 VAL166  LYS551  ARG553  GLY616  TRP617  ASP618  TYR619  PRO620  LYS621  CYS622 
 ASP623  PHE694  ASN695  SER759  ASP760  ASP761  ALA762  ILE779  LEU786  VAL792 
 PHE793  MET794  SER795  GLU796  ALA797  LYS798  CYS799  TRP800  GLU811  SER814 

> <Gold.Protein.RotatedAtoms>
  150.7077  134.1054  159.3980 H   0  0  0  0  0  0  0  0  0  0  0  0  # atno 6907 bound_to 6896
  151.9041  135.0364  160.0518 H   0  0  0  0  0  0  0  0  0  0  0  0  # atno 6908 bound_to 6896
  152.2390  133.5084  159.5296 H   0  0  0  0  0  0  0  0  0  0  0  0  # atno 6909 bound_to 6896
  145.6450  139.2434  143.2009 H   0  0  0  0  0  0  0  0  0  0  0  0  # atno 7974 bound_to 7965
  154.8563  140.2937  155.5567 H   0  0  0  0  0  0  0  0  0  0  0  0  # atno 8008 bound_to 7997
  156.3018  140.2486  156.3462 H   0  0  0  0  0  0  0  0  0  0  0  0  # atno 8009 bound_to 7997
  154.8967  140.0392  157.1859 H   0  0  0  0  0  0  0  0  0  0  0  0  # atno 8010 bound_to 7997
  139.5132  144.3178  152.0231 H   0  0  0  0  0  0  0  0  0  0  0  0  # atno 10167 bound_to 10162
  156.8892  130.9841  151.3052 H   0  0  0  0  0  0  0  0  0  0  0  0  # atno 10718 bound_to 10713
  154.8757  135.3906  154.3868 H   0  0  0  0  0  0  0  0  0  0  0  0  # atno 10763 bound_to 10752
  153.4608  135.7029  153.6056 H   0  0  0  0  0  0  0  0  0  0  0  0  # atno 10764 bound_to 10752
  153.4556  135.3824  155.2277 H   0  0  0  0  0  0  0  0  0  0  0  0  # atno 10765 bound_to 10752
  139.9557  134.7148  156.0758 H   0  0  0  0  0  0  0  0  0  0  0  0  # atno 11005 bound_to 11000
  146.1250  140.7260  142.9439 LP  0  0  0  0  0  0  0  0  0  0  0  0  # atno 17320 bound_to 7965
  144.7143  140.4154  143.7056 LP  0  0  0  0  0  0  0  0  0  0  0  0  # atno 17321 bound_to 7965
  140.2620  144.4056  150.6182 LP  0  0  0  0  0  0  0  0  0  0  0  0  # atno 17342 bound_to 10162
  140.6150  143.2172  151.6810 LP  0  0  0  0  0  0  0  0  0  0  0  0  # atno 17343 bound_to 10162
  157.6094  130.8571  149.8927 LP  0  0  0  0  0  0  0  0  0  0  0  0  # atno 17370 bound_to 10713
  156.0638  130.3695  150.0924 LP  0  0  0  0  0  0  0  0  0  0  0  0  # atno 17371 bound_to 10713
  141.1228  133.6608  156.3259 LP  0  0  0  0  0  0  0  0  0  0  0  0  # atno 17394 bound_to 11000
  140.5614  134.5930  157.5434 LP  0  0  0  0  0  0  0  0  0  0  0  0  # atno 17395 bound_to 11000

$$$$
