AV-unprocessed.smi:1090|AV-procd|sdf|4735|dock10
  -GOLD-   22720 3273D 1   1.00000     0.00000
 Structure written by MMmdl.
 38 40  0  0  0  0  0  0  0  0  1 V2000
  151.5876  140.9008  156.6054 O   0  0  0  0  0  0  0  0  0  0  0  0
  150.8952  141.9151  156.5210 C   0  0  0  0  0  0  0  0  0  0  0  0
  151.2434  143.1547  157.3485 C   0  0  0  0  0  0  0  0  0  0  0  0
  151.5277  142.8447  158.8361 C   0  0  0  0  0  0  0  0  0  0  0  0
  151.5783  144.0969  159.7024 C   0  0  0  0  0  0  0  0  0  0  0  0
  150.6423  145.2579  159.4595 C   0  0  0  0  0  0  0  0  0  0  0  0
  152.1188  145.4066  159.1749 C   0  0  0  0  0  0  0  0  0  0  0  0
  152.8175  142.0537  158.9699 C   0  0  0  0  0  0  0  0  0  0  0  0
  152.8160  140.6451  159.5130 C   0  0  0  0  0  0  0  0  0  0  0  0
  153.4305  141.7677  160.3198 C   0  0  0  0  0  0  0  0  0  0  0  0
  149.8144  142.0077  155.7316 N   0  0  0  0  0  0  0  0  0  0  0  0
  149.3365  140.9542  154.8447 C   0  0  0  0  0  0  0  0  0  0  0  0
  147.9553  140.4374  155.2780 C   0  0  0  0  0  0  0  0  0  0  0  0
  147.3446  139.5308  154.2632 C   0  0  0  0  0  0  0  0  0  0  0  0
  147.0495  138.2495  154.5004 N   0  0  0  0  0  0  0  0  0  0  0  0
  146.5185  137.6079  153.3786 C   0  0  0  0  0  0  0  0  0  0  0  0
  146.4265  138.4193  152.2763 C   0  0  0  0  0  0  0  0  0  0  0  0
  147.0089  140.0275  152.6079 S   0  0  0  0  0  0  0  0  0  0  0  0
  152.1111  143.6399  156.8990 H   0  0  0  0  0  0  0  0  0  0  0  0
  150.4244  143.8706  157.2670 H   0  0  0  0  0  0  0  0  0  0  0  0
  150.7191  142.2147  159.2119 H   0  0  0  0  0  0  0  0  0  0  0  0
  151.7926  143.8865  160.7487 H   0  0  0  0  0  0  0  0  0  0  0  0
  149.9734  145.2059  158.6028 H   0  0  0  0  0  0  0  0  0  0  0  0
  150.2430  145.7705  160.3323 H   0  0  0  0  0  0  0  0  0  0  0  0
  152.7071  146.0160  159.8577 H   0  0  0  0  0  0  0  0  0  0  0  0
  152.4269  145.4462  158.1319 H   0  0  0  0  0  0  0  0  0  0  0  0
  153.5244  142.2423  158.1637 H   0  0  0  0  0  0  0  0  0  0  0  0
  151.8694  140.2368  159.8619 H   0  0  0  0  0  0  0  0  0  0  0  0
  153.4918  139.9281  159.0515 H   0  0  0  0  0  0  0  0  0  0  0  0
  154.5154  141.7996  160.3944 H   0  0  0  0  0  0  0  0  0  0  0  0
  152.8920  142.0968  161.2062 H   0  0  0  0  0  0  0  0  0  0  0  0
  149.2985  142.8757  155.7308 H   0  0  0  0  0  0  0  0  0  0  0  0
  149.3048  141.3159  153.8155 H   0  0  0  0  0  0  0  0  0  0  0  0
  150.0606  140.1392  154.8653 H   0  0  0  0  0  0  0  0  0  0  0  0
  148.0328  139.9029  156.2257 H   0  0  0  0  0  0  0  0  0  0  0  0
  147.2728  141.2713  155.4466 H   0  0  0  0  0  0  0  0  0  0  0  0
  146.2339  136.5685  153.4526 H   0  0  0  0  0  0  0  0  0  0  0  0
  146.0564  138.1692  151.2929 H   0  0  0  0  0  0  0  0  0  0  0  0
  1  2  2  0  0  0  0
  2  3  1  0  0  0  0
  2 11  1  0  0  0  0
  3  4  1  0  0  0  0
  3 19  1  0  0  0  0
  3 20  1  0  0  0  0
  4  5  1  0  0  0  0
  4  8  1  0  0  0  0
  4 21  1  0  0  0  0
  5  7  1  0  0  0  0
  5  6  1  0  0  0  0
  5 22  1  0  0  0  0
  6  7  1  0  0  0  0
  6 23  1  0  0  0  0
  6 24  1  0  0  0  0
  7 25  1  0  0  0  0
  7 26  1  0  0  0  0
  8 10  1  0  0  0  0
  8  9  1  0  0  0  0
  8 27  1  0  0  0  0
  9 10  1  0  0  0  0
  9 28  1  0  0  0  0
  9 29  1  0  0  0  0
 10 30  1  0  0  0  0
 10 31  1  0  0  0  0
 11 12  1  0  0  0  0
 11 32  1  0  0  0  0
 12 13  1  0  0  0  0
 12 33  1  0  0  0  0
 12 34  1  0  0  0  0
 13 14  1  0  0  0  0
 13 35  1  0  0  0  0
 13 36  1  0  0  0  0
 14 18  1  0  0  0  0
 14 15  2  0  0  0  0
 15 16  1  0  0  0  0
 16 17  2  0  0  0  0
 16 37  1  0  0  0  0
 17 18  1  0  0  0  0
 17 38  1  0  0  0  0
M  END
> <s_m_source_file>
AV-unprocessed.smi

> <i_m_source_file_index>
1090

> <i_lp_mmshare_version>
43012

> <i_f3d_flags>
0

> <s_epik_input>
W0NIMl0xW0NIMl1bQ0hdMVtDSF0oW0NIXTJbQ0gyXVtDSDJdMilbQ0gyXUMoPU8pW05IXVtDSDJdW0NIMl1jM25bY0hdW2NIXXMz

> <s_epik_cmdline>
J2VwaWtfcHl0aG9uJywgJy1waCcsICc3LjAnLCAnLXRuJywgJzgnLCAnLW1hJywgJzIwMCcsICctbWV0YWxfYmluZGluZycsICctaW1hZScsICc8aW5maWxlLm1hZT4nLCAnLW9tYWUnLCAnPG91dGZpbGUubWFlPic=

> <r_lp_tautomer_probability>
1

> <r_epik_Ionization_Penalty>
0.000189819

> <r_epik_Ionization_Penalty_Charging>
0

> <r_epik_Ionization_Penalty_Neutral>
0.000189819

> <r_epik_State_Penalty>
-0

> <r_epik_Charging_Adjusted_Penalty>
0

> <i_epik_Tot_Q>
0

> <i_epik_Tot_abs_Q>
0

> <r_epik_Metal_State_Penalty>
-0

> <b_epik_Metal_Only>
0

> <s_lp_Force_Field>
OPLS_2005

> <r_lp_Energy>
14.2357

> <b_lp_Chiralities_Consistent>
1

> <s_lp_Variant>
AV-unprocessed.smi:1090-1

> <Gold.Version>
5.8.1

> <Gold.Id.Protein>
6NUR|6NUR_protein|mol2

> <Gold.PLP.Fitness>
45.0006

> <Gold.PLP.PLP>
-39.8839

> <Gold.PLP.part.hbond>
-1.0000

> <Gold.PLP.part.metal>
0.0000

> <Gold.PLP.part.buried>
-1.5401

> <Gold.PLP.part.nonpolar>
-36.7763

> <Gold.PLP.part.repulsive>
0.3069

> <Gold.PLP.ligand.clash>
0.0000

> <Gold.PLP.ligand.torsion>
1.5618

> <Gold.PLP.Chemscore.Hbond>
1.0000

> <Gold.PLP.Chemscore.CHOScore>
0.9895

> <Gold.PLP.Chemscore.Metal>
0.0000

> <Gold.Chemscore.Hbonds>
donor molecule, donor type, donor heavy atom, donor atom, acceptor molecule, acceptor atom, score
      L1  H    11    32       P1  8028  1.00
      L1  C    17    38       P1 10171  0.67

> <Gold.PLP.Chemscore.Internal.Correction>
2.2718

> <Gold.Rescore>
     Score         DG    S(hbond)    S(metal)    S(lipo)     H(rot)  DE(clash)    DE(int)     intcor
     16.54     -18.56       1.00        0.00     120.50       1.70       0.26       1.77       ----

> <Gold.Chemscore.Fitness>
16.5376

> <Gold.Chemscore.DG>
-18.5641

> <Gold.Chemscore.ZeroCoef>
-5.4800

> <Gold.Chemscore.Hbond>
0.9978

> <Gold.Chemscore.Metal>
0.0000

> <Gold.Chemscore.Lipo>
120.5026

> <Gold.Chemscore.Internal_Hbond>
0.0000

> <Gold.Chemscore.DEClash>
0.2608

> <Gold.Chemscore.DEInternal>
1.7658

> <Gold.Chemscore.Rot>
1.6982

> <Gold.Chemscore.Internal.Correction>
   9.000000E+99

> <Gold.Chemscore.Hbonds>
donor molecule, donor type, donor heavy atom, donor atom, acceptor molecule, acceptor atom, score
      L1  H    11    32       P1  8028  1.00

> <Gold.Chemscore.Hbond.Weighted>
-3.3327

> <Gold.Chemscore.Metal.Weighted>
-0.0000

> <Gold.Chemscore.Lipo.Weighted>
-14.0988

> <Gold.Chemscore.Internal_Hbond.Weighted>
0.0000

> <Gold.Chemscore.DEClash.Weighted>
0.2608

> <Gold.Chemscore.DEInternal.Weighted>
1.7658

> <Gold.Chemscore.Rot.Weighted>
4.3474

> <Gold.Chemscore.Internal.Correction.Weighted>
   9.000000E+99

> <Gold.Protein.RotatedTorsions>
[ 6907 6896 6895 6894 ] final -135.91 input  -60.11 | X-H torsion
[ 7974 7965 7964 7962 ] final   81.56 input  175.53 | X-H torsion
[ 8008 7997 7996 7995 ] final  -62.75 input   59.86 | X-H torsion
[ 10167 10162 10161 10158 ] final  -96.05 input  -65.29 | X-H torsion
[ 10718 10713 10712 10709 ] final   76.04 input   66.30 | X-H torsion
[ 10763 10752 10751 10750 ] final -135.95 input  -60.55 | X-H torsion
[ 11005 11000 10999 10996 ] final  132.69 input  -57.11 | X-H torsion

> <Gold.Protein.ActiveResidues>
 VAL166  LYS551  ARG553  GLY616  TRP617  ASP618  TYR619  PRO620  LYS621  CYS622 
 ASP623  PHE694  ASN695  SER759  ASP760  ASP761  ALA762  ILE779  LEU786  VAL792 
 PHE793  MET794  SER795  GLU796  ALA797  LYS798  CYS799  TRP800  GLU811  SER814 

> <Gold.Protein.RotatedAtoms>
  151.0037  133.6032  159.2691 H   0  0  0  0  0  0  0  0  0  0  0  0  # atno 6907 bound_to 6896
  151.3209  135.0817  159.9315 H   0  0  0  0  0  0  0  0  0  0  0  0  # atno 6908 bound_to 6896
  152.5281  133.9684  159.7804 H   0  0  0  0  0  0  0  0  0  0  0  0  # atno 6909 bound_to 6896
  145.6365  139.2416  143.2055 H   0  0  0  0  0  0  0  0  0  0  0  0  # atno 7974 bound_to 7965
  154.4517  140.0989  156.6636 H   0  0  0  0  0  0  0  0  0  0  0  0  # atno 8008 bound_to 7997
  155.5265  140.3480  155.4399 H   0  0  0  0  0  0  0  0  0  0  0  0  # atno 8009 bound_to 7997
  156.0694  140.1345  156.9836 H   0  0  0  0  0  0  0  0  0  0  0  0  # atno 8010 bound_to 7997
  140.2979  143.3181  152.0279 H   0  0  0  0  0  0  0  0  0  0  0  0  # atno 10167 bound_to 10162
  157.6658  130.9755  150.1439 H   0  0  0  0  0  0  0  0  0  0  0  0  # atno 10718 bound_to 10713
  154.8693  135.3687  154.4981 H   0  0  0  0  0  0  0  0  0  0  0  0  # atno 10763 bound_to 10752
  153.5624  135.7022  153.5546 H   0  0  0  0  0  0  0  0  0  0  0  0  # atno 10764 bound_to 10752
  153.3616  135.4045  155.1686 H   0  0  0  0  0  0  0  0  0  0  0  0  # atno 10765 bound_to 10752
  139.9805  134.9549  156.9618 H   0  0  0  0  0  0  0  0  0  0  0  0  # atno 11005 bound_to 11000
  146.1315  140.7179  142.9410 LP  0  0  0  0  0  0  0  0  0  0  0  0  # atno 17320 bound_to 7965
  144.7173  140.4255  143.7034 LP  0  0  0  0  0  0  0  0  0  0  0  0  # atno 17321 bound_to 7965
  139.4922  144.6478  151.6742 LP  0  0  0  0  0  0  0  0  0  0  0  0  # atno 17342 bound_to 10162
  140.5677  144.0162  150.6200 LP  0  0  0  0  0  0  0  0  0  0  0  0  # atno 17343 bound_to 10162
  156.2255  130.3677  149.8506 LP  0  0  0  0  0  0  0  0  0  0  0  0  # atno 17370 bound_to 10713
  156.6347  130.8680  151.3502 LP  0  0  0  0  0  0  0  0  0  0  0  0  # atno 17371 bound_to 10713
  140.5106  134.1006  155.7269 LP  0  0  0  0  0  0  0  0  0  0  0  0  # atno 17394 bound_to 11000
  141.1478  133.9024  157.2173 LP  0  0  0  0  0  0  0  0  0  0  0  0  # atno 17395 bound_to 11000

$$$$
