AV-unprocessed.smi:1648|AV-procd|sdf|6628|dock6
  -GOLD-   22720 7323D 1   1.00000     0.00000
 Structure written by MMmdl.
 42 42  0  0  0  0  0  0  0  0  2 V2000
  146.6273  145.7208  160.4093 C   0  0  0  0  0  0  0  0  0  0  0  0
  147.7492  144.6845  160.3184 C   0  0  0  0  0  0  0  0  0  0  0  0
  148.1637  144.1522  161.3453 O   0  0  0  0  0  0  0  0  0  0  0  0
  148.2618  144.3714  159.1155 N   0  0  0  0  0  0  0  0  0  0  0  0
  149.3312  143.4123  158.8217 C   0  0  1  0  0  0  0  0  0  0  0  0
  148.8612  142.4804  157.6868 C   0  0  0  0  0  0  0  0  0  0  0  0
  149.6489  141.6993  157.1508 O   0  0  0  0  0  0  0  0  0  0  0  0
  147.5678  142.5738  157.3393 N   0  0  0  0  0  0  0  0  0  0  0  0
  146.9160  141.8525  156.2471 C   0  0  2  0  0  0  0  0  0  0  0  0
  146.6034  140.4278  156.7246 C   0  0  0  0  0  0  0  0  0  0  0  0
  147.7919  141.8326  154.9744 C   0  0  0  0  0  0  0  0  0  0  0  0
  147.5230  140.6845  154.1004 N   0  0  0  0  0  0  0  0  0  0  0  0
  146.3872  140.4452  153.3688 C   0  0  0  0  0  0  0  0  0  0  0  0
  146.5852  139.2564  152.7155 C   0  0  0  0  0  0  0  0  0  0  0  0
  147.8250  138.8116  153.0881 N   0  3  0  0  0  0  0  0  0  0  0  0
  148.3891  139.6759  153.9380 C   0  0  0  0  0  0  0  0  0  0  0  0
  150.6010  144.1951  158.3734 C   0  0  0  0  0  0  0  0  0  0  0  0
  151.7882  143.2685  158.0412 C   0  0  0  0  0  0  0  0  0  0  0  0
  151.0544  145.2232  159.4297 C   0  0  0  0  0  0  0  0  0  0  0  0
  146.9509  146.6820  160.0101 H   0  0  0  0  0  0  0  0  0  0  0  0
  146.3315  145.8737  161.4477 H   0  0  0  0  0  0  0  0  0  0  0  0
  145.7480  145.3883  159.8574 H   0  0  0  0  0  0  0  0  0  0  0  0
  147.8580  144.8376  158.3161 H   0  0  0  0  0  0  0  0  0  0  0  0
  149.5676  142.8303  159.7143 H   0  0  0  0  0  0  0  0  0  0  0  0
  146.9970  143.2375  157.8431 H   0  0  0  0  0  0  0  0  0  0  0  0
  145.9602  142.3274  156.0185 H   0  0  0  0  0  0  0  0  0  0  0  0
  146.0780  139.8615  155.9551 H   0  0  0  0  0  0  0  0  0  0  0  0
  145.9686  140.4406  157.6116 H   0  0  0  0  0  0  0  0  0  0  0  0
  147.5143  139.8825  156.9746 H   0  0  0  0  0  0  0  0  0  0  0  0
  147.6654  142.7530  154.4016 H   0  0  0  0  0  0  0  0  0  0  0  0
  148.8466  141.7740  155.2460 H   0  0  0  0  0  0  0  0  0  0  0  0
  145.5481  141.1258  153.3595 H   0  0  0  0  0  0  0  0  0  0  0  0
  145.9521  138.7065  152.0345 H   0  0  0  0  0  0  0  0  0  0  0  0
  149.3569  139.5781  154.3966 H   0  0  0  0  0  0  0  0  0  0  0  0
  150.3615  144.7547  157.4673 H   0  0  0  0  0  0  0  0  0  0  0  0
  152.0641  142.6586  158.9021 H   0  0  0  0  0  0  0  0  0  0  0  0
  152.6665  143.8456  157.7506 H   0  0  0  0  0  0  0  0  0  0  0  0
  151.5670  142.5951  157.2154 H   0  0  0  0  0  0  0  0  0  0  0  0
  151.2747  144.7397  160.3819 H   0  0  0  0  0  0  0  0  0  0  0  0
  150.2983  145.9867  159.6113 H   0  0  0  0  0  0  0  0  0  0  0  0
  151.9562  145.7449  159.1079 H   0  0  0  0  0  0  0  0  0  0  0  0
  148.2536  137.9513  152.7702 H   0  0  0  0  0  0  0  0  0  0  0  0
  1  2  1  0  0  0  0
  1 20  1  0  0  0  0
  1 21  1  0  0  0  0
  1 22  1  0  0  0  0
  2  3  2  0  0  0  0
  2  4  1  0  0  0  0
  4  5  1  0  0  0  0
  4 23  1  0  0  0  0
  5  6  1  0  0  0  0
  5 17  1  0  0  0  0
  5 24  1  0  0  0  0
  6  7  2  0  0  0  0
  6  8  1  0  0  0  0
  8  9  1  0  0  0  0
  8 25  1  0  0  0  0
  9 10  1  0  0  0  0
  9 11  1  0  0  0  0
  9 26  1  0  0  0  0
 10 27  1  0  0  0  0
 10 28  1  0  0  0  0
 10 29  1  0  0  0  0
 11 12  1  0  0  0  0
 11 30  1  0  0  0  0
 11 31  1  0  0  0  0
 12 16  1  0  0  0  0
 12 13  1  0  0  0  0
 13 14  2  0  0  0  0
 13 32  1  0  0  0  0
 14 15  1  0  0  0  0
 14 33  1  0  0  0  0
 15 16  2  0  0  0  0
 15 42  1  0  0  0  0
 16 34  1  0  0  0  0
 17 18  1  0  0  0  0
 17 19  1  0  0  0  0
 17 35  1  0  0  0  0
 18 36  1  0  0  0  0
 18 37  1  0  0  0  0
 18 38  1  0  0  0  0
 19 39  1  0  0  0  0
 19 40  1  0  0  0  0
 19 41  1  0  0  0  0
M  CHG  1  15   1
M  END
> <s_m_source_file>
AV-unprocessed.smi

> <i_m_source_file_index>
1648

> <i_lp_mmshare_version>
43012

> <i_f3d_flags>
0

> <s_epik_input>
W0NIM11DKD1PKVtOSF1bQ0BASF0oW0NIXShbQ0gzXSlbQ0gzXSlDKD1PKVtOSF1bQ0BIXShbQ0gzXSlbQ0gyXW4xW2NIXVtjSF1uW2NIXTE=

> <s_epik_cmdline>
J2VwaWtfcHl0aG9uJywgJy1waCcsICc3LjAnLCAnLXRuJywgJzgnLCAnLW1hJywgJzIwMCcsICctbWV0YWxfYmluZGluZycsICctaW1hZScsICc8aW5maWxlLm1hZT4nLCAnLW9tYWUnLCAnPG91dGZpbGUubWFlPic=

> <r_lp_tautomer_probability>
1

> <r_epik_Ionization_Penalty>
0.251562

> <r_epik_Ionization_Penalty_Charging>
0

> <r_epik_Ionization_Penalty_Neutral>
0.251562

> <r_epik_State_Penalty>
0.242926

> <r_epik_Charging_Adjusted_Penalty>
0.242926

> <i_epik_Tot_Q>
1

> <i_epik_Tot_abs_Q>
1

> <r_epik_Metal_State_Penalty>
0.53388

> <b_epik_Metal_Only>
0

> <s_lp_Force_Field>
OPLS_2005

> <r_lp_Energy>
11.0591

> <b_lp_Chiralities_Consistent>
1

> <s_lp_Variant>
AV-unprocessed.smi:1648-2

> <Gold.Version>
5.8.1

> <Gold.Id.Protein>
6NUR|6NUR_protein|mol2

> <Gold.PLP.Fitness>
45.5550

> <Gold.PLP.PLP>
-32.3313

> <Gold.PLP.part.hbond>
-5.0000

> <Gold.PLP.part.metal>
0.0000

> <Gold.PLP.part.buried>
-3.1384

> <Gold.PLP.part.nonpolar>
-26.1306

> <Gold.PLP.part.repulsive>
0.4890

> <Gold.PLP.ligand.clash>
0.0000

> <Gold.PLP.ligand.torsion>
0.9045

> <Gold.PLP.Chemscore.Hbond>
3.9760

> <Gold.PLP.Chemscore.CHOScore>
1.0000

> <Gold.PLP.Chemscore.Metal>
0.0000

> <Gold.Chemscore.Hbonds>
donor molecule, donor type, donor heavy atom, donor atom, acceptor molecule, acceptor atom, score
      L1  H     4    23       P1  8029  0.96
      L1  H    15    42       P1  7948  1.92
      P1  H  6933  6944       L1     3  1.00
      L1  C    13    32       P1 10175  0.80

> <Gold.PLP.Chemscore.Internal.Correction>
0.1047

> <Gold.Rescore>
     Score         DG    S(hbond)    S(metal)    S(lipo)     H(rot)  DE(clash)    DE(int)     intcor
     12.35     -16.18       2.92        0.00      65.31       2.61       0.04       3.79       ----

> <Gold.Chemscore.Fitness>
12.3543

> <Gold.Chemscore.DG>
-16.1799

> <Gold.Chemscore.ZeroCoef>
-5.4800

> <Gold.Chemscore.Hbond>
2.9188

> <Gold.Chemscore.Metal>
0.0000

> <Gold.Chemscore.Lipo>
65.3136

> <Gold.Chemscore.Internal_Hbond>
0.0000

> <Gold.Chemscore.DEClash>
0.0365

> <Gold.Chemscore.DEInternal>
3.7892

> <Gold.Chemscore.Rot>
2.6135

> <Gold.Chemscore.Internal.Correction>
   9.000000E+99

> <Gold.Chemscore.Hbonds>
donor molecule, donor type, donor heavy atom, donor atom, acceptor molecule, acceptor atom, score
      L1  H     4    23       P1  8029  0.83
      L1  H    15    42       P1  7948  0.90
      P1  H  6933  6944       L1     3  0.96

> <Gold.Chemscore.Hbond.Weighted>
-9.7489

> <Gold.Chemscore.Metal.Weighted>
-0.0000

> <Gold.Chemscore.Lipo.Weighted>
-7.6417

> <Gold.Chemscore.Internal_Hbond.Weighted>
0.0000

> <Gold.Chemscore.DEClash.Weighted>
0.0365

> <Gold.Chemscore.DEInternal.Weighted>
3.7892

> <Gold.Chemscore.Rot.Weighted>
6.6906

> <Gold.Chemscore.Internal.Correction.Weighted>
   9.000000E+99

> <Gold.Protein.RotatedTorsions>
[ 6907 6896 6895 6894 ] final  -17.68 input  -60.11 | X-H torsion
[ 7974 7965 7964 7962 ] final   88.67 input  175.53 | X-H torsion
[ 8008 7997 7996 7995 ] final  161.09 input   59.86 | X-H torsion
[ 10167 10162 10161 10158 ] final  -41.04 input  -65.29 | X-H torsion
[ 10718 10713 10712 10709 ] final  110.85 input   66.30 | X-H torsion
[ 10763 10752 10751 10750 ] final    6.75 input  -60.55 | X-H torsion
[ 11005 11000 10999 10996 ] final -149.65 input  -57.11 | X-H torsion

> <Gold.Protein.ActiveResidues>
 VAL166  LYS551  ARG553  GLY616  TRP617  ASP618  TYR619  PRO620  LYS621  CYS622 
 ASP623  PHE694  ASN695  SER759  ASP760  ASP761  ALA762  ILE779  LEU786  VAL792 
 PHE793  MET794  SER795  GLU796  ALA797  LYS798  CYS799  TRP800  GLU811  SER814 

> <Gold.Protein.RotatedAtoms>
  151.2896  135.0738  159.9199 H   0  0  0  0  0  0  0  0  0  0  0  0  # atno 6907 bound_to 6896
  152.5319  133.9945  159.7876 H   0  0  0  0  0  0  0  0  0  0  0  0  # atno 6908 bound_to 6896
  151.0213  133.5823  159.2701 H   0  0  0  0  0  0  0  0  0  0  0  0  # atno 6909 bound_to 6896
  145.5425  139.2289  143.2558 H   0  0  0  0  0  0  0  0  0  0  0  0  # atno 7974 bound_to 7965
  156.2127  140.1786  156.7658 H   0  0  0  0  0  0  0  0  0  0  0  0  # atno 8008 bound_to 7997
  154.5746  140.0676  156.9045 H   0  0  0  0  0  0  0  0  0  0  0  0  # atno 8009 bound_to 7997
  155.2611  140.3336  155.4275 H   0  0  0  0  0  0  0  0  0  0  0  0  # atno 8010 bound_to 7997
  140.7015  143.3118  151.3010 H   0  0  0  0  0  0  0  0  0  0  0  0  # atno 10167 bound_to 10162
  157.6474  131.0940  150.6663 H   0  0  0  0  0  0  0  0  0  0  0  0  # atno 10718 bound_to 10713
  153.2441  135.6906  153.7750 H   0  0  0  0  0  0  0  0  0  0  0  0  # atno 10763 bound_to 10752
  153.6869  135.3319  155.3193 H   0  0  0  0  0  0  0  0  0  0  0  0  # atno 10764 bound_to 10752
  154.8368  135.4536  154.1374 H   0  0  0  0  0  0  0  0  0  0  0  0  # atno 10765 bound_to 10752
  140.7485  134.3434  157.5131 H   0  0  0  0  0  0  0  0  0  0  0  0  # atno 11005 bound_to 11000
  146.1971  140.6246  142.9119 LP  0  0  0  0  0  0  0  0  0  0  0  0  # atno 17320 bound_to 7965
  144.7570  140.5330  143.6762 LP  0  0  0  0  0  0  0  0  0  0  0  0  # atno 17321 bound_to 7965
  139.6543  144.0305  152.2648 LP  0  0  0  0  0  0  0  0  0  0  0  0  # atno 17342 bound_to 10162
  139.9852  144.6400  150.7864 LP  0  0  0  0  0  0  0  0  0  0  0  0  # atno 17343 bound_to 10162
  156.6978  130.4614  149.5581 LP  0  0  0  0  0  0  0  0  0  0  0  0  # atno 17370 bound_to 10713
  156.1816  130.6503  151.0958 LP  0  0  0  0  0  0  0  0  0  0  0  0  # atno 17371 bound_to 10713
  139.8792  134.9126  156.3065 LP  0  0  0  0  0  0  0  0  0  0  0  0  # atno 17394 bound_to 11000
  140.9773  133.7290  156.0620 LP  0  0  0  0  0  0  0  0  0  0  0  0  # atno 17395 bound_to 11000

$$$$
