AV-unprocessed.smi:1334|AV-procd|sdf|5492|dock9
  -GOLD-   22720 5 73D 1   1.00000     0.00000
 Structure written by MMmdl.
 38 39  0  0  0  0  0  0  0  0  1 V2000
  148.9865  138.0342  155.0064 C   0  0  0  0  0  0  0  0  0  0  0  0
  149.6297  139.3582  154.5473 C   0  0  2  0  0  0  0  0  0  0  0  0
  150.6055  139.9208  155.5904 C   0  0  0  0  0  0  0  0  0  0  0  0
  151.7978  140.0602  155.3149 O   0  0  0  0  0  0  0  0  0  0  0  0
  150.0846  140.2212  156.7912 N   0  0  0  0  0  0  0  0  0  0  0  0
  150.8391  140.6835  157.9536 C   0  0  0  0  0  0  0  0  0  0  0  0
  151.4454  142.0816  157.7246 C   0  0  0  0  0  0  0  0  0  0  0  0
  151.8204  142.8248  159.0003 C   0  0  0  0  0  0  0  0  0  0  0  0
  152.5693  142.2495  159.9618 C   0  0  0  0  0  0  0  0  0  0  0  0
  152.9363  142.9163  161.2759 C   0  0  0  0  0  0  0  0  0  0  0  0
  152.1110  144.1856  161.5440 C   0  0  0  0  0  0  0  0  0  0  0  0
  151.9585  145.0305  160.2737 C   0  0  0  0  0  0  0  0  0  0  0  0
  151.2652  144.2368  159.1526 C   0  0  0  0  0  0  0  0  0  0  0  0
  148.6366  140.3678  154.2002 N   0  0  0  0  0  0  0  0  0  0  0  0
  148.5921  141.6659  154.5068 C   0  0  0  0  0  0  0  0  0  0  0  0
  147.5114  142.2894  154.0589 N   0  0  0  0  0  0  0  0  0  0  0  0
  146.8762  141.2408  153.4574 C   0  0  0  0  0  0  0  0  0  0  0  0
  147.5008  140.0654  153.5222 N   0  0  0  0  0  0  0  0  0  0  0  0
  149.7466  137.2780  155.2055 H   0  0  0  0  0  0  0  0  0  0  0  0
  148.3255  137.6368  154.2357 H   0  0  0  0  0  0  0  0  0  0  0  0
  148.3972  138.1553  155.9162 H   0  0  0  0  0  0  0  0  0  0  0  0
  150.1953  139.1429  153.6389 H   0  0  0  0  0  0  0  0  0  0  0  0
  149.0938  140.0793  156.9237 H   0  0  0  0  0  0  0  0  0  0  0  0
  150.2189  140.6979  158.8508 H   0  0  0  0  0  0  0  0  0  0  0  0
  151.6359  139.9670  158.1544 H   0  0  0  0  0  0  0  0  0  0  0  0
  152.3303  142.0009  157.0926 H   0  0  0  0  0  0  0  0  0  0  0  0
  150.7301  142.6849  157.1639 H   0  0  0  0  0  0  0  0  0  0  0  0
  152.9514  141.2493  159.8186 H   0  0  0  0  0  0  0  0  0  0  0  0
  152.7949  142.2058  162.0905 H   0  0  0  0  0  0  0  0  0  0  0  0
  153.9988  143.1549  161.2489 H   0  0  0  0  0  0  0  0  0  0  0  0
  151.1208  143.9055  161.9056 H   0  0  0  0  0  0  0  0  0  0  0  0
  152.5756  144.7712  162.3378 H   0  0  0  0  0  0  0  0  0  0  0  0
  151.3970  145.9401  160.4880 H   0  0  0  0  0  0  0  0  0  0  0  0
  152.9446  145.3500  159.9344 H   0  0  0  0  0  0  0  0  0  0  0  0
  151.3671  144.7865  158.2175 H   0  0  0  0  0  0  0  0  0  0  0  0
  150.1965  144.1586  159.3546 H   0  0  0  0  0  0  0  0  0  0  0  0
  149.3652  142.1649  155.0726 H   0  0  0  0  0  0  0  0  0  0  0  0
  145.9211  141.3452  152.9645 H   0  0  0  0  0  0  0  0  0  0  0  0
  1  2  1  0  0  0  0
  1 19  1  0  0  0  0
  1 20  1  0  0  0  0
  1 21  1  0  0  0  0
  2  3  1  0  0  0  0
  2 14  1  0  0  0  0
  2 22  1  0  0  0  0
  3  4  2  0  0  0  0
  3  5  1  0  0  0  0
  5  6  1  0  0  0  0
  5 23  1  0  0  0  0
  6  7  1  0  0  0  0
  6 24  1  0  0  0  0
  6 25  1  0  0  0  0
  7  8  1  0  0  0  0
  7 26  1  0  0  0  0
  7 27  1  0  0  0  0
  8 13  1  0  0  0  0
  8  9  2  0  0  0  0
  9 10  1  0  0  0  0
  9 28  1  0  0  0  0
 10 11  1  0  0  0  0
 10 29  1  0  0  0  0
 10 30  1  0  0  0  0
 11 12  1  0  0  0  0
 11 31  1  0  0  0  0
 11 32  1  0  0  0  0
 12 13  1  0  0  0  0
 12 33  1  0  0  0  0
 12 34  1  0  0  0  0
 13 35  1  0  0  0  0
 13 36  1  0  0  0  0
 14 18  1  0  0  0  0
 14 15  1  0  0  0  0
 15 16  2  0  0  0  0
 15 37  1  0  0  0  0
 16 17  1  0  0  0  0
 17 18  2  0  0  0  0
 17 38  1  0  0  0  0
M  END
> <s_m_source_file>
AV-unprocessed.smi

> <i_m_source_file_index>
1334

> <i_lp_mmshare_version>
43012

> <i_f3d_flags>
0

> <s_epik_input>
bjFbY0hdbltjSF1uMVtDQEhdKFtDSDNdKUMoPU8pW05IXVtDSDJdW0NIMl1DMj1bQ0hdW0NIMl1bQ0gyXVtDSDJdW0NIMl0y

> <s_epik_cmdline>
J2VwaWtfcHl0aG9uJywgJy1waCcsICc3LjAnLCAnLXRuJywgJzgnLCAnLW1hJywgJzIwMCcsICctbWV0YWxfYmluZGluZycsICctaW1hZScsICc8aW5maWxlLm1hZT4nLCAnLW9tYWUnLCAnPG91dGZpbGUubWFlPic=

> <r_lp_tautomer_probability>
1

> <r_epik_Ionization_Penalty>
1.26383e-05

> <r_epik_Ionization_Penalty_Charging>
0

> <r_epik_Ionization_Penalty_Neutral>
1.26383e-05

> <r_epik_State_Penalty>
-0

> <r_epik_Charging_Adjusted_Penalty>
0

> <i_epik_Tot_Q>
0

> <i_epik_Tot_abs_Q>
0

> <r_epik_Metal_State_Penalty>
-0

> <b_epik_Metal_Only>
0

> <s_lp_Force_Field>
OPLS_2005

> <r_lp_Energy>
12.0281

> <b_lp_Chiralities_Consistent>
1

> <s_lp_Variant>
AV-unprocessed.smi:1334-1

> <Gold.Version>
5.8.1

> <Gold.Id.Protein>
6NUR|6NUR_protein|mol2

> <Gold.PLP.Fitness>
47.7353

> <Gold.PLP.PLP>
-41.8031

> <Gold.PLP.part.hbond>
-1.0000

> <Gold.PLP.part.metal>
0.0000

> <Gold.PLP.part.buried>
-4.8570

> <Gold.PLP.part.nonpolar>
-35.5992

> <Gold.PLP.part.repulsive>
0.4038

> <Gold.PLP.ligand.clash>
0.0000

> <Gold.PLP.ligand.torsion>
0.5798

> <Gold.PLP.Chemscore.Hbond>
0.8000

> <Gold.PLP.Chemscore.CHOScore>
1.5264

> <Gold.PLP.Chemscore.Metal>
0.0000

> <Gold.Chemscore.Hbonds>
donor molecule, donor type, donor heavy atom, donor atom, acceptor molecule, acceptor atom, score
      P1  H  7989  7998       L1     4  0.90
      L1  C    15    37       P1  8028  0.48
      L1  C    17    38       P1 10175  0.72

> <Gold.PLP.Chemscore.Internal.Correction>
0.1125

> <Gold.Rescore>
     Score         DG    S(hbond)    S(metal)    S(lipo)     H(rot)  DE(clash)    DE(int)     intcor
     11.94     -12.98       0.81        0.00      93.65       2.40       0.08       0.96       ----

> <Gold.Chemscore.Fitness>
11.9430

> <Gold.Chemscore.DG>
-12.9820

> <Gold.Chemscore.ZeroCoef>
-5.4800

> <Gold.Chemscore.Hbond>
0.8059

> <Gold.Chemscore.Metal>
0.0000

> <Gold.Chemscore.Lipo>
93.6494

> <Gold.Chemscore.Internal_Hbond>
0.0000

> <Gold.Chemscore.DEClash>
0.0784

> <Gold.Chemscore.DEInternal>
0.9606

> <Gold.Chemscore.Rot>
2.4011

> <Gold.Chemscore.Internal.Correction>
   9.000000E+99

> <Gold.Chemscore.Hbonds>
donor molecule, donor type, donor heavy atom, donor atom, acceptor molecule, acceptor atom, score
      P1  H  7989  7998       L1     4  0.26

> <Gold.Chemscore.Hbond.Weighted>
-2.6919

> <Gold.Chemscore.Metal.Weighted>
-0.0000

> <Gold.Chemscore.Lipo.Weighted>
-10.9570

> <Gold.Chemscore.Internal_Hbond.Weighted>
0.0000

> <Gold.Chemscore.DEClash.Weighted>
0.0784

> <Gold.Chemscore.DEInternal.Weighted>
0.9606

> <Gold.Chemscore.Rot.Weighted>
6.1469

> <Gold.Chemscore.Internal.Correction.Weighted>
   9.000000E+99

> <Gold.Protein.RotatedTorsions>
[ 6907 6896 6895 6894 ] final  -61.03 input  -60.11 | X-H torsion
[ 7974 7965 7964 7962 ] final  111.54 input  175.53 | X-H torsion
[ 8008 7997 7996 7995 ] final -154.77 input   59.86 | X-H torsion
[ 10167 10162 10161 10158 ] final   88.88 input  -65.29 | X-H torsion
[ 10718 10713 10712 10709 ] final  103.41 input   66.30 | X-H torsion
[ 10763 10752 10751 10750 ] final  -40.96 input  -60.55 | X-H torsion
[ 11005 11000 10999 10996 ] final -109.09 input  -57.11 | X-H torsion

> <Gold.Protein.ActiveResidues>
 VAL166  LYS551  ARG553  GLY616  TRP617  ASP618  TYR619  PRO620  LYS621  CYS622 
 ASP623  PHE694  ASN695  SER759  ASP760  ASP761  ALA762  ILE779  LEU786  VAL792 
 PHE793  MET794  SER795  GLU796  ALA797  LYS798  CYS799  TRP800  GLU811  SER814 

> <Gold.Protein.RotatedAtoms>
  150.7814  134.6759  159.6416 H   0  0  0  0  0  0  0  0  0  0  0  0  # atno 6907 bound_to 6896
  152.3899  134.6455  160.0120 H   0  0  0  0  0  0  0  0  0  0  0  0  # atno 6908 bound_to 6896
  151.6759  133.3276  159.3244 H   0  0  0  0  0  0  0  0  0  0  0  0  # atno 6909 bound_to 6896
  145.2409  139.2779  143.4118 H   0  0  0  0  0  0  0  0  0  0  0  0  # atno 7974 bound_to 7965
  155.6916  140.0756  157.2446 H   0  0  0  0  0  0  0  0  0  0  0  0  # atno 8008 bound_to 7997
  154.4088  140.1663  156.2145 H   0  0  0  0  0  0  0  0  0  0  0  0  # atno 8009 bound_to 7997
  155.9447  140.3382  155.6360 H   0  0  0  0  0  0  0  0  0  0  0  0  # atno 8010 bound_to 7997
  139.8628  144.6535  150.9039 H   0  0  0  0  0  0  0  0  0  0  0  0  # atno 10167 bound_to 10162
  157.6773  131.0778  150.5551 H   0  0  0  0  0  0  0  0  0  0  0  0  # atno 10718 bound_to 10713
  153.9546  135.6746  153.4744 H   0  0  0  0  0  0  0  0  0  0  0  0  # atno 10763 bound_to 10752
  153.0868  135.4895  154.8608 H   0  0  0  0  0  0  0  0  0  0  0  0  # atno 10764 bound_to 10752
  154.7306  135.3137  154.8856 H   0  0  0  0  0  0  0  0  0  0  0  0  # atno 10765 bound_to 10752
  141.0867  133.9127  157.2170 H   0  0  0  0  0  0  0  0  0  0  0  0  # atno 11005 bound_to 11000
  146.3328  140.2772  142.8608 LP  0  0  0  0  0  0  0  0  0  0  0  0  # atno 17320 bound_to 7965
  144.9590  140.8255  143.5525 LP  0  0  0  0  0  0  0  0  0  0  0  0  # atno 17321 bound_to 7965
  140.7772  143.3730  151.1615 LP  0  0  0  0  0  0  0  0  0  0  0  0  # atno 17342 bound_to 10162
  139.7357  143.9002  152.3034 LP  0  0  0  0  0  0  0  0  0  0  0  0  # atno 17343 bound_to 10162
  156.5855  130.4315  149.5959 LP  0  0  0  0  0  0  0  0  0  0  0  0  # atno 17370 bound_to 10713
  156.2626  130.6971  151.1745 LP  0  0  0  0  0  0  0  0  0  0  0  0  # atno 17371 bound_to 10713
  139.9686  135.0135  156.9452 LP  0  0  0  0  0  0  0  0  0  0  0  0  # atno 17394 bound_to 11000
  140.5347  134.0778  155.7325 LP  0  0  0  0  0  0  0  0  0  0  0  0  # atno 17395 bound_to 11000

$$$$
