AV-unprocessed.smi:72|AV-procd|sdf|740|dock4
  -GOLD-   2262017 73D 1   1.00000     0.00000
 Structure written by MMmdl.
 28 29  0  0  0  0  0  0  0  0  2 V2000
  153.6985  137.3600  156.0779 N   0  0  0  0  0  0  0  0  0  0  0  0
  152.7492  138.0792  155.6639 C   0  0  0  0  0  0  0  0  0  0  0  0
  151.9373  137.6357  154.5522 N   0  0  0  0  0  0  0  0  0  0  0  0
  150.9496  138.3924  154.1838 C   0  0  0  0  0  0  0  0  0  0  0  0
  150.6394  139.6443  154.8670 N   0  0  0  0  0  0  0  0  0  0  0  0
  149.4842  140.5435  154.4505 C   0  0  1  0  0  0  0  0  0  0  0  0
  148.8925  140.0530  153.2806 O   0  0  0  0  0  0  0  0  0  0  0  0
  147.7322  139.2938  153.6079 C   0  0  2  0  0  0  0  0  0  0  0  0
  146.8278  139.1002  152.3786 C   0  0  0  0  0  0  0  0  0  0  0  0
  147.4050  138.1562  151.5020 O   0  0  0  0  0  0  0  0  0  0  0  0
  147.1331  140.1119  154.7553 C   0  0  2  0  0  0  0  0  0  0  0  0
  146.3890  141.2085  154.2488 O   0  0  0  0  0  0  0  0  0  0  0  0
  148.3768  140.5513  155.5280 C   0  0  2  0  0  0  0  0  0  0  0  0
  148.2092  141.8097  156.1543 O   0  0  0  0  0  0  0  0  0  0  0  0
  151.4864  140.0750  155.9243 C   0  0  0  0  0  0  0  0  0  0  0  0
  151.2433  141.1580  156.4576 O   0  0  0  0  0  0  0  0  0  0  0  0
  152.5252  139.2789  156.3012 N   0  5  0  0  0  0  0  0  0  0  0  0
  149.9343  141.5177  154.2509 H   0  0  0  0  0  0  0  0  0  0  0  0
  148.0312  138.3224  154.0061 H   0  0  0  0  0  0  0  0  0  0  0  0
  146.4687  139.5107  155.3767 H   0  0  0  0  0  0  0  0  0  0  0  0
  148.6066  139.8027  156.2880 H   0  0  0  0  0  0  0  0  0  0  0  0
  154.1917  137.7741  156.8552 H   0  0  0  0  0  0  0  0  0  0  0  0
  150.3021  138.1333  153.3465 H   0  0  0  0  0  0  0  0  0  0  0  0
  145.8558  138.7121  152.6843 H   0  0  0  0  0  0  0  0  0  0  0  0
  146.6547  140.0423  151.8573 H   0  0  0  0  0  0  0  0  0  0  0  0
  147.9238  137.5537  152.0132 H   0  0  0  0  0  0  0  0  0  0  0  0
  146.1021  140.9900  153.3749 H   0  0  0  0  0  0  0  0  0  0  0  0
  148.4705  142.4805  155.5405 H   0  0  0  0  0  0  0  0  0  0  0  0
  1  2  2  0  0  0  0
  1 22  1  0  0  0  0
  2 17  1  0  0  0  0
  2  3  1  0  0  0  0
  3  4  2  0  0  0  0
  4  5  1  0  0  0  0
  4 23  1  0  0  0  0
  5  6  1  0  0  0  0
  5 15  1  0  0  0  0
  6 18  1  0  0  0  0
  6 13  1  0  0  0  0
  6  7  1  0  0  0  0
  7  8  1  0  0  0  0
  8 19  1  0  0  0  0
  8  9  1  0  0  0  0
  8 11  1  0  0  0  0
  9 10  1  0  0  0  0
  9 24  1  0  0  0  0
  9 25  1  0  0  0  0
 10 26  1  0  0  0  0
 11 20  1  0  0  0  0
 11 12  1  0  0  0  0
 11 13  1  0  0  0  0
 12 27  1  0  0  0  0
 13 21  1  0  0  0  0
 13 14  1  0  0  0  0
 14 28  1  0  0  0  0
 15 16  2  0  0  0  0
 15 17  1  0  0  0  0
M  CHG  1  17  -1
M  END
> <s_m_source_file>
AV-unprocessed.smi

> <i_m_source_file_index>
72

> <i_lp_mmshare_version>
43012

> <i_f3d_flags>
0

> <s_epik_input>
W05IMl1jMW5bY0hdbihjKD1PKW4xKVtDQEBIXTJPW0NASF0oW0NIMl1bT0hdKVtDQEBIXShbT0hdKVtDQEhdMltPSF0=

> <s_epik_cmdline>
J2VwaWtfcHl0aG9uJywgJy1waCcsICc3LjAnLCAnLXRuJywgJzgnLCAnLW1hJywgJzIwMCcsICctbWV0YWxfYmluZGluZycsICctaW1hZScsICc8aW5maWxlLm1hZT4nLCAnLW9tYWUnLCAnPG91dGZpbGUubWFlPic=

> <r_lp_tautomer_probability>
7.17554e-07

> <r_epik_Ionization_Penalty>
12.8705

> <r_epik_Ionization_Penalty_Charging>
5.64144

> <r_epik_Ionization_Penalty_Neutral>
7.22905

> <r_epik_State_Penalty>
3.30104

> <r_epik_Charging_Adjusted_Penalty>
8.94249

> <i_epik_Tot_Q>
-1

> <i_epik_Tot_abs_Q>
1

> <r_epik_Metal_State_Penalty>
0.529074

> <b_epik_Metal_Only>
1

> <s_epik_Chemistry_Notes>
This compound contains an acetal/aminal-like group ( X-CH(R)-Y where X, Y are N, S, or O) that may be acid/base labile, releasing an aldehyde.

> <s_lp_Force_Field>
OPLS_2005

> <r_lp_Energy>
36.2844

> <b_lp_Chiralities_Consistent>
1

> <s_lp_Variant>
AV-unprocessed.smi:72-78

> <Gold.Version>
5.8.1

> <Gold.Id.Protein>
6NUR|6NUR_protein|mol2

> <Gold.PLP.Fitness>
39.4308

> <Gold.PLP.PLP>
-23.6750

> <Gold.PLP.part.hbond>
-6.6595

> <Gold.PLP.part.metal>
0.0000

> <Gold.PLP.part.buried>
-2.4822

> <Gold.PLP.part.nonpolar>
-19.4671

> <Gold.PLP.part.repulsive>
6.0552

> <Gold.PLP.ligand.clash>
0.0000

> <Gold.PLP.ligand.torsion>
0.2115

> <Gold.PLP.Chemscore.Hbond>
4.7046

> <Gold.PLP.Chemscore.CHOScore>
0.6812

> <Gold.PLP.Chemscore.Metal>
0.0000

> <Gold.Chemscore.Hbonds>
donor molecule, donor type, donor heavy atom, donor atom, acceptor molecule, acceptor atom, score
      L1  H    10    26       P1  7948  0.82
      L1  H    14    28       P1  8028  0.29
      P1  H  7954  7966       L1    10  0.90
      P1  H  7997  8008       L1    17  2.00
      P1  H 10752 10764       L1     3  0.29
      P1  H 10752 10765       L1     1  0.23
      L1  C     4    23       P1  7948  0.54

> <Gold.PLP.Chemscore.Internal.Correction>
0.0213

> <Gold.Rescore>
     Score         DG    S(hbond)    S(metal)    S(lipo)     H(rot)  DE(clash)    DE(int)     intcor
      4.11      -6.42       2.59        0.00      22.38       4.04       2.03       0.28       ----

> <Gold.Chemscore.Fitness>
4.1058

> <Gold.Chemscore.DG>
-6.4219

> <Gold.Chemscore.ZeroCoef>
-5.4800

> <Gold.Chemscore.Hbond>
2.5947

> <Gold.Chemscore.Metal>
0.0000

> <Gold.Chemscore.Lipo>
22.3816

> <Gold.Chemscore.Internal_Hbond>
0.0000

> <Gold.Chemscore.DEClash>
2.0327

> <Gold.Chemscore.DEInternal>
0.2834

> <Gold.Chemscore.Rot>
4.0403

> <Gold.Chemscore.Internal.Correction>
   9.000000E+99

> <Gold.Chemscore.Hbonds>
donor molecule, donor type, donor heavy atom, donor atom, acceptor molecule, acceptor atom, score
      L1  H    10    26       P1  7948  0.79
      L1  H    14    28       P1  8028  0.28
      P1  H  7954  7966       L1    10  0.18
      P1  H  7997  8008       L1    17  0.41
      P1  H 10752 10764       L1     3  0.06
      P1  H 10752 10765       L1     1  0.23

> <Gold.Chemscore.Hbond.Weighted>
-8.6663

> <Gold.Chemscore.Metal.Weighted>
-0.0000

> <Gold.Chemscore.Lipo.Weighted>
-2.6187

> <Gold.Chemscore.Internal_Hbond.Weighted>
0.0000

> <Gold.Chemscore.DEClash.Weighted>
2.0327

> <Gold.Chemscore.DEInternal.Weighted>
0.2834

> <Gold.Chemscore.Rot.Weighted>
10.3431

> <Gold.Chemscore.Internal.Correction.Weighted>
   9.000000E+99

> <Gold.Protein.RotatedTorsions>
[ 6907 6896 6895 6894 ] final  178.72 input  -60.11 | X-H torsion
[ 7974 7965 7964 7962 ] final -158.58 input  175.53 | X-H torsion
[ 8008 7997 7996 7995 ] final  -48.23 input   59.86 | X-H torsion
[ 10167 10162 10161 10158 ] final -127.35 input  -65.29 | X-H torsion
[ 10718 10713 10712 10709 ] final   51.28 input   66.30 | X-H torsion
[ 10763 10752 10751 10750 ] final  -94.35 input  -60.55 | X-H torsion
[ 11005 11000 10999 10996 ] final   -3.03 input  -57.11 | X-H torsion

> <Gold.Protein.ActiveResidues>
 VAL166  LYS551  ARG553  GLY616  TRP617  ASP618  TYR619  PRO620  LYS621  CYS622 
 ASP623  PHE694  ASN695  SER759  ASP760  ASP761  ALA762  ILE779  LEU786  VAL792 
 PHE793  MET794  SER795  GLU796  ALA797  LYS798  CYS799  TRP800  GLU811  SER814 

> <Gold.Protein.RotatedAtoms>
  151.6833  133.3311  159.3224 H   0  0  0  0  0  0  0  0  0  0  0  0  # atno 6907 bound_to 6896
  150.7812  134.6762  159.6428 H   0  0  0  0  0  0  0  0  0  0  0  0  # atno 6908 bound_to 6896
  152.3870  134.6504  160.0174 H   0  0  0  0  0  0  0  0  0  0  0  0  # atno 6909 bound_to 6896
  144.7500  140.3808  143.6055 H   0  0  0  0  0  0  0  0  0  0  0  0  # atno 7974 bound_to 7965
  154.4026  140.1326  156.4305 H   0  0  0  0  0  0  0  0  0  0  0  0  # atno 8008 bound_to 7997
  155.7555  140.3487  155.5152 H   0  0  0  0  0  0  0  0  0  0  0  0  # atno 8009 bound_to 7997
  155.8908  140.1003  157.1410 H   0  0  0  0  0  0  0  0  0  0  0  0  # atno 8010 bound_to 7997
  139.9617  143.5942  152.2443 H   0  0  0  0  0  0  0  0  0  0  0  0  # atno 10167 bound_to 10162
  157.4965  130.8410  149.8265 H   0  0  0  0  0  0  0  0  0  0  0  0  # atno 10718 bound_to 10713
  154.7046  135.5161  153.8577 H   0  0  0  0  0  0  0  0  0  0  0  0  # atno 10763 bound_to 10752
  153.0731  135.6607  154.0213 H   0  0  0  0  0  0  0  0  0  0  0  0  # atno 10764 bound_to 10752
  154.0066  135.3006  155.3376 H   0  0  0  0  0  0  0  0  0  0  0  0  # atno 10765 bound_to 10752
  140.6649  133.9287  155.8459 H   0  0  0  0  0  0  0  0  0  0  0  0  # atno 11005 bound_to 11000
  145.6980  139.1654  143.2609 LP  0  0  0  0  0  0  0  0  0  0  0  0  # atno 17320 bound_to 7965
  146.1436  140.7023  142.9355 LP  0  0  0  0  0  0  0  0  0  0  0  0  # atno 17321 bound_to 7965
  139.6549  144.7662  151.2076 LP  0  0  0  0  0  0  0  0  0  0  0  0  # atno 17342 bound_to 10162
  140.7551  143.6102  150.8613 LP  0  0  0  0  0  0  0  0  0  0  0  0  # atno 17343 bound_to 10162
  156.0204  130.3798  150.1980 LP  0  0  0  0  0  0  0  0  0  0  0  0  # atno 17370 bound_to 10713
  157.0169  130.9968  151.3350 LP  0  0  0  0  0  0  0  0  0  0  0  0  # atno 17371 bound_to 10713
  141.0437  134.0585  157.3871 LP  0  0  0  0  0  0  0  0  0  0  0  0  # atno 17394 bound_to 11000
  139.9000  135.0161  156.7224 LP  0  0  0  0  0  0  0  0  0  0  0  0  # atno 17395 bound_to 11000

$$$$
