#       Name:                AV-unprocessed.smi:1005
#       Creating user name   scv26
#       Creation time:       Fri Mar 27 02:31:38 2020


#       File generated by GOLD software.
#

@<TRIPOS>MOLECULE
AV-unprocessed.smi:1005
    62    64     1
SMALL
NO_CHARGES


@<TRIPOS>ATOM
      1 ****        -5.7349   3.0608   3.6667 C.3            1 S1                 0.0000
      2 ****        -4.5128   2.8849   2.7827 C.ar           1 S1                 0.0000
      3 ****        -4.6848   2.7924   1.3832 C.ar           1 S1                 0.0000
      4 ****        -3.5746   2.6262   0.5264 C.ar           1 S1                 0.0000
      5 ****        -3.5127   2.5121  -0.8519 N.2            1 S1                 0.0000
      6 ****        -2.2047   2.3769  -1.0507 C.2            1 S1                 0.0000
      7 ****        -1.4103   2.3925   0.0366 N.pl3          1 S1                 0.0000
      8 ****         0.0362   2.2621   0.0615 C.3            1 S1                 0.0000
      9 ****         0.4972   0.7921   0.0389 C.3            1 S1                 0.0000
     10 ****         0.0000   0.1290   1.1856 O.3            1 S1                 0.0000
     11 ****         2.0361   0.6854   0.0310 C.3            1 S1                 0.0000
     12 ****         2.5809  -0.6665  -0.1091 N.3            1 S1                 0.0000
     13 ****         4.0194  -0.6739   0.1303 C.3            1 S1                 0.0000
     14 ****         4.6187  -2.0820  -0.0129 C.3            1 S1                 0.0000
     15 ****         4.3069  -2.5965  -1.3031 O.3            1 S1                 0.0000
     16 ****         2.9045  -2.6779  -1.5487 C.3            1 S1                 0.0000
     17 ****         2.7060  -3.2879  -2.9521 C.3            1 S1                 0.0000
     18 ****         1.5894  -4.2255  -3.0840 N.3            1 S1                 0.0000
     19 ****         0.2944  -3.5911  -2.8723 C.3            1 S1                 0.0000
     20 ****         1.6218  -4.8863  -4.3812 C.3            1 S1                 0.0000
     21 ****         2.3184  -1.2538  -1.4219 C.3            1 S1                 0.0000
     22 ****        -2.2768   2.5560   1.1124 C.ar           1 S1                 0.0000
     23 ****        -2.0931   2.6472   2.5035 C.ar           1 S1                 0.0000
     24 ****        -3.2130   2.8123   3.3452 C.ar           1 S1                 0.0000
     25 ****        -3.0041   2.9075   4.8461 C.3            1 S1                 0.0000
     26 ****        -6.6536   3.0638   3.0796 H              1 S1                 0.0000
     27 ****        -5.6809   4.0048   4.2092 H              1 S1                 0.0000
     28 ****        -5.8041   2.2484   4.3902 H              1 S1                 0.0000
     29 ****        -5.6746   2.8471   0.9546 H              1 S1                 0.0000
     30 ****        -1.7992   2.2593  -2.0449 H              1 S1                 0.0000
     31 ****         0.4387   2.7940  -0.8017 H              1 S1                 0.0000
     32 ****         0.4192   2.7726   0.9461 H              1 S1                 0.0000
     33 ****         0.0718   0.3169  -0.8442 H              1 S1                 0.0000
     34 ****         0.3803   0.5283   1.9530 H              1 S1                 0.0000
     35 ****         2.4318   1.3117  -0.7702 H              1 S1                 0.0000
     36 ****         2.4072   1.1254   0.9581 H              1 S1                 0.0000
     37 ****         4.5145  -0.0005  -0.5713 H              1 S1                 0.0000
     38 ****         4.2311  -0.2929   1.1299 H              1 S1                 0.0000
     39 ****         5.7017  -2.0478   0.1052 H              1 S1                 0.0000
     40 ****         4.2325  -2.7497   0.7589 H              1 S1                 0.0000
     41 ****         2.4671  -3.3375  -0.7964 H              1 S1                 0.0000
     42 ****         2.6294  -2.4969  -3.7000 H              1 S1                 0.0000
     43 ****         3.6200  -3.8298  -3.2004 H              1 S1                 0.0000
     44 ****        -0.5150  -4.3070  -3.0200 H              1 S1                 0.0000
     45 ****         0.1431  -2.7611  -3.5639 H              1 S1                 0.0000
     46 ****         0.2028  -3.2149  -1.8538 H              1 S1                 0.0000
     47 ****         0.8220  -5.6233  -4.4608 H              1 S1                 0.0000
     48 ****         2.5667  -5.4113  -4.5261 H              1 S1                 0.0000
     49 ****         1.5036  -4.1672  -5.1930 H              1 S1                 0.0000
     50 ****         1.2476  -1.2955  -1.6060 H              1 S1                 0.0000
     51 ****         2.7406  -0.6163  -2.2004 H              1 S1                 0.0000
     52 ****        -1.0981   2.5875   2.9188 H              1 S1                 0.0000
     53 ****        -1.9461   2.8563   5.1048 H              1 S1                 0.0000
     54 ****        -3.5130   2.0878   5.3538 H              1 S1                 0.0000
     55 ****        -3.3968   3.8499   5.2285 H              1 S1                 0.0000
     56 ****        -4.2554   2.5274  -1.5213 LP             1 S1                 0.0000
     57 ****         0.2500  -0.8386   1.1502 LP             1 S1                 0.0000
     58 ****        -0.9957   0.2150   1.2194 LP             1 S1                 0.0000
     59 ****         2.1129  -1.2224   0.5778 LP             1 S1                 0.0000
     60 ****         4.6978  -3.5134  -1.3831 LP             1 S1                 0.0000
     61 ****         4.7165  -1.9982  -1.9918 LP             1 S1                 0.0000
     62 ****         1.7033  -4.9093  -2.3633 LP             1 S1                 0.0000
@<TRIPOS>BOND
    1    1    2 1     
    2    1   26 1     
    3    1   27 1     
    4    1   28 1     
    5    2   24 ar    
    6    2    3 ar    
    7    3    4 ar    
    8    3   29 1     
    9    4   22 ar    
   10    4    5 1     
   11    5    6 2     
   12    6    7 1     
   13    6   30 1     
   14    7    8 1     
   15    7   22 1     
   16    8    9 1     
   17    8   31 1     
   18    8   32 1     
   19    9   10 1     
   20    9   11 1     
   21    9   33 1     
   22   10   34 1     
   23   11   12 1     
   24   11   35 1     
   25   11   36 1     
   26   12   21 1     
   27   12   13 1     
   28   13   14 1     
   29   13   37 1     
   30   13   38 1     
   31   14   15 1     
   32   14   39 1     
   33   14   40 1     
   34   15   16 1     
   35   16   17 1     
   36   16   21 1     
   37   16   41 1     
   38   17   18 1     
   39   17   42 1     
   40   17   43 1     
   41   18   19 1     
   42   18   20 1     
   43   19   44 1     
   44   19   45 1     
   45   19   46 1     
   46   20   47 1     
   47   20   48 1     
   48   20   49 1     
   49   21   50 1     
   50   21   51 1     
   51   22   23 ar    
   52   23   24 ar    
   53   23   52 1     
   54   24   25 1     
   55   25   53 1     
   56   25   54 1     
   57   25   55 1     
   58    5   56 1     
   59   10   57 1     
   60   10   58 1     
   61   12   59 1     
   62   15   60 1     
   63   15   61 1     
   64   18   62 1     
@<TRIPOS>SUBSTRUCTURE
      1 S1             1
@<TRIPOS>SET
LONE_PAIRS      STATIC     ATOMS    <user>   **** ""
7 56 57 58 59 60 61 62
DONOR_HYDROGENS      STATIC     ATOMS    <user>   **** ""
1 34
ATOM$BLUE        STATIC     ATOMS    COLORGROUP SYSTEM
7 56 57 58 59 60 61 62
ATOM$RED        STATIC     ATOMS    COLORGROUP SYSTEM
1 34
