AV-unprocessed.smi:2855|AV-procd|sdf|10979|dock5
  -GOLD-   2272015433D 1   1.00000     0.00000
 Structure written by MMmdl.
 47 48  0  0  0  0  0  0  0  0  1 V2000
  150.2353  139.3997  157.7629 C   0  0  0  0  0  0  0  0  0  0  0  0
  150.0712  140.5339  156.7354 C   0  0  2  0  0  0  0  0  0  0  0  0
  151.3913  141.2736  156.4514 C   0  0  0  0  0  0  0  0  0  0  0  0
  151.8167  142.1845  157.6151 C   0  0  0  0  0  0  0  0  0  0  0  0
  150.7135  143.2033  157.9875 C   0  0  2  0  0  0  0  0  0  0  0  0
  151.1456  144.2024  159.1038 C   0  0  0  0  0  0  0  0  0  0  0  0
  152.1521  145.2501  158.5980 C   0  0  0  0  0  0  0  0  0  0  0  0
  151.6605  143.5277  160.3886 C   0  0  0  0  0  0  0  0  0  0  0  0
  149.3842  142.4600  158.2920 C   0  0  1  0  0  0  0  0  0  0  0  0
  148.3110  143.4165  158.5518 N   0  0  0  0  0  0  0  0  0  0  0  0
  147.0905  143.1152  159.0199 C   0  0  0  0  0  0  0  0  0  0  0  0
  146.7095  141.9629  159.2292 O   0  0  0  0  0  0  0  0  0  0  0  0
  146.1546  144.3040  159.2758 C   0  0  0  0  0  0  0  0  0  0  0  0
  144.9523  143.9248  160.0315 N   0  0  0  0  0  0  0  0  0  0  0  0
  144.9896  143.8409  161.4162 C   0  0  0  0  0  0  0  0  0  0  0  0
  143.9174  143.5037  162.1716 C   0  0  0  0  0  0  0  0  0  0  0  0
  142.6351  143.2053  161.5428 C   0  0  0  0  0  0  0  0  0  0  0  0
  141.6087  142.8892  162.1403 O   0  0  0  0  0  0  0  0  0  0  0  0
  142.6371  143.3033  160.1491 N   0  0  0  0  0  0  0  0  0  0  0  0
  143.7378  143.6510  159.3644 C   0  0  0  0  0  0  0  0  0  0  0  0
  143.6303  143.7114  158.1397 O   0  0  0  0  0  0  0  0  0  0  0  0
  148.9695  141.5368  157.1269 C   0  0  0  0  0  0  0  0  0  0  0  0
  141.7700  143.1088  159.6698 H   0  0  0  0  0  0  0  0  0  0  0  0
  150.5504  139.7688  158.7384 H   0  0  0  0  0  0  0  0  0  0  0  0
  150.9800  138.6767  157.4295 H   0  0  0  0  0  0  0  0  0  0  0  0
  149.2978  138.8612  157.9028 H   0  0  0  0  0  0  0  0  0  0  0  0
  149.7598  140.0581  155.8047 H   0  0  0  0  0  0  0  0  0  0  0  0
  152.1836  140.5579  156.2294 H   0  0  0  0  0  0  0  0  0  0  0  0
  151.2741  141.8810  155.5529 H   0  0  0  0  0  0  0  0  0  0  0  0
  152.0722  141.5711  158.4786 H   0  0  0  0  0  0  0  0  0  0  0  0
  152.7319  142.7009  157.3281 H   0  0  0  0  0  0  0  0  0  0  0  0
  150.5324  143.8042  157.0944 H   0  0  0  0  0  0  0  0  0  0  0  0
  150.2639  144.7754  159.3911 H   0  0  0  0  0  0  0  0  0  0  0  0
  153.1244  144.8092  158.3795 H   0  0  0  0  0  0  0  0  0  0  0  0
  152.3109  146.0278  159.3455 H   0  0  0  0  0  0  0  0  0  0  0  0
  151.7928  145.7388  157.6921 H   0  0  0  0  0  0  0  0  0  0  0  0
  152.5680  142.9519  160.2089 H   0  0  0  0  0  0  0  0  0  0  0  0
  150.9166  142.8594  160.8215 H   0  0  0  0  0  0  0  0  0  0  0  0
  151.8951  144.2741  161.1480 H   0  0  0  0  0  0  0  0  0  0  0  0
  149.5355  141.8398  159.1759 H   0  0  0  0  0  0  0  0  0  0  0  0
  148.5285  144.3906  158.3999 H   0  0  0  0  0  0  0  0  0  0  0  0
  146.6879  145.0971  159.8045 H   0  0  0  0  0  0  0  0  0  0  0  0
  145.8824  144.7322  158.3101 H   0  0  0  0  0  0  0  0  0  0  0  0
  145.9175  144.0578  161.9261 H   0  0  0  0  0  0  0  0  0  0  0  0
  144.0088  143.4556  163.2472 H   0  0  0  0  0  0  0  0  0  0  0  0
  148.7269  142.1484  156.2564 H   0  0  0  0  0  0  0  0  0  0  0  0
  148.0544  140.9998  157.3803 H   0  0  0  0  0  0  0  0  0  0  0  0
  1  2  1  0  0  0  0
  1 24  1  0  0  0  0
  1 25  1  0  0  0  0
  1 26  1  0  0  0  0
  2 22  1  0  0  0  0
  2  3  1  0  0  0  0
  2 27  1  0  0  0  0
  3  4  1  0  0  0  0
  3 28  1  0  0  0  0
  3 29  1  0  0  0  0
  4  5  1  0  0  0  0
  4 30  1  0  0  0  0
  4 31  1  0  0  0  0
  5  6  1  0  0  0  0
  5  9  1  0  0  0  0
  5 32  1  0  0  0  0
  6  7  1  0  0  0  0
  6  8  1  0  0  0  0
  6 33  1  0  0  0  0
  7 34  1  0  0  0  0
  7 35  1  0  0  0  0
  7 36  1  0  0  0  0
  8 37  1  0  0  0  0
  8 38  1  0  0  0  0
  8 39  1  0  0  0  0
  9 10  1  0  0  0  0
  9 22  1  0  0  0  0
  9 40  1  0  0  0  0
 10 11  1  0  0  0  0
 10 41  1  0  0  0  0
 11 12  2  0  0  0  0
 11 13  1  0  0  0  0
 13 14  1  0  0  0  0
 13 42  1  0  0  0  0
 13 43  1  0  0  0  0
 14 20  1  0  0  0  0
 14 15  1  0  0  0  0
 15 16  2  0  0  0  0
 15 44  1  0  0  0  0
 16 17  1  0  0  0  0
 16 45  1  0  0  0  0
 17 18  2  0  0  0  0
 17 19  1  0  0  0  0
 19 23  1  0  0  0  0
 19 20  1  0  0  0  0
 20 21  2  0  0  0  0
 22 46  1  0  0  0  0
 22 47  1  0  0  0  0
M  END
> <s_m_source_file>
AV-unprocessed.smi

> <i_m_source_file_index>
2855

> <i_lp_mmshare_version>
43012

> <i_f3d_flags>
0

> <s_epik_input>
W0NIM11bQ0BASF0xW0NIMl1bQ0gyXVtDQEBIXShbQ0hdKFtDSDNdKVtDSDNdKVtDQEhdKFtDSDJdMSlbTkhdQyg9TylbQ0gyXW4yW2NIXVtjSF1jKD1PKVtuSF1jMj1P

> <s_epik_cmdline>
J2VwaWtfcHl0aG9uJywgJy1waCcsICc3LjAnLCAnLXRuJywgJzgnLCAnLW1hJywgJzIwMCcsICctbWV0YWxfYmluZGluZycsICctaW1hZScsICc8aW5maWxlLm1hZT4nLCAnLW9tYWUnLCAnPG91dGZpbGUubWFlPic=

> <r_lp_tautomer_probability>
0.999537

> <r_epik_Ionization_Penalty>
0.00306256

> <r_epik_Ionization_Penalty_Charging>
0.00306254

> <r_epik_Ionization_Penalty_Neutral>
2.0223e-08

> <r_epik_State_Penalty>
0.0021533

> <r_epik_Charging_Adjusted_Penalty>
0.00521583

> <i_epik_Tot_Q>
0

> <i_epik_Tot_abs_Q>
0

> <r_epik_Metal_State_Penalty>
0.362116

> <b_epik_Metal_Only>
0

> <s_lp_Force_Field>
OPLS_2005

> <r_lp_Energy>
15.7359

> <b_lp_Chiralities_Consistent>
1

> <s_lp_Variant>
AV-unprocessed.smi:2855-3

> <Gold.Version>
5.8.1

> <Gold.Id.Protein>
6NUR|6NUR_protein|mol2

> <Gold.PLP.Fitness>
36.3318

> <Gold.PLP.PLP>
-32.8067

> <Gold.PLP.part.hbond>
-3.6036

> <Gold.PLP.part.metal>
0.0000

> <Gold.PLP.part.buried>
-5.3914

> <Gold.PLP.part.nonpolar>
-23.1244

> <Gold.PLP.part.repulsive>
0.1752

> <Gold.PLP.ligand.clash>
0.0000

> <Gold.PLP.ligand.torsion>
0.6931

> <Gold.PLP.Chemscore.Hbond>
1.6160

> <Gold.PLP.Chemscore.CHOScore>
0.0000

> <Gold.PLP.Chemscore.Metal>
0.0000

> <Gold.Chemscore.Hbonds>
donor molecule, donor type, donor heavy atom, donor atom, acceptor molecule, acceptor atom, score
      L1  H    10    41       P1  8029  0.78
      P1  H  6934  6946       L1    12  0.83

> <Gold.PLP.Chemscore.Internal.Correction>
0.0634

> <Gold.Rescore>
     Score         DG    S(hbond)    S(metal)    S(lipo)     H(rot)  DE(clash)    DE(int)     intcor
     14.80     -15.32       1.36        0.00      85.82       1.85       0.08       0.45       ----

> <Gold.Chemscore.Fitness>
14.7974

> <Gold.Chemscore.DG>
-15.3235

> <Gold.Chemscore.ZeroCoef>
-5.4800

> <Gold.Chemscore.Hbond>
1.3617

> <Gold.Chemscore.Metal>
0.0000

> <Gold.Chemscore.Lipo>
85.8233

> <Gold.Chemscore.Internal_Hbond>
0.0000

> <Gold.Chemscore.DEClash>
0.0783

> <Gold.Chemscore.DEInternal>
0.4478

> <Gold.Chemscore.Rot>
1.8539

> <Gold.Chemscore.Internal.Correction>
   9.000000E+99

> <Gold.Chemscore.Hbonds>
donor molecule, donor type, donor heavy atom, donor atom, acceptor molecule, acceptor atom, score
      L1  H    10    41       P1  8029  0.44
      P1  H  6934  6946       L1    12  0.81

> <Gold.Chemscore.Hbond.Weighted>
-4.5482

> <Gold.Chemscore.Metal.Weighted>
-0.0000

> <Gold.Chemscore.Lipo.Weighted>
-10.0413

> <Gold.Chemscore.Internal_Hbond.Weighted>
0.0000

> <Gold.Chemscore.DEClash.Weighted>
0.0783

> <Gold.Chemscore.DEInternal.Weighted>
0.4478

> <Gold.Chemscore.Rot.Weighted>
4.7460

> <Gold.Chemscore.Internal.Correction.Weighted>
   9.000000E+99

> <Gold.Protein.RotatedTorsions>
[ 6907 6896 6895 6894 ] final   45.99 input  -60.11 | X-H torsion
[ 7974 7965 7964 7962 ] final  108.57 input  175.53 | X-H torsion
[ 8008 7997 7996 7995 ] final  173.71 input   59.86 | X-H torsion
[ 10167 10162 10161 10158 ] final  -28.74 input  -65.29 | X-H torsion
[ 10718 10713 10712 10709 ] final   42.00 input   66.30 | X-H torsion
[ 10763 10752 10751 10750 ] final  -33.61 input  -60.55 | X-H torsion
[ 11005 11000 10999 10996 ] final  103.62 input  -57.11 | X-H torsion

> <Gold.Protein.ActiveResidues>
 VAL166  LYS551  ARG553  GLY616  TRP617  ASP618  TYR619  PRO620  LYS621  CYS622 
 ASP623  PHE694  ASN695  SER759  ASP760  ASP761  ALA762  ILE779  LEU786  VAL792 
 PHE793  MET794  SER795  GLU796  ALA797  LYS798  CYS799  TRP800  GLU811  SER814 

> <Gold.Protein.RotatedAtoms>
  152.2512  134.8131  160.0445 H   0  0  0  0  0  0  0  0  0  0  0  0  # atno 6907 bound_to 6896
  151.8811  133.3490  159.3775 H   0  0  0  0  0  0  0  0  0  0  0  0  # atno 6908 bound_to 6896
  150.7084  134.4944  159.5575 H   0  0  0  0  0  0  0  0  0  0  0  0  # atno 6909 bound_to 6896
  145.2790  139.2639  143.3925 H   0  0  0  0  0  0  0  0  0  0  0  0  # atno 7974 bound_to 7965
  156.1048  140.1453  156.9419 H   0  0  0  0  0  0  0  0  0  0  0  0  # atno 8008 bound_to 7997
  154.4726  140.0905  156.7228 H   0  0  0  0  0  0  0  0  0  0  0  0  # atno 8009 bound_to 7997
  155.4698  140.3441  155.4326 H   0  0  0  0  0  0  0  0  0  0  0  0  # atno 8010 bound_to 7997
  140.7267  143.3985  151.1305 H   0  0  0  0  0  0  0  0  0  0  0  0  # atno 10167 bound_to 10162
  157.3999  130.7854  149.7340 H   0  0  0  0  0  0  0  0  0  0  0  0  # atno 10718 bound_to 10713
  153.8330  135.6864  153.4812 H   0  0  0  0  0  0  0  0  0  0  0  0  # atno 10763 bound_to 10752
  153.1499  135.4622  154.9620 H   0  0  0  0  0  0  0  0  0  0  0  0  # atno 10764 bound_to 10752
  154.7878  135.3291  154.7791 H   0  0  0  0  0  0  0  0  0  0  0  0  # atno 10765 bound_to 10752
  139.8785  134.9270  156.5237 H   0  0  0  0  0  0  0  0  0  0  0  0  # atno 11005 bound_to 11000
  146.3222  140.3253  142.8636 LP  0  0  0  0  0  0  0  0  0  0  0  0  # atno 17320 bound_to 7965
  144.9269  140.7932  143.5713 LP  0  0  0  0  0  0  0  0  0  0  0  0  # atno 17321 bound_to 7965
  139.7601  143.8648  152.3098 LP  0  0  0  0  0  0  0  0  0  0  0  0  # atno 17342 bound_to 10162
  139.8531  144.7155  150.9190 LP  0  0  0  0  0  0  0  0  0  0  0  0  # atno 17343 bound_to 10162
  155.9820  130.4013  150.3438 LP  0  0  0  0  0  0  0  0  0  0  0  0  # atno 17370 bound_to 10713
  157.1565  131.0334  151.2861 LP  0  0  0  0  0  0  0  0  0  0  0  0  # atno 17371 bound_to 10713
  140.8431  133.8189  155.9095 LP  0  0  0  0  0  0  0  0  0  0  0  0  # atno 17394 bound_to 11000
  140.9217  134.2133  157.4922 LP  0  0  0  0  0  0  0  0  0  0  0  0  # atno 17395 bound_to 11000

$$$$
