#       Name:                AV-unprocessed.smi:1340
#       Creating user name   scv26
#       Creation time:       Fri Mar 27 05:08:32 2020


#       File generated by GOLD software.
#

@<TRIPOS>MOLECULE
AV-unprocessed.smi:1340
    45    46     1
SMALL
NO_CHARGES


@<TRIPOS>ATOM
      1 ****        -2.2051  -1.4923   1.2782 C.3            1 S1                 0.0000
      2 ****        -1.9187  -0.1243   0.6498 C.3            1 S1                 0.0000
      3 ****        -2.5187   0.0182  -0.7615 C.3            1 S1                 0.0000
      4 ****        -2.2402   1.3837  -1.4212 C.3            1 S1                 0.0000
      5 ****        -2.9342   1.5122  -2.7855 C.3            1 S1                 0.0000
      6 ****        -0.8010   1.5703  -1.5746 N.am           1 S1                 0.0000
      7 ****        -0.1361   2.7311  -1.4612 C.2            1 S1                 0.0000
      8 ****        -0.6880   3.8220  -1.3190 O.2            1 S1                 0.0000
      9 ****         1.3920   2.6390  -1.4926 C.3            1 S1                 0.0000
     10 ****         1.8879   1.9649  -0.2442 C.2            1 S1                 0.0000
     11 ****         2.3685   2.5753   0.8887 C.2            1 S1                 0.0000
     12 ****         2.7731   1.4216   2.1311 S.3            1 S1                 0.0000
     13 ****         2.2684   0.1247   1.0443 C.2            1 S1                 0.0000
     14 ****         2.2383  -1.2698   1.3410 N.am           1 S1                 0.0000
     15 ****         1.7391  -2.2474   0.3788 C.3            1 S1                 0.0000
     16 ****         1.8248  -3.5738   1.1270 C.3            1 S1                 0.0000
     17 ****         2.3765  -3.1697   2.3989 N.am           1 S1                 0.0000
     18 ****         2.6024  -1.8578   2.4977 C.2            1 S1                 0.0000
     19 ****         3.0708  -1.3138   3.4958 O.2            1 S1                 0.0000
     20 ****         1.8658   0.5687  -0.1501 N.2            1 S1                 0.0000
     21 ****        -1.7617  -1.5627   2.2718 H              1 S1                 0.0000
     22 ****        -1.7901  -2.2986   0.6728 H              1 S1                 0.0000
     23 ****        -3.2771  -1.6638   1.3781 H              1 S1                 0.0000
     24 ****        -2.3149   0.6597   1.2960 H              1 S1                 0.0000
     25 ****        -0.8396   0.0227   0.6181 H              1 S1                 0.0000
     26 ****        -2.1339  -0.7790  -1.3993 H              1 S1                 0.0000
     27 ****        -3.5968  -0.1359  -0.7023 H              1 S1                 0.0000
     28 ****        -2.6367   2.1594  -0.7632 H              1 S1                 0.0000
     29 ****        -4.0131   1.3895  -2.6888 H              1 S1                 0.0000
     30 ****        -2.5749   0.7585  -3.4869 H              1 S1                 0.0000
     31 ****        -2.7547   2.4927  -3.2281 H              1 S1                 0.0000
     32 ****        -0.2512   0.7318  -1.6960 H              1 S1                 0.0000
     33 ****         1.7017   2.0887  -2.3820 H              1 S1                 0.0000
     34 ****         1.8147   3.6404  -1.5846 H              1 S1                 0.0000
     35 ****         2.4903   3.6323   1.0743 H              1 S1                 0.0000
     36 ****         0.7126  -2.0190   0.0887 H              1 S1                 0.0000
     37 ****         2.3609  -2.2548  -0.5177 H              1 S1                 0.0000
     38 ****         0.8440  -4.0314   1.2629 H              1 S1                 0.0000
     39 ****         2.4848  -4.2848   0.6286 H              1 S1                 0.0000
     40 ****         2.5707  -3.8297   3.1381 H              1 S1                 0.0000
     41 ****        -1.6859   3.8766  -1.2826 LP             1 S1                 0.0000
     42 ****        -0.1386   4.6538  -1.2400 LP             1 S1                 0.0000
     43 ****         3.2187  -0.3248   3.5032 LP             1 S1                 0.0000
     44 ****         3.3038  -1.8603   4.3001 LP             1 S1                 0.0000
     45 ****         1.5795  -0.0321  -0.8965 LP             1 S1                 0.0000
@<TRIPOS>BOND
    1    1    2 1     
    2    1   21 1     
    3    1   22 1     
    4    1   23 1     
    5    2    3 1     
    6    2   24 1     
    7    2   25 1     
    8    3    4 1     
    9    3   26 1     
   10    3   27 1     
   11    4    5 1     
   12    4    6 1     
   13    4   28 1     
   14    5   29 1     
   15    5   30 1     
   16    5   31 1     
   17    6    7 am    
   18    6   32 1     
   19    7    8 2     
   20    7    9 1     
   21    9   10 1     
   22    9   33 1     
   23    9   34 1     
   24   10   20 1     
   25   10   11 2     
   26   11   12 1     
   27   11   35 1     
   28   12   13 1     
   29   13   14 1     
   30   13   20 2     
   31   14   18 am    
   32   14   15 1     
   33   15   16 1     
   34   15   36 1     
   35   15   37 1     
   36   16   17 1     
   37   16   38 1     
   38   16   39 1     
   39   17   18 am    
   40   17   40 1     
   41   18   19 2     
   42    8   41 1     
   43    8   42 1     
   44   19   43 1     
   45   19   44 1     
   46   20   45 1     
@<TRIPOS>SUBSTRUCTURE
      1 S1             1
@<TRIPOS>SET
LONE_PAIRS      STATIC     ATOMS    <user>   **** ""
5 41 42 43 44 45
DONOR_HYDROGENS      STATIC     ATOMS    <user>   **** ""
2 32 40
ATOM$BLUE        STATIC     ATOMS    COLORGROUP SYSTEM
5 41 42 43 44 45
ATOM$RED        STATIC     ATOMS    COLORGROUP SYSTEM
2 32 40
