AV-unprocessed.smi:1757|AV-procd|sdf|7078|dock8
  -GOLD-   22720 8303D 1   1.00000     0.00000
 Structure written by MMmdl.
 39 40  0  0  0  0  0  0  0  0  3 V2000
  144.2327  143.2063  154.6869 C   0  0  0  0  0  0  0  0  0  0  0  0
  145.3159  142.2037  154.5952 N   0  3  2  0  0  0  0  0  0  0  0  0
  145.7155  141.6806  155.9255 C   0  0  0  0  0  0  0  0  0  0  0  0
  146.7530  140.5503  155.7902 C   0  0  0  0  0  0  0  0  0  0  0  0
  147.9835  140.9900  154.9767 C   0  0  2  0  0  0  0  0  0  0  0  0
  148.7940  141.9326  155.7468 N   0  0  0  0  0  0  0  0  0  0  0  0
  149.6749  141.6007  156.7020 C   0  0  0  0  0  0  0  0  0  0  0  0
  149.9013  140.4371  157.0319 O   0  0  0  0  0  0  0  0  0  0  0  0
  150.2660  142.6985  157.2069 N   0  0  0  0  0  0  0  0  0  0  0  0
  151.2374  142.8076  158.2167 C   0  0  0  0  0  0  0  0  0  0  0  0
  151.9910  141.7762  158.6892 C   0  0  0  0  0  0  0  0  0  0  0  0
  152.9772  141.9522  159.7481 C   0  0  0  0  0  0  0  0  0  0  0  0
  153.9039  140.8497  160.2289 C   0  0  0  0  0  0  0  0  0  0  0  0
  153.5317  139.6654  159.7429 F   0  0  0  0  0  0  0  0  0  0  0  0
  155.1485  141.0931  159.8211 F   0  0  0  0  0  0  0  0  0  0  0  0
  153.9091  140.7753  161.5599 F   0  0  0  0  0  0  0  0  0  0  0  0
  153.0475  143.2599  160.1875 C   0  0  0  0  0  0  0  0  0  0  0  0
  152.3214  144.3294  159.7947 N   0  5  0  0  0  0  0  0  0  0  0  0
  151.4028  144.1539  158.8034 C   0  0  0  0  0  0  0  0  0  0  0  0
  150.7132  145.0874  158.3907 O   0  0  0  0  0  0  0  0  0  0  0  0
  147.5291  141.5898  153.6299 C   0  0  0  0  0  0  0  0  0  0  0  0
  146.4796  142.6992  153.8191 C   0  0  0  0  0  0  0  0  0  0  0  0
  144.5629  144.0902  155.2343 H   0  0  0  0  0  0  0  0  0  0  0  0
  143.3650  142.7896  155.1994 H   0  0  0  0  0  0  0  0  0  0  0  0
  143.9124  143.5190  153.6924 H   0  0  0  0  0  0  0  0  0  0  0  0
  146.1166  142.4937  156.5329 H   0  0  0  0  0  0  0  0  0  0  0  0
  144.8356  141.3023  156.4473 H   0  0  0  0  0  0  0  0  0  0  0  0
  147.0567  140.1994  156.7774 H   0  0  0  0  0  0  0  0  0  0  0  0
  146.2855  139.6967  155.2970 H   0  0  0  0  0  0  0  0  0  0  0  0
  148.5940  140.1063  154.7813 H   0  0  0  0  0  0  0  0  0  0  0  0
  148.6701  142.9139  155.5443 H   0  0  0  0  0  0  0  0  0  0  0  0
  150.0115  143.5800  156.7857 H   0  0  0  0  0  0  0  0  0  0  0  0
  151.8687  140.7777  158.3039 H   0  0  0  0  0  0  0  0  0  0  0  0
  153.8056  143.4807  160.9689 H   0  0  0  0  0  0  0  0  0  0  0  0
  148.3824  141.9744  153.0702 H   0  0  0  0  0  0  0  0  0  0  0  0
  147.1011  140.7977  153.0144 H   0  0  0  0  0  0  0  0  0  0  0  0
  146.1442  143.0500  152.8423 H   0  0  0  0  0  0  0  0  0  0  0  0
  146.9219  143.5577  154.3274 H   0  0  0  0  0  0  0  0  0  0  0  0
  144.9383  141.4213  154.0797 H   0  0  0  0  0  0  0  0  0  0  0  0
  1  2  1  0  0  0  0
  1 23  1  0  0  0  0
  1 24  1  0  0  0  0
  1 25  1  0  0  0  0
  2 22  1  0  0  0  0
  2  3  1  0  0  0  0
  2 39  1  0  0  0  0
  3  4  1  0  0  0  0
  3 26  1  0  0  0  0
  3 27  1  0  0  0  0
  4  5  1  0  0  0  0
  4 28  1  0  0  0  0
  4 29  1  0  0  0  0
  5  6  1  0  0  0  0
  5 21  1  0  0  0  0
  5 30  1  0  0  0  0
  6  7  1  0  0  0  0
  6 31  1  0  0  0  0
  7  8  2  0  0  0  0
  7  9  1  0  0  0  0
  9 10  1  0  0  0  0
  9 32  1  0  0  0  0
 10 19  1  0  0  0  0
 10 11  2  0  0  0  0
 11 12  1  0  0  0  0
 11 33  1  0  0  0  0
 12 13  1  0  0  0  0
 12 17  2  0  0  0  0
 13 14  1  0  0  0  0
 13 15  1  0  0  0  0
 13 16  1  0  0  0  0
 17 18  1  0  0  0  0
 17 34  1  0  0  0  0
 18 19  1  0  0  0  0
 19 20  2  0  0  0  0
 21 22  1  0  0  0  0
 21 35  1  0  0  0  0
 21 36  1  0  0  0  0
 22 37  1  0  0  0  0
 22 38  1  0  0  0  0
M  CHG  1   2   1
M  CHG  1  18  -1
M  END
> <s_m_source_file>
AV-unprocessed.smi

> <i_m_source_file_index>
1757

> <i_lp_mmshare_version>
43012

> <i_f3d_flags>
0

> <s_epik_input>
W0NIM11OMVtDSDJdW0NIMl1bQ0hdKFtDSDJdW0NIMl0xKVtOSF1DKD1PKVtOSF1jMltjSF1jKEMoRikoRilGKVtjSF1bbkhdYzI9Tw==

> <s_epik_cmdline>
J2VwaWtfcHl0aG9uJywgJy1waCcsICc3LjAnLCAnLXRuJywgJzgnLCAnLW1hJywgJzIwMCcsICctbWV0YWxfYmluZGluZycsICctaW1hZScsICc8aW5maWxlLm1hZT4nLCAnLW9tYWUnLCAnPG91dGZpbGUubWFlPic=

> <r_lp_tautomer_probability>
1

> <r_epik_Ionization_Penalty>
3.04759

> <r_epik_Ionization_Penalty_Charging>
0.155898

> <r_epik_Ionization_Penalty_Neutral>
2.89169

> <r_epik_State_Penalty>
2.88714

> <r_epik_Charging_Adjusted_Penalty>
3.04304

> <i_epik_Tot_Q>
0

> <i_epik_Tot_abs_Q>
2

> <r_epik_Metal_State_Penalty>
0.445786

> <b_epik_Metal_Only>
1

> <s_lp_Force_Field>
OPLS_2005

> <r_lp_Energy>
26.2534

> <b_lp_Chiralities_Consistent>
1

> <s_lp_Variant>
AV-unprocessed.smi:1757-4

> <Gold.Version>
5.8.1

> <Gold.Id.Protein>
6NUR|6NUR_protein|mol2

> <Gold.PLP.Fitness>
47.9078

> <Gold.PLP.PLP>
-39.9829

> <Gold.PLP.part.hbond>
-2.5775

> <Gold.PLP.part.metal>
0.0000

> <Gold.PLP.part.buried>
-6.7915

> <Gold.PLP.part.nonpolar>
-30.9675

> <Gold.PLP.part.repulsive>
0.3557

> <Gold.PLP.ligand.clash>
0.0000

> <Gold.PLP.ligand.torsion>
0.6237

> <Gold.PLP.Chemscore.Hbond>
3.0400

> <Gold.PLP.Chemscore.CHOScore>
0.0000

> <Gold.PLP.Chemscore.Metal>
0.0000

> <Gold.Chemscore.Hbonds>
donor molecule, donor type, donor heavy atom, donor atom, acceptor molecule, acceptor atom, score
      L1  H     2    39       P1 10175  1.04
      L1  H     6    31       P1  8028  1.00
      L1  H     9    32       P1  8028  1.00

> <Gold.PLP.Chemscore.Internal.Correction>
0.0524

> <Gold.Rescore>
     Score         DG    S(hbond)    S(metal)    S(lipo)     H(rot)  DE(clash)    DE(int)     intcor
     18.34     -20.08       2.50        0.00      75.20       1.00       0.22       1.52       ----

> <Gold.Chemscore.Fitness>
18.3446

> <Gold.Chemscore.DG>
-20.0780

> <Gold.Chemscore.ZeroCoef>
-5.4800

> <Gold.Chemscore.Hbond>
2.5030

> <Gold.Chemscore.Metal>
0.0000

> <Gold.Chemscore.Lipo>
75.1961

> <Gold.Chemscore.Internal_Hbond>
0.0000

> <Gold.Chemscore.DEClash>
0.2172

> <Gold.Chemscore.DEInternal>
1.5162

> <Gold.Chemscore.Rot>
1.0000

> <Gold.Chemscore.Internal.Correction>
   9.000000E+99

> <Gold.Chemscore.Hbonds>
donor molecule, donor type, donor heavy atom, donor atom, acceptor molecule, acceptor atom, score
      L1  H     2    39       P1 10175  0.23
      L1  H     6    31       P1  8028  1.00
      L1  H     9    32       P1  8028  0.96

> <Gold.Chemscore.Hbond.Weighted>
-8.3601

> <Gold.Chemscore.Metal.Weighted>
-0.0000

> <Gold.Chemscore.Lipo.Weighted>
-8.7979

> <Gold.Chemscore.Internal_Hbond.Weighted>
0.0000

> <Gold.Chemscore.DEClash.Weighted>
0.2172

> <Gold.Chemscore.DEInternal.Weighted>
1.5162

> <Gold.Chemscore.Rot.Weighted>
2.5600

> <Gold.Chemscore.Internal.Correction.Weighted>
   9.000000E+99

> <Gold.Protein.RotatedTorsions>
[ 6907 6896 6895 6894 ] final  -53.24 input  -60.11 | X-H torsion
[ 7974 7965 7964 7962 ] final  -76.37 input  175.53 | X-H torsion
[ 8008 7997 7996 7995 ] final -162.48 input   59.86 | X-H torsion
[ 10167 10162 10161 10158 ] final  168.93 input  -65.29 | X-H torsion
[ 10718 10713 10712 10709 ] final  161.55 input   66.30 | X-H torsion
[ 10763 10752 10751 10750 ] final  -61.10 input  -60.55 | X-H torsion
[ 11005 11000 10999 10996 ] final  -92.13 input  -57.11 | X-H torsion

> <Gold.Protein.ActiveResidues>
 VAL166  LYS551  ARG553  GLY616  TRP617  ASP618  TYR619  PRO620  LYS621  CYS622 
 ASP623  PHE694  ASN695  SER759  ASP760  ASP761  ALA762  ILE779  LEU786  VAL792 
 PHE793  MET794  SER795  GLU796  ALA797  LYS798  CYS799  TRP800  GLU811  SER814 

> <Gold.Protein.RotatedAtoms>
  150.8445  134.7748  159.6958 H   0  0  0  0  0  0  0  0  0  0  0  0  # atno 6907 bound_to 6896
  152.4525  134.5360  159.9835 H   0  0  0  0  0  0  0  0  0  0  0  0  # atno 6908 bound_to 6896
  151.5493  133.3382  159.2986 H   0  0  0  0  0  0  0  0  0  0  0  0  # atno 6909 bound_to 6896
  145.6138  140.9380  143.1175 H   0  0  0  0  0  0  0  0  0  0  0  0  # atno 7974 bound_to 7965
  155.8074  140.0900  157.1923 H   0  0  0  0  0  0  0  0  0  0  0  0  # atno 8008 bound_to 7997
  154.3980  140.1461  156.3406 H   0  0  0  0  0  0  0  0  0  0  0  0  # atno 8009 bound_to 7997
  155.8400  140.3439  155.5628 H   0  0  0  0  0  0  0  0  0  0  0  0  # atno 8010 bound_to 7997
  139.4979  144.3762  151.9672 H   0  0  0  0  0  0  0  0  0  0  0  0  # atno 10167 bound_to 10162
  157.1349  131.0526  151.2354 H   0  0  0  0  0  0  0  0  0  0  0  0  # atno 10718 bound_to 10713
  154.2795  135.6275  153.5341 H   0  0  0  0  0  0  0  0  0  0  0  0  # atno 10763 bound_to 10752
  152.9868  135.5629  154.5511 H   0  0  0  0  0  0  0  0  0  0  0  0  # atno 10764 bound_to 10752
  154.5099  135.2876  155.1327 H   0  0  0  0  0  0  0  0  0  0  0  0  # atno 10765 bound_to 10752
  141.1529  133.7801  156.9977 H   0  0  0  0  0  0  0  0  0  0  0  0  # atno 11005 bound_to 11000
  144.7259  139.7878  143.7365 LP  0  0  0  0  0  0  0  0  0  0  0  0  # atno 17320 bound_to 7965
  146.1484  139.4560  143.0064 LP  0  0  0  0  0  0  0  0  0  0  0  0  # atno 17321 bound_to 7965
  140.3198  144.3441  150.6012 LP  0  0  0  0  0  0  0  0  0  0  0  0  # atno 17342 bound_to 10162
  140.5732  143.2179  151.7562 LP  0  0  0  0  0  0  0  0  0  0  0  0  # atno 17343 bound_to 10162
  157.4359  130.7516  149.7028 LP  0  0  0  0  0  0  0  0  0  0  0  0  # atno 17370 bound_to 10713
  155.9800  130.4034  150.3553 LP  0  0  0  0  0  0  0  0  0  0  0  0  # atno 17371 bound_to 10713
  140.0961  134.9563  157.1851 LP  0  0  0  0  0  0  0  0  0  0  0  0  # atno 17394 bound_to 11000
  140.3381  134.2735  155.7216 LP  0  0  0  0  0  0  0  0  0  0  0  0  # atno 17395 bound_to 11000

$$$$
