AV-unprocessed.smi:3163|AV-procd|sdf|12077|dock5
  -GOLD-   2272017503D 1   1.00000     0.00000
 Structure written by MMmdl.
 37 38  0  0  0  0  0  0  0  0  3 V2000
  143.7906  132.8084  149.0315 C   0  0  0  0  0  0  0  0  0  0  0  0
  144.5815  132.8207  150.2801 N   0  3  1  0  0  0  0  0  0  0  0  0
  146.0452  132.8281  150.0698 C   0  0  0  0  0  0  0  0  0  0  0  0
  146.6209  133.6101  151.2478 C   0  0  0  0  0  0  0  0  0  0  0  0
  145.5597  134.6807  151.4880 C   0  0  2  0  0  0  0  0  0  0  0  0
  145.6505  135.3475  152.8742 C   0  0  0  0  0  0  0  0  0  0  0  0
  146.6907  136.3710  152.9267 N   0  0  0  0  0  0  0  0  0  0  0  0
  146.5730  137.5747  153.5061 C   0  0  0  0  0  0  0  0  0  0  0  0
  145.5394  137.9695  154.0446 O   0  0  0  0  0  0  0  0  0  0  0  0
  147.7114  138.2815  153.3967 N   0  0  0  0  0  0  0  0  0  0  0  0
  147.9949  139.5887  153.8796 C   0  0  0  0  0  0  0  0  0  0  0  0
  149.2751  139.8169  154.4320 C   0  0  0  0  0  0  0  0  0  0  0  0
  149.5987  141.0929  154.9365 C   0  0  0  0  0  0  0  0  0  0  0  0
  148.6820  142.0833  154.8979 N   0  3  0  0  0  0  0  0  0  0  0  0
  147.4413  141.9101  154.3939 C   0  0  0  0  0  0  0  0  0  0  0  0
  147.0603  140.6560  153.8744 C   0  0  0  0  0  0  0  0  0  0  0  0
  144.2488  133.9293  151.2051 C   0  0  0  0  0  0  0  0  0  0  0  0
  143.9569  133.7173  148.4521 H   0  0  0  0  0  0  0  0  0  0  0  0
  142.7260  132.7347  149.2557 H   0  0  0  0  0  0  0  0  0  0  0  0
  144.0649  131.9515  148.4154 H   0  0  0  0  0  0  0  0  0  0  0  0
  146.4452  131.8161  150.0018 H   0  0  0  0  0  0  0  0  0  0  0  0
  146.2860  133.3468  149.1400 H   0  0  0  0  0  0  0  0  0  0  0  0
  146.7102  132.9601  152.1198 H   0  0  0  0  0  0  0  0  0  0  0  0
  147.6054  134.0282  151.0356 H   0  0  0  0  0  0  0  0  0  0  0  0
  145.6857  135.4461  150.7200 H   0  0  0  0  0  0  0  0  0  0  0  0
  144.6840  135.7596  153.1698 H   0  0  0  0  0  0  0  0  0  0  0  0
  145.8988  134.5937  153.6219 H   0  0  0  0  0  0  0  0  0  0  0  0
  147.5766  136.1330  152.5045 H   0  0  0  0  0  0  0  0  0  0  0  0
  148.4487  137.8511  152.8576 H   0  0  0  0  0  0  0  0  0  0  0  0
  150.0090  139.0243  154.4664 H   0  0  0  0  0  0  0  0  0  0  0  0
  150.5555  141.3481  155.3684 H   0  0  0  0  0  0  0  0  0  0  0  0
  146.7916  142.7727  154.4262 H   0  0  0  0  0  0  0  0  0  0  0  0
  146.0568  140.5367  153.4960 H   0  0  0  0  0  0  0  0  0  0  0  0
  143.4821  134.5967  150.8088 H   0  0  0  0  0  0  0  0  0  0  0  0
  143.8542  133.4828  152.1182 H   0  0  0  0  0  0  0  0  0  0  0  0
  144.3652  131.9682  150.7770 H   0  0  0  0  0  0  0  0  0  0  0  0
  148.9351  142.9993  155.2700 H   0  0  0  0  0  0  0  0  0  0  0  0
  1  2  1  0  0  0  0
  1 18  1  0  0  0  0
  1 19  1  0  0  0  0
  1 20  1  0  0  0  0
  2 17  1  0  0  0  0
  2  3  1  0  0  0  0
  2 36  1  0  0  0  0
  3  4  1  0  0  0  0
  3 21  1  0  0  0  0
  3 22  1  0  0  0  0
  4  5  1  0  0  0  0
  4 23  1  0  0  0  0
  4 24  1  0  0  0  0
  5  6  1  0  0  0  0
  5 17  1  0  0  0  0
  5 25  1  0  0  0  0
  6  7  1  0  0  0  0
  6 26  1  0  0  0  0
  6 27  1  0  0  0  0
  7  8  1  0  0  0  0
  7 28  1  0  0  0  0
  8  9  2  0  0  0  0
  8 10  1  0  0  0  0
 10 11  1  0  0  0  0
 10 29  1  0  0  0  0
 11 16  1  0  0  0  0
 11 12  2  0  0  0  0
 12 13  1  0  0  0  0
 12 30  1  0  0  0  0
 13 14  2  0  0  0  0
 13 31  1  0  0  0  0
 14 15  1  0  0  0  0
 14 37  1  0  0  0  0
 15 16  2  0  0  0  0
 15 32  1  0  0  0  0
 16 33  1  0  0  0  0
 17 34  1  0  0  0  0
 17 35  1  0  0  0  0
M  CHG  1   2   1
M  CHG  1  14   1
M  END
> <s_m_source_file>
AV-unprocessed.smi

> <i_m_source_file_index>
3163

> <i_lp_mmshare_version>
43012

> <i_f3d_flags>
0

> <s_epik_input>
W0NIM11OMVtDSDJdW0NIMl1bQ0BIXShbQ0gyXTEpW0NIMl1bTkhdQyg9TylbTkhdYzJbY0hdW2NIXW5bY0hdW2NIXTI=

> <s_epik_cmdline>
J2VwaWtfcHl0aG9uJywgJy1waCcsICc3LjAnLCAnLXRuJywgJzgnLCAnLW1hJywgJzIwMCcsICctbWV0YWxfYmluZGluZycsICctaW1hZScsICc8aW5maWxlLm1hZT4nLCAnLW9tYWUnLCAnPG91dGZpbGUubWFlPic=

> <r_epik_Ionization_Penalty>
1.09034

> <r_epik_Ionization_Penalty_Charging>
1.09032

> <r_epik_Ionization_Penalty_Neutral>
1.86664e-05

> <r_epik_State_Penalty>
1.14521

> <r_epik_Charging_Adjusted_Penalty>
2.23553

> <i_epik_Tot_Q>
2

> <i_epik_Tot_abs_Q>
2

> <r_epik_Metal_State_Penalty>
1.23399

> <b_epik_Metal_Only>
0

> <s_lp_Force_Field>
OPLS_2005

> <r_lp_Energy>
39.8127

> <b_lp_Chiralities_Consistent>
1

> <s_lp_Variant>
AV-unprocessed.smi:3163-7

> <Gold.Version>
5.8.1

> <Gold.Id.Protein>
6NUR|6NUR_protein|mol2

> <Gold.PLP.Fitness>
43.3187

> <Gold.PLP.PLP>
-32.6940

> <Gold.PLP.part.hbond>
-3.0000

> <Gold.PLP.part.metal>
0.0000

> <Gold.PLP.part.buried>
-4.4277

> <Gold.PLP.part.nonpolar>
-25.9407

> <Gold.PLP.part.repulsive>
0.4830

> <Gold.PLP.ligand.clash>
0.0000

> <Gold.PLP.ligand.torsion>
0.5815

> <Gold.PLP.Chemscore.Hbond>
3.9280

> <Gold.PLP.Chemscore.CHOScore>
0.0000

> <Gold.PLP.Chemscore.Metal>
0.0000

> <Gold.Chemscore.Hbonds>
donor molecule, donor type, donor heavy atom, donor atom, acceptor molecule, acceptor atom, score
      L1  H     7    28       P1  7948  0.96
      L1  H    10    29       P1  7948  0.90
      L1  H    14    37       P1  8028  2.00

> <Gold.PLP.Chemscore.Internal.Correction>
0.0037

> <Gold.Rescore>
     Score         DG    S(hbond)    S(metal)    S(lipo)     H(rot)  DE(clash)    DE(int)     intcor
     20.75     -21.41       2.94        0.00      79.96       1.27       0.13       0.53       ----

> <Gold.Chemscore.Fitness>
20.7502

> <Gold.Chemscore.DG>
-21.4090

> <Gold.Chemscore.ZeroCoef>
-5.4800

> <Gold.Chemscore.Hbond>
2.9432

> <Gold.Chemscore.Metal>
0.0000

> <Gold.Chemscore.Lipo>
79.9575

> <Gold.Chemscore.Internal_Hbond>
0.0000

> <Gold.Chemscore.DEClash>
0.1268

> <Gold.Chemscore.DEInternal>
0.5320

> <Gold.Chemscore.Rot>
1.2721

> <Gold.Chemscore.Internal.Correction>
   9.000000E+99

> <Gold.Chemscore.Hbonds>
donor molecule, donor type, donor heavy atom, donor atom, acceptor molecule, acceptor atom, score
      L1  H     7    28       P1  7948  0.91
      L1  H    10    29       P1  7948  0.87
      L1  H    14    37       P1  8028  1.00

> <Gold.Chemscore.Hbond.Weighted>
-9.8304

> <Gold.Chemscore.Metal.Weighted>
-0.0000

> <Gold.Chemscore.Lipo.Weighted>
-9.3550

> <Gold.Chemscore.Internal_Hbond.Weighted>
0.0000

> <Gold.Chemscore.DEClash.Weighted>
0.1268

> <Gold.Chemscore.DEInternal.Weighted>
0.5320

> <Gold.Chemscore.Rot.Weighted>
3.2565

> <Gold.Chemscore.Internal.Correction.Weighted>
   9.000000E+99

> <Gold.Protein.RotatedTorsions>
[ 6907 6896 6895 6894 ] final   -5.13 input  -60.11 | X-H torsion
[ 7974 7965 7964 7962 ] final  -18.60 input  175.53 | X-H torsion
[ 8008 7997 7996 7995 ] final   81.39 input   59.86 | X-H torsion
[ 10167 10162 10161 10158 ] final -101.79 input  -65.29 | X-H torsion
[ 10718 10713 10712 10709 ] final -149.31 input   66.30 | X-H torsion
[ 10763 10752 10751 10750 ] final  -34.48 input  -60.55 | X-H torsion
[ 11005 11000 10999 10996 ] final -157.12 input  -57.11 | X-H torsion

> <Gold.Protein.ActiveResidues>
 VAL166  LYS551  ARG553  GLY616  TRP617  ASP618  TYR619  PRO620  LYS621  CYS622 
 ASP623  PHE694  ASN695  SER759  ASP760  ASP761  ALA762  ILE779  LEU786  VAL792 
 PHE793  MET794  SER795  GLU796  ALA797  LYS798  CYS799  TRP800  GLU811  SER814 

> <Gold.Protein.RotatedAtoms>
  151.4866  135.1055  159.9791 H   0  0  0  0  0  0  0  0  0  0  0  0  # atno 6907 bound_to 6896
  152.4758  133.8131  159.7024 H   0  0  0  0  0  0  0  0  0  0  0  0  # atno 6908 bound_to 6896
  150.8795  133.7330  159.2962 H   0  0  0  0  0  0  0  0  0  0  0  0  # atno 6909 bound_to 6896
  146.1884  140.3944  142.8467 H   0  0  0  0  0  0  0  0  0  0  0  0  # atno 7974 bound_to 7965
  155.8964  140.3436  155.5994 H   0  0  0  0  0  0  0  0  0  0  0  0  # atno 8008 bound_to 7997
  155.7550  140.0825  157.2202 H   0  0  0  0  0  0  0  0  0  0  0  0  # atno 8009 bound_to 7997
  154.4039  140.1546  156.2755 H   0  0  0  0  0  0  0  0  0  0  0  0  # atno 8010 bound_to 7997
  140.2376  143.3562  152.0831 H   0  0  0  0  0  0  0  0  0  0  0  0  # atno 10167 bound_to 10162
  156.4315  130.8078  151.2305 H   0  0  0  0  0  0  0  0  0  0  0  0  # atno 10718 bound_to 10713
  153.8474  135.6852  153.4796 H   0  0  0  0  0  0  0  0  0  0  0  0  # atno 10763 bound_to 10752
  153.1417  135.4654  154.9504 H   0  0  0  0  0  0  0  0  0  0  0  0  # atno 10764 bound_to 10752
  154.7818  135.3271  154.7921 H   0  0  0  0  0  0  0  0  0  0  0  0  # atno 10765 bound_to 10752
  140.6681  134.4277  157.5232 H   0  0  0  0  0  0  0  0  0  0  0  0  # atno 11005 bound_to 11000
  144.8440  140.6900  143.6211 LP  0  0  0  0  0  0  0  0  0  0  0  0  # atno 17320 bound_to 7965
  145.3869  139.1625  143.4250 LP  0  0  0  0  0  0  0  0  0  0  0  0  # atno 17321 bound_to 7965
  139.5088  144.6856  151.5894 LP  0  0  0  0  0  0  0  0  0  0  0  0  # atno 17342 bound_to 10162
  140.6138  143.9387  150.6473 LP  0  0  0  0  0  0  0  0  0  0  0  0  # atno 17343 bound_to 10162
  157.7508  131.0197  150.3677 LP  0  0  0  0  0  0  0  0  0  0  0  0  # atno 17370 bound_to 10713
  156.4015  130.3917  149.6956 LP  0  0  0  0  0  0  0  0  0  0  0  0  # atno 17371 bound_to 10713
  139.8990  134.8600  156.1976 LP  0  0  0  0  0  0  0  0  0  0  0  0  # atno 17394 bound_to 11000
  141.0413  133.6936  156.1604 LP  0  0  0  0  0  0  0  0  0  0  0  0  # atno 17395 bound_to 11000

$$$$
