#       Name:                AV-unprocessed.smi:203
#       Creating user name   scv26
#       Creation time:       Thu Mar 26 19:47:40 2020


#       File generated by GOLD software.
#

@<TRIPOS>MOLECULE
AV-unprocessed.smi:203
    67    71     1
SMALL
NO_CHARGES


@<TRIPOS>ATOM
      1 ****        -3.2007  -1.0202   4.3479 O.2            1 S1                 0.0000
      2 ****        -2.7827  -0.4107   3.3664 C.2            1 S1                 0.0000
      3 ****        -1.8159  -1.0080   2.3591 C.3            1 S1                 0.0000
      4 ****        -1.7746   0.0383   1.2283 C.3            1 S1                 0.0000
      5 ****        -2.3966  -0.4557  -0.1166 C.3            1 S1                 0.0000
      6 ****        -3.8883  -0.8587   0.0215 C.3            1 S1                 0.0000
      7 ****        -4.4677  -1.3509  -1.3116 C.3            1 S1                 0.0000
      8 ****        -4.2706  -0.2835  -2.3935 C.3            1 S1                 0.0000
      9 ****        -2.7878   0.0939  -2.5090 C.3            1 S1                 0.0000
     10 ****        -2.2440   0.5129  -1.2179 N.3            1 S1                 0.0000
     11 ****        -1.0165   1.0556  -1.3768 C.ar           1 S1                 0.0000
     12 ****        -0.9283   2.4075  -1.3390 N.ar           1 S1                 0.0000
     13 ****         0.2639   3.0006  -1.4522 C.ar           1 S1                 0.0000
     14 ****         1.4658   2.4385  -1.6002 N.ar           1 S1                 0.0000
     15 ****         1.3757   1.0783  -1.6470 C.ar           1 S1                 0.0000
     16 ****         0.1818   0.3102  -1.5590 C.ar           1 S1                 0.0000
     17 ****         0.4780  -1.0435  -1.6607 N.2            1 S1                 0.0000
     18 ****         1.7768  -1.0752  -1.7794 C.2            1 S1                 0.0000
     19 ****         2.3988   0.1526  -1.7505 N.pl3          1 S1                 0.0000
     20 ****         3.8266   0.4049  -1.8242 C.3            1 S1                 0.0000
     21 ****         4.3996   1.0741  -0.5523 C.3            1 S1                 0.0000
     22 ****         5.8058   1.1351  -0.6721 O.3            1 S1                 0.0000
     23 ****         4.0435   0.4292   0.8095 C.3            1 S1                 0.0000
     24 ****         4.2929  -1.0744   0.9469 C.3            1 S1                 0.0000
     25 ****         3.3830  -1.4199   2.1044 C.3            1 S1                 0.0000
     26 ****         2.1744  -0.5260   1.8385 C.3            1 S1                 0.0000
     27 ****         2.6741   0.6218   1.1566 O.3            1 S1                 0.0000
     28 ****        -2.4577   1.2935   1.8158 C.3            1 S1                 0.0000
     29 ****        -3.0949   0.8405   3.0365 N.am           1 S1                 0.0000
     30 ****        -0.8380  -1.1170   2.8289 H              1 S1                 0.0000
     31 ****        -2.1386  -1.9945   2.0266 H              1 S1                 0.0000
     32 ****        -0.7219   0.2711   1.0690 H              1 S1                 0.0000
     33 ****        -1.8553  -1.3556  -0.4100 H              1 S1                 0.0000
     34 ****        -4.0123  -1.6424   0.7680 H              1 S1                 0.0000
     35 ****        -4.4800  -0.0118   0.3691 H              1 S1                 0.0000
     36 ****        -3.9741  -2.2766  -1.6101 H              1 S1                 0.0000
     37 ****        -5.5273  -1.5817  -1.1992 H              1 S1                 0.0000
     38 ****        -4.6397  -0.6471  -3.3527 H              1 S1                 0.0000
     39 ****        -4.8572   0.6027  -2.1483 H              1 S1                 0.0000
     40 ****        -2.2185  -0.7595  -2.8807 H              1 S1                 0.0000
     41 ****        -2.6731   0.8953  -3.2407 H              1 S1                 0.0000
     42 ****         0.2545   4.0796  -1.4095 H              1 S1                 0.0000
     43 ****         2.3209  -2.0040  -1.8699 H              1 S1                 0.0000
     44 ****         4.3326  -0.5425  -2.0151 H              1 S1                 0.0000
     45 ****         4.0152   1.0330  -2.6954 H              1 S1                 0.0000
     46 ****         4.0544   2.1078  -0.5246 H              1 S1                 0.0000
     47 ****         6.1450   0.2532  -0.6762 H              1 S1                 0.0000
     48 ****         4.6109   0.9374   1.5915 H              1 S1                 0.0000
     49 ****         3.9754  -1.6190   0.0589 H              1 S1                 0.0000
     50 ****         5.3386  -1.3156   1.1389 H              1 S1                 0.0000
     51 ****         3.1272  -2.4785   2.1506 H              1 S1                 0.0000
     52 ****         3.8558  -1.1406   3.0470 H              1 S1                 0.0000
     53 ****         1.4621  -1.0336   1.1877 H              1 S1                 0.0000
     54 ****         1.6529  -0.2485   2.7546 H              1 S1                 0.0000
     55 ****        -1.7188   2.0571   2.0620 H              1 S1                 0.0000
     56 ****        -3.1845   1.7459   1.1411 H              1 S1                 0.0000
     57 ****        -3.7209   1.4254   3.5709 H              1 S1                 0.0000
     58 ****        -3.8334  -0.5745   4.9811 LP             1 S1                 0.0000
     59 ****        -2.9082  -1.9620   4.5135 LP             1 S1                 0.0000
     60 ****        -2.8302   1.2466  -0.8744 LP             1 S1                 0.0000
     61 ****        -1.7540   2.9603  -1.2266 LP             1 S1                 0.0000
     62 ****         2.3227   2.9495  -1.6681 LP             1 S1                 0.0000
     63 ****        -0.1577  -1.8153  -1.6463 LP             1 S1                 0.0000
     64 ****         6.1886   1.6401   0.1014 LP             1 S1                 0.0000
     65 ****         6.0520   1.5951  -1.5252 LP             1 S1                 0.0000
     66 ****         2.1399   0.7705   0.3244 LP             1 S1                 0.0000
     67 ****         2.5933   1.4212   1.7519 LP             1 S1                 0.0000
@<TRIPOS>BOND
    1    1    2 2     
    2    2   29 am    
    3    2    3 1     
    4    3    4 1     
    5    3   30 1     
    6    3   31 1     
    7    4    5 1     
    8    4   28 1     
    9    4   32 1     
   10    5   10 1     
   11    5    6 1     
   12    5   33 1     
   13    6    7 1     
   14    6   34 1     
   15    6   35 1     
   16    7    8 1     
   17    7   36 1     
   18    7   37 1     
   19    8    9 1     
   20    8   38 1     
   21    8   39 1     
   22    9   10 1     
   23    9   40 1     
   24    9   41 1     
   25   10   11 1     
   26   11   16 ar    
   27   11   12 ar    
   28   12   13 ar    
   29   13   14 ar    
   30   13   42 1     
   31   14   15 ar    
   32   15   19 1     
   33   15   16 ar    
   34   16   17 1     
   35   17   18 2     
   36   18   19 1     
   37   18   43 1     
   38   19   20 1     
   39   20   21 1     
   40   20   44 1     
   41   20   45 1     
   42   21   22 1     
   43   21   23 1     
   44   21   46 1     
   45   22   47 1     
   46   23   27 1     
   47   23   24 1     
   48   23   48 1     
   49   24   25 1     
   50   24   49 1     
   51   24   50 1     
   52   25   26 1     
   53   25   51 1     
   54   25   52 1     
   55   26   27 1     
   56   26   53 1     
   57   26   54 1     
   58   28   29 1     
   59   28   55 1     
   60   28   56 1     
   61   29   57 1     
   62    1   58 1     
   63    1   59 1     
   64   10   60 1     
   65   12   61 1     
   66   14   62 1     
   67   17   63 1     
   68   22   64 1     
   69   22   65 1     
   70   27   66 1     
   71   27   67 1     
@<TRIPOS>SUBSTRUCTURE
      1 S1             1
@<TRIPOS>SET
LONE_PAIRS      STATIC     ATOMS    <user>   **** ""
10 58 59 60 61 62 63 64 65 66 67
DONOR_HYDROGENS      STATIC     ATOMS    <user>   **** ""
2 47 57
ATOM$BLUE        STATIC     ATOMS    COLORGROUP SYSTEM
10 58 59 60 61 62 63 64 65 66 67
ATOM$RED        STATIC     ATOMS    COLORGROUP SYSTEM
2 47 57
