AV-unprocessed.smi:1695|AV-procd|sdf|6794|dock4
  -GOLD-   22720 7553D 1   1.00000     0.00000
 Structure written by MMmdl.
 52 54  0  0  0  0  0  0  0  0  3 V2000
  152.9767  142.6369  160.8272 C   0  0  0  0  0  0  0  0  0  0  0  0
  152.4300  142.0048  159.5585 C   0  0  0  0  0  0  0  0  0  0  0  0
  151.6011  142.7839  158.7198 C   0  0  0  0  0  0  0  0  0  0  0  0
  151.1151  142.1772  157.5678 C   0  0  0  0  0  0  0  0  0  0  0  0
  150.2898  142.6669  156.5528 N   0  3  0  0  0  0  0  0  0  0  0  0
  150.0852  141.6928  155.6231 C   0  0  0  0  0  0  0  0  0  0  0  0
  150.7631  140.5860  156.0334 N   0  0  0  0  0  0  0  0  0  0  0  0
  150.8815  139.2626  155.4067 C   0  0  0  0  0  0  0  0  0  0  0  0
  149.7508  138.9708  154.3999 C   0  0  1  0  0  0  0  0  0  0  0  0
  150.2962  138.3334  153.2610 O   0  0  0  0  0  0  0  0  0  0  0  0
  148.6675  138.0582  155.0079 C   0  0  0  0  0  0  0  0  0  0  0  0
  147.7992  137.4352  153.9757 N   0  3  1  0  0  0  0  0  0  0  0  0
  146.9053  136.3960  154.5469 C   0  0  0  0  0  0  0  0  0  0  0  0
  146.1245  135.6594  153.4414 C   0  0  0  0  0  0  0  0  0  0  0  0
  145.3340  136.6091  152.5171 C   0  0  1  0  0  0  0  0  0  0  0  0
  144.0425  137.1374  153.1691 C   0  0  0  0  0  0  0  0  0  0  0  0
  143.2420  137.8864  152.4069 N   0  0  0  0  0  0  0  0  0  0  0  0
  143.7650  136.8797  154.3384 O   0  0  0  0  0  0  0  0  0  0  0  0
  146.2638  137.7398  152.0277 C   0  0  0  0  0  0  0  0  0  0  0  0
  147.0415  138.4265  153.1671 C   0  0  0  0  0  0  0  0  0  0  0  0
  151.4260  140.8438  157.2381 C   0  0  0  0  0  0  0  0  0  0  0  0
  152.2435  140.0627  158.0514 C   0  0  0  0  0  0  0  0  0  0  0  0
  152.7473  140.6616  159.2281 C   0  0  0  0  0  0  0  0  0  0  0  0
  153.6397  139.8342  160.1374 C   0  0  0  0  0  0  0  0  0  0  0  0
  152.6515  143.6726  160.9297 H   0  0  0  0  0  0  0  0  0  0  0  0
  154.0670  142.6293  160.8206 H   0  0  0  0  0  0  0  0  0  0  0  0
  152.6316  142.0912  161.7058 H   0  0  0  0  0  0  0  0  0  0  0  0
  151.3563  143.8074  158.9649 H   0  0  0  0  0  0  0  0  0  0  0  0
  149.4909  141.7820  154.7248 H   0  0  0  0  0  0  0  0  0  0  0  0
  151.8524  139.2216  154.9104 H   0  0  0  0  0  0  0  0  0  0  0  0
  150.9056  138.5104  156.1965 H   0  0  0  0  0  0  0  0  0  0  0  0
  149.3155  139.9163  154.0799 H   0  0  0  0  0  0  0  0  0  0  0  0
  149.8230  137.5289  153.1113 H   0  0  0  0  0  0  0  0  0  0  0  0
  149.1630  137.2809  155.5925 H   0  0  0  0  0  0  0  0  0  0  0  0
  148.0462  138.6148  155.7115 H   0  0  0  0  0  0  0  0  0  0  0  0
  147.5010  135.6668  155.0971 H   0  0  0  0  0  0  0  0  0  0  0  0
  146.2280  136.8500  155.2707 H   0  0  0  0  0  0  0  0  0  0  0  0
  146.8277  135.0857  152.8363 H   0  0  0  0  0  0  0  0  0  0  0  0
  145.4547  134.9253  153.8915 H   0  0  0  0  0  0  0  0  0  0  0  0
  145.0321  136.0334  151.6404 H   0  0  0  0  0  0  0  0  0  0  0  0
  142.3826  138.2581  152.7853 H   0  0  0  0  0  0  0  0  0  0  0  0
  143.4999  138.0799  151.4497 H   0  0  0  0  0  0  0  0  0  0  0  0
  146.9781  137.3238  151.3158 H   0  0  0  0  0  0  0  0  0  0  0  0
  145.6925  138.4850  151.4722 H   0  0  0  0  0  0  0  0  0  0  0  0
  146.3684  138.9909  153.8126 H   0  0  0  0  0  0  0  0  0  0  0  0
  147.7223  139.1545  152.7286 H   0  0  0  0  0  0  0  0  0  0  0  0
  152.4859  139.0409  157.7995 H   0  0  0  0  0  0  0  0  0  0  0  0
  153.7826  138.8260  159.7473 H   0  0  0  0  0  0  0  0  0  0  0  0
  153.1990  139.7470  161.1307 H   0  0  0  0  0  0  0  0  0  0  0  0
  154.6225  140.2963  160.2333 H   0  0  0  0  0  0  0  0  0  0  0  0
  148.4205  136.9504  153.3438 H   0  0  0  0  0  0  0  0  0  0  0  0
  149.8966  143.5978  156.4949 H   0  0  0  0  0  0  0  0  0  0  0  0
  1  2  1  0  0  0  0
  1 25  1  0  0  0  0
  1 26  1  0  0  0  0
  1 27  1  0  0  0  0
  2 23  1  0  0  0  0
  2  3  2  0  0  0  0
  3  4  1  0  0  0  0
  3 28  1  0  0  0  0
  4 21  2  0  0  0  0
  4  5  1  0  0  0  0
  5  6  2  0  0  0  0
  5 52  1  0  0  0  0
  6  7  1  0  0  0  0
  6 29  1  0  0  0  0
  7  8  1  0  0  0  0
  7 21  1  0  0  0  0
  8  9  1  0  0  0  0
  8 30  1  0  0  0  0
  8 31  1  0  0  0  0
  9 10  1  0  0  0  0
  9 11  1  0  0  0  0
  9 32  1  0  0  0  0
 10 33  1  0  0  0  0
 11 12  1  0  0  0  0
 11 34  1  0  0  0  0
 11 35  1  0  0  0  0
 12 20  1  0  0  0  0
 12 13  1  0  0  0  0
 12 51  1  0  0  0  0
 13 14  1  0  0  0  0
 13 36  1  0  0  0  0
 13 37  1  0  0  0  0
 14 15  1  0  0  0  0
 14 38  1  0  0  0  0
 14 39  1  0  0  0  0
 15 16  1  0  0  0  0
 15 19  1  0  0  0  0
 15 40  1  0  0  0  0
 16 17  1  0  0  0  0
 16 18  2  0  0  0  0
 17 41  1  0  0  0  0
 17 42  1  0  0  0  0
 19 20  1  0  0  0  0
 19 43  1  0  0  0  0
 19 44  1  0  0  0  0
 20 45  1  0  0  0  0
 20 46  1  0  0  0  0
 21 22  1  0  0  0  0
 22 23  2  0  0  0  0
 22 47  1  0  0  0  0
 23 24  1  0  0  0  0
 24 48  1  0  0  0  0
 24 49  1  0  0  0  0
 24 50  1  0  0  0  0
M  CHG  1   5   1
M  CHG  1  12   1
M  END
> <s_m_source_file>
AV-unprocessed.smi

> <i_m_source_file_index>
1695

> <i_lp_mmshare_version>
43012

> <i_f3d_flags>
0

> <s_epik_input>
W0NIM11jKFtjSF0xKWMoW0NIM10pW2NIXWMoYzEyKW4oW2NIXW4yKVtDSDJdW0NASF0oW09IXSlbQ0gyXU4zW0NIMl1bQ0gyXVtDSF0oQyg9TylbTkgyXSlbQ0gyXVtDSDJdMw==

> <s_epik_cmdline>
J2VwaWtfcHl0aG9uJywgJy1waCcsICc3LjAnLCAnLXRuJywgJzgnLCAnLW1hJywgJzIwMCcsICctbWV0YWxfYmluZGluZycsICctaW1hZScsICc8aW5maWxlLm1hZT4nLCAnLW9tYWUnLCAnPG91dGZpbGUubWFlPic=

> <r_epik_Ionization_Penalty>
1.20173

> <r_epik_Ionization_Penalty_Charging>
1.20172

> <r_epik_Ionization_Penalty_Neutral>
1.7852e-06

> <r_epik_State_Penalty>
1.28089

> <r_epik_Charging_Adjusted_Penalty>
2.48261

> <i_epik_Tot_Q>
2

> <i_epik_Tot_abs_Q>
2

> <r_epik_Metal_State_Penalty>
1.35652

> <b_epik_Metal_Only>
0

> <s_lp_Force_Field>
OPLS_2005

> <r_lp_Energy>
25.0715

> <b_lp_Chiralities_Consistent>
1

> <s_lp_Variant>
AV-unprocessed.smi:1695-6

> <Gold.Version>
5.8.1

> <Gold.Id.Protein>
6NUR|6NUR_protein|mol2

> <Gold.PLP.Fitness>
59.1150

> <Gold.PLP.PLP>
-43.3261

> <Gold.PLP.part.hbond>
-6.5049

> <Gold.PLP.part.metal>
0.0000

> <Gold.PLP.part.buried>
-1.1715

> <Gold.PLP.part.nonpolar>
-35.7860

> <Gold.PLP.part.repulsive>
0.1980

> <Gold.PLP.ligand.clash>
0.0000

> <Gold.PLP.ligand.torsion>
1.0586

> <Gold.PLP.Chemscore.Hbond>
5.9520

> <Gold.PLP.Chemscore.CHOScore>
0.0000

> <Gold.PLP.Chemscore.Metal>
0.0000

> <Gold.Chemscore.Hbonds>
donor molecule, donor type, donor heavy atom, donor atom, acceptor molecule, acceptor atom, score
      L1  H     5    52       P1  8028  1.98
      L1  H    10    33       P1  7948  0.98
      L1  H    12    51       P1  7948  2.00
      L1  H    17    42       P1 10171  1.00

> <Gold.PLP.Chemscore.Internal.Correction>
0.0501

> <Gold.Rescore>
     Score         DG    S(hbond)    S(metal)    S(lipo)     H(rot)  DE(clash)    DE(int)     intcor
     20.67     -21.85       3.55        0.00     102.44       2.91       0.15       1.04       ----

> <Gold.Chemscore.Fitness>
20.6674

> <Gold.Chemscore.DG>
-21.8534

> <Gold.Chemscore.ZeroCoef>
-5.4800

> <Gold.Chemscore.Hbond>
3.5464

> <Gold.Chemscore.Metal>
0.0000

> <Gold.Chemscore.Lipo>
102.4368

> <Gold.Chemscore.Internal_Hbond>
0.0000

> <Gold.Chemscore.DEClash>
0.1452

> <Gold.Chemscore.DEInternal>
1.0408

> <Gold.Chemscore.Rot>
2.9127

> <Gold.Chemscore.Internal.Correction>
   9.000000E+99

> <Gold.Chemscore.Hbonds>
donor molecule, donor type, donor heavy atom, donor atom, acceptor molecule, acceptor atom, score
      L1  H     5    52       P1  8028  0.93
      L1  H    10    33       P1  7948  0.46
      L1  H    12    51       P1  7948  0.99
      L1  H    17    42       P1 10171  0.85

> <Gold.Chemscore.Hbond.Weighted>
-11.8448

> <Gold.Chemscore.Metal.Weighted>
-0.0000

> <Gold.Chemscore.Lipo.Weighted>
-11.9851

> <Gold.Chemscore.Internal_Hbond.Weighted>
0.0000

> <Gold.Chemscore.DEClash.Weighted>
0.1452

> <Gold.Chemscore.DEInternal.Weighted>
1.0408

> <Gold.Chemscore.Rot.Weighted>
7.4565

> <Gold.Chemscore.Internal.Correction.Weighted>
   9.000000E+99

> <Gold.Protein.RotatedTorsions>
[ 6907 6896 6895 6894 ] final  108.65 input  -60.11 | X-H torsion
[ 7974 7965 7964 7962 ] final   64.86 input  175.53 | X-H torsion
[ 8008 7997 7996 7995 ] final -128.71 input   59.86 | X-H torsion
[ 10167 10162 10161 10158 ] final -137.33 input  -65.29 | X-H torsion
[ 10718 10713 10712 10709 ] final -130.05 input   66.30 | X-H torsion
[ 10763 10752 10751 10750 ] final  169.79 input  -60.55 | X-H torsion
[ 11005 11000 10999 10996 ] final   26.06 input  -57.11 | X-H torsion

> <Gold.Protein.ActiveResidues>
 VAL166  LYS551  ARG553  GLY616  TRP617  ASP618  TYR619  PRO620  LYS621  CYS622 
 ASP623  PHE694  ASN695  SER759  ASP760  ASP761  ALA762  ILE779  LEU786  VAL792 
 PHE793  MET794  SER795  GLU796  ALA797  LYS798  CYS799  TRP800  GLU811  SER814 

> <Gold.Protein.RotatedAtoms>
  152.5103  133.9058  159.7463 H   0  0  0  0  0  0  0  0  0  0  0  0  # atno 6907 bound_to 6896
  150.9463  133.6590  159.2787 H   0  0  0  0  0  0  0  0  0  0  0  0  # atno 6908 bound_to 6896
  151.3884  135.0957  159.9571 H   0  0  0  0  0  0  0  0  0  0  0  0  # atno 6909 bound_to 6896
  145.8452  139.3220  143.0907 H   0  0  0  0  0  0  0  0  0  0  0  0  # atno 7974 bound_to 7965
  155.2671  140.0438  157.3003 H   0  0  0  0  0  0  0  0  0  0  0  0  # atno 8008 bound_to 7997
  154.5675  140.2364  155.8210 H   0  0  0  0  0  0  0  0  0  0  0  0  # atno 8009 bound_to 7997
  156.2097  140.3002  155.9712 H   0  0  0  0  0  0  0  0  0  0  0  0  # atno 8010 bound_to 7997
  139.8588  143.7104  152.2652 H   0  0  0  0  0  0  0  0  0  0  0  0  # atno 10167 bound_to 10162
  156.2106  130.6916  151.0645 H   0  0  0  0  0  0  0  0  0  0  0  0  # atno 10718 bound_to 10713
  154.3883  135.2754  155.2170 H   0  0  0  0  0  0  0  0  0  0  0  0  # atno 10763 bound_to 10752
  154.4247  135.5991  153.6035 H   0  0  0  0  0  0  0  0  0  0  0  0  # atno 10764 bound_to 10752
  152.9832  135.5981  154.4135 H   0  0  0  0  0  0  0  0  0  0  0  0  # atno 10765 bound_to 10752
  140.3411  134.2332  155.7690 H   0  0  0  0  0  0  0  0  0  0  0  0  # atno 11005 bound_to 11000
  145.9420  140.8973  143.0303 LP  0  0  0  0  0  0  0  0  0  0  0  0  # atno 17320 bound_to 7965
  144.6731  140.1561  143.7426 LP  0  0  0  0  0  0  0  0  0  0  0  0  # atno 17321 bound_to 7965
  139.7394  144.7563  151.0677 LP  0  0  0  0  0  0  0  0  0  0  0  0  # atno 17342 bound_to 10162
  140.7778  143.4991  150.9794 LP  0  0  0  0  0  0  0  0  0  0  0  0  # atno 17343 bound_to 10162
  157.7036  131.0766  150.6740 LP  0  0  0  0  0  0  0  0  0  0  0  0  # atno 17370 bound_to 10713
  156.6799  130.4564  149.5631 LP  0  0  0  0  0  0  0  0  0  0  0  0  # atno 17371 bound_to 10713
  141.2038  133.7902  157.0320 LP  0  0  0  0  0  0  0  0  0  0  0  0  # atno 17394 bound_to 11000
  140.0780  134.9664  157.1578 LP  0  0  0  0  0  0  0  0  0  0  0  0  # atno 17395 bound_to 11000

$$$$
