AV-unprocessed.smi:2667|AV-procd|sdf|10337|dock6
  -GOLD-   2272014363D 1   1.00000     0.00000
 Structure written by MMmdl.
 45 47  0  0  0  0  0  0  0  0  2 V2000
  151.7452  142.6573  159.1297 C   0  0  0  0  0  0  0  0  0  0  0  0
  150.8542  142.0644  158.0268 C   0  0  0  0  0  0  0  0  0  0  0  0
  151.2839  140.6639  157.5628 C   0  0  0  0  0  0  0  0  0  0  0  0
  152.2408  140.1070  158.1032 O   0  0  0  0  0  0  0  0  0  0  0  0
  150.5029  140.0385  156.4562 C   0  0  0  0  0  0  0  0  0  0  0  0
  150.9336  138.8559  155.8104 C   0  0  0  0  0  0  0  0  0  0  0  0
  150.1701  138.2916  154.7708 C   0  0  0  0  0  0  0  0  0  0  0  0
  148.9644  138.8871  154.3524 C   0  0  0  0  0  0  0  0  0  0  0  0
  148.2811  138.2621  153.3331 O   0  0  0  0  0  0  0  0  0  0  0  0
  147.0278  138.7957  152.9281 C   0  0  0  0  0  0  0  0  0  0  0  0
  146.2628  137.7968  152.0379 C   0  0  1  0  0  0  0  0  0  0  0  0
  146.6792  137.9589  150.6979 O   0  0  0  0  0  0  0  0  0  0  0  0
  146.2840  136.3144  152.4874 C   0  0  0  0  0  0  0  0  0  0  0  0
  145.4574  135.3987  151.6847 N   0  0  0  0  0  0  0  0  0  0  0  0
  144.4305  135.6747  150.8338 C   0  0  0  0  0  0  0  0  0  0  0  0
  143.9825  134.4925  150.3289 N   0  3  0  0  0  0  0  0  0  0  0  0
  144.7464  133.4454  150.8481 C   0  0  0  0  0  0  0  0  0  0  0  0
  144.6775  132.0729  150.6287 C   0  0  0  0  0  0  0  0  0  0  0  0
  145.6163  131.2741  151.3142 C   0  0  0  0  0  0  0  0  0  0  0  0
  146.5757  131.8447  152.1754 C   0  0  0  0  0  0  0  0  0  0  0  0
  146.6364  133.2375  152.3898 C   0  0  0  0  0  0  0  0  0  0  0  0
  145.7015  134.0206  151.7136 C   0  0  0  0  0  0  0  0  0  0  0  0
  148.5324  140.0728  154.9945 C   0  0  0  0  0  0  0  0  0  0  0  0
  149.2949  140.6387  156.0343 C   0  0  0  0  0  0  0  0  0  0  0  0
  151.3952  143.6503  159.4119 H   0  0  0  0  0  0  0  0  0  0  0  0
  152.7795  142.7555  158.7972 H   0  0  0  0  0  0  0  0  0  0  0  0
  151.7345  142.0374  160.0269 H   0  0  0  0  0  0  0  0  0  0  0  0
  149.8261  142.0117  158.3860 H   0  0  0  0  0  0  0  0  0  0  0  0
  150.8586  142.7323  157.1653 H   0  0  0  0  0  0  0  0  0  0  0  0
  151.8496  138.3605  156.0951 H   0  0  0  0  0  0  0  0  0  0  0  0
  150.5137  137.3880  154.2886 H   0  0  0  0  0  0  0  0  0  0  0  0
  146.4212  139.0094  153.8097 H   0  0  0  0  0  0  0  0  0  0  0  0
  147.1743  139.7351  152.3922 H   0  0  0  0  0  0  0  0  0  0  0  0
  145.2180  138.1093  152.0488 H   0  0  0  0  0  0  0  0  0  0  0  0
  145.9194  137.9074  150.1389 H   0  0  0  0  0  0  0  0  0  0  0  0
  147.3073  135.9399  152.4371 H   0  0  0  0  0  0  0  0  0  0  0  0
  145.9851  136.2237  153.5323 H   0  0  0  0  0  0  0  0  0  0  0  0
  144.0311  136.6542  150.6140 H   0  0  0  0  0  0  0  0  0  0  0  0
  143.9455  131.6333  149.9672 H   0  0  0  0  0  0  0  0  0  0  0  0
  145.6012  130.2026  151.1755 H   0  0  0  0  0  0  0  0  0  0  0  0
  147.2794  131.2010  152.6832 H   0  0  0  0  0  0  0  0  0  0  0  0
  147.3752  133.6633  153.0517 H   0  0  0  0  0  0  0  0  0  0  0  0
  147.6186  140.5701  154.7075 H   0  0  0  0  0  0  0  0  0  0  0  0
  148.9372  141.5435  156.5045 H   0  0  0  0  0  0  0  0  0  0  0  0
  143.2142  134.4101  149.6755 H   0  0  0  0  0  0  0  0  0  0  0  0
  1  2  1  0  0  0  0
  1 25  1  0  0  0  0
  1 26  1  0  0  0  0
  1 27  1  0  0  0  0
  2  3  1  0  0  0  0
  2 28  1  0  0  0  0
  2 29  1  0  0  0  0
  3  4  2  0  0  0  0
  3  5  1  0  0  0  0
  5 24  1  0  0  0  0
  5  6  2  0  0  0  0
  6  7  1  0  0  0  0
  6 30  1  0  0  0  0
  7  8  2  0  0  0  0
  7 31  1  0  0  0  0
  8  9  1  0  0  0  0
  8 23  1  0  0  0  0
  9 10  1  0  0  0  0
 10 11  1  0  0  0  0
 10 32  1  0  0  0  0
 10 33  1  0  0  0  0
 11 12  1  0  0  0  0
 11 13  1  0  0  0  0
 11 34  1  0  0  0  0
 12 35  1  0  0  0  0
 13 14  1  0  0  0  0
 13 36  1  0  0  0  0
 13 37  1  0  0  0  0
 14 22  1  0  0  0  0
 14 15  1  0  0  0  0
 15 16  2  0  0  0  0
 15 38  1  0  0  0  0
 16 17  1  0  0  0  0
 16 45  1  0  0  0  0
 17 22  2  0  0  0  0
 17 18  1  0  0  0  0
 18 19  2  0  0  0  0
 18 39  1  0  0  0  0
 19 20  1  0  0  0  0
 19 40  1  0  0  0  0
 20 21  2  0  0  0  0
 20 41  1  0  0  0  0
 21 22  1  0  0  0  0
 21 42  1  0  0  0  0
 23 24  2  0  0  0  0
 23 43  1  0  0  0  0
 24 44  1  0  0  0  0
M  CHG  1  16   1
M  END
> <s_m_source_file>
AV-unprocessed.smi

> <i_m_source_file_index>
2667

> <i_lp_mmshare_version>
43012

> <i_f3d_flags>
0

> <s_epik_input>
W0NIM11bQ0gyXUMoPU8pYzFbY0hdW2NIXWMoW2NIXVtjSF0xKU9bQ0gyXVtDQEhdKFtPSF0pW0NIMl1uKFtjSF1uMiljKGMyMylbY0hdW2NIXVtjSF1bY0hdMw==

> <s_epik_cmdline>
J2VwaWtfcHl0aG9uJywgJy1waCcsICc3LjAnLCAnLXRuJywgJzgnLCAnLW1hJywgJzIwMCcsICctbWV0YWxfYmluZGluZycsICctaW1hZScsICc8aW5maWxlLm1hZT4nLCAnLW9tYWUnLCAnPG91dGZpbGUubWFlPic=

> <r_lp_tautomer_probability>
0.9999

> <r_epik_Ionization_Penalty>
1.40272

> <r_epik_Ionization_Penalty_Charging>
1.40272

> <r_epik_Ionization_Penalty_Neutral>
2.3993e-06

> <r_epik_State_Penalty>
1.48501

> <r_epik_Charging_Adjusted_Penalty>
2.88772

> <i_epik_Tot_Q>
1

> <i_epik_Tot_abs_Q>
1

> <r_epik_Metal_State_Penalty>
5.5274

> <b_epik_Metal_Only>
0

> <s_lp_Force_Field>
OPLS_2005

> <r_lp_Energy>
30.2485

> <b_lp_Chiralities_Consistent>
1

> <s_lp_Variant>
AV-unprocessed.smi:2667-4

> <Gold.Version>
5.8.1

> <Gold.Id.Protein>
6NUR|6NUR_protein|mol2

> <Gold.PLP.Fitness>
58.4050

> <Gold.PLP.PLP>
-41.6877

> <Gold.PLP.part.hbond>
-4.3455

> <Gold.PLP.part.metal>
0.0000

> <Gold.PLP.part.buried>
-2.1250

> <Gold.PLP.part.nonpolar>
-39.8902

> <Gold.PLP.part.repulsive>
5.2863

> <Gold.PLP.ligand.clash>
0.0000

> <Gold.PLP.ligand.torsion>
0.6001

> <Gold.PLP.Chemscore.Hbond>
4.9360

> <Gold.PLP.Chemscore.CHOScore>
1.0000

> <Gold.PLP.Chemscore.Metal>
0.0000

> <Gold.Chemscore.Hbonds>
donor molecule, donor type, donor heavy atom, donor atom, acceptor molecule, acceptor atom, score
      L1  H    12    35       P1 10171  0.62
      L1  H    16    45       P1 10186  0.96
      P1  H  7954  7966       L1    12  1.00
      L1  C    15    38       P1 10171  1.00

> <Gold.PLP.Chemscore.Internal.Correction>
0.1094

> <Gold.Rescore>
     Score         DG    S(hbond)    S(metal)    S(lipo)     H(rot)  DE(clash)    DE(int)     intcor
     19.51     -24.41       3.82        0.00     109.44       2.59       3.91       0.99       ----

> <Gold.Chemscore.Fitness>
19.5081

> <Gold.Chemscore.DG>
-24.4096

> <Gold.Chemscore.ZeroCoef>
-5.4800

> <Gold.Chemscore.Hbond>
3.8171

> <Gold.Chemscore.Metal>
0.0000

> <Gold.Chemscore.Lipo>
109.4354

> <Gold.Chemscore.Internal_Hbond>
0.0000

> <Gold.Chemscore.DEClash>
3.9106

> <Gold.Chemscore.DEInternal>
0.9908

> <Gold.Chemscore.Rot>
2.5873

> <Gold.Chemscore.Internal.Correction>
   9.000000E+99

> <Gold.Chemscore.Hbonds>
donor molecule, donor type, donor heavy atom, donor atom, acceptor molecule, acceptor atom, score
      L1  H    12    35       P1 10171  0.60
      L1  H    16    45       P1 10186  0.47
      P1  H  7954  7966       L1    12  0.86

> <Gold.Chemscore.Hbond.Weighted>
-12.7491

> <Gold.Chemscore.Metal.Weighted>
-0.0000

> <Gold.Chemscore.Lipo.Weighted>
-12.8039

> <Gold.Chemscore.Internal_Hbond.Weighted>
0.0000

> <Gold.Chemscore.DEClash.Weighted>
3.9106

> <Gold.Chemscore.DEInternal.Weighted>
0.9908

> <Gold.Chemscore.Rot.Weighted>
6.6235

> <Gold.Chemscore.Internal.Correction.Weighted>
   9.000000E+99

> <Gold.Protein.RotatedTorsions>
[ 6907 6896 6895 6894 ] final  138.29 input  -60.11 | X-H torsion
[ 7974 7965 7964 7962 ] final   59.56 input  175.53 | X-H torsion
[ 8008 7997 7996 7995 ] final  -72.71 input   59.86 | X-H torsion
[ 10167 10162 10161 10158 ] final  -30.51 input  -65.29 | X-H torsion
[ 10718 10713 10712 10709 ] final   63.09 input   66.30 | X-H torsion
[ 10763 10752 10751 10750 ] final  -58.26 input  -60.55 | X-H torsion
[ 11005 11000 10999 10996 ] final   35.06 input  -57.11 | X-H torsion

> <Gold.Protein.ActiveResidues>
 VAL166  LYS551  ARG553  GLY616  TRP617  ASP618  TYR619  PRO620  LYS621  CYS622 
 ASP623  PHE694  ASN695  SER759  ASP760  ASP761  ALA762  ILE779  LEU786  VAL792 
 PHE793  MET794  SER795  GLU796  ALA797  LYS798  CYS799  TRP800  GLU811  SER814 

> <Gold.Protein.RotatedAtoms>
  152.2683  133.5359  159.5423 H   0  0  0  0  0  0  0  0  0  0  0  0  # atno 6907 bound_to 6896
  150.7150  134.0733  159.3881 H   0  0  0  0  0  0  0  0  0  0  0  0  # atno 6908 bound_to 6896
  151.8649  135.0511  160.0524 H   0  0  0  0  0  0  0  0  0  0  0  0  # atno 6909 bound_to 6896
  145.9058  139.3616  143.0565 H   0  0  0  0  0  0  0  0  0  0  0  0  # atno 7974 bound_to 7965
  154.5188  140.0792  156.8132 H   0  0  0  0  0  0  0  0  0  0  0  0  # atno 8008 bound_to 7997
  155.3622  140.3418  155.4223 H   0  0  0  0  0  0  0  0  0  0  0  0  # atno 8009 bound_to 7997
  156.1658  140.1603  156.8521 H   0  0  0  0  0  0  0  0  0  0  0  0  # atno 8010 bound_to 7997
  140.7248  143.3843  151.1544 H   0  0  0  0  0  0  0  0  0  0  0  0  # atno 10167 bound_to 10162
  157.5947  130.9086  149.9672 H   0  0  0  0  0  0  0  0  0  0  0  0  # atno 10718 bound_to 10713
  154.2354  135.6353  153.5189 H   0  0  0  0  0  0  0  0  0  0  0  0  # atno 10763 bound_to 10752
  152.9940  135.5529  154.5968 H   0  0  0  0  0  0  0  0  0  0  0  0  # atno 10764 bound_to 10752
  154.5461  135.2898  155.1026 H   0  0  0  0  0  0  0  0  0  0  0  0  # atno 10765 bound_to 10752
  140.2465  134.3353  155.7906 H   0  0  0  0  0  0  0  0  0  0  0  0  # atno 11005 bound_to 11000
  145.8733  140.9407  143.0639 LP  0  0  0  0  0  0  0  0  0  0  0  0  # atno 17320 bound_to 7965
  144.6739  140.0684  143.7474 LP  0  0  0  0  0  0  0  0  0  0  0  0  # atno 17321 bound_to 7965
  139.7437  143.8885  152.3057 LP  0  0  0  0  0  0  0  0  0  0  0  0  # atno 17342 bound_to 10162
  139.8715  144.7066  150.8982 LP  0  0  0  0  0  0  0  0  0  0  0  0  # atno 17343 bound_to 10162
  156.1008  130.3656  150.0222 LP  0  0  0  0  0  0  0  0  0  0  0  0  # atno 17370 bound_to 10713
  156.8338  130.9402  151.3636 LP  0  0  0  0  0  0  0  0  0  0  0  0  # atno 17371 bound_to 10713
  141.2205  133.7329  156.8969 LP  0  0  0  0  0  0  0  0  0  0  0  0  # atno 17394 bound_to 11000
  140.1601  134.9171  157.2703 LP  0  0  0  0  0  0  0  0  0  0  0  0  # atno 17395 bound_to 11000

$$$$
