AV-unprocessed.smi:2926|AV-procd|sdf|11229|dock5
  -GOLD-   2272016123D 1   1.00000     0.00000
 Structure written by MMmdl.
 31 31  0  0  0  0  0  0  0  0  2 V2000
  146.4279  142.6254  154.3485 C   0  0  0  0  0  0  0  0  0  0  0  0
  146.8353  141.1452  154.5255 C   0  0  0  0  0  0  0  0  0  0  0  0
  146.3542  140.6123  155.8955 C   0  0  0  0  0  0  0  0  0  0  0  0
  148.3394  140.8763  154.2117 C   0  0  2  0  0  0  0  0  0  0  0  0
  148.7229  139.3873  154.3436 C   0  0  0  0  0  0  0  0  0  0  0  0
  148.0168  138.5898  153.4141 O   0  0  0  0  0  0  0  0  0  0  0  0
  149.1890  141.6865  155.0797 N   0  5  0  0  0  0  0  0  0  0  0  0
  150.2324  140.9629  156.0883 S   0  0  0  0  0  0  0  0  0  0  0  0
  149.5609  140.2447  157.1835 O   0  0  0  0  0  0  0  0  0  0  0  0
  151.3009  140.2423  155.3762 O   0  0  0  0  0  0  0  0  0  0  0  0
  151.0337  142.4355  156.8561 C   0  0  0  0  0  0  0  0  0  0  0  0
  151.9355  142.0105  157.9817 C   0  0  0  0  0  0  0  0  0  0  0  0
  152.7218  142.8243  158.8441 C   0  0  0  0  0  0  0  0  0  0  0  0
  153.3262  141.9229  159.6717 C   0  0  0  0  0  0  0  0  0  0  0  0
  152.9407  140.6596  159.3609 O   0  0  0  0  0  0  0  0  0  0  0  0
  152.0506  140.7257  158.2831 N   0  0  0  0  0  0  0  0  0  0  0  0
  148.4812  141.1420  153.1627 H   0  0  0  0  0  0  0  0  0  0  0  0
  146.9036  143.2743  155.0863 H   0  0  0  0  0  0  0  0  0  0  0  0
  145.3508  142.7430  154.4706 H   0  0  0  0  0  0  0  0  0  0  0  0
  146.6751  143.0098  153.3570 H   0  0  0  0  0  0  0  0  0  0  0  0
  146.2682  140.5960  153.7727 H   0  0  0  0  0  0  0  0  0  0  0  0
  146.8459  141.1147  156.7303 H   0  0  0  0  0  0  0  0  0  0  0  0
  146.5149  139.5392  156.0081 H   0  0  0  0  0  0  0  0  0  0  0  0
  145.2831  140.7785  156.0133 H   0  0  0  0  0  0  0  0  0  0  0  0
  149.7929  139.2388  154.1945 H   0  0  0  0  0  0  0  0  0  0  0  0
  148.4859  139.0234  155.3436 H   0  0  0  0  0  0  0  0  0  0  0  0
  148.3776  138.7390  152.5542 H   0  0  0  0  0  0  0  0  0  0  0  0
  151.5946  142.9602  156.0831 H   0  0  0  0  0  0  0  0  0  0  0  0
  150.2470  143.1039  157.2067 H   0  0  0  0  0  0  0  0  0  0  0  0
  152.8301  143.8989  158.8470 H   0  0  0  0  0  0  0  0  0  0  0  0
  154.0204  142.0192  160.4931 H   0  0  0  0  0  0  0  0  0  0  0  0
  1  2  1  0  0  0  0
  1 18  1  0  0  0  0
  1 19  1  0  0  0  0
  1 20  1  0  0  0  0
  2  3  1  0  0  0  0
  2  4  1  0  0  0  0
  2 21  1  0  0  0  0
  3 22  1  0  0  0  0
  3 23  1  0  0  0  0
  3 24  1  0  0  0  0
  4 17  1  0  0  0  0
  4  5  1  0  0  0  0
  4  7  1  0  0  0  0
  5  6  1  0  0  0  0
  5 25  1  0  0  0  0
  5 26  1  0  0  0  0
  6 27  1  0  0  0  0
  7  8  1  0  0  0  0
  8  9  2  0  0  0  0
  8 10  2  0  0  0  0
  8 11  1  0  0  0  0
 11 12  1  0  0  0  0
 11 28  1  0  0  0  0
 11 29  1  0  0  0  0
 12 16  2  0  0  0  0
 12 13  1  0  0  0  0
 13 14  2  0  0  0  0
 13 30  1  0  0  0  0
 14 15  1  0  0  0  0
 14 31  1  0  0  0  0
 15 16  1  0  0  0  0
M  CHG  1   7  -1
M  END
> <s_m_source_file>
AV-unprocessed.smi

> <i_m_source_file_index>
2926

> <i_lp_mmshare_version>
43012

> <i_f3d_flags>
0

> <s_epik_input>
W0NIM11bQ0hdKFtDSDNdKVtDQEBIXShbQ0gyXVtPSF0pW05IXVMoPU8pKD1PKVtDSDJdYzFbY0hdW2NIXW9uMQ==

> <s_epik_cmdline>
J2VwaWtfcHl0aG9uJywgJy1waCcsICc3LjAnLCAnLXRuJywgJzgnLCAnLW1hJywgJzIwMCcsICctbWV0YWxfYmluZGluZycsICctaW1hZScsICc8aW5maWxlLm1hZT4nLCAnLW9tYWUnLCAnPG91dGZpbGUubWFlPic=

> <r_lp_tautomer_probability>
1

> <r_epik_Ionization_Penalty>
4.75719

> <r_epik_Ionization_Penalty_Charging>
4.75718

> <r_epik_Ionization_Penalty_Neutral>
1.48962e-06

> <r_epik_State_Penalty>
4.75699

> <r_epik_Charging_Adjusted_Penalty>
9.51417

> <i_epik_Tot_Q>
-1

> <i_epik_Tot_abs_Q>
1

> <r_epik_Metal_State_Penalty>
0.961449

> <b_epik_Metal_Only>
1

> <s_lp_Force_Field>
OPLS_2005

> <r_lp_Energy>
3.36492

> <b_lp_Chiralities_Consistent>
1

> <s_lp_Variant>
AV-unprocessed.smi:2926-4

> <Gold.Version>
5.8.1

> <Gold.Id.Protein>
6NUR|6NUR_protein|mol2

> <Gold.PLP.Fitness>
35.6617

> <Gold.PLP.PLP>
-30.2860

> <Gold.PLP.part.hbond>
-3.0000

> <Gold.PLP.part.metal>
0.0000

> <Gold.PLP.part.buried>
-4.3266

> <Gold.PLP.part.nonpolar>
-23.5614

> <Gold.PLP.part.repulsive>
0.6910

> <Gold.PLP.ligand.clash>
0.0000

> <Gold.PLP.ligand.torsion>
0.7888

> <Gold.PLP.Chemscore.Hbond>
1.9440

> <Gold.PLP.Chemscore.CHOScore>
0.0000

> <Gold.PLP.Chemscore.Metal>
0.0000

> <Gold.Chemscore.Hbonds>
donor molecule, donor type, donor heavy atom, donor atom, acceptor molecule, acceptor atom, score
      L1  H     6    27       P1  7957  0.46
      P1  H  7989  7998       L1    10  1.00

> <Gold.PLP.Chemscore.Internal.Correction>
1.1214

> <Gold.Rescore>
     Score         DG    S(hbond)    S(metal)    S(lipo)     H(rot)  DE(clash)    DE(int)     intcor
      8.97     -13.34       1.89        0.00      69.72       2.58       0.70       3.66       ----

> <Gold.Chemscore.Fitness>
8.9695

> <Gold.Chemscore.DG>
-13.3381

> <Gold.Chemscore.ZeroCoef>
-5.4800

> <Gold.Chemscore.Hbond>
1.8863

> <Gold.Chemscore.Metal>
0.0000

> <Gold.Chemscore.Lipo>
69.7150

> <Gold.Chemscore.Internal_Hbond>
0.0000

> <Gold.Chemscore.DEClash>
0.7048

> <Gold.Chemscore.DEInternal>
3.6637

> <Gold.Chemscore.Rot>
2.5776

> <Gold.Chemscore.Internal.Correction>
   9.000000E+99

> <Gold.Chemscore.Hbonds>
donor molecule, donor type, donor heavy atom, donor atom, acceptor molecule, acceptor atom, score
      L1  H     6    27       P1  7957  0.43
      P1  H  7989  7998       L1    10  0.83

> <Gold.Chemscore.Hbond.Weighted>
-6.3001

> <Gold.Chemscore.Metal.Weighted>
-0.0000

> <Gold.Chemscore.Lipo.Weighted>
-8.1567

> <Gold.Chemscore.Internal_Hbond.Weighted>
0.0000

> <Gold.Chemscore.DEClash.Weighted>
0.7048

> <Gold.Chemscore.DEInternal.Weighted>
3.6637

> <Gold.Chemscore.Rot.Weighted>
6.5987

> <Gold.Chemscore.Internal.Correction.Weighted>
   9.000000E+99

> <Gold.Protein.RotatedTorsions>
[ 6907 6896 6895 6894 ] final   95.01 input  -60.11 | X-H torsion
[ 7974 7965 7964 7962 ] final  -16.14 input  175.53 | X-H torsion
[ 8008 7997 7996 7995 ] final   14.30 input   59.86 | X-H torsion
[ 10167 10162 10161 10158 ] final  -48.51 input  -65.29 | X-H torsion
[ 10718 10713 10712 10709 ] final  -85.80 input   66.30 | X-H torsion
[ 10763 10752 10751 10750 ] final  -93.42 input  -60.55 | X-H torsion
[ 11005 11000 10999 10996 ] final  106.18 input  -57.11 | X-H torsion

> <Gold.Protein.ActiveResidues>
 VAL166  LYS551  ARG553  GLY616  TRP617  ASP618  TYR619  PRO620  LYS621  CYS622 
 ASP623  PHE694  ASN695  SER759  ASP760  ASP761  ALA762  ILE779  LEU786  VAL792 
 PHE793  MET794  SER795  GLU796  ALA797  LYS798  CYS799  TRP800  GLU811  SER814 

> <Gold.Protein.RotatedAtoms>
  152.5446  134.1105  159.8356 H   0  0  0  0  0  0  0  0  0  0  0  0  # atno 6907 bound_to 6896
  151.1172  133.5123  159.2611 H   0  0  0  0  0  0  0  0  0  0  0  0  # atno 6908 bound_to 6896
  151.1819  135.0374  159.8850 H   0  0  0  0  0  0  0  0  0  0  0  0  # atno 6909 bound_to 6896
  146.2001  140.3594  142.8426 H   0  0  0  0  0  0  0  0  0  0  0  0  # atno 7974 bound_to 7965
  154.8465  140.2923  155.5625 H   0  0  0  0  0  0  0  0  0  0  0  0  # atno 8008 bound_to 7997
  156.3014  140.2504  156.3348 H   0  0  0  0  0  0  0  0  0  0  0  0  # atno 8009 bound_to 7997
  154.9068  140.0390  157.1913 H   0  0  0  0  0  0  0  0  0  0  0  0  # atno 8010 bound_to 7997
  140.6728  143.2737  151.4081 H   0  0  0  0  0  0  0  0  0  0  0  0  # atno 10167 bound_to 10162
  155.9994  130.4743  150.4618 H   0  0  0  0  0  0  0  0  0  0  0  0  # atno 10718 bound_to 10713
  154.6958  135.5195  153.8456 H   0  0  0  0  0  0  0  0  0  0  0  0  # atno 10763 bound_to 10752
  153.0666  135.6587  154.0350 H   0  0  0  0  0  0  0  0  0  0  0  0  # atno 10764 bound_to 10752
  154.0217  135.2993  155.3359 H   0  0  0  0  0  0  0  0  0  0  0  0  # atno 10765 bound_to 10752
  139.8811  134.9360  156.5626 H   0  0  0  0  0  0  0  0  0  0  0  0  # atno 11005 bound_to 11000
  144.8664  140.7212  143.6075 LP  0  0  0  0  0  0  0  0  0  0  0  0  # atno 17320 bound_to 7965
  145.3514  139.1705  143.4433 LP  0  0  0  0  0  0  0  0  0  0  0  0  # atno 17321 bound_to 7965
  139.6004  144.1307  152.2192 LP  0  0  0  0  0  0  0  0  0  0  0  0  # atno 17342 bound_to 10162
  140.0690  144.5795  150.7206 LP  0  0  0  0  0  0  0  0  0  0  0  0  # atno 17343 bound_to 10162
  157.2641  131.0573  151.2301 LP  0  0  0  0  0  0  0  0  0  0  0  0  # atno 17370 bound_to 10713
  157.3405  130.7031  149.6379 LP  0  0  0  0  0  0  0  0  0  0  0  0  # atno 17371 bound_to 10713
  140.8158  133.8393  155.8850 LP  0  0  0  0  0  0  0  0  0  0  0  0  # atno 17394 bound_to 11000
  140.9464  134.1834  157.4760 LP  0  0  0  0  0  0  0  0  0  0  0  0  # atno 17395 bound_to 11000

$$$$
