AV-unprocessed.smi:2212|AV-procd|sdf|8955|dock3
  -GOLD-   2272012173D 1   1.00000     0.00000
 Structure written by MMmdl.
 30 31  0  0  0  0  0  0  0  0  2 V2000
  152.8708  142.7781  161.8063 C   0  0  0  0  0  0  0  0  0  0  0  0
  151.9337  143.4621  160.9850 O   0  0  0  0  0  0  0  0  0  0  0  0
  151.9615  143.1325  159.5957 C   0  0  0  0  0  0  0  0  0  0  0  0
  152.0250  141.6163  159.3613 C   0  0  0  0  0  0  0  0  0  0  0  0
  152.2098  141.3157  157.9473 N   0  0  0  0  0  0  0  0  0  0  0  0
  152.2987  140.0851  157.4262 C   0  0  0  0  0  0  0  0  0  0  0  0
  152.2232  139.1003  158.1648 O   0  0  0  0  0  0  0  0  0  0  0  0
  152.4703  140.0710  156.0850 N   0  5  0  0  0  0  0  0  0  0  0  0
  151.8539  139.1380  155.3416 C   0  0  0  0  0  0  0  0  0  0  0  0
  151.9662  137.8156  155.4795 N   0  0  0  0  0  0  0  0  0  0  0  0
  151.1496  137.2622  154.5054 C   0  0  0  0  0  0  0  0  0  0  0  0
  150.5653  138.2886  153.8148 C   0  0  0  0  0  0  0  0  0  0  0  0
  150.9986  139.4765  154.3355 O   0  0  0  0  0  0  0  0  0  0  0  0
  150.8350  143.9186  158.8984 C   0  0  0  0  0  0  0  0  0  0  0  0
  151.8344  144.3106  157.8088 C   0  0  0  0  0  0  0  0  0  0  0  0
  152.9426  144.0416  158.8283 C   0  0  0  0  0  0  0  0  0  0  0  0
  152.8359  143.1957  162.8123 H   0  0  0  0  0  0  0  0  0  0  0  0
  153.8912  142.8862  161.4380 H   0  0  0  0  0  0  0  0  0  0  0  0
  152.6371  141.7167  161.8887 H   0  0  0  0  0  0  0  0  0  0  0  0
  152.8565  141.1846  159.9205 H   0  0  0  0  0  0  0  0  0  0  0  0
  151.1268  141.1193  159.7284 H   0  0  0  0  0  0  0  0  0  0  0  0
  152.2706  142.1009  157.3155 H   0  0  0  0  0  0  0  0  0  0  0  0
  151.0497  136.1940  154.3830 H   0  0  0  0  0  0  0  0  0  0  0  0
  149.8707  138.3422  152.9902 H   0  0  0  0  0  0  0  0  0  0  0  0
  149.9998  143.3121  158.5467 H   0  0  0  0  0  0  0  0  0  0  0  0
  150.4879  144.7780  159.4750 H   0  0  0  0  0  0  0  0  0  0  0  0
  151.8466  143.6101  156.9723 H   0  0  0  0  0  0  0  0  0  0  0  0
  151.7628  145.3454  157.4730 H   0  0  0  0  0  0  0  0  0  0  0  0
  153.2244  144.9394  159.3812 H   0  0  0  0  0  0  0  0  0  0  0  0
  153.8160  143.5314  158.4213 H   0  0  0  0  0  0  0  0  0  0  0  0
  1  2  1  0  0  0  0
  1 17  1  0  0  0  0
  1 18  1  0  0  0  0
  1 19  1  0  0  0  0
  2  3  1  0  0  0  0
  3 16  1  0  0  0  0
  3  4  1  0  0  0  0
  3 14  1  0  0  0  0
  4  5  1  0  0  0  0
  4 20  1  0  0  0  0
  4 21  1  0  0  0  0
  5 22  1  0  0  0  0
  5  6  1  0  0  0  0
  6  8  1  0  0  0  0
  6  7  2  0  0  0  0
  8  9  1  0  0  0  0
  9 13  1  0  0  0  0
  9 10  2  0  0  0  0
 10 11  1  0  0  0  0
 11 23  1  0  0  0  0
 11 12  2  0  0  0  0
 12 24  1  0  0  0  0
 12 13  1  0  0  0  0
 14 15  1  0  0  0  0
 14 25  1  0  0  0  0
 14 26  1  0  0  0  0
 15 16  1  0  0  0  0
 15 27  1  0  0  0  0
 15 28  1  0  0  0  0
 16 29  1  0  0  0  0
 16 30  1  0  0  0  0
M  CHG  1   8  -1
M  END
> <s_m_source_file>
AV-unprocessed.smi

> <i_m_source_file_index>
2212

> <i_lp_mmshare_version>
43012

> <i_f3d_flags>
0

> <s_epik_input>
W0NIMl0xW0NIMl1bQ0gyXUMxKE9bQ0gzXSlbQ0gyXVtOSF1DKD1PKVtOSF1jMm5bY0hdW2NIXW8y

> <s_epik_cmdline>
J2VwaWtfcHl0aG9uJywgJy1waCcsICc3LjAnLCAnLXRuJywgJzgnLCAnLW1hJywgJzIwMCcsICctbWV0YWxfYmluZGluZycsICctaW1hZScsICc8aW5maWxlLm1hZT4nLCAnLW9tYWUnLCAnPG91dGZpbGUubWFlPic=

> <r_lp_tautomer_probability>
0.107061

> <r_epik_Ionization_Penalty>
10.8857

> <r_epik_Ionization_Penalty_Charging>
7.67908

> <r_epik_Ionization_Penalty_Neutral>
3.20665

> <r_epik_State_Penalty>
5.80296

> <r_epik_Charging_Adjusted_Penalty>
13.482

> <i_epik_Tot_Q>
-1

> <i_epik_Tot_abs_Q>
1

> <r_epik_Metal_State_Penalty>
1.73217

> <b_epik_Metal_Only>
1

> <s_lp_Force_Field>
OPLS_2005

> <r_lp_Energy>
11.9556

> <b_lp_Chiralities_Consistent>
1

> <s_lp_Variant>
AV-unprocessed.smi:2212-5

> <Gold.Version>
5.8.1

> <Gold.Id.Protein>
6NUR|6NUR_protein|mol2

> <Gold.PLP.Fitness>
46.2067

> <Gold.PLP.PLP>
-33.8271

> <Gold.PLP.part.hbond>
-2.0000

> <Gold.PLP.part.metal>
0.0000

> <Gold.PLP.part.buried>
-3.9522

> <Gold.PLP.part.nonpolar>
-28.2882

> <Gold.PLP.part.repulsive>
0.3522

> <Gold.PLP.ligand.clash>
0.0000

> <Gold.PLP.ligand.torsion>
1.1518

> <Gold.PLP.Chemscore.Hbond>
3.0000

> <Gold.PLP.Chemscore.CHOScore>
1.8035

> <Gold.PLP.Chemscore.Metal>
0.0000

> <Gold.Chemscore.Hbonds>
donor molecule, donor type, donor heavy atom, donor atom, acceptor molecule, acceptor atom, score
      P1  H  7989  7998       L1    13  1.00
      P1  H  7997  8009       L1     8  1.10
      L1  C    11    23       P1  7949  0.04
      L1  C    12    24       P1  7948  0.83
      L1  C    12    24       P1  7957  1.00

> <Gold.PLP.Chemscore.Internal.Correction>
0.2729

> <Gold.Rescore>
     Score         DG    S(hbond)    S(metal)    S(lipo)     H(rot)  DE(clash)    DE(int)     intcor
     14.44     -17.72       1.85        0.00      87.12       1.61       0.05       3.23       ----

> <Gold.Chemscore.Fitness>
14.4433

> <Gold.Chemscore.DG>
-17.7217

> <Gold.Chemscore.ZeroCoef>
-5.4800

> <Gold.Chemscore.Hbond>
1.8503

> <Gold.Chemscore.Metal>
0.0000

> <Gold.Chemscore.Lipo>
87.1250

> <Gold.Chemscore.Internal_Hbond>
0.0000

> <Gold.Chemscore.DEClash>
0.0494

> <Gold.Chemscore.DEInternal>
3.2290

> <Gold.Chemscore.Rot>
1.6141

> <Gold.Chemscore.Internal.Correction>
   9.000000E+99

> <Gold.Chemscore.Hbonds>
donor molecule, donor type, donor heavy atom, donor atom, acceptor molecule, acceptor atom, score
      P1  H  7989  7998       L1    13  0.70
      P1  H  7997  8009       L1     8  0.03

> <Gold.Chemscore.Hbond.Weighted>
-6.1802

> <Gold.Chemscore.Metal.Weighted>
-0.0000

> <Gold.Chemscore.Lipo.Weighted>
-10.1936

> <Gold.Chemscore.Internal_Hbond.Weighted>
0.0000

> <Gold.Chemscore.DEClash.Weighted>
0.0494

> <Gold.Chemscore.DEInternal.Weighted>
3.2290

> <Gold.Chemscore.Rot.Weighted>
4.1320

> <Gold.Chemscore.Internal.Correction.Weighted>
   9.000000E+99

> <Gold.Protein.RotatedTorsions>
[ 6907 6896 6895 6894 ] final   13.38 input  -60.11 | X-H torsion
[ 7974 7965 7964 7962 ] final  -60.90 input  175.53 | X-H torsion
[ 8008 7997 7996 7995 ] final -159.01 input   59.86 | X-H torsion
[ 10167 10162 10161 10158 ] final   75.35 input  -65.29 | X-H torsion
[ 10718 10713 10712 10709 ] final  -82.74 input   66.30 | X-H torsion
[ 10763 10752 10751 10750 ] final -131.16 input  -60.55 | X-H torsion
[ 11005 11000 10999 10996 ] final  -57.98 input  -57.11 | X-H torsion

> <Gold.Protein.ActiveResidues>
 VAL166  LYS551  ARG553  GLY616  TRP617  ASP618  TYR619  PRO620  LYS621  CYS622 
 ASP623  PHE694  ASN695  SER759  ASP760  ASP761  ALA762  ILE779  LEU786  VAL792 
 PHE793  MET794  SER795  GLU796  ALA797  LYS798  CYS799  TRP800  GLU811  SER814 

> <Gold.Protein.RotatedAtoms>
  151.7854  135.0750  160.0379 H   0  0  0  0  0  0  0  0  0  0  0  0  # atno 6907 bound_to 6896
  152.3194  133.5833  159.5742 H   0  0  0  0  0  0  0  0  0  0  0  0  # atno 6908 bound_to 6896
  150.7361  133.9950  159.3661 H   0  0  0  0  0  0  0  0  0  0  0  0  # atno 6909 bound_to 6896
  145.8099  140.8605  143.0187 H   0  0  0  0  0  0  0  0  0  0  0  0  # atno 7974 bound_to 7965
  155.7562  140.0833  157.2177 H   0  0  0  0  0  0  0  0  0  0  0  0  # atno 8008 bound_to 7997
  154.4007  140.1551  156.2837 H   0  0  0  0  0  0  0  0  0  0  0  0  # atno 8009 bound_to 7997
  155.8883  140.3416  155.5940 H   0  0  0  0  0  0  0  0  0  0  0  0  # atno 8010 bound_to 7997
  140.0039  144.5665  150.7714 H   0  0  0  0  0  0  0  0  0  0  0  0  # atno 10167 bound_to 10162
  156.0028  130.4643  150.4151 H   0  0  0  0  0  0  0  0  0  0  0  0  # atno 10718 bound_to 10713
  154.8752  135.3839  154.4201 H   0  0  0  0  0  0  0  0  0  0  0  0  # atno 10763 bound_to 10752
  153.4905  135.7030  153.5892 H   0  0  0  0  0  0  0  0  0  0  0  0  # atno 10764 bound_to 10752
  153.4267  135.3888  155.2112 H   0  0  0  0  0  0  0  0  0  0  0  0  # atno 10765 bound_to 10752
  141.1188  133.6611  156.4852 H   0  0  0  0  0  0  0  0  0  0  0  0  # atno 11005 bound_to 11000
  144.6758  140.0380  143.7481 LP  0  0  0  0  0  0  0  0  0  0  0  0  # atno 17320 bound_to 7965
  145.9788  139.2925  143.1054 LP  0  0  0  0  0  0  0  0  0  0  0  0  # atno 17321 bound_to 7965
  140.7408  143.2809  151.3601 LP  0  0  0  0  0  0  0  0  0  0  0  0  # atno 17342 bound_to 10162
  139.6252  144.0828  152.2428 LP  0  0  0  0  0  0  0  0  0  0  0  0  # atno 17343 bound_to 10162
  157.2211  131.0482  151.2546 LP  0  0  0  0  0  0  0  0  0  0  0  0  # atno 17370 bound_to 10713
  157.3800  130.7226  149.6623 LP  0  0  0  0  0  0  0  0  0  0  0  0  # atno 17371 bound_to 10713
  140.4568  134.6878  157.5066 LP  0  0  0  0  0  0  0  0  0  0  0  0  # atno 17394 bound_to 11000
  140.0129  134.6662  155.9353 LP  0  0  0  0  0  0  0  0  0  0  0  0  # atno 17395 bound_to 11000

$$$$
