#       Name:                AV-unprocessed.smi:1722
#       Creating user name   scv26
#       Creation time:       Fri Mar 27 08:15:05 2020


#       File generated by GOLD software.
#

@<TRIPOS>MOLECULE
AV-unprocessed.smi:1722
    45    46     1
SMALL
NO_CHARGES


@<TRIPOS>ATOM
      1 ****        -1.5360   1.9819  -1.2725 O.2            1 S1                 0.0000
      2 ****        -0.8472   0.9757  -1.1085 C.2            1 S1                 0.0000
      3 ****         0.6728   1.1156  -1.0491 C.3            1 S1                 0.0000
      4 ****         1.1586   0.3847   0.0692 O.3            1 S1                 0.0000
      5 ****         2.5727   0.3941   0.2127 C.3            1 S1                 0.0000
      6 ****         2.9474  -0.8002   1.1080 C.3            1 S1                 0.0000
      7 ****         4.4579  -0.8409   1.3905 C.3            1 S1                 0.0000
      8 ****         4.9407   0.4776   2.0148 C.3            1 S1                 0.0000
      9 ****         4.5684   1.6786   1.1313 C.3            1 S1                 0.0000
     10 ****         3.0585   1.7163   0.8439 C.3            1 S1                 0.0000
     11 ****        -1.3179  -0.2832  -1.0044 N.am           1 S1                 0.0000
     12 ****        -2.6451  -0.7439  -0.9961 C.2            1 S1                 0.0000
     13 ****        -3.7366   0.0344  -0.7746 C.2            1 S1                 0.0000
     14 ****        -5.0843  -0.5098  -0.7692 C.2            1 S1                 0.0000
     15 ****        -6.2926   0.3618  -0.4634 C.3            1 S1                 0.0000
     16 ****        -6.7559   0.9034  -1.5890 F              1 S1                 0.0000
     17 ****        -7.2758  -0.3485   0.0916 F              1 S1                 0.0000
     18 ****        -5.9692   1.3507   0.3702 F              1 S1                 0.0000
     19 ****        -5.1967  -1.8363  -0.9661 C.2            1 S1                 0.0000
     20 ****        -4.0800  -2.6436  -1.1948 N.am           1 S1                 0.0000
     21 ****        -2.8067  -2.1902  -1.2204 C.2            1 S1                 0.0000
     22 ****        -1.8748  -2.9682  -1.4216 O.2            1 S1                 0.0000
     23 ****        -4.2482  -3.6282  -1.3434 H              1 S1                 0.0000
     24 ****         1.0996   0.7286  -1.9754 H              1 S1                 0.0000
     25 ****         0.9381   2.1703  -0.9735 H              1 S1                 0.0000
     26 ****         3.0449   0.2534  -0.7614 H              1 S1                 0.0000
     27 ****         2.4036  -0.7368   2.0516 H              1 S1                 0.0000
     28 ****         2.6351  -1.7316   0.6345 H              1 S1                 0.0000
     29 ****         4.6896  -1.6734   2.0554 H              1 S1                 0.0000
     30 ****         4.9990  -1.0265   0.4618 H              1 S1                 0.0000
     31 ****         4.4949   0.5992   3.0029 H              1 S1                 0.0000
     32 ****         6.0203   0.4456   2.1644 H              1 S1                 0.0000
     33 ****         4.8774   2.6054   1.6154 H              1 S1                 0.0000
     34 ****         5.1170   1.6232   0.1902 H              1 S1                 0.0000
     35 ****         2.8424   2.5595   0.1885 H              1 S1                 0.0000
     36 ****         2.5161   1.8995   1.7723 H              1 S1                 0.0000
     37 ****        -0.6206  -1.0120  -0.9479 H              1 S1                 0.0000
     38 ****        -3.6362   1.0895  -0.5799 H              1 S1                 0.0000
     39 ****        -6.1324  -2.3757  -0.9591 H              1 S1                 0.0000
     40 ****        -1.0996   2.8769  -1.3650 LP             1 S1                 0.0000
     41 ****        -2.5322   1.9047  -1.3133 LP             1 S1                 0.0000
     42 ****         0.8610  -0.5652  -0.0257 LP             1 S1                 0.0000
     43 ****         0.7584   0.7782   0.8969 LP             1 S1                 0.0000
     44 ****        -0.9346  -2.6281  -1.4401 LP             1 S1                 0.0000
     45 ****        -2.0576  -3.9406  -1.5665 LP             1 S1                 0.0000
@<TRIPOS>BOND
    1    1    2 2     
    2    2    3 1     
    3    2   11 am    
    4    3    4 1     
    5    3   24 1     
    6    3   25 1     
    7    4    5 1     
    8    5   10 1     
    9    5    6 1     
   10    5   26 1     
   11    6    7 1     
   12    6   27 1     
   13    6   28 1     
   14    7    8 1     
   15    7   29 1     
   16    7   30 1     
   17    8    9 1     
   18    8   31 1     
   19    8   32 1     
   20    9   10 1     
   21    9   33 1     
   22    9   34 1     
   23   10   35 1     
   24   10   36 1     
   25   11   12 1     
   26   11   37 1     
   27   12   21 1     
   28   12   13 2     
   29   13   14 1     
   30   13   38 1     
   31   14   15 1     
   32   14   19 2     
   33   15   16 1     
   34   15   17 1     
   35   15   18 1     
   36   19   20 1     
   37   19   39 1     
   38   20   23 1     
   39   20   21 am    
   40   21   22 2     
   41    1   40 1     
   42    1   41 1     
   43    4   42 1     
   44    4   43 1     
   45   22   44 1     
   46   22   45 1     
@<TRIPOS>SUBSTRUCTURE
      1 S1             1
@<TRIPOS>SET
LONE_PAIRS      STATIC     ATOMS    <user>   **** ""
6 40 41 42 43 44 45
DONOR_HYDROGENS      STATIC     ATOMS    <user>   **** ""
2 37 23
ATOM$BLUE        STATIC     ATOMS    COLORGROUP SYSTEM
6 40 41 42 43 44 45
ATOM$RED        STATIC     ATOMS    COLORGROUP SYSTEM
2 37 23
