AV-unprocessed.smi:3341|AV-procd|sdf|12885|dock4
  -GOLD-   2272019293D 1   1.00000     0.00000
 Structure written by MMmdl.
 46 47  0  0  0  0  0  0  0  0  2 V2000
  151.2890  141.2811  157.6018 C   0  0  0  0  0  0  0  0  0  0  0  0
  152.0729  140.0661  157.0918 C   0  0  0  0  0  0  0  0  0  0  0  0
  151.3482  139.3542  156.0574 N   0  0  0  0  0  0  0  0  0  0  0  0
  150.9820  138.0230  156.0335 C   0  0  0  0  0  0  0  0  0  0  0  0
  150.3212  137.8430  154.8512 C   0  0  0  0  0  0  0  0  0  0  0  0
  149.7376  136.6668  154.3162 N   0  0  0  0  0  0  0  0  0  0  0  0
  149.3127  135.5872  154.9923 C   0  0  0  0  0  0  0  0  0  0  0  0
  149.3502  135.4559  156.2158 O   0  0  0  0  0  0  0  0  0  0  0  0
  148.8266  134.6523  154.1638 N   0  0  0  0  0  0  0  0  0  0  0  0
  148.2902  133.3623  154.5820 C   0  0  0  0  0  0  0  0  0  0  0  0
  146.7505  133.3437  154.5213 C   0  0  0  0  0  0  0  0  0  0  0  0
  146.2382  133.3234  153.1279 N   0  3  1  0  0  0  0  0  0  0  0  0
  146.3510  131.9775  152.5084 C   0  0  0  0  0  0  0  0  0  0  0  0
  145.9613  132.0156  151.0225 C   0  0  0  0  0  0  0  0  0  0  0  0
  144.5498  132.5896  150.8369 C   0  0  0  0  0  0  0  0  0  0  0  0
  144.4083  133.9578  151.5288 C   0  0  2  0  0  0  0  0  0  0  0  0
  145.1249  135.0884  150.7695 C   0  0  0  0  0  0  0  0  0  0  0  0
  144.8586  133.8685  153.0019 C   0  0  0  0  0  0  0  0  0  0  0  0
  150.3256  139.1084  154.2087 C   0  0  0  0  0  0  0  0  0  0  0  0
  150.9469  140.0173  154.9446 N   0  0  0  0  0  0  0  0  0  0  0  0
  151.8435  141.7996  158.3840 H   0  0  0  0  0  0  0  0  0  0  0  0
  150.3267  140.9817  158.0183 H   0  0  0  0  0  0  0  0  0  0  0  0
  151.1001  141.9948  156.7993 H   0  0  0  0  0  0  0  0  0  0  0  0
  153.0396  140.3772  156.6935 H   0  0  0  0  0  0  0  0  0  0  0  0
  152.2753  139.3772  157.9127 H   0  0  0  0  0  0  0  0  0  0  0  0
  151.2226  137.3477  156.8412 H   0  0  0  0  0  0  0  0  0  0  0  0
  149.6352  136.6463  153.3121 H   0  0  0  0  0  0  0  0  0  0  0  0
  148.8358  134.8439  153.1724 H   0  0  0  0  0  0  0  0  0  0  0  0
  148.7165  132.6085  153.9217 H   0  0  0  0  0  0  0  0  0  0  0  0
  148.6359  133.1236  155.5894 H   0  0  0  0  0  0  0  0  0  0  0  0
  146.3993  132.4505  155.0401 H   0  0  0  0  0  0  0  0  0  0  0  0
  146.3292  134.1949  155.0582 H   0  0  0  0  0  0  0  0  0  0  0  0
  147.3754  131.6134  152.5960 H   0  0  0  0  0  0  0  0  0  0  0  0
  145.7162  131.2729  153.0482 H   0  0  0  0  0  0  0  0  0  0  0  0
  146.6841  132.6145  150.4674 H   0  0  0  0  0  0  0  0  0  0  0  0
  146.0104  131.0113  150.6006 H   0  0  0  0  0  0  0  0  0  0  0  0
  144.3084  132.6685  149.7764 H   0  0  0  0  0  0  0  0  0  0  0  0
  143.8246  131.8952  151.2637 H   0  0  0  0  0  0  0  0  0  0  0  0
  143.3476  134.2128  151.5268 H   0  0  0  0  0  0  0  0  0  0  0  0
  146.2039  134.9383  150.7363 H   0  0  0  0  0  0  0  0  0  0  0  0
  144.9427  136.0536  151.2432 H   0  0  0  0  0  0  0  0  0  0  0  0
  144.7678  135.1575  149.7416 H   0  0  0  0  0  0  0  0  0  0  0  0
  144.1724  133.2267  153.5571 H   0  0  0  0  0  0  0  0  0  0  0  0
  144.7906  134.8562  153.4564 H   0  0  0  0  0  0  0  0  0  0  0  0
  149.9081  139.3921  153.2539 H   0  0  0  0  0  0  0  0  0  0  0  0
  146.8448  133.9283  152.5927 H   0  0  0  0  0  0  0  0  0  0  0  0
  1  2  1  0  0  0  0
  1 21  1  0  0  0  0
  1 22  1  0  0  0  0
  1 23  1  0  0  0  0
  2  3  1  0  0  0  0
  2 24  1  0  0  0  0
  2 25  1  0  0  0  0
  3 20  1  0  0  0  0
  3  4  1  0  0  0  0
  4  5  2  0  0  0  0
  4 26  1  0  0  0  0
  5  6  1  0  0  0  0
  5 19  1  0  0  0  0
  6  7  1  0  0  0  0
  6 27  1  0  0  0  0
  7  8  2  0  0  0  0
  7  9  1  0  0  0  0
  9 10  1  0  0  0  0
  9 28  1  0  0  0  0
 10 11  1  0  0  0  0
 10 29  1  0  0  0  0
 10 30  1  0  0  0  0
 11 12  1  0  0  0  0
 11 31  1  0  0  0  0
 11 32  1  0  0  0  0
 12 18  1  0  0  0  0
 12 13  1  0  0  0  0
 12 46  1  0  0  0  0
 13 14  1  0  0  0  0
 13 33  1  0  0  0  0
 13 34  1  0  0  0  0
 14 15  1  0  0  0  0
 14 35  1  0  0  0  0
 14 36  1  0  0  0  0
 15 16  1  0  0  0  0
 15 37  1  0  0  0  0
 15 38  1  0  0  0  0
 16 17  1  0  0  0  0
 16 18  1  0  0  0  0
 16 39  1  0  0  0  0
 17 40  1  0  0  0  0
 17 41  1  0  0  0  0
 17 42  1  0  0  0  0
 18 43  1  0  0  0  0
 18 44  1  0  0  0  0
 19 20  2  0  0  0  0
 19 45  1  0  0  0  0
M  CHG  1  12   1
M  END
> <s_m_source_file>
AV-unprocessed.smi

> <i_m_source_file_index>
3341

> <i_lp_mmshare_version>
43012

> <i_f3d_flags>
0

> <s_epik_input>
W0NIM11bQ0gyXW4xW2NIXWMoW2NIXW4xKVtOSF1DKD1PKVtOSF1bQ0gyXVtDSDJdTjJbQ0gyXVtDSDJdW0NIMl1bQ0BASF0oW0NIM10pW0NIMl0y

> <s_epik_cmdline>
J2VwaWtfcHl0aG9uJywgJy1waCcsICc3LjAnLCAnLXRuJywgJzgnLCAnLW1hJywgJzIwMCcsICctbWV0YWxfYmluZGluZycsICctaW1hZScsICc8aW5maWxlLm1hZT4nLCAnLW9tYWUnLCAnPG91dGZpbGUubWFlPic=

> <r_lp_tautomer_probability>
1

> <r_epik_Ionization_Penalty>
0.00203389

> <r_epik_Ionization_Penalty_Charging>
0.00188267

> <r_epik_Ionization_Penalty_Neutral>
0.000151224

> <r_epik_State_Penalty>
0.0012808

> <r_epik_Charging_Adjusted_Penalty>
0.00316346

> <i_epik_Tot_Q>
1

> <i_epik_Tot_abs_Q>
1

> <r_epik_Metal_State_Penalty>
-0

> <b_epik_Metal_Only>
0

> <s_lp_Force_Field>
OPLS_2005

> <r_lp_Energy>
23.1635

> <b_lp_Chiralities_Consistent>
1

> <s_lp_Variant>
AV-unprocessed.smi:3341-3

> <Gold.Version>
5.8.1

> <Gold.Id.Protein>
6NUR|6NUR_protein|mol2

> <Gold.PLP.Fitness>
39.8662

> <Gold.PLP.PLP>
-30.2684

> <Gold.PLP.part.hbond>
-3.3740

> <Gold.PLP.part.metal>
0.0000

> <Gold.PLP.part.buried>
-3.9116

> <Gold.PLP.part.nonpolar>
-23.3240

> <Gold.PLP.part.repulsive>
0.1097

> <Gold.PLP.ligand.clash>
0.0000

> <Gold.PLP.ligand.torsion>
0.4696

> <Gold.PLP.Chemscore.Hbond>
2.4940

> <Gold.PLP.Chemscore.CHOScore>
1.0000

> <Gold.PLP.Chemscore.Metal>
0.0000

> <Gold.Chemscore.Hbonds>
donor molecule, donor type, donor heavy atom, donor atom, acceptor molecule, acceptor atom, score
      L1  H     6    27       P1  7948  1.00
      L1  H     9    28       P1  7948  0.91
      P1  H  7989  7998       L1    20  0.65
      L1  C    19    45       P1  7957  1.00

> <Gold.PLP.Chemscore.Internal.Correction>
0.0550

> <Gold.Rescore>
     Score         DG    S(hbond)    S(metal)    S(lipo)     H(rot)  DE(clash)    DE(int)     intcor
     14.86     -16.24       2.04        0.00      68.52       1.59       0.13       1.24       ----

> <Gold.Chemscore.Fitness>
14.8610

> <Gold.Chemscore.DG>
-16.2397

> <Gold.Chemscore.ZeroCoef>
-5.4800

> <Gold.Chemscore.Hbond>
2.0407

> <Gold.Chemscore.Metal>
0.0000

> <Gold.Chemscore.Lipo>
68.5167

> <Gold.Chemscore.Internal_Hbond>
0.0000

> <Gold.Chemscore.DEClash>
0.1340

> <Gold.Chemscore.DEInternal>
1.2447

> <Gold.Chemscore.Rot>
1.5909

> <Gold.Chemscore.Internal.Correction>
   9.000000E+99

> <Gold.Chemscore.Hbonds>
donor molecule, donor type, donor heavy atom, donor atom, acceptor molecule, acceptor atom, score
      L1  H     6    27       P1  7948  0.49
      L1  H     9    28       P1  7948  0.23
      P1  H  7989  7998       L1    20  0.06

> <Gold.Chemscore.Hbond.Weighted>
-6.8160

> <Gold.Chemscore.Metal.Weighted>
-0.0000

> <Gold.Chemscore.Lipo.Weighted>
-8.0165

> <Gold.Chemscore.Internal_Hbond.Weighted>
0.0000

> <Gold.Chemscore.DEClash.Weighted>
0.1340

> <Gold.Chemscore.DEInternal.Weighted>
1.2447

> <Gold.Chemscore.Rot.Weighted>
4.0728

> <Gold.Chemscore.Internal.Correction.Weighted>
   9.000000E+99

> <Gold.Protein.RotatedTorsions>
[ 6907 6896 6895 6894 ] final    0.06 input  -60.11 | X-H torsion
[ 7974 7965 7964 7962 ] final  -99.13 input  175.53 | X-H torsion
[ 8008 7997 7996 7995 ] final  -12.02 input   59.86 | X-H torsion
[ 10167 10162 10161 10158 ] final  -33.00 input  -65.29 | X-H torsion
[ 10718 10713 10712 10709 ] final   41.44 input   66.30 | X-H torsion
[ 10763 10752 10751 10750 ] final -130.83 input  -60.55 | X-H torsion
[ 11005 11000 10999 10996 ] final -115.73 input  -57.11 | X-H torsion

> <Gold.Protein.ActiveResidues>
 VAL166  LYS551  ARG553  GLY616  TRP617  ASP618  TYR619  PRO620  LYS621  CYS622 
 ASP623  PHE694  ASN695  SER759  ASP760  ASP761  ALA762  ILE779  LEU786  VAL792 
 PHE793  MET794  SER795  GLU796  ALA797  LYS798  CYS799  TRP800  GLU811  SER814 

> <Gold.Protein.RotatedAtoms>
  151.5702  135.1062  159.9993 H   0  0  0  0  0  0  0  0  0  0  0  0  # atno 6907 bound_to 6896
  152.4404  133.7434  159.6664 H   0  0  0  0  0  0  0  0  0  0  0  0  # atno 6908 bound_to 6896
  150.8309  133.8024  159.3122 H   0  0  0  0  0  0  0  0  0  0  0  0  # atno 6909 bound_to 6896
  145.3116  140.9401  143.2766 H   0  0  0  0  0  0  0  0  0  0  0  0  # atno 7974 bound_to 7965
  154.5413  140.2287  155.8636 H   0  0  0  0  0  0  0  0  0  0  0  0  # atno 8008 bound_to 7997
  156.1861  140.3088  155.9203 H   0  0  0  0  0  0  0  0  0  0  0  0  # atno 8009 bound_to 7997
  155.3252  140.0442  157.3031 H   0  0  0  0  0  0  0  0  0  0  0  0  # atno 8010 bound_to 7997
  140.7212  143.3652  151.1884 H   0  0  0  0  0  0  0  0  0  0  0  0  # atno 10167 bound_to 10162
  157.3935  130.7820  149.7289 H   0  0  0  0  0  0  0  0  0  0  0  0  # atno 10718 bound_to 10713
  154.8754  135.3849  154.4148 H   0  0  0  0  0  0  0  0  0  0  0  0  # atno 10763 bound_to 10752
  153.4858  135.7030  153.5917 H   0  0  0  0  0  0  0  0  0  0  0  0  # atno 10764 bound_to 10752
  153.4313  135.3878  155.2139 H   0  0  0  0  0  0  0  0  0  0  0  0  # atno 10765 bound_to 10752
  141.0469  133.9749  157.2903 H   0  0  0  0  0  0  0  0  0  0  0  0  # atno 11005 bound_to 11000
  144.9011  139.4648  143.6632 LP  0  0  0  0  0  0  0  0  0  0  0  0  # atno 17320 bound_to 7965
  146.3116  139.7765  142.9016 LP  0  0  0  0  0  0  0  0  0  0  0  0  # atno 17321 bound_to 7965
  139.7212  143.9220  152.2986 LP  0  0  0  0  0  0  0  0  0  0  0  0  # atno 17342 bound_to 10162
  139.8977  144.6929  150.8699 LP  0  0  0  0  0  0  0  0  0  0  0  0  # atno 17343 bound_to 10162
  155.9804  130.4029  150.3528 LP  0  0  0  0  0  0  0  0  0  0  0  0  # atno 17370 bound_to 10713
  157.1647  131.0354  151.2824 LP  0  0  0  0  0  0  0  0  0  0  0  0  # atno 17371 bound_to 10713
  139.9319  135.0199  156.8427 LP  0  0  0  0  0  0  0  0  0  0  0  0  # atno 17394 bound_to 11000
  140.6130  134.0064  155.7585 LP  0  0  0  0  0  0  0  0  0  0  0  0  # atno 17395 bound_to 11000

$$$$
