AV-unprocessed.smi:218|AV-procd|sdf|1672|dock9
  -GOLD-   2262020 93D 1   1.00000     0.00000
 Structure written by MMmdl.
 54 57  0  0  0  0  0  0  0  0  1 V2000
  152.0859  144.2757  158.7769 C   0  0  0  0  0  0  0  0  0  0  0  0
  151.6903  143.3564  159.9386 C   0  0  0  0  0  0  0  0  0  0  0  0
  152.8311  142.3883  160.2959 C   0  0  0  0  0  0  0  0  0  0  0  0
  150.5370  142.6265  159.5154 O   0  0  0  0  0  0  0  0  0  0  0  0
  150.6195  141.7575  158.4445 C   0  0  0  0  0  0  0  0  0  0  0  0
  149.9738  142.1151  157.2435 C   0  0  0  0  0  0  0  0  0  0  0  0
  150.0474  141.2377  156.1430 C   0  0  0  0  0  0  0  0  0  0  0  0
  149.3833  141.5942  154.8305 C   0  0  0  0  0  0  0  0  0  0  0  0
  148.0058  142.0327  155.0025 N   0  0  0  0  0  0  0  0  0  0  0  0
  147.0309  141.1284  155.2334 C   0  0  0  0  0  0  0  0  0  0  0  0
  146.1852  141.2638  156.2885 N   0  0  0  0  0  0  0  0  0  0  0  0
  145.2280  140.3546  156.4978 C   0  0  0  0  0  0  0  0  0  0  0  0
  144.9499  139.2570  155.7902 N   0  0  0  0  0  0  0  0  0  0  0  0
  145.7991  139.1181  154.7309 C   0  0  0  0  0  0  0  0  0  0  0  0
  146.8552  140.0049  154.3853 C   0  0  0  0  0  0  0  0  0  0  0  0
  147.5015  139.5435  153.2463 N   0  0  0  0  0  0  0  0  0  0  0  0
  146.8614  138.4461  152.9421 C   0  0  0  0  0  0  0  0  0  0  0  0
  145.8193  138.1161  153.7848 N   0  0  0  0  0  0  0  0  0  0  0  0
  144.8857  136.9401  153.7409 C   0  0  2  0  0  0  0  0  0  0  0  0
  145.6541  135.7810  153.8202 O   0  0  0  0  0  0  0  0  0  0  0  0
  145.8432  135.1800  152.5357 C   0  0  1  0  0  0  0  0  0  0  0  0
  145.2840  133.7459  152.6446 C   0  0  0  0  0  0  0  0  0  0  0  0
  143.8863  133.7917  152.8389 O   0  0  0  0  0  0  0  0  0  0  0  0
  145.1129  136.1096  151.5390 C   0  0  1  0  0  0  0  0  0  0  0  0
  144.4493  135.4223  150.4950 O   0  0  0  0  0  0  0  0  0  0  0  0
  144.1238  136.8652  152.4113 C   0  0  2  0  0  0  0  0  0  0  0  0
  143.8075  138.1294  151.8581 O   0  0  0  0  0  0  0  0  0  0  0  0
  150.7637  140.0329  156.2853 C   0  0  0  0  0  0  0  0  0  0  0  0
  151.3737  139.7606  157.5252 C   0  0  0  0  0  0  0  0  0  0  0  0
  151.3075  140.5968  158.5831 N   0  0  0  0  0  0  0  0  0  0  0  0
  144.2473  137.0576  154.6171 H   0  0  0  0  0  0  0  0  0  0  0  0
  146.9043  135.1429  152.2851 H   0  0  0  0  0  0  0  0  0  0  0  0
  145.8349  136.8029  151.1041 H   0  0  0  0  0  0  0  0  0  0  0  0
  143.2178  136.2798  152.5749 H   0  0  0  0  0  0  0  0  0  0  0  0
  152.9604  144.8756  159.0305 H   0  0  0  0  0  0  0  0  0  0  0  0
  151.2749  144.9610  158.5297 H   0  0  0  0  0  0  0  0  0  0  0  0
  152.3219  143.7021  157.8802 H   0  0  0  0  0  0  0  0  0  0  0  0
  151.4623  143.9965  160.7922 H   0  0  0  0  0  0  0  0  0  0  0  0
  153.7316  142.9334  160.5797 H   0  0  0  0  0  0  0  0  0  0  0  0
  153.0823  141.7485  159.4495 H   0  0  0  0  0  0  0  0  0  0  0  0
  152.5658  141.7410  161.1314 H   0  0  0  0  0  0  0  0  0  0  0  0
  149.4347  143.0483  157.1691 H   0  0  0  0  0  0  0  0  0  0  0  0
  149.9569  142.3793  154.3360 H   0  0  0  0  0  0  0  0  0  0  0  0
  149.4084  140.7189  154.1801 H   0  0  0  0  0  0  0  0  0  0  0  0
  147.8365  143.0235  154.9042 H   0  0  0  0  0  0  0  0  0  0  0  0
  144.5951  140.5313  157.3551 H   0  0  0  0  0  0  0  0  0  0  0  0
  147.1419  137.8470  152.0889 H   0  0  0  0  0  0  0  0  0  0  0  0
  145.5262  133.1538  151.7616 H   0  0  0  0  0  0  0  0  0  0  0  0
  145.6947  133.2261  153.5099 H   0  0  0  0  0  0  0  0  0  0  0  0
  143.5975  132.9476  153.1504 H   0  0  0  0  0  0  0  0  0  0  0  0
  145.0165  134.7370  150.1762 H   0  0  0  0  0  0  0  0  0  0  0  0
  143.7756  138.0463  150.9173 H   0  0  0  0  0  0  0  0  0  0  0  0
  150.8485  139.3343  155.4659 H   0  0  0  0  0  0  0  0  0  0  0  0
  151.9318  138.8477  157.6707 H   0  0  0  0  0  0  0  0  0  0  0  0
  1  2  1  0  0  0  0
  1 35  1  0  0  0  0
  1 36  1  0  0  0  0
  1 37  1  0  0  0  0
  2  3  1  0  0  0  0
  2  4  1  0  0  0  0
  2 38  1  0  0  0  0
  3 39  1  0  0  0  0
  3 40  1  0  0  0  0
  3 41  1  0  0  0  0
  4  5  1  0  0  0  0
  5 30  1  0  0  0  0
  5  6  2  0  0  0  0
  6  7  1  0  0  0  0
  6 42  1  0  0  0  0
  7  8  1  0  0  0  0
  7 28  2  0  0  0  0
  8  9  1  0  0  0  0
  8 43  1  0  0  0  0
  8 44  1  0  0  0  0
  9 10  1  0  0  0  0
  9 45  1  0  0  0  0
 10 15  1  0  0  0  0
 10 11  2  0  0  0  0
 11 12  1  0  0  0  0
 12 13  2  0  0  0  0
 12 46  1  0  0  0  0
 13 14  1  0  0  0  0
 14 18  1  0  0  0  0
 14 15  2  0  0  0  0
 15 16  1  0  0  0  0
 16 17  2  0  0  0  0
 17 18  1  0  0  0  0
 17 47  1  0  0  0  0
 18 19  1  0  0  0  0
 19 31  1  0  0  0  0
 19 26  1  0  0  0  0
 19 20  1  0  0  0  0
 20 21  1  0  0  0  0
 21 32  1  0  0  0  0
 21 22  1  0  0  0  0
 21 24  1  0  0  0  0
 22 23  1  0  0  0  0
 22 48  1  0  0  0  0
 22 49  1  0  0  0  0
 23 50  1  0  0  0  0
 24 33  1  0  0  0  0
 24 25  1  0  0  0  0
 24 26  1  0  0  0  0
 25 51  1  0  0  0  0
 26 34  1  0  0  0  0
 26 27  1  0  0  0  0
 27 52  1  0  0  0  0
 28 29  1  0  0  0  0
 28 53  1  0  0  0  0
 29 30  2  0  0  0  0
 29 54  1  0  0  0  0
M  END
> <s_m_source_file>
AV-unprocessed.smi

> <i_m_source_file_index>
218

> <i_lp_mmshare_version>
43012

> <i_f3d_flags>
0

> <s_epik_input>
W0NIM11bQ0hdKFtDSDNdKU9jMVtjSF1jKFtjSF1bY0hdbjEpW0NIMl1bTkhdYyhuW2NIXW4yKWMoYzIzKW5bY0hdbjNbQ0BASF00T1tDQEhdKFtDSDJdW09IXSlbQ0BASF0oW09IXSlbQ0BIXTRbT0hd

> <s_epik_cmdline>
J2VwaWtfcHl0aG9uJywgJy1waCcsICc3LjAnLCAnLXRuJywgJzgnLCAnLW1hJywgJzIwMCcsICctbWV0YWxfYmluZGluZycsICctaW1hZScsICc8aW5maWxlLm1hZT4nLCAnLW9tYWUnLCAnPG91dGZpbGUubWFlPic=

> <r_lp_tautomer_probability>
1

> <r_epik_Ionization_Penalty>
0.00457014

> <r_epik_Ionization_Penalty_Charging>
0

> <r_epik_Ionization_Penalty_Neutral>
0.00457014

> <r_epik_State_Penalty>
-0

> <r_epik_Charging_Adjusted_Penalty>
0

> <i_epik_Tot_Q>
0

> <i_epik_Tot_abs_Q>
0

> <r_epik_Metal_State_Penalty>
-0

> <b_epik_Metal_Only>
0

> <s_epik_Chemistry_Notes>
This compound contains an acetal/aminal-like group ( X-CH(R)-Y where X, Y are N, S, or O) that may be acid/base labile, releasing an aldehyde.

> <s_lp_Force_Field>
OPLS_2005

> <r_lp_Energy>
43.2146

> <b_lp_Chiralities_Consistent>
1

> <s_lp_Variant>
AV-unprocessed.smi:218-11

> <Gold.Version>
5.8.1

> <Gold.Id.Protein>
6NUR|6NUR_protein|mol2

> <Gold.PLP.Fitness>
52.1874

> <Gold.PLP.PLP>
-42.8499

> <Gold.PLP.part.hbond>
-3.3785

> <Gold.PLP.part.metal>
0.0000

> <Gold.PLP.part.buried>
-5.5393

> <Gold.PLP.part.nonpolar>
-34.2870

> <Gold.PLP.part.repulsive>
1.1062

> <Gold.PLP.ligand.clash>
0.0000

> <Gold.PLP.ligand.torsion>
0.8551

> <Gold.PLP.Chemscore.Hbond>
2.6800

> <Gold.PLP.Chemscore.CHOScore>
0.9425

> <Gold.PLP.Chemscore.Metal>
0.0000

> <Gold.Chemscore.Hbonds>
donor molecule, donor type, donor heavy atom, donor atom, acceptor molecule, acceptor atom, score
      L1  H     9    45       P1  8028  0.54
      L1  H    23    50       P1 10957  0.54
      L1  H    27    52       P1 10171  0.22
      L1  C    17    47       P1  7948  1.00

> <Gold.PLP.Chemscore.Internal.Correction>
0.1803

> <Gold.Rescore>
     Score         DG    S(hbond)    S(metal)    S(lipo)     H(rot)  DE(clash)    DE(int)     intcor
     10.78     -12.44       2.60        0.00      92.45       4.90       0.42       1.24       ----

> <Gold.Chemscore.Fitness>
10.7792

> <Gold.Chemscore.DG>
-12.4353

> <Gold.Chemscore.ZeroCoef>
-5.4800

> <Gold.Chemscore.Hbond>
2.6019

> <Gold.Chemscore.Metal>
0.0000

> <Gold.Chemscore.Lipo>
92.4476

> <Gold.Chemscore.Internal_Hbond>
0.0000

> <Gold.Chemscore.DEClash>
0.4194

> <Gold.Chemscore.DEInternal>
1.2367

> <Gold.Chemscore.Rot>
4.9029

> <Gold.Chemscore.Internal.Correction>
   9.000000E+99

> <Gold.Chemscore.Hbonds>
donor molecule, donor type, donor heavy atom, donor atom, acceptor molecule, acceptor atom, score
      L1  H     9    45       P1  8028  0.45
      L1  H    23    50       P1 10957  0.30
      L1  H    27    52       P1 10171  0.23

> <Gold.Chemscore.Hbond.Weighted>
-8.6905

> <Gold.Chemscore.Metal.Weighted>
-0.0000

> <Gold.Chemscore.Lipo.Weighted>
-10.8164

> <Gold.Chemscore.Internal_Hbond.Weighted>
0.0000

> <Gold.Chemscore.DEClash.Weighted>
0.4194

> <Gold.Chemscore.DEInternal.Weighted>
1.2367

> <Gold.Chemscore.Rot.Weighted>
12.5515

> <Gold.Chemscore.Internal.Correction.Weighted>
   9.000000E+99

> <Gold.Protein.RotatedTorsions>
[ 6907 6896 6895 6894 ] final   52.30 input  -60.11 | X-H torsion
[ 7974 7965 7964 7962 ] final   74.10 input  175.53 | X-H torsion
[ 8008 7997 7996 7995 ] final -157.25 input   59.86 | X-H torsion
[ 10167 10162 10161 10158 ] final  136.03 input  -65.29 | X-H torsion
[ 10718 10713 10712 10709 ] final  157.17 input   66.30 | X-H torsion
[ 10763 10752 10751 10750 ] final -142.02 input  -60.55 | X-H torsion
[ 11005 11000 10999 10996 ] final  148.30 input  -57.11 | X-H torsion

> <Gold.Protein.ActiveResidues>
 VAL166  LYS551  ARG553  GLY616  TRP617  ASP618  TYR619  PRO620  LYS621  CYS622 
 ASP623  PHE694  ASN695  SER759  ASP760  ASP761  ALA762  ILE779  LEU786  VAL792 
 PHE793  MET794  SER795  GLU796  ALA797  LYS798  CYS799  TRP800  GLU811  SER814 

> <Gold.Protein.RotatedAtoms>
  152.3218  134.7370  160.0311 H   0  0  0  0  0  0  0  0  0  0  0  0  # atno 6907 bound_to 6896
  151.7816  133.3345  159.3481 H   0  0  0  0  0  0  0  0  0  0  0  0  # atno 6908 bound_to 6896
  150.7374  134.5857  159.6006 H   0  0  0  0  0  0  0  0  0  0  0  0  # atno 6909 bound_to 6896
  145.7325  139.2689  143.1533 H   0  0  0  0  0  0  0  0  0  0  0  0  # atno 7974 bound_to 7965
  155.7295  140.0800  157.2295 H   0  0  0  0  0  0  0  0  0  0  0  0  # atno 8008 bound_to 7997
  154.4034  140.1598  156.2548 H   0  0  0  0  0  0  0  0  0  0  0  0  # atno 8009 bound_to 7997
  155.9122  140.3403  155.6110 H   0  0  0  0  0  0  0  0  0  0  0  0  # atno 8010 bound_to 7997
  139.5195  144.6486  151.5368 H   0  0  0  0  0  0  0  0  0  0  0  0  # atno 10167 bound_to 10162
  157.1950  131.0663  151.2057 H   0  0  0  0  0  0  0  0  0  0  0  0  # atno 10718 bound_to 10713
  154.8524  135.3508  154.5960 H   0  0  0  0  0  0  0  0  0  0  0  0  # atno 10763 bound_to 10752
  153.6570  135.6991  153.5195 H   0  0  0  0  0  0  0  0  0  0  0  0  # atno 10764 bound_to 10752
  153.2848  135.4252  155.1070 H   0  0  0  0  0  0  0  0  0  0  0  0  # atno 10765 bound_to 10752
  140.0948  134.9019  157.1706 H   0  0  0  0  0  0  0  0  0  0  0  0  # atno 11005 bound_to 11000
  146.0524  140.8055  142.9775 LP  0  0  0  0  0  0  0  0  0  0  0  0  # atno 17320 bound_to 7965
  144.6889  140.3073  143.7254 LP  0  0  0  0  0  0  0  0  0  0  0  0  # atno 17321 bound_to 7965
  140.6281  143.9129  150.6582 LP  0  0  0  0  0  0  0  0  0  0  0  0  # atno 17342 bound_to 10162
  140.2425  143.3653  152.1475 LP  0  0  0  0  0  0  0  0  0  0  0  0  # atno 17343 bound_to 10162
  157.3823  130.7238  149.6638 LP  0  0  0  0  0  0  0  0  0  0  0  0  # atno 17370 bound_to 10713
  155.9707  130.4169  150.4253 LP  0  0  0  0  0  0  0  0  0  0  0  0  # atno 17371 bound_to 10713
  140.3301  134.2819  155.7229 LP  0  0  0  0  0  0  0  0  0  0  0  0  # atno 17394 bound_to 11000
  141.2089  133.7765  157.0032 LP  0  0  0  0  0  0  0  0  0  0  0  0  # atno 17395 bound_to 11000

$$$$
