AV-unprocessed.smi:657|AV-procd|sdf|3227|dock4
  -GOLD-   22720 0163D 1   1.00000     0.00000
 Structure written by MMmdl.
 46 47  0  0  0  0  0  0  0  0  3 V2000
  151.6815  137.8055  154.3942 C   0  0  0  0  0  0  0  0  0  0  0  0
  150.4151  137.2386  155.0717 C   0  0  0  0  0  0  0  0  0  0  0  0
  150.5948  135.7142  155.2294 C   0  0  0  0  0  0  0  0  0  0  0  0
  149.1542  137.5930  154.3332 N   0  3  1  0  0  0  0  0  0  0  0  0
  147.9061  137.0599  154.9664 C   0  0  0  0  0  0  0  0  0  0  0  0
  146.6512  137.3179  154.1142 C   0  0  0  0  0  0  0  0  0  0  0  0
  146.4974  138.7994  153.7690 C   0  0  0  0  0  0  0  0  0  0  0  0
  147.7710  139.2751  153.0640 C   0  0  0  0  0  0  0  0  0  0  0  0
  149.0382  139.0345  153.9162 C   0  0  1  0  0  0  0  0  0  0  0  0
  149.1451  140.0649  155.0684 C   0  0  0  0  0  0  0  0  0  0  0  0
  148.1636  140.2725  155.7896 O   0  0  0  0  0  0  0  0  0  0  0  0
  150.3797  140.6406  155.0912 N   0  5  0  0  0  0  0  0  0  0  0  0
  151.1189  140.9378  156.3200 C   0  0  0  0  0  0  0  0  0  0  0  0
  151.2043  142.4641  156.5542 C   0  0  0  0  0  0  0  0  0  0  0  0
  151.4122  142.8544  158.0013 C   0  0  0  0  0  0  0  0  0  0  0  0
  150.7052  143.8240  158.7726 C   0  0  0  0  0  0  0  0  0  0  0  0
  151.1650  143.9365  160.0084 N   0  0  0  0  0  0  0  0  0  0  0  0
  152.1714  143.0415  160.0740 N   0  0  0  0  0  0  0  0  0  0  0  0
  152.9231  142.8992  161.3020 C   0  0  0  0  0  0  0  0  0  0  0  0
  152.3329  142.3643  158.8857 C   0  0  0  0  0  0  0  0  0  0  0  0
  152.5843  137.4538  154.8942 H   0  0  0  0  0  0  0  0  0  0  0  0
  151.7217  138.8937  154.4340 H   0  0  0  0  0  0  0  0  0  0  0  0
  151.7449  137.5005  153.3492 H   0  0  0  0  0  0  0  0  0  0  0  0
  150.3589  137.6618  156.0754 H   0  0  0  0  0  0  0  0  0  0  0  0
  151.5733  135.4758  155.6477 H   0  0  0  0  0  0  0  0  0  0  0  0
  150.5156  135.2017  154.2702 H   0  0  0  0  0  0  0  0  0  0  0  0
  149.8655  135.2799  155.9122 H   0  0  0  0  0  0  0  0  0  0  0  0
  147.9733  135.9813  155.0916 H   0  0  0  0  0  0  0  0  0  0  0  0
  147.7759  137.4716  155.9665 H   0  0  0  0  0  0  0  0  0  0  0  0
  146.7094  136.7342  153.1947 H   0  0  0  0  0  0  0  0  0  0  0  0
  145.7652  136.9678  154.6447 H   0  0  0  0  0  0  0  0  0  0  0  0
  145.6317  138.9495  153.1237 H   0  0  0  0  0  0  0  0  0  0  0  0
  146.3166  139.3821  154.6729 H   0  0  0  0  0  0  0  0  0  0  0  0
  147.8727  138.7476  152.1147 H   0  0  0  0  0  0  0  0  0  0  0  0
  147.6787  140.3305  152.8053 H   0  0  0  0  0  0  0  0  0  0  0  0
  149.8635  139.2153  153.2262 H   0  0  0  0  0  0  0  0  0  0  0  0
  150.6793  140.4649  157.1995 H   0  0  0  0  0  0  0  0  0  0  0  0
  152.1327  140.5417  156.2618 H   0  0  0  0  0  0  0  0  0  0  0  0
  152.0176  142.8583  155.9447 H   0  0  0  0  0  0  0  0  0  0  0  0
  150.3013  142.9325  156.1605 H   0  0  0  0  0  0  0  0  0  0  0  0
  149.8853  144.4563  158.4651 H   0  0  0  0  0  0  0  0  0  0  0  0
  153.8014  142.2761  161.1311 H   0  0  0  0  0  0  0  0  0  0  0  0
  152.2977  142.4334  162.0640 H   0  0  0  0  0  0  0  0  0  0  0  0
  153.2493  143.8789  161.6530 H   0  0  0  0  0  0  0  0  0  0  0  0
  153.0938  141.6085  158.7593 H   0  0  0  0  0  0  0  0  0  0  0  0
  149.2233  137.0933  153.4590 H   0  0  0  0  0  0  0  0  0  0  0  0
  1  2  1  0  0  0  0
  1 21  1  0  0  0  0
  1 22  1  0  0  0  0
  1 23  1  0  0  0  0
  2  3  1  0  0  0  0
  2  4  1  0  0  0  0
  2 24  1  0  0  0  0
  3 25  1  0  0  0  0
  3 26  1  0  0  0  0
  3 27  1  0  0  0  0
  4  9  1  0  0  0  0
  4  5  1  0  0  0  0
  4 46  1  0  0  0  0
  5  6  1  0  0  0  0
  5 28  1  0  0  0  0
  5 29  1  0  0  0  0
  6  7  1  0  0  0  0
  6 30  1  0  0  0  0
  6 31  1  0  0  0  0
  7  8  1  0  0  0  0
  7 32  1  0  0  0  0
  7 33  1  0  0  0  0
  8  9  1  0  0  0  0
  8 34  1  0  0  0  0
  8 35  1  0  0  0  0
  9 10  1  0  0  0  0
  9 36  1  0  0  0  0
 10 11  2  0  0  0  0
 10 12  1  0  0  0  0
 12 13  1  0  0  0  0
 13 14  1  0  0  0  0
 13 37  1  0  0  0  0
 13 38  1  0  0  0  0
 14 15  1  0  0  0  0
 14 39  1  0  0  0  0
 14 40  1  0  0  0  0
 15 20  2  0  0  0  0
 15 16  1  0  0  0  0
 16 17  2  0  0  0  0
 16 41  1  0  0  0  0
 17 18  1  0  0  0  0
 18 19  1  0  0  0  0
 18 20  1  0  0  0  0
 19 42  1  0  0  0  0
 19 43  1  0  0  0  0
 19 44  1  0  0  0  0
 20 45  1  0  0  0  0
M  CHG  1   4   1
M  CHG  1  12  -1
M  END
> <s_m_source_file>
AV-unprocessed.smi

> <i_m_source_file_index>
657

> <i_lp_mmshare_version>
43012

> <i_f3d_flags>
0

> <s_epik_input>
W0NIM11bQ0hdKFtDSDNdKU4xW0NIMl1bQ0gyXVtDSDJdW0NIMl1bQ0BIXTFDKD1PKVtOSF1bQ0gyXVtDSDJdYzJbY0hdbm4oW0NIM10pW2NIXTI=

> <s_epik_cmdline>
J2VwaWtfcHl0aG9uJywgJy1waCcsICc3LjAnLCAnLXRuJywgJzgnLCAnLW1hJywgJzIwMCcsICctbWV0YWxfYmluZGluZycsICctaW1hZScsICc8aW5maWxlLm1hZT4nLCAnLW9tYWUnLCAnPG91dGZpbGUubWFlPic=

> <r_lp_tautomer_probability>
1

> <r_epik_Ionization_Penalty>
6.1622

> <r_epik_Ionization_Penalty_Charging>
6.16146

> <r_epik_Ionization_Penalty_Neutral>
0.00073675

> <r_epik_State_Penalty>
6.18018

> <r_epik_Charging_Adjusted_Penalty>
12.3416

> <i_epik_Tot_Q>
0

> <i_epik_Tot_abs_Q>
2

> <r_epik_Metal_State_Penalty>
2.12232

> <b_epik_Metal_Only>
1

> <s_lp_Force_Field>
OPLS_2005

> <r_lp_Energy>
12.187

> <b_lp_Chiralities_Consistent>
1

> <s_lp_Variant>
AV-unprocessed.smi:657-8

> <Gold.Version>
5.8.1

> <Gold.Id.Protein>
6NUR|6NUR_protein|mol2

> <Gold.PLP.Fitness>
42.7829

> <Gold.PLP.PLP>
-32.7148

> <Gold.PLP.part.hbond>
-2.0000

> <Gold.PLP.part.metal>
0.0000

> <Gold.PLP.part.buried>
-0.6703

> <Gold.PLP.part.nonpolar>
-29.9709

> <Gold.PLP.part.repulsive>
0.2146

> <Gold.PLP.ligand.clash>
0.0000

> <Gold.PLP.ligand.torsion>
1.0406

> <Gold.PLP.Chemscore.Hbond>
2.8564

> <Gold.PLP.Chemscore.CHOScore>
1.1021

> <Gold.PLP.Chemscore.Metal>
0.0000

> <Gold.Chemscore.Hbonds>
donor molecule, donor type, donor heavy atom, donor atom, acceptor molecule, acceptor atom, score
      L1  H     4    46       P1  7948  2.00
      P1  H  7989  7998       L1    12  0.90
      L1  C    16    41       P1  8029  0.46

> <Gold.PLP.Chemscore.Internal.Correction>
0.2737

> <Gold.Rescore>
     Score         DG    S(hbond)    S(metal)    S(lipo)     H(rot)  DE(clash)    DE(int)     intcor
     14.23     -16.29       1.16        0.00      93.79       1.57       0.07       1.99       ----

> <Gold.Chemscore.Fitness>
14.2334

> <Gold.Chemscore.DG>
-16.2898

> <Gold.Chemscore.ZeroCoef>
-5.4800

> <Gold.Chemscore.Hbond>
1.1573

> <Gold.Chemscore.Metal>
0.0000

> <Gold.Chemscore.Lipo>
93.7944

> <Gold.Chemscore.Internal_Hbond>
0.0000

> <Gold.Chemscore.DEClash>
0.0679

> <Gold.Chemscore.DEInternal>
1.9885

> <Gold.Chemscore.Rot>
1.5741

> <Gold.Chemscore.Internal.Correction>
   9.000000E+99

> <Gold.Chemscore.Hbonds>
donor molecule, donor type, donor heavy atom, donor atom, acceptor molecule, acceptor atom, score
      L1  H     4    46       P1  7948  0.99
      P1  H  7989  7998       L1    12  0.58

> <Gold.Chemscore.Hbond.Weighted>
-3.8655

> <Gold.Chemscore.Metal.Weighted>
-0.0000

> <Gold.Chemscore.Lipo.Weighted>
-10.9739

> <Gold.Chemscore.Internal_Hbond.Weighted>
0.0000

> <Gold.Chemscore.DEClash.Weighted>
0.0679

> <Gold.Chemscore.DEInternal.Weighted>
1.9885

> <Gold.Chemscore.Rot.Weighted>
4.0297

> <Gold.Chemscore.Internal.Correction.Weighted>
   9.000000E+99

> <Gold.Protein.RotatedTorsions>
[ 6907 6896 6895 6894 ] final -104.56 input  -60.11 | X-H torsion
[ 7974 7965 7964 7962 ] final -104.08 input  175.53 | X-H torsion
[ 8008 7997 7996 7995 ] final -139.87 input   59.86 | X-H torsion
[ 10167 10162 10161 10158 ] final   13.95 input  -65.29 | X-H torsion
[ 10718 10713 10712 10709 ] final  121.88 input   66.30 | X-H torsion
[ 10763 10752 10751 10750 ] final -110.18 input  -60.55 | X-H torsion
[ 11005 11000 10999 10996 ] final  122.91 input  -57.11 | X-H torsion

> <Gold.Protein.ActiveResidues>
 VAL166  LYS551  ARG553  GLY616  TRP617  ASP618  TYR619  PRO620  LYS621  CYS622 
 ASP623  PHE694  ASN695  SER759  ASP760  ASP761  ALA762  ILE779  LEU786  VAL792 
 PHE793  MET794  SER795  GLU796  ALA797  LYS798  CYS799  TRP800  GLU811  SER814 

> <Gold.Protein.RotatedAtoms>
  150.7293  134.0260  159.3716 H   0  0  0  0  0  0  0  0  0  0  0  0  # atno 6907 bound_to 6896
  151.8227  135.0644  160.0436 H   0  0  0  0  0  0  0  0  0  0  0  0  # atno 6908 bound_to 6896
  152.2992  133.5602  159.5644 H   0  0  0  0  0  0  0  0  0  0  0  0  # atno 6909 bound_to 6896
  145.2477  140.9227  143.3113 H   0  0  0  0  0  0  0  0  0  0  0  0  # atno 7974 bound_to 7965
  155.4519  140.0539  157.3000 H   0  0  0  0  0  0  0  0  0  0  0  0  # atno 8008 bound_to 7997
  154.4773  140.2066  155.9802 H   0  0  0  0  0  0  0  0  0  0  0  0  # atno 8009 bound_to 7997
  156.1152  140.3197  155.8134 H   0  0  0  0  0  0  0  0  0  0  0  0  # atno 8010 bound_to 7997
  140.5968  143.8684  150.6926 H   0  0  0  0  0  0  0  0  0  0  0  0  # atno 10167 bound_to 10162
  157.5784  131.1077  150.8234 H   0  0  0  0  0  0  0  0  0  0  0  0  # atno 10718 bound_to 10713
  154.8234  135.4574  154.0845 H   0  0  0  0  0  0  0  0  0  0  0  0  # atno 10763 bound_to 10752
  153.2180  135.6890  153.8040 H   0  0  0  0  0  0  0  0  0  0  0  0  # atno 10764 bound_to 10752
  153.7468  135.3304  155.3290 H   0  0  0  0  0  0  0  0  0  0  0  0  # atno 10765 bound_to 10752
  139.9289  134.9641  156.8180 H   0  0  0  0  0  0  0  0  0  0  0  0  # atno 11005 bound_to 11000
  144.9532  139.4060  143.6392 LP  0  0  0  0  0  0  0  0  0  0  0  0  # atno 17320 bound_to 7965
  146.3311  139.8549  142.8866 LP  0  0  0  0  0  0  0  0  0  0  0  0  # atno 17321 bound_to 7965
  140.2221  143.3801  152.1634 LP  0  0  0  0  0  0  0  0  0  0  0  0  # atno 17342 bound_to 10162
  139.5264  144.7107  151.5215 LP  0  0  0  0  0  0  0  0  0  0  0  0  # atno 17343 bound_to 10162
  156.8687  130.5138  149.5298 LP  0  0  0  0  0  0  0  0  0  0  0  0  # atno 17370 bound_to 10713
  156.0829  130.5835  150.9596 LP  0  0  0  0  0  0  0  0  0  0  0  0  # atno 17371 bound_to 10713
  140.6258  133.9952  155.7639 LP  0  0  0  0  0  0  0  0  0  0  0  0  # atno 17394 bound_to 11000
  141.0865  133.9983  157.3305 LP  0  0  0  0  0  0  0  0  0  0  0  0  # atno 17395 bound_to 11000

$$$$
