AV-unprocessed.smi:249|AV-procd|sdf|1926|dock5
  -GOLD-   2262021 43D 1   1.00000     0.00000
 Structure written by MMmdl.
 64 67  0  0  0  0  0  0  0  0  2 V2000
  151.8034  144.6429  157.4380 C   0  0  0  0  0  0  0  0  0  0  0  0
  151.3395  143.3369  158.0979 C   0  0  0  0  0  0  0  0  0  0  0  0
  150.2068  142.7105  157.3689 N   0  3  2  0  0  0  0  0  0  0  0  0
  149.3551  141.8404  158.2241 C   0  0  0  0  0  0  0  0  0  0  0  0
  148.0894  141.4009  157.4721 C   0  0  0  0  0  0  0  0  0  0  0  0
  148.4417  140.6841  156.1520 C   0  0  1  0  0  0  0  0  0  0  0  0
  147.2709  140.1908  155.4148 N   0  0  0  0  0  0  0  0  0  0  0  0
  147.4830  139.6845  154.0641 C   0  0  0  0  0  0  0  0  0  0  0  0
  146.0978  140.8457  155.5801 C   0  0  0  0  0  0  0  0  0  0  0  0
  145.1691  140.2668  156.3815 N   0  0  0  0  0  0  0  0  0  0  0  0
  143.9933  140.8672  156.5866 C   0  0  0  0  0  0  0  0  0  0  0  0
  143.5512  142.0261  156.0942 N   0  0  0  0  0  0  0  0  0  0  0  0
  144.4779  142.6053  155.2782 C   0  0  0  0  0  0  0  0  0  0  0  0
  145.7675  142.0887  154.9686 C   0  0  0  0  0  0  0  0  0  0  0  0
  146.4347  142.9616  154.1174 N   0  0  0  0  0  0  0  0  0  0  0  0
  145.5897  143.9395  153.9369 C   0  0  0  0  0  0  0  0  0  0  0  0
  144.3813  143.7971  154.5812 N   0  0  0  0  0  0  0  0  0  0  0  0
  143.2723  144.7352  154.5610 C   0  0  0  0  0  0  0  0  0  0  0  0
  142.5486  144.9155  155.9215 C   0  0  1  0  0  0  0  0  0  0  0  0
  143.0445  146.2165  156.5941 C   0  0  0  0  0  0  0  0  0  0  0  0
  142.9445  147.3241  155.7219 O   0  0  0  0  0  0  0  0  0  0  0  0
  140.9954  144.8446  155.8424 C   0  0  1  0  0  0  0  0  0  0  0  0
  140.3158  145.9644  155.0677 C   0  0  0  0  0  0  0  0  0  0  0  0
  138.9559  145.3714  154.7063 C   0  0  0  0  0  0  0  0  0  0  0  0
  139.1203  143.9590  154.7196 O   0  0  0  0  0  0  0  0  0  0  0  0
  140.4599  143.6368  155.0662 C   0  0  0  0  0  0  0  0  0  0  0  0
  149.3522  141.6026  155.3080 C   0  0  0  0  0  0  0  0  0  0  0  0
  150.6035  142.0563  156.0869 C   0  0  2  0  0  0  0  0  0  0  0  0
  151.6299  140.9174  156.2697 C   0  0  0  0  0  0  0  0  0  0  0  0
  152.6773  145.0424  157.9531 H   0  0  0  0  0  0  0  0  0  0  0  0
  151.0328  145.4127  157.4639 H   0  0  0  0  0  0  0  0  0  0  0  0
  152.0816  144.4800  156.3963 H   0  0  0  0  0  0  0  0  0  0  0  0
  152.1882  142.6518  158.1067 H   0  0  0  0  0  0  0  0  0  0  0  0
  151.0678  143.5088  159.1404 H   0  0  0  0  0  0  0  0  0  0  0  0
  149.9199  140.9711  158.5620 H   0  0  0  0  0  0  0  0  0  0  0  0
  149.0552  142.3784  159.1224 H   0  0  0  0  0  0  0  0  0  0  0  0
  147.4944  140.7442  158.1076 H   0  0  0  0  0  0  0  0  0  0  0  0
  147.4799  142.2843  157.2774 H   0  0  0  0  0  0  0  0  0  0  0  0
  149.0135  139.7932  156.4135 H   0  0  0  0  0  0  0  0  0  0  0  0
  146.5694  139.2403  153.6665 H   0  0  0  0  0  0  0  0  0  0  0  0
  148.2527  138.9125  154.0692 H   0  0  0  0  0  0  0  0  0  0  0  0
  147.8019  140.4748  153.3849 H   0  0  0  0  0  0  0  0  0  0  0  0
  143.3084  140.3442  157.2377 H   0  0  0  0  0  0  0  0  0  0  0  0
  145.8217  144.7912  153.3139 H   0  0  0  0  0  0  0  0  0  0  0  0
  143.6726  145.6920  154.2237 H   0  0  0  0  0  0  0  0  0  0  0  0
  142.5615  144.4167  153.7974 H   0  0  0  0  0  0  0  0  0  0  0  0
  142.8736  144.1077  156.5774 H   0  0  0  0  0  0  0  0  0  0  0  0
  142.4823  146.4304  157.5028 H   0  0  0  0  0  0  0  0  0  0  0  0
  144.0851  146.1112  156.9023 H   0  0  0  0  0  0  0  0  0  0  0  0
  142.4669  148.0110  156.1615 H   0  0  0  0  0  0  0  0  0  0  0  0
  140.5799  144.8173  156.8511 H   0  0  0  0  0  0  0  0  0  0  0  0
  140.2051  146.8844  155.6388 H   0  0  0  0  0  0  0  0  0  0  0  0
  140.8750  146.1923  154.1589 H   0  0  0  0  0  0  0  0  0  0  0  0
  138.2071  145.6390  155.4523 H   0  0  0  0  0  0  0  0  0  0  0  0
  138.6047  145.7193  153.7346 H   0  0  0  0  0  0  0  0  0  0  0  0
  141.0277  143.4862  154.1467 H   0  0  0  0  0  0  0  0  0  0  0  0
  140.4977  142.7129  155.6434 H   0  0  0  0  0  0  0  0  0  0  0  0
  149.6565  141.1050  154.3869 H   0  0  0  0  0  0  0  0  0  0  0  0
  148.7958  142.4899  155.0054 H   0  0  0  0  0  0  0  0  0  0  0  0
  151.0863  142.8213  155.4767 H   0  0  0  0  0  0  0  0  0  0  0  0
  151.8979  140.4836  155.3060 H   0  0  0  0  0  0  0  0  0  0  0  0
  151.2493  140.1083  156.8923 H   0  0  0  0  0  0  0  0  0  0  0  0
  152.5537  141.2761  156.7231 H   0  0  0  0  0  0  0  0  0  0  0  0
  149.6152  143.4806  157.0905 H   0  0  0  0  0  0  0  0  0  0  0  0
  1  2  1  0  0  0  0
  1 30  1  0  0  0  0
  1 31  1  0  0  0  0
  1 32  1  0  0  0  0
  2  3  1  0  0  0  0
  2 33  1  0  0  0  0
  2 34  1  0  0  0  0
  3 28  1  0  0  0  0
  3  4  1  0  0  0  0
  3 64  1  0  0  0  0
  4  5  1  0  0  0  0
  4 35  1  0  0  0  0
  4 36  1  0  0  0  0
  5  6  1  0  0  0  0
  5 37  1  0  0  0  0
  5 38  1  0  0  0  0
  6  7  1  0  0  0  0
  6 27  1  0  0  0  0
  6 39  1  0  0  0  0
  7  8  1  0  0  0  0
  7  9  1  0  0  0  0
  8 40  1  0  0  0  0
  8 41  1  0  0  0  0
  8 42  1  0  0  0  0
  9 14  1  0  0  0  0
  9 10  2  0  0  0  0
 10 11  1  0  0  0  0
 11 12  2  0  0  0  0
 11 43  1  0  0  0  0
 12 13  1  0  0  0  0
 13 17  1  0  0  0  0
 13 14  2  0  0  0  0
 14 15  1  0  0  0  0
 15 16  2  0  0  0  0
 16 17  1  0  0  0  0
 16 44  1  0  0  0  0
 17 18  1  0  0  0  0
 18 19  1  0  0  0  0
 18 45  1  0  0  0  0
 18 46  1  0  0  0  0
 19 20  1  0  0  0  0
 19 22  1  0  0  0  0
 19 47  1  0  0  0  0
 20 21  1  0  0  0  0
 20 48  1  0  0  0  0
 20 49  1  0  0  0  0
 21 50  1  0  0  0  0
 22 26  1  0  0  0  0
 22 23  1  0  0  0  0
 22 51  1  0  0  0  0
 23 24  1  0  0  0  0
 23 52  1  0  0  0  0
 23 53  1  0  0  0  0
 24 25  1  0  0  0  0
 24 54  1  0  0  0  0
 24 55  1  0  0  0  0
 25 26  1  0  0  0  0
 26 56  1  0  0  0  0
 26 57  1  0  0  0  0
 27 28  1  0  0  0  0
 27 58  1  0  0  0  0
 27 59  1  0  0  0  0
 28 29  1  0  0  0  0
 28 60  1  0  0  0  0
 29 61  1  0  0  0  0
 29 62  1  0  0  0  0
 29 63  1  0  0  0  0
M  CHG  1   3   1
M  END
> <s_m_source_file>
AV-unprocessed.smi

> <i_m_source_file_index>
249

> <i_lp_mmshare_version>
43012

> <i_f3d_flags>
0

> <s_epik_input>
W0NIM11bQ0gyXU4xW0NIMl1bQ0gyXVtDQEhdKFtDSDJdW0NASF0xW0NIM10pTihbQ0gzXSljKG5bY0hdbjIpYyhjMjMpbltjSF1uM1tDSDJdW0NASF0oW0NIMl1bT0hdKVtDQEBIXTRbQ0gyXVtDSDJdT1tDSDJdNA==

> <s_epik_cmdline>
J2VwaWtfcHl0aG9uJywgJy1waCcsICc3LjAnLCAnLXRuJywgJzgnLCAnLW1hJywgJzIwMCcsICctbWV0YWxfYmluZGluZycsICctaW1hZScsICc8aW5maWxlLm1hZT4nLCAnLW9tYWUnLCAnPG91dGZpbGUubWFlPic=

> <r_lp_tautomer_probability>
1

> <r_epik_Ionization_Penalty>
0.00294688

> <r_epik_Ionization_Penalty_Charging>
0.00169971

> <r_epik_Ionization_Penalty_Neutral>
0.00124717

> <r_epik_State_Penalty>
-0

> <r_epik_Charging_Adjusted_Penalty>
0.00169971

> <i_epik_Tot_Q>
1

> <i_epik_Tot_abs_Q>
1

> <r_epik_Metal_State_Penalty>
-0

> <b_epik_Metal_Only>
0

> <s_lp_Force_Field>
OPLS_2005

> <r_lp_Energy>
54.3628

> <b_lp_Chiralities_Consistent>
1

> <s_lp_Variant>
AV-unprocessed.smi:249-29

> <Gold.Version>
5.8.1

> <Gold.Id.Protein>
6NUR|6NUR_protein|mol2

> <Gold.PLP.Fitness>
47.1934

> <Gold.PLP.PLP>
-41.3529

> <Gold.PLP.part.hbond>
-3.5482

> <Gold.PLP.part.metal>
0.0000

> <Gold.PLP.part.buried>
-7.4144

> <Gold.PLP.part.nonpolar>
-30.9753

> <Gold.PLP.part.repulsive>
0.4619

> <Gold.PLP.ligand.clash>
0.0000

> <Gold.PLP.ligand.torsion>
2.0594

> <Gold.PLP.Chemscore.Hbond>
3.0000

> <Gold.PLP.Chemscore.CHOScore>
0.0000

> <Gold.PLP.Chemscore.Metal>
0.0000

> <Gold.Chemscore.Hbonds>
donor molecule, donor type, donor heavy atom, donor atom, acceptor molecule, acceptor atom, score
      L1  H     3    64       P1  8028  2.00

> <Gold.PLP.Chemscore.Internal.Correction>
0.9593

> <Gold.Rescore>
     Score         DG    S(hbond)    S(metal)    S(lipo)     H(rot)  DE(clash)    DE(int)     intcor
      7.98     -13.98       0.98        0.00     107.99       2.90       4.26       1.74       ----

> <Gold.Chemscore.Fitness>
7.9820

> <Gold.Chemscore.DG>
-13.9791

> <Gold.Chemscore.ZeroCoef>
-5.4800

> <Gold.Chemscore.Hbond>
0.9849

> <Gold.Chemscore.Metal>
0.0000

> <Gold.Chemscore.Lipo>
107.9934

> <Gold.Chemscore.Internal_Hbond>
0.0000

> <Gold.Chemscore.DEClash>
4.2582

> <Gold.Chemscore.DEInternal>
1.7389

> <Gold.Chemscore.Rot>
2.9006

> <Gold.Chemscore.Internal.Correction>
   9.000000E+99

> <Gold.Chemscore.Hbonds>
donor molecule, donor type, donor heavy atom, donor atom, acceptor molecule, acceptor atom, score
      L1  H     3    64       P1  8028  0.85

> <Gold.Chemscore.Hbond.Weighted>
-3.2896

> <Gold.Chemscore.Metal.Weighted>
-0.0000

> <Gold.Chemscore.Lipo.Weighted>
-12.6352

> <Gold.Chemscore.Internal_Hbond.Weighted>
0.0000

> <Gold.Chemscore.DEClash.Weighted>
4.2582

> <Gold.Chemscore.DEInternal.Weighted>
1.7389

> <Gold.Chemscore.Rot.Weighted>
7.4256

> <Gold.Chemscore.Internal.Correction.Weighted>
   9.000000E+99

> <Gold.Protein.RotatedTorsions>
[ 6907 6896 6895 6894 ] final -158.04 input  -60.11 | X-H torsion
[ 7974 7965 7964 7962 ] final  113.28 input  175.53 | X-H torsion
[ 8008 7997 7996 7995 ] final   82.56 input   59.86 | X-H torsion
[ 10167 10162 10161 10158 ] final -172.36 input  -65.29 | X-H torsion
[ 10718 10713 10712 10709 ] final   74.68 input   66.30 | X-H torsion
[ 10763 10752 10751 10750 ] final -137.40 input  -60.55 | X-H torsion
[ 11005 11000 10999 10996 ] final -129.24 input  -57.11 | X-H torsion

> <Gold.Protein.ActiveResidues>
 VAL166  LYS551  ARG553  GLY616  TRP617  ASP618  TYR619  PRO620  LYS621  CYS622 
 ASP623  PHE694  ASN695  SER759  ASP760  ASP761  ALA762  ILE779  LEU786  VAL792 
 PHE793  MET794  SER795  GLU796  ALA797  LYS798  CYS799  TRP800  GLU811  SER814 

> <Gold.Protein.RotatedAtoms>
  151.3120  133.4076  159.2647 H   0  0  0  0  0  0  0  0  0  0  0  0  # atno 6907 bound_to 6896
  151.0106  134.9394  159.8015 H   0  0  0  0  0  0  0  0  0  0  0  0  # atno 6908 bound_to 6896
  152.5299  134.3084  159.9157 H   0  0  0  0  0  0  0  0  0  0  0  0  # atno 6909 bound_to 6896
  145.2189  139.2871  143.4228 H   0  0  0  0  0  0  0  0  0  0  0  0  # atno 7974 bound_to 7965
  155.9123  140.3426  155.6108 H   0  0  0  0  0  0  0  0  0  0  0  0  # atno 8008 bound_to 7997
  155.7373  140.0803  157.2281 H   0  0  0  0  0  0  0  0  0  0  0  0  # atno 8009 bound_to 7997
  154.4057  140.1577  156.2563 H   0  0  0  0  0  0  0  0  0  0  0  0  # atno 8010 bound_to 7997
  139.5749  144.1555  152.1436 H   0  0  0  0  0  0  0  0  0  0  0  0  # atno 10167 bound_to 10162
  157.6602  130.9690  150.1246 H   0  0  0  0  0  0  0  0  0  0  0  0  # atno 10718 bound_to 10713
  154.8662  135.3643  154.5217 H   0  0  0  0  0  0  0  0  0  0  0  0  # atno 10763 bound_to 10752
  153.5847  135.7017  153.5453 H   0  0  0  0  0  0  0  0  0  0  0  0  # atno 10764 bound_to 10752
  153.3426  135.4094  155.1546 H   0  0  0  0  0  0  0  0  0  0  0  0  # atno 10765 bound_to 10752
  140.9448  134.1144  157.4117 H   0  0  0  0  0  0  0  0  0  0  0  0  # atno 11005 bound_to 11000
  146.3380  140.2489  142.8598 LP  0  0  0  0  0  0  0  0  0  0  0  0  # atno 17320 bound_to 7965
  144.9784  140.8436  143.5412 LP  0  0  0  0  0  0  0  0  0  0  0  0  # atno 17321 bound_to 7965
  140.1096  144.5469  150.6934 LP  0  0  0  0  0  0  0  0  0  0  0  0  # atno 17342 bound_to 10162
  140.7032  143.2449  151.4803 LP  0  0  0  0  0  0  0  0  0  0  0  0  # atno 17343 bound_to 10162
  156.2108  130.3666  149.8672 LP  0  0  0  0  0  0  0  0  0  0  0  0  # atno 17370 bound_to 10713
  156.6552  130.8759  151.3538 LP  0  0  0  0  0  0  0  0  0  0  0  0  # atno 17371 bound_to 10713
  139.8830  135.0048  156.6272 LP  0  0  0  0  0  0  0  0  0  0  0  0  # atno 17394 bound_to 11000
  140.7684  133.8759  155.8472 LP  0  0  0  0  0  0  0  0  0  0  0  0  # atno 17395 bound_to 11000

$$$$
