AV-unprocessed.smi:3328|AV-procd|sdf|12794|dock9
  -GOLD-   2272019143D 1   1.00000     0.00000
 Structure written by MMmdl.
 40 41  0  0  0  0  0  0  0  0  1 V2000
  146.3220  143.2740  153.9153 C   0  0  0  0  0  0  0  0  0  0  0  0
  147.1143  142.0945  154.4003 C   0  0  0  0  0  0  0  0  0  0  0  0
  147.0082  141.4279  155.6536 C   0  0  0  0  0  0  0  0  0  0  0  0
  147.8531  140.4176  155.7711 N   0  0  0  0  0  0  0  0  0  0  0  0
  148.5326  140.4054  154.6045 N   0  0  0  0  0  0  0  0  0  0  0  0
  149.5629  139.4033  154.3774 C   0  0  0  0  0  0  0  0  0  0  0  0
  150.6429  139.3443  155.4886 C   0  0  1  0  0  0  0  0  0  0  0  0
  151.4235  138.0201  155.4902 C   0  0  0  0  0  0  0  0  0  0  0  0
  151.6142  140.4258  155.3690 N   0  0  0  0  0  0  0  0  0  0  0  0
  151.2643  141.5871  156.1752 C   0  0  0  0  0  0  0  0  0  0  0  0
  151.0287  141.1557  157.6328 C   0  0  0  0  0  0  0  0  0  0  0  0
  151.8875  141.8852  158.5654 N   0  0  0  0  0  0  0  0  0  0  0  0
  151.8982  143.3384  158.5784 C   0  0  0  0  0  0  0  0  0  0  0  0
  152.8029  143.7287  159.7564 C   0  0  0  0  0  0  0  0  0  0  0  0
  153.4503  142.4281  160.2458 C   0  0  0  0  0  0  0  0  0  0  0  0
  152.7358  141.3493  159.4503 C   0  0  0  0  0  0  0  0  0  0  0  0
  152.9374  140.1486  159.6264 O   0  0  0  0  0  0  0  0  0  0  0  0
  148.0999  141.4020  153.7552 C   0  0  0  0  0  0  0  0  0  0  0  0
  146.0898  143.9642  154.7268 H   0  0  0  0  0  0  0  0  0  0  0  0
  145.3742  142.9663  153.4733 H   0  0  0  0  0  0  0  0  0  0  0  0
  146.8623  143.8411  153.1569 H   0  0  0  0  0  0  0  0  0  0  0  0
  146.3441  141.6463  156.4766 H   0  0  0  0  0  0  0  0  0  0  0  0
  149.0840  138.4347  154.2341 H   0  0  0  0  0  0  0  0  0  0  0  0
  150.0426  139.6316  153.4250 H   0  0  0  0  0  0  0  0  0  0  0  0
  150.1493  139.4335  156.4574 H   0  0  0  0  0  0  0  0  0  0  0  0
  150.7468  137.1689  155.5677 H   0  0  0  0  0  0  0  0  0  0  0  0
  152.1086  137.9701  156.3373 H   0  0  0  0  0  0  0  0  0  0  0  0
  152.0145  137.8942  154.5823 H   0  0  0  0  0  0  0  0  0  0  0  0
  152.5267  140.0954  155.6484 H   0  0  0  0  0  0  0  0  0  0  0  0
  152.0417  142.3487  156.1349 H   0  0  0  0  0  0  0  0  0  0  0  0
  150.3563  142.0353  155.7707 H   0  0  0  0  0  0  0  0  0  0  0  0
  149.9879  141.3411  157.9022 H   0  0  0  0  0  0  0  0  0  0  0  0
  151.1824  140.0812  157.7433 H   0  0  0  0  0  0  0  0  0  0  0  0
  152.2987  143.7101  157.6345 H   0  0  0  0  0  0  0  0  0  0  0  0
  150.8892  143.7341  158.7021 H   0  0  0  0  0  0  0  0  0  0  0  0
  153.5534  144.4604  159.4551 H   0  0  0  0  0  0  0  0  0  0  0  0
  152.2111  144.1787  160.5542 H   0  0  0  0  0  0  0  0  0  0  0  0
  154.5179  142.4031  160.0252 H   0  0  0  0  0  0  0  0  0  0  0  0
  153.3094  142.2799  161.3169 H   0  0  0  0  0  0  0  0  0  0  0  0
  148.5287  141.5370  152.7732 H   0  0  0  0  0  0  0  0  0  0  0  0
  1  2  1  0  0  0  0
  1 19  1  0  0  0  0
  1 20  1  0  0  0  0
  1 21  1  0  0  0  0
  2 18  2  0  0  0  0
  2  3  1  0  0  0  0
  3  4  2  0  0  0  0
  3 22  1  0  0  0  0
  4  5  1  0  0  0  0
  5  6  1  0  0  0  0
  5 18  1  0  0  0  0
  6  7  1  0  0  0  0
  6 23  1  0  0  0  0
  6 24  1  0  0  0  0
  7  8  1  0  0  0  0
  7  9  1  0  0  0  0
  7 25  1  0  0  0  0
  8 26  1  0  0  0  0
  8 27  1  0  0  0  0
  8 28  1  0  0  0  0
  9 10  1  0  0  0  0
  9 29  1  0  0  0  0
 10 11  1  0  0  0  0
 10 30  1  0  0  0  0
 10 31  1  0  0  0  0
 11 12  1  0  0  0  0
 11 32  1  0  0  0  0
 11 33  1  0  0  0  0
 12 16  1  0  0  0  0
 12 13  1  0  0  0  0
 13 14  1  0  0  0  0
 13 34  1  0  0  0  0
 13 35  1  0  0  0  0
 14 15  1  0  0  0  0
 14 36  1  0  0  0  0
 14 37  1  0  0  0  0
 15 16  1  0  0  0  0
 15 38  1  0  0  0  0
 15 39  1  0  0  0  0
 16 17  2  0  0  0  0
 18 40  1  0  0  0  0
M  END
> <s_m_source_file>
AV-unprocessed.smi

> <i_m_source_file_index>
3328

> <i_lp_mmshare_version>
43012

> <i_f3d_flags>
0

> <s_epik_input>
W0NIM11jMVtjSF1ubihbY0hdMSlbQ0gyXVtDQEhdKFtDSDNdKVtOSF1bQ0gyXVtDSDJdTjJbQ0gyXVtDSDJdW0NIMl1DMj1P

> <s_epik_cmdline>
J2VwaWtfcHl0aG9uJywgJy1waCcsICc3LjAnLCAnLXRuJywgJzgnLCAnLW1hJywgJzIwMCcsICctbWV0YWxfYmluZGluZycsICctaW1hZScsICc8aW5maWxlLm1hZT4nLCAnLW9tYWUnLCAnPG91dGZpbGUubWFlPic=

> <r_lp_tautomer_probability>
1

> <r_epik_Ionization_Penalty>
2.53591

> <r_epik_Ionization_Penalty_Charging>
0

> <r_epik_Ionization_Penalty_Neutral>
2.53591

> <r_epik_State_Penalty>
2.70334

> <r_epik_Charging_Adjusted_Penalty>
2.70334

> <i_epik_Tot_Q>
0

> <i_epik_Tot_abs_Q>
0

> <r_epik_Metal_State_Penalty>
2.70327

> <b_epik_Metal_Only>
0

> <s_lp_Force_Field>
OPLS_2005

> <r_lp_Energy>
23.1303

> <b_lp_Chiralities_Consistent>
1

> <s_lp_Variant>
AV-unprocessed.smi:3328-4

> <Gold.Version>
5.8.1

> <Gold.Id.Protein>
6NUR|6NUR_protein|mol2

> <Gold.PLP.Fitness>
43.0156

> <Gold.PLP.PLP>
-39.6527

> <Gold.PLP.part.hbond>
-1.0000

> <Gold.PLP.part.metal>
0.0000

> <Gold.PLP.part.buried>
-5.7366

> <Gold.PLP.part.nonpolar>
-32.7831

> <Gold.PLP.part.repulsive>
0.0256

> <Gold.PLP.ligand.clash>
0.0000

> <Gold.PLP.ligand.torsion>
1.1064

> <Gold.PLP.Chemscore.Hbond>
0.8320

> <Gold.PLP.Chemscore.CHOScore>
1.0000

> <Gold.PLP.Chemscore.Metal>
0.0000

> <Gold.Chemscore.Hbonds>
donor molecule, donor type, donor heavy atom, donor atom, acceptor molecule, acceptor atom, score
      P1  H  7989  7998       L1     9  0.83
      L1  C    18    40       P1  7957  1.00

> <Gold.PLP.Chemscore.Internal.Correction>
0.0798

> <Gold.Rescore>
     Score         DG    S(hbond)    S(metal)    S(lipo)     H(rot)  DE(clash)    DE(int)     intcor
     11.61     -12.67       0.25        0.00      95.81       1.89       0.12       0.94       ----

> <Gold.Chemscore.Fitness>
11.6090

> <Gold.Chemscore.DG>
-12.6749

> <Gold.Chemscore.ZeroCoef>
-5.4800

> <Gold.Chemscore.Hbond>
0.2480

> <Gold.Chemscore.Metal>
0.0000

> <Gold.Chemscore.Lipo>
95.8135

> <Gold.Chemscore.Internal_Hbond>
0.0000

> <Gold.Chemscore.DEClash>
0.1248

> <Gold.Chemscore.DEInternal>
0.9411

> <Gold.Chemscore.Rot>
1.8920

> <Gold.Chemscore.Internal.Correction>
   9.000000E+99

> <Gold.Chemscore.Hbonds>
donor molecule, donor type, donor heavy atom, donor atom, acceptor molecule, acceptor atom, score
      P1  H  7989  7998       L1     9  0.25

> <Gold.Chemscore.Hbond.Weighted>
-0.8282

> <Gold.Chemscore.Metal.Weighted>
-0.0000

> <Gold.Chemscore.Lipo.Weighted>
-11.2102

> <Gold.Chemscore.Internal_Hbond.Weighted>
0.0000

> <Gold.Chemscore.DEClash.Weighted>
0.1248

> <Gold.Chemscore.DEInternal.Weighted>
0.9411

> <Gold.Chemscore.Rot.Weighted>
4.8435

> <Gold.Chemscore.Internal.Correction.Weighted>
   9.000000E+99

> <Gold.Protein.RotatedTorsions>
[ 6907 6896 6895 6894 ] final   49.79 input  -60.11 | X-H torsion
[ 7974 7965 7964 7962 ] final   98.04 input  175.53 | X-H torsion
[ 8008 7997 7996 7995 ] final  156.14 input   59.86 | X-H torsion
[ 10167 10162 10161 10158 ] final  179.15 input  -65.29 | X-H torsion
[ 10718 10713 10712 10709 ] final  157.24 input   66.30 | X-H torsion
[ 10763 10752 10751 10750 ] final   75.76 input  -60.55 | X-H torsion
[ 11005 11000 10999 10996 ] final   54.21 input  -57.11 | X-H torsion

> <Gold.Protein.ActiveResidues>
 VAL166  LYS551  ARG553  GLY616  TRP617  ASP618  TYR619  PRO620  LYS621  CYS622 
 ASP623  PHE694  ASN695  SER759  ASP760  ASP761  ALA762  ILE779  LEU786  VAL792 
 PHE793  MET794  SER795  GLU796  ALA797  LYS798  CYS799  TRP800  GLU811  SER814 

> <Gold.Protein.RotatedAtoms>
  152.2946  134.7681  160.0370 H   0  0  0  0  0  0  0  0  0  0  0  0  # atno 6907 bound_to 6896
  151.8216  133.3390  159.3594 H   0  0  0  0  0  0  0  0  0  0  0  0  # atno 6908 bound_to 6896
  150.7246  134.5498  159.5833 H   0  0  0  0  0  0  0  0  0  0  0  0  # atno 6909 bound_to 6896
  145.4175  139.2325  143.3214 H   0  0  0  0  0  0  0  0  0  0  0  0  # atno 7974 bound_to 7965
  156.2439  140.1920  156.6909 H   0  0  0  0  0  0  0  0  0  0  0  0  # atno 8008 bound_to 7997
  154.6252  140.0603  156.9691 H   0  0  0  0  0  0  0  0  0  0  0  0  # atno 8009 bound_to 7997
  155.1798  140.3275  155.4380 H   0  0  0  0  0  0  0  0  0  0  0  0  # atno 8010 bound_to 7997
  139.5324  144.2595  152.0718 H   0  0  0  0  0  0  0  0  0  0  0  0  # atno 10167 bound_to 10162
  157.1941  131.0661  151.2062 H   0  0  0  0  0  0  0  0  0  0  0  0  # atno 10718 bound_to 10713
  153.0678  135.4976  154.8237 H   0  0  0  0  0  0  0  0  0  0  0  0  # atno 10763 bound_to 10752
  154.6978  135.2996  154.9388 H   0  0  0  0  0  0  0  0  0  0  0  0  # atno 10764 bound_to 10752
  154.0121  135.6753  153.4819 H   0  0  0  0  0  0  0  0  0  0  0  0  # atno 10765 bound_to 10752
  140.0704  134.5477  155.9052 H   0  0  0  0  0  0  0  0  0  0  0  0  # atno 11005 bound_to 11000
  146.2674  140.4894  142.8828 LP  0  0  0  0  0  0  0  0  0  0  0  0  # atno 17320 bound_to 7965
  144.8268  140.6641  143.6317 LP  0  0  0  0  0  0  0  0  0  0  0  0  # atno 17321 bound_to 7965
  140.2061  144.4610  150.6408 LP  0  0  0  0  0  0  0  0  0  0  0  0  # atno 17342 bound_to 10162
  140.6510  143.2225  151.6076 LP  0  0  0  0  0  0  0  0  0  0  0  0  # atno 17343 bound_to 10162
  157.3831  130.7242  149.6644 LP  0  0  0  0  0  0  0  0  0  0  0  0  # atno 17370 bound_to 10713
  155.9708  130.4167  150.4242 LP  0  0  0  0  0  0  0  0  0  0  0  0  # atno 17371 bound_to 10713
  141.2010  133.6615  156.5925 LP  0  0  0  0  0  0  0  0  0  0  0  0  # atno 17394 bound_to 11000
  140.3635  134.7667  157.4550 LP  0  0  0  0  0  0  0  0  0  0  0  0  # atno 17395 bound_to 11000

$$$$
