AV-unprocessed.smi:699|AV-procd|sdf|3406|dock3
  -GOLD-   22720 0383D 1   1.00000     0.00000
 Structure written by MMmdl.
 35 36  0  0  0  0  0  0  0  0  2 V2000
  147.6915  132.6519  152.3693 N   0  0  0  0  0  0  0  0  0  0  0  0
  146.4253  133.0588  152.4894 C   0  0  0  0  0  0  0  0  0  0  0  0
  145.6274  132.4955  153.2363 O   0  0  0  0  0  0  0  0  0  0  0  0
  145.9975  134.2713  151.6487 C   0  0  1  0  0  0  0  0  0  0  0  0
  144.8434  133.9587  150.6852 C   0  0  0  0  0  0  0  0  0  0  0  0
  144.1818  135.3111  150.4387 C   0  0  0  0  0  0  0  0  0  0  0  0
  144.2535  136.0225  151.7893 C   0  0  0  0  0  0  0  0  0  0  0  0
  145.4976  135.4602  152.5066 C   0  0  2  0  0  0  0  0  0  0  0  0
  146.5453  136.4682  152.6602 N   0  0  0  0  0  0  0  0  0  0  0  0
  146.3682  137.6923  153.1777 C   0  0  0  0  0  0  0  0  0  0  0  0
  145.2802  138.1104  153.5722 O   0  0  0  0  0  0  0  0  0  0  0  0
  147.5189  138.3880  153.1855 N   0  0  0  0  0  0  0  0  0  0  0  0
  147.7586  139.7106  153.6502 C   0  0  0  0  0  0  0  0  0  0  0  0
  149.0019  139.9663  154.2707 C   0  0  0  0  0  0  0  0  0  0  0  0
  149.2839  141.2577  154.7609 C   0  0  0  0  0  0  0  0  0  0  0  0
  148.3624  142.2373  154.6431 N   0  3  0  0  0  0  0  0  0  0  0  0
  147.1556  142.0390  154.0707 C   0  0  0  0  0  0  0  0  0  0  0  0
  146.8172  140.7683  153.5617 C   0  0  0  0  0  0  0  0  0  0  0  0
  148.0129  131.8566  152.9022 H   0  0  0  0  0  0  0  0  0  0  0  0
  148.3221  133.1357  151.7470 H   0  0  0  0  0  0  0  0  0  0  0  0
  146.8429  134.5999  151.0405 H   0  0  0  0  0  0  0  0  0  0  0  0
  145.1908  133.5020  149.7579 H   0  0  0  0  0  0  0  0  0  0  0  0
  144.1211  133.2778  151.1387 H   0  0  0  0  0  0  0  0  0  0  0  0
  144.7560  135.8704  149.6988 H   0  0  0  0  0  0  0  0  0  0  0  0
  143.1608  135.2186  150.0675 H   0  0  0  0  0  0  0  0  0  0  0  0
  144.2698  137.1072  151.6746 H   0  0  0  0  0  0  0  0  0  0  0  0
  143.3648  135.7777  152.3724 H   0  0  0  0  0  0  0  0  0  0  0  0
  145.1975  135.1183  153.4999 H   0  0  0  0  0  0  0  0  0  0  0  0
  147.4705  136.2094  152.3510 H   0  0  0  0  0  0  0  0  0  0  0  0
  148.3113  137.9305  152.7590 H   0  0  0  0  0  0  0  0  0  0  0  0
  149.7393  139.1824  154.3680 H   0  0  0  0  0  0  0  0  0  0  0  0
  150.2112  141.5332  155.2419 H   0  0  0  0  0  0  0  0  0  0  0  0
  146.4978  142.8955  154.0418 H   0  0  0  0  0  0  0  0  0  0  0  0
  145.8395  140.6312  153.1261 H   0  0  0  0  0  0  0  0  0  0  0  0
  148.5849  143.1646  155.0060 H   0  0  0  0  0  0  0  0  0  0  0  0
  1  2  1  0  0  0  0
  1 19  1  0  0  0  0
  1 20  1  0  0  0  0
  2  3  2  0  0  0  0
  2  4  1  0  0  0  0
  4  8  1  0  0  0  0
  4  5  1  0  0  0  0
  4 21  1  0  0  0  0
  5  6  1  0  0  0  0
  5 22  1  0  0  0  0
  5 23  1  0  0  0  0
  6  7  1  0  0  0  0
  6 24  1  0  0  0  0
  6 25  1  0  0  0  0
  7  8  1  0  0  0  0
  7 26  1  0  0  0  0
  7 27  1  0  0  0  0
  8  9  1  0  0  0  0
  8 28  1  0  0  0  0
  9 10  1  0  0  0  0
  9 29  1  0  0  0  0
 10 11  2  0  0  0  0
 10 12  1  0  0  0  0
 12 13  1  0  0  0  0
 12 30  1  0  0  0  0
 13 18  1  0  0  0  0
 13 14  2  0  0  0  0
 14 15  1  0  0  0  0
 14 31  1  0  0  0  0
 15 16  2  0  0  0  0
 15 32  1  0  0  0  0
 16 17  1  0  0  0  0
 16 35  1  0  0  0  0
 17 18  2  0  0  0  0
 17 33  1  0  0  0  0
 18 34  1  0  0  0  0
M  CHG  1  16   1
M  END
> <s_m_source_file>
AV-unprocessed.smi

> <i_m_source_file_index>
699

> <i_lp_mmshare_version>
43012

> <i_f3d_flags>
0

> <s_epik_input>
W05IMl1DKD1PKVtDQEBIXTFbQ0gyXVtDSDJdW0NIMl1bQ0BIXTFbTkhdQyg9TylbTkhdYzJbY0hdW2NIXW5bY0hdW2NIXTI=

> <s_epik_cmdline>
J2VwaWtfcHl0aG9uJywgJy1waCcsICc3LjAnLCAnLXRuJywgJzgnLCAnLW1hJywgJzIwMCcsICctbWV0YWxfYmluZGluZycsICctaW1hZScsICc8aW5maWxlLm1hZT4nLCAnLW9tYWUnLCAnPG91dGZpbGUubWFlPic=

> <r_epik_Ionization_Penalty>
1.0332

> <r_epik_Ionization_Penalty_Charging>
1.03318

> <r_epik_Ionization_Penalty_Neutral>
1.91967e-05

> <r_epik_State_Penalty>
1.08452

> <r_epik_Charging_Adjusted_Penalty>
2.11769

> <i_epik_Tot_Q>
1

> <i_epik_Tot_abs_Q>
1

> <r_epik_Metal_State_Penalty>
1.18144

> <b_epik_Metal_Only>
0

> <s_lp_Force_Field>
OPLS_2005

> <r_lp_Energy>
26.7554

> <b_lp_Chiralities_Consistent>
1

> <s_lp_Variant>
AV-unprocessed.smi:699-8

> <Gold.Version>
5.8.1

> <Gold.Id.Protein>
6NUR|6NUR_protein|mol2

> <Gold.PLP.Fitness>
40.6983

> <Gold.PLP.PLP>
-29.6520

> <Gold.PLP.part.hbond>
-3.9593

> <Gold.PLP.part.metal>
0.0000

> <Gold.PLP.part.buried>
-4.6927

> <Gold.PLP.part.nonpolar>
-23.7305

> <Gold.PLP.part.repulsive>
0.7579

> <Gold.PLP.ligand.clash>
0.0000

> <Gold.PLP.ligand.torsion>
0.3335

> <Gold.PLP.Chemscore.Hbond>
3.9033

> <Gold.PLP.Chemscore.CHOScore>
0.0000

> <Gold.PLP.Chemscore.Metal>
0.0000

> <Gold.Chemscore.Hbonds>
donor molecule, donor type, donor heavy atom, donor atom, acceptor molecule, acceptor atom, score
      L1  H     9    29       P1  7948  1.00
      L1  H    12    30       P1  7948  0.91
      L1  H    16    35       P1  8028  2.00

> <Gold.PLP.Chemscore.Internal.Correction>
0.0036

> <Gold.Rescore>
     Score         DG    S(hbond)    S(metal)    S(lipo)     H(rot)  DE(clash)    DE(int)     intcor
     16.65     -18.17       2.91        0.00      58.20       1.50       0.02       1.51       ----

> <Gold.Chemscore.Fitness>
16.6517

> <Gold.Chemscore.DG>
-18.1746

> <Gold.Chemscore.ZeroCoef>
-5.4800

> <Gold.Chemscore.Hbond>
2.9145

> <Gold.Chemscore.Metal>
0.0000

> <Gold.Chemscore.Lipo>
58.2031

> <Gold.Chemscore.Internal_Hbond>
0.0000

> <Gold.Chemscore.DEClash>
0.0154

> <Gold.Chemscore.DEInternal>
1.5075

> <Gold.Chemscore.Rot>
1.5038

> <Gold.Chemscore.Internal.Correction>
   9.000000E+99

> <Gold.Chemscore.Hbonds>
donor molecule, donor type, donor heavy atom, donor atom, acceptor molecule, acceptor atom, score
      L1  H     9    29       P1  7948  0.95
      L1  H    12    30       P1  7948  0.85
      L1  H    16    35       P1  8028  1.00

> <Gold.Chemscore.Hbond.Weighted>
-9.7345

> <Gold.Chemscore.Metal.Weighted>
-0.0000

> <Gold.Chemscore.Lipo.Weighted>
-6.8098

> <Gold.Chemscore.Internal_Hbond.Weighted>
0.0000

> <Gold.Chemscore.DEClash.Weighted>
0.0154

> <Gold.Chemscore.DEInternal.Weighted>
1.5075

> <Gold.Chemscore.Rot.Weighted>
3.8496

> <Gold.Chemscore.Internal.Correction.Weighted>
   9.000000E+99

> <Gold.Protein.RotatedTorsions>
[ 6907 6896 6895 6894 ] final  -24.90 input  -60.11 | X-H torsion
[ 7974 7965 7964 7962 ] final  166.20 input  175.53 | X-H torsion
[ 8008 7997 7996 7995 ] final   95.05 input   59.86 | X-H torsion
[ 10167 10162 10161 10158 ] final -151.60 input  -65.29 | X-H torsion
[ 10718 10713 10712 10709 ] final  -56.24 input   66.30 | X-H torsion
[ 10763 10752 10751 10750 ] final  -57.45 input  -60.55 | X-H torsion
[ 11005 11000 10999 10996 ] final  -37.36 input  -57.11 | X-H torsion

> <Gold.Protein.ActiveResidues>
 VAL166  LYS551  ARG553  GLY616  TRP617  ASP618  TYR619  PRO620  LYS621  CYS622 
 ASP623  PHE694  ASN695  SER759  ASP760  ASP761  ALA762  ILE779  LEU786  VAL792 
 PHE793  MET794  SER795  GLU796  ALA797  LYS798  CYS799  TRP800  GLU811  SER814 

> <Gold.Protein.RotatedAtoms>
  151.1829  135.0369  159.8799 H   0  0  0  0  0  0  0  0  0  0  0  0  # atno 6907 bound_to 6896
  152.5444  134.1042  159.8341 H   0  0  0  0  0  0  0  0  0  0  0  0  # atno 6908 bound_to 6896
  151.1161  133.5091  159.2636 H   0  0  0  0  0  0  0  0  0  0  0  0  # atno 6909 bound_to 6896
  144.7472  139.8581  143.6378 H   0  0  0  0  0  0  0  0  0  0  0  0  # atno 7974 bound_to 7965
  156.0647  140.3291  155.7503 H   0  0  0  0  0  0  0  0  0  0  0  0  # atno 8008 bound_to 7997
  155.5400  140.0601  157.2889 H   0  0  0  0  0  0  0  0  0  0  0  0  # atno 8009 bound_to 7997
  154.4499  140.1912  156.0569 H   0  0  0  0  0  0  0  0  0  0  0  0  # atno 8010 bound_to 7997
  139.7253  143.8892  152.2517 H   0  0  0  0  0  0  0  0  0  0  0  0  # atno 10167 bound_to 10162
  156.1304  130.4160  150.0279 H   0  0  0  0  0  0  0  0  0  0  0  0  # atno 10718 bound_to 10713
  154.2227  135.6375  153.5150 H   0  0  0  0  0  0  0  0  0  0  0  0  # atno 10763 bound_to 10752
  152.9965  135.5500  154.6097 H   0  0  0  0  0  0  0  0  0  0  0  0  # atno 10764 bound_to 10752
  154.5561  135.2905  155.0937 H   0  0  0  0  0  0  0  0  0  0  0  0  # atno 10765 bound_to 10752
  140.9946  133.6987  156.1911 H   0  0  0  0  0  0  0  0  0  0  0  0  # atno 11005 bound_to 11000
  146.1368  139.4415  143.0134 LP  0  0  0  0  0  0  0  0  0  0  0  0  # atno 17320 bound_to 7965
  145.7079  141.0115  143.1469 LP  0  0  0  0  0  0  0  0  0  0  0  0  # atno 17321 bound_to 7965
  139.8800  144.7023  150.8889 LP  0  0  0  0  0  0  0  0  0  0  0  0  # atno 17342 bound_to 10162
  140.7761  143.3669  151.1722 LP  0  0  0  0  0  0  0  0  0  0  0  0  # atno 17343 bound_to 10162
  156.8192  130.9353  151.3642 LP  0  0  0  0  0  0  0  0  0  0  0  0  # atno 17370 bound_to 10713
  157.6482  130.8862  149.9581 LP  0  0  0  0  0  0  0  0  0  0  0  0  # atno 17371 bound_to 10713
  140.6986  134.4588  157.5587 LP  0  0  0  0  0  0  0  0  0  0  0  0  # atno 17394 bound_to 11000
  139.9008  134.8560  156.1903 LP  0  0  0  0  0  0  0  0  0  0  0  0  # atno 17395 bound_to 11000

$$$$
