#       Name:                AV-unprocessed.smi:1245
#       Creating user name   scv26
#       Creation time:       Fri Mar 27 04:34:44 2020


#       File generated by GOLD software.
#

@<TRIPOS>MOLECULE
AV-unprocessed.smi:1245
    46    47     1
SMALL
NO_CHARGES


@<TRIPOS>ATOM
      1 ****        -0.8165   1.3301  -1.4727 O.2            1 S1                 0.0000
      2 ****        -0.3312   0.2463  -1.1487 C.2            1 S1                 0.0000
      3 ****         1.1738   0.1207  -0.9057 C.3            1 S1                 0.0000
      4 ****         1.6801   1.0631   0.2000 C.3            1 S1                 0.0000
      5 ****         1.1397   0.5014   1.8764 S.o2           1 S1                 0.0000
      6 ****        -0.2979   0.7804   2.0158 O.2            1 S1                 0.0000
      7 ****         1.6279  -0.8705   2.0844 O.2            1 S1                 0.0000
      8 ****         2.0761   1.6372   3.0017 C.3            1 S1                 0.0000
      9 ****         1.8915   1.2131   4.4726 C.3            1 S1                 0.0000
     10 ****         1.2145   2.3855   5.1926 C.3            1 S1                 0.0000
     11 ****         0.5809   3.2259   4.0872 C.3            1 S1                 0.0000
     12 ****         1.5522   3.0805   2.9178 C.3            1 S1                 0.0000
     13 ****        -1.0559  -0.8711  -0.9920 N.am           1 S1                 0.0000
     14 ****        -2.5004  -0.9677  -1.1770 C.3            1 S1                 0.0000
     15 ****        -2.9110  -1.0091  -2.6623 C.3            1 S1                 0.0000
     16 ****        -2.1741  -2.0676  -3.4657 C.ar           1 S1                 0.0000
     17 ****        -1.1207  -1.7105  -4.3349 C.ar           1 S1                 0.0000
     18 ****        -0.4623  -2.7317  -5.0468 C.ar           1 S1                 0.0000
     19 ****        -0.8804  -4.0638  -4.8636 C.ar           1 S1                 0.0000
     20 ****        -1.9437  -4.3162  -3.9739 C.ar           1 S1                 0.0000
     21 ****        -2.5819  -3.3444  -3.2866 N.ar           1 S1                 0.0000
     22 ****         1.4408  -0.9114  -0.6745 H              1 S1                 0.0000
     23 ****         1.6773   0.3630  -1.8419 H              1 S1                 0.0000
     24 ****         2.7696   1.0831   0.1942 H              1 S1                 0.0000
     25 ****         1.3372   2.0847   0.0383 H              1 S1                 0.0000
     26 ****         3.1263   1.5887   2.7126 H              1 S1                 0.0000
     27 ****         1.2621   0.3253   4.5433 H              1 S1                 0.0000
     28 ****         2.8440   0.9645   4.9415 H              1 S1                 0.0000
     29 ****         0.4875   2.0567   5.9358 H              1 S1                 0.0000
     30 ****         1.9697   2.9787   5.7099 H              1 S1                 0.0000
     31 ****        -0.3930   2.8144   3.8195 H              1 S1                 0.0000
     32 ****         0.4336   4.2651   4.3826 H              1 S1                 0.0000
     33 ****         2.3832   3.7729   3.0562 H              1 S1                 0.0000
     34 ****         1.0865   3.3225   1.9632 H              1 S1                 0.0000
     35 ****        -0.5737  -1.7165  -0.7221 H              1 S1                 0.0000
     36 ****        -2.8303  -1.8826  -0.6841 H              1 S1                 0.0000
     37 ****        -3.0027  -0.1453  -0.6654 H              1 S1                 0.0000
     38 ****        -3.9841  -1.1880  -2.7405 H              1 S1                 0.0000
     39 ****        -2.7374  -0.0336  -3.1184 H              1 S1                 0.0000
     40 ****        -0.8195  -0.6793  -4.4488 H              1 S1                 0.0000
     41 ****         0.3496  -2.4971  -5.7194 H              1 S1                 0.0000
     42 ****        -0.3980  -4.8729  -5.3918 H              1 S1                 0.0000
     43 ****        -2.2901  -5.3256  -3.8085 H              1 S1                 0.0000
     44 ****        -0.2266   2.1308  -1.5776 LP             1 S1                 0.0000
     45 ****        -1.8006   1.4100  -1.6311 LP             1 S1                 0.0000
     46 ****        -3.3334  -3.5625  -2.6640 LP             1 S1                 0.0000
@<TRIPOS>BOND
    1    1    2 2     
    2    2    3 1     
    3    2   13 am    
    4    3    4 1     
    5    3   22 1     
    6    3   23 1     
    7    4    5 1     
    8    4   24 1     
    9    4   25 1     
   10    5    6 2     
   11    5    7 2     
   12    5    8 1     
   13    8   12 1     
   14    8    9 1     
   15    8   26 1     
   16    9   10 1     
   17    9   27 1     
   18    9   28 1     
   19   10   11 1     
   20   10   29 1     
   21   10   30 1     
   22   11   12 1     
   23   11   31 1     
   24   11   32 1     
   25   12   33 1     
   26   12   34 1     
   27   13   14 1     
   28   13   35 1     
   29   14   15 1     
   30   14   36 1     
   31   14   37 1     
   32   15   16 1     
   33   15   38 1     
   34   15   39 1     
   35   16   21 ar    
   36   16   17 ar    
   37   17   18 ar    
   38   17   40 1     
   39   18   19 ar    
   40   18   41 1     
   41   19   20 ar    
   42   19   42 1     
   43   20   21 ar    
   44   20   43 1     
   45    1   44 1     
   46    1   45 1     
   47   21   46 1     
@<TRIPOS>SUBSTRUCTURE
      1 S1             1
@<TRIPOS>SET
LONE_PAIRS      STATIC     ATOMS    <user>   **** ""
5 44 45 6 7 46
DONOR_HYDROGENS      STATIC     ATOMS    <user>   **** ""
1 35
ATOM$BLUE        STATIC     ATOMS    COLORGROUP SYSTEM
5 44 45 6 7 46
ATOM$RED        STATIC     ATOMS    COLORGROUP SYSTEM
1 35
