AV-unprocessed.smi:1484|AV-procd|sdf|5999|dock3
  -GOLD-   22720 6 93D 1   1.00000     0.00000
 Structure written by MMmdl.
 38 39  0  0  0  0  0  0  0  0  1 V2000
  153.8897  142.0267  160.8851 C   0  0  0  0  0  0  0  0  0  0  0  0
  153.0870  143.0115  160.0231 C   0  0  2  0  0  0  0  0  0  0  0  0
  152.0100  143.7375  160.8517 C   0  0  0  0  0  0  0  0  0  0  0  0
  151.2062  144.7228  159.9890 C   0  0  0  0  0  0  0  0  0  0  0  0
  150.5766  144.0192  158.7771 C   0  0  0  0  0  0  0  0  0  0  0  0
  151.6433  143.2890  157.9366 C   0  0  2  0  0  0  0  0  0  0  0  0
  151.0222  142.5642  156.8321 N   0  0  0  0  0  0  0  0  0  0  0  0
  149.9703  141.7384  156.9395 C   0  0  0  0  0  0  0  0  0  0  0  0
  149.4159  141.4873  158.0108 O   0  0  0  0  0  0  0  0  0  0  0  0
  149.4939  141.0855  155.6335 C   0  0  0  0  0  0  0  0  0  0  0  0
  150.2129  139.8467  155.3026 N   0  0  0  0  0  0  0  0  0  0  0  0
  151.5615  140.0278  155.0359 N   0  0  0  0  0  0  0  0  0  0  0  0
  152.3037  139.0131  154.7465 C   0  0  0  0  0  0  0  0  0  0  0  0
  153.6346  139.2368  154.4923 O   0  0  0  0  0  0  0  0  0  0  0  0
  151.7544  137.6762  154.6893 C   0  0  0  0  0  0  0  0  0  0  0  0
  150.4383  137.5103  154.9452 C   0  0  0  0  0  0  0  0  0  0  0  0
  149.5679  138.6399  155.2765 C   0  0  0  0  0  0  0  0  0  0  0  0
  148.3659  138.5179  155.5116 O   0  0  0  0  0  0  0  0  0  0  0  0
  152.4492  142.3078  158.8091 C   0  0  0  0  0  0  0  0  0  0  0  0
  154.0082  138.3833  154.3357 H   0  0  0  0  0  0  0  0  0  0  0  0
  153.2498  141.2437  161.2934 H   0  0  0  0  0  0  0  0  0  0  0  0
  154.3674  142.5367  161.7220 H   0  0  0  0  0  0  0  0  0  0  0  0
  154.6751  141.5447  160.3022 H   0  0  0  0  0  0  0  0  0  0  0  0
  153.7846  143.7616  159.6476 H   0  0  0  0  0  0  0  0  0  0  0  0
  151.3320  143.0080  161.2971 H   0  0  0  0  0  0  0  0  0  0  0  0
  152.4741  144.2733  161.6803 H   0  0  0  0  0  0  0  0  0  0  0  0
  150.4280  145.1940  160.5901 H   0  0  0  0  0  0  0  0  0  0  0  0
  151.8599  145.5256  159.6458 H   0  0  0  0  0  0  0  0  0  0  0  0
  149.8255  143.3070  159.1220 H   0  0  0  0  0  0  0  0  0  0  0  0
  150.0492  144.7518  158.1648 H   0  0  0  0  0  0  0  0  0  0  0  0
  152.3379  144.0267  157.5294 H   0  0  0  0  0  0  0  0  0  0  0  0
  151.4190  142.7071  155.9146 H   0  0  0  0  0  0  0  0  0  0  0  0
  148.4218  140.8874  155.6947 H   0  0  0  0  0  0  0  0  0  0  0  0
  149.6104  141.8151  154.8300 H   0  0  0  0  0  0  0  0  0  0  0  0
  152.3883  136.8359  154.4464 H   0  0  0  0  0  0  0  0  0  0  0  0
  150.0148  136.5176  154.9061 H   0  0  0  0  0  0  0  0  0  0  0  0
  153.2269  141.8357  158.2072 H   0  0  0  0  0  0  0  0  0  0  0  0
  151.7976  141.5038  159.1557 H   0  0  0  0  0  0  0  0  0  0  0  0
  1  2  1  0  0  0  0
  1 21  1  0  0  0  0
  1 22  1  0  0  0  0
  1 23  1  0  0  0  0
  2 19  1  0  0  0  0
  2  3  1  0  0  0  0
  2 24  1  0  0  0  0
  3  4  1  0  0  0  0
  3 25  1  0  0  0  0
  3 26  1  0  0  0  0
  4  5  1  0  0  0  0
  4 27  1  0  0  0  0
  4 28  1  0  0  0  0
  5  6  1  0  0  0  0
  5 29  1  0  0  0  0
  5 30  1  0  0  0  0
  6  7  1  0  0  0  0
  6 19  1  0  0  0  0
  6 31  1  0  0  0  0
  7  8  1  0  0  0  0
  7 32  1  0  0  0  0
  8  9  2  0  0  0  0
  8 10  1  0  0  0  0
 10 33  1  0  0  0  0
 10 34  1  0  0  0  0
 10 11  1  0  0  0  0
 11 12  1  0  0  0  0
 11 17  1  0  0  0  0
 12 13  2  0  0  0  0
 13 14  1  0  0  0  0
 13 15  1  0  0  0  0
 14 20  1  0  0  0  0
 15 35  1  0  0  0  0
 15 16  2  0  0  0  0
 16 36  1  0  0  0  0
 16 17  1  0  0  0  0
 17 18  2  0  0  0  0
 19 37  1  0  0  0  0
 19 38  1  0  0  0  0
M  END
> <s_m_source_file>
AV-unprocessed.smi

> <i_m_source_file_index>
1484

> <i_lp_mmshare_version>
43012

> <i_f3d_flags>
0

> <s_epik_input>
W0NIM11bQ0BASF0xW0NIMl1bQ0gyXVtDSDJdW0NASF0oW0NIMl0xKVtOSF1DKD1PKVtDSDJdbjJbbkhdYyg9TylbY0hdW2NIXWMyPU8=

> <s_epik_cmdline>
J2VwaWtfcHl0aG9uJywgJy1waCcsICc3LjAnLCAnLXRuJywgJzgnLCAnLW1hJywgJzIwMCcsICctbWV0YWxfYmluZGluZycsICctaW1hZScsICc8aW5maWxlLm1hZT4nLCAnLW9tYWUnLCAnPG91dGZpbGUubWFlPic=

> <r_lp_tautomer_probability>
0.9996

> <r_epik_Ionization_Penalty>
2.10343

> <r_epik_Ionization_Penalty_Charging>
3.97871e-08

> <r_epik_Ionization_Penalty_Neutral>
2.10343

> <r_epik_State_Penalty>
1.67966

> <r_epik_Charging_Adjusted_Penalty>
1.67966

> <i_epik_Tot_Q>
0

> <i_epik_Tot_abs_Q>
0

> <r_epik_Metal_State_Penalty>
1.67966

> <b_epik_Metal_Only>
0

> <s_lp_Force_Field>
OPLS_2005

> <r_lp_Energy>
18.4171

> <b_lp_Chiralities_Consistent>
1

> <s_lp_Variant>
AV-unprocessed.smi:1484-7

> <Gold.Version>
5.8.1

> <Gold.Id.Protein>
6NUR|6NUR_protein|mol2

> <Gold.PLP.Fitness>
46.8735

> <Gold.PLP.PLP>
-42.0584

> <Gold.PLP.part.hbond>
-2.5350

> <Gold.PLP.part.metal>
0.0000

> <Gold.PLP.part.buried>
-4.3158

> <Gold.PLP.part.nonpolar>
-36.3943

> <Gold.PLP.part.repulsive>
0.2801

> <Gold.PLP.ligand.clash>
0.0000

> <Gold.PLP.ligand.torsion>
0.5202

> <Gold.PLP.Chemscore.Hbond>
1.9500

> <Gold.PLP.Chemscore.CHOScore>
0.0000

> <Gold.PLP.Chemscore.Metal>
0.0000

> <Gold.Chemscore.Hbonds>
donor molecule, donor type, donor heavy atom, donor atom, acceptor molecule, acceptor atom, score
      P1  H  7989  7998       L1    12  0.95
      P1  H  7997  8009       L1    14  1.00

> <Gold.PLP.Chemscore.Internal.Correction>
0.0056

> <Gold.Rescore>
     Score         DG    S(hbond)    S(metal)    S(lipo)     H(rot)  DE(clash)    DE(int)     intcor
     13.22     -14.82       1.07        0.00      98.43       2.24       0.21       1.39       ----

> <Gold.Chemscore.Fitness>
13.2181

> <Gold.Chemscore.DG>
-14.8201

> <Gold.Chemscore.ZeroCoef>
-5.4800

> <Gold.Chemscore.Hbond>
1.0670

> <Gold.Chemscore.Metal>
0.0000

> <Gold.Chemscore.Lipo>
98.4290

> <Gold.Chemscore.Internal_Hbond>
0.0000

> <Gold.Chemscore.DEClash>
0.2144

> <Gold.Chemscore.DEInternal>
1.3877

> <Gold.Chemscore.Rot>
2.2421

> <Gold.Chemscore.Internal.Correction>
   9.000000E+99

> <Gold.Chemscore.Hbonds>
donor molecule, donor type, donor heavy atom, donor atom, acceptor molecule, acceptor atom, score
      P1  H  7989  7998       L1    12  0.13
      P1  H  7997  8009       L1    14  0.81

> <Gold.Chemscore.Hbond.Weighted>
-3.5637

> <Gold.Chemscore.Metal.Weighted>
-0.0000

> <Gold.Chemscore.Lipo.Weighted>
-11.5162

> <Gold.Chemscore.Internal_Hbond.Weighted>
0.0000

> <Gold.Chemscore.DEClash.Weighted>
0.2144

> <Gold.Chemscore.DEInternal.Weighted>
1.3877

> <Gold.Chemscore.Rot.Weighted>
5.7398

> <Gold.Chemscore.Internal.Correction.Weighted>
   9.000000E+99

> <Gold.Protein.RotatedTorsions>
[ 6907 6896 6895 6894 ] final  168.66 input  -60.11 | X-H torsion
[ 7974 7965 7964 7962 ] final -106.02 input  175.53 | X-H torsion
[ 8008 7997 7996 7995 ] final -114.76 input   59.86 | X-H torsion
[ 10167 10162 10161 10158 ] final  -67.20 input  -65.29 | X-H torsion
[ 10718 10713 10712 10709 ] final   43.43 input   66.30 | X-H torsion
[ 10763 10752 10751 10750 ] final  -48.04 input  -60.55 | X-H torsion
[ 11005 11000 10999 10996 ] final  116.96 input  -57.11 | X-H torsion

> <Gold.Protein.ActiveResidues>
 VAL166  LYS551  ARG553  GLY616  TRP617  ASP618  TYR619  PRO620  LYS621  CYS622 
 ASP623  PHE694  ASN695  SER759  ASP760  ASP761  ALA762  ILE779  LEU786  VAL792 
 PHE793  MET794  SER795  GLU796  ALA797  LYS798  CYS799  TRP800  GLU811  SER814 

> <Gold.Protein.RotatedAtoms>
  151.8442  133.3428  159.3652 H   0  0  0  0  0  0  0  0  0  0  0  0  # atno 6907 bound_to 6896
  150.7226  134.5362  159.5734 H   0  0  0  0  0  0  0  0  0  0  0  0  # atno 6908 bound_to 6896
  152.2842  134.7795  160.0442 H   0  0  0  0  0  0  0  0  0  0  0  0  # atno 6909 bound_to 6896
  145.2230  140.9142  143.3248 H   0  0  0  0  0  0  0  0  0  0  0  0  # atno 7974 bound_to 7965
  155.0413  140.0392  157.2510 H   0  0  0  0  0  0  0  0  0  0  0  0  # atno 8008 bound_to 7997
  154.7214  140.2712  155.6514 H   0  0  0  0  0  0  0  0  0  0  0  0  # atno 8009 bound_to 7997
  156.2817  140.2702  156.1886 H   0  0  0  0  0  0  0  0  0  0  0  0  # atno 8010 bound_to 7997
  140.5601  143.2312  151.6745 H   0  0  0  0  0  0  0  0  0  0  0  0  # atno 10167 bound_to 10162
  157.4158  130.7940  149.7471 H   0  0  0  0  0  0  0  0  0  0  0  0  # atno 10718 bound_to 10713
  154.0713  135.6604  153.4824 H   0  0  0  0  0  0  0  0  0  0  0  0  # atno 10763 bound_to 10752
  153.0390  135.5158  154.7564 H   0  0  0  0  0  0  0  0  0  0  0  0  # atno 10764 bound_to 10752
  154.6631  135.3018  154.9808 H   0  0  0  0  0  0  0  0  0  0  0  0  # atno 10765 bound_to 10752
  139.9058  134.9604  156.7278 H   0  0  0  0  0  0  0  0  0  0  0  0  # atno 11005 bound_to 11000
  144.9747  139.3844  143.6291 LP  0  0  0  0  0  0  0  0  0  0  0  0  # atno 17320 bound_to 7965
  146.3371  139.8861  142.8816 LP  0  0  0  0  0  0  0  0  0  0  0  0  # atno 17321 bound_to 7965
  139.5066  144.3676  152.0502 LP  0  0  0  0  0  0  0  0  0  0  0  0  # atno 17342 bound_to 10162
  140.2802  144.3868  150.6121 LP  0  0  0  0  0  0  0  0  0  0  0  0  # atno 17343 bound_to 10162
  155.9865  130.3974  150.3211 LP  0  0  0  0  0  0  0  0  0  0  0  0  # atno 17370 bound_to 10713
  157.1354  131.0282  151.2951 LP  0  0  0  0  0  0  0  0  0  0  0  0  # atno 17371 bound_to 10713
  140.6949  133.9357  155.7989 LP  0  0  0  0  0  0  0  0  0  0  0  0  # atno 17394 bound_to 11000
  141.0414  134.0615  157.3897 LP  0  0  0  0  0  0  0  0  0  0  0  0  # atno 17395 bound_to 11000

$$$$
