AV-unprocessed.smi:1067|AV-procd|sdf|4672|dock9
  -GOLD-   22720 3183D 1   1.00000     0.00000
 Structure written by MMmdl.
 50 52  0  0  0  0  0  0  0  0  1 V2000
  144.9870  135.9704  149.5693 N   0  0  0  0  0  0  0  0  0  0  0  0
  145.3511  135.5238  150.7755 C   0  0  0  0  0  0  0  0  0  0  0  0
  145.9275  134.4441  150.8986 O   0  0  0  0  0  0  0  0  0  0  0  0
  145.0460  136.4074  152.0194 C   0  0  0  0  0  0  0  0  0  0  0  0
  145.6789  137.8130  151.8087 C   0  0  0  0  0  0  0  0  0  0  0  0
  147.0374  137.9448  152.3389 N   0  0  0  0  0  0  0  0  0  0  0  0
  147.4380  138.8509  153.2417 C   0  0  0  0  0  0  0  0  0  0  0  0
  146.6943  139.7053  153.7237 O   0  0  0  0  0  0  0  0  0  0  0  0
  148.7422  138.7034  153.5304 N   0  0  0  0  0  0  0  0  0  0  0  0
  149.5367  139.4622  154.4312 C   0  0  0  0  0  0  0  0  0  0  0  0
  150.8316  139.0882  154.8592 C   0  0  0  0  0  0  0  0  0  0  0  0
  151.5266  139.9313  155.7470 C   0  0  0  0  0  0  0  0  0  0  0  0
  150.9164  141.1329  156.1781 C   0  0  0  0  0  0  0  0  0  0  0  0
  151.5729  141.9972  157.0761 N   0  0  0  0  0  0  0  0  0  0  0  0
  152.1394  141.5236  158.3290 C   0  0  0  0  0  0  0  0  0  0  0  0
  152.6566  142.7859  159.0173 C   0  0  0  0  0  0  0  0  0  0  0  0
  151.6723  143.8610  158.5557 C   0  0  0  0  0  0  0  0  0  0  0  0
  151.2684  143.4195  157.1440 C   0  0  0  0  0  0  0  0  0  0  0  0
  149.6812  141.4949  155.7569 N   0  0  0  0  0  0  0  0  0  0  0  0
  149.0200  140.6843  154.9046 C   0  0  0  0  0  0  0  0  0  0  0  0
  143.5208  136.5800  152.2636 C   0  0  0  0  0  0  0  0  0  0  0  0
  142.8375  135.2740  152.7148 C   0  0  0  0  0  0  0  0  0  0  0  0
  143.4587  134.7896  153.8986 O   0  0  0  0  0  0  0  0  0  0  0  0
  144.8346  134.4801  153.7150 C   0  0  0  0  0  0  0  0  0  0  0  0
  145.6088  135.7494  153.3098 C   0  0  0  0  0  0  0  0  0  0  0  0
  145.1717  135.4088  148.7505 H   0  0  0  0  0  0  0  0  0  0  0  0
  144.5246  136.8634  149.4797 H   0  0  0  0  0  0  0  0  0  0  0  0
  145.7264  138.0371  150.7423 H   0  0  0  0  0  0  0  0  0  0  0  0
  145.0335  138.5836  152.2338 H   0  0  0  0  0  0  0  0  0  0  0  0
  147.7193  137.2808  152.0020 H   0  0  0  0  0  0  0  0  0  0  0  0
  149.2397  138.0055  152.9969 H   0  0  0  0  0  0  0  0  0  0  0  0
  151.3089  138.1822  154.5194 H   0  0  0  0  0  0  0  0  0  0  0  0
  152.5100  139.6427  156.0863 H   0  0  0  0  0  0  0  0  0  0  0  0
  151.3577  141.0512  158.9254 H   0  0  0  0  0  0  0  0  0  0  0  0
  152.9366  140.7980  158.1644 H   0  0  0  0  0  0  0  0  0  0  0  0
  152.7075  142.6879  160.1020 H   0  0  0  0  0  0  0  0  0  0  0  0
  153.6569  143.0223  158.6515 H   0  0  0  0  0  0  0  0  0  0  0  0
  150.7959  143.8530  159.2052 H   0  0  0  0  0  0  0  0  0  0  0  0
  152.0970  144.8647  158.5793 H   0  0  0  0  0  0  0  0  0  0  0  0
  151.8584  143.9425  156.3908 H   0  0  0  0  0  0  0  0  0  0  0  0
  150.2134  143.6239  156.9580 H   0  0  0  0  0  0  0  0  0  0  0  0
  148.0405  141.0213  154.5978 H   0  0  0  0  0  0  0  0  0  0  0  0
  143.3651  137.3265  153.0441 H   0  0  0  0  0  0  0  0  0  0  0  0
  143.0178  136.9814  151.3830 H   0  0  0  0  0  0  0  0  0  0  0  0
  141.7847  135.4602  152.9274 H   0  0  0  0  0  0  0  0  0  0  0  0
  142.8691  134.5112  151.9358 H   0  0  0  0  0  0  0  0  0  0  0  0
  145.2302  134.0885  154.6523 H   0  0  0  0  0  0  0  0  0  0  0  0
  144.9465  133.6885  152.9730 H   0  0  0  0  0  0  0  0  0  0  0  0
  146.6668  135.5061  153.2043 H   0  0  0  0  0  0  0  0  0  0  0  0
  145.5550  136.4641  154.1321 H   0  0  0  0  0  0  0  0  0  0  0  0
  1  2  1  0  0  0  0
  1 26  1  0  0  0  0
  1 27  1  0  0  0  0
  2  3  2  0  0  0  0
  2  4  1  0  0  0  0
  4 25  1  0  0  0  0
  4  5  1  0  0  0  0
  4 21  1  0  0  0  0
  5  6  1  0  0  0  0
  5 28  1  0  0  0  0
  5 29  1  0  0  0  0
  6  7  1  0  0  0  0
  6 30  1  0  0  0  0
  7  8  2  0  0  0  0
  7  9  1  0  0  0  0
  9 10  1  0  0  0  0
  9 31  1  0  0  0  0
 10 20  1  0  0  0  0
 10 11  2  0  0  0  0
 11 12  1  0  0  0  0
 11 32  1  0  0  0  0
 12 13  2  0  0  0  0
 12 33  1  0  0  0  0
 13 14  1  0  0  0  0
 13 19  1  0  0  0  0
 14 18  1  0  0  0  0
 14 15  1  0  0  0  0
 15 16  1  0  0  0  0
 15 34  1  0  0  0  0
 15 35  1  0  0  0  0
 16 17  1  0  0  0  0
 16 36  1  0  0  0  0
 16 37  1  0  0  0  0
 17 18  1  0  0  0  0
 17 38  1  0  0  0  0
 17 39  1  0  0  0  0
 18 40  1  0  0  0  0
 18 41  1  0  0  0  0
 19 20  2  0  0  0  0
 20 42  1  0  0  0  0
 21 22  1  0  0  0  0
 21 43  1  0  0  0  0
 21 44  1  0  0  0  0
 22 23  1  0  0  0  0
 22 45  1  0  0  0  0
 22 46  1  0  0  0  0
 23 24  1  0  0  0  0
 24 25  1  0  0  0  0
 24 47  1  0  0  0  0
 24 48  1  0  0  0  0
 25 49  1  0  0  0  0
 25 50  1  0  0  0  0
M  END
> <s_m_source_file>
AV-unprocessed.smi

> <i_m_source_file_index>
1067

> <i_lp_mmshare_version>
43012

> <i_f3d_flags>
0

> <s_epik_input>
W0NIMl0xW0NIMl1PW0NIMl1bQ0gyXUMxKEMoPU8pW05IMl0pW0NIMl1bTkhdQyg9TylbTkhdYzJbY0hdW2NIXWMobltjSF0yKU4zW0NIMl1bQ0gyXVtDSDJdW0NIMl0z

> <s_epik_cmdline>
J2VwaWtfcHl0aG9uJywgJy1waCcsICc3LjAnLCAnLXRuJywgJzgnLCAnLW1hJywgJzIwMCcsICctbWV0YWxfYmluZGluZycsICctaW1hZScsICc8aW5maWxlLm1hZT4nLCAnLW9tYWUnLCAnPG91dGZpbGUubWFlPic=

> <r_lp_tautomer_probability>
1

> <r_epik_Ionization_Penalty>
0.0944962

> <r_epik_Ionization_Penalty_Charging>
0

> <r_epik_Ionization_Penalty_Neutral>
0.0944962

> <r_epik_State_Penalty>
0.0841646

> <r_epik_Charging_Adjusted_Penalty>
0.0841646

> <i_epik_Tot_Q>
0

> <i_epik_Tot_abs_Q>
0

> <r_epik_Metal_State_Penalty>
0.0725577

> <b_epik_Metal_Only>
0

> <s_lp_Force_Field>
OPLS_2005

> <r_lp_Energy>
34.2759

> <b_lp_Chiralities_Consistent>
1

> <s_lp_Variant>
AV-unprocessed.smi:1067-1

> <Gold.Version>
5.8.1

> <Gold.Id.Protein>
6NUR|6NUR_protein|mol2

> <Gold.PLP.Fitness>
53.0062

> <Gold.PLP.PLP>
-44.1936

> <Gold.PLP.part.hbond>
-5.0000

> <Gold.PLP.part.metal>
0.0000

> <Gold.PLP.part.buried>
-2.8455

> <Gold.PLP.part.nonpolar>
-36.9384

> <Gold.PLP.part.repulsive>
0.8199

> <Gold.PLP.ligand.clash>
0.0000

> <Gold.PLP.ligand.torsion>
1.3013

> <Gold.PLP.Chemscore.Hbond>
3.7436

> <Gold.PLP.Chemscore.CHOScore>
0.0000

> <Gold.PLP.Chemscore.Metal>
0.0000

> <Gold.Chemscore.Hbonds>
donor molecule, donor type, donor heavy atom, donor atom, acceptor molecule, acceptor atom, score
      L1  H     1    26       P1  7921  1.00
      L1  H     1    27       P1 10171  1.00
      L1  H     6    30       P1  7948  1.00
      L1  H     9    31       P1  7948  0.74

> <Gold.PLP.Chemscore.Internal.Correction>
0.1845

> <Gold.Rescore>
     Score         DG    S(hbond)    S(metal)    S(lipo)     H(rot)  DE(clash)    DE(int)     intcor
     20.25     -24.52       3.77        0.00      94.59       1.81       1.49       2.78       ----

> <Gold.Chemscore.Fitness>
20.2462

> <Gold.Chemscore.DG>
-24.5151

> <Gold.Chemscore.ZeroCoef>
-5.4800

> <Gold.Chemscore.Hbond>
3.7711

> <Gold.Chemscore.Metal>
0.0000

> <Gold.Chemscore.Lipo>
94.5874

> <Gold.Chemscore.Internal_Hbond>
0.0000

> <Gold.Chemscore.DEClash>
1.4860

> <Gold.Chemscore.DEInternal>
2.7828

> <Gold.Chemscore.Rot>
1.8075

> <Gold.Chemscore.Internal.Correction>
   9.000000E+99

> <Gold.Chemscore.Hbonds>
donor molecule, donor type, donor heavy atom, donor atom, acceptor molecule, acceptor atom, score
      L1  H     1    26       P1  7921  0.94
      L1  H     1    27       P1 10171  1.00
      L1  H     6    30       P1  7948  0.99
      L1  H     9    31       P1  7948  0.70

> <Gold.Chemscore.Hbond.Weighted>
-12.5955

> <Gold.Chemscore.Metal.Weighted>
-0.0000

> <Gold.Chemscore.Lipo.Weighted>
-11.0667

> <Gold.Chemscore.Internal_Hbond.Weighted>
0.0000

> <Gold.Chemscore.DEClash.Weighted>
1.4860

> <Gold.Chemscore.DEInternal.Weighted>
2.7828

> <Gold.Chemscore.Rot.Weighted>
4.6272

> <Gold.Chemscore.Internal.Correction.Weighted>
   9.000000E+99

> <Gold.Protein.RotatedTorsions>
[ 6907 6896 6895 6894 ] final   -6.03 input  -60.11 | X-H torsion
[ 7974 7965 7964 7962 ] final  152.69 input  175.53 | X-H torsion
[ 8008 7997 7996 7995 ] final  129.47 input   59.86 | X-H torsion
[ 10167 10162 10161 10158 ] final  -38.57 input  -65.29 | X-H torsion
[ 10718 10713 10712 10709 ] final    5.13 input   66.30 | X-H torsion
[ 10763 10752 10751 10750 ] final  122.19 input  -60.55 | X-H torsion
[ 11005 11000 10999 10996 ] final   47.60 input  -57.11 | X-H torsion

> <Gold.Protein.ActiveResidues>
 VAL166  LYS551  ARG553  GLY616  TRP617  ASP618  TYR619  PRO620  LYS621  CYS622 
 ASP623  PHE694  ASN695  SER759  ASP760  ASP761  ALA762  ILE779  LEU786  VAL792 
 PHE793  MET794  SER795  GLU796  ALA797  LYS798  CYS799  TRP800  GLU811  SER814 

> <Gold.Protein.RotatedAtoms>
  151.4722  135.1046  159.9754 H   0  0  0  0  0  0  0  0  0  0  0  0  # atno 6907 bound_to 6896
  152.4812  133.8255  159.7086 H   0  0  0  0  0  0  0  0  0  0  0  0  # atno 6908 bound_to 6896
  150.8885  133.7213  159.2938 H   0  0  0  0  0  0  0  0  0  0  0  0  # atno 6909 bound_to 6896
  144.8205  139.6702  143.6102 H   0  0  0  0  0  0  0  0  0  0  0  0  # atno 7974 bound_to 7965
  156.2936  140.2620  156.2603 H   0  0  0  0  0  0  0  0  0  0  0  0  # atno 8008 bound_to 7997
  154.9795  140.0390  157.2289 H   0  0  0  0  0  0  0  0  0  0  0  0  # atno 8009 bound_to 7997
  154.7785  140.2791  155.6087 H   0  0  0  0  0  0  0  0  0  0  0  0  # atno 8010 bound_to 7997
  140.7088  143.3268  151.2660 H   0  0  0  0  0  0  0  0  0  0  0  0  # atno 10167 bound_to 10162
  156.9029  130.5728  149.5648 H   0  0  0  0  0  0  0  0  0  0  0  0  # atno 10718 bound_to 10713
  153.6258  135.3405  155.3026 H   0  0  0  0  0  0  0  0  0  0  0  0  # atno 10763 bound_to 10752
  154.8590  135.4284  154.2158 H   0  0  0  0  0  0  0  0  0  0  0  0  # atno 10764 bound_to 10752
  153.3042  135.7027  153.7248 H   0  0  0  0  0  0  0  0  0  0  0  0  # atno 10765 bound_to 10752
  140.1265  134.4762  155.8555 H   0  0  0  0  0  0  0  0  0  0  0  0  # atno 11005 bound_to 11000
  146.2510  139.6200  142.9427 LP  0  0  0  0  0  0  0  0  0  0  0  0  # atno 17320 bound_to 7965
  145.5116  141.0435  143.2484 LP  0  0  0  0  0  0  0  0  0  0  0  0  # atno 17321 bound_to 7965
  139.6739  143.9972  152.2769 LP  0  0  0  0  0  0  0  0  0  0  0  0  # atno 17342 bound_to 10162
  139.9579  144.6577  150.8108 LP  0  0  0  0  0  0  0  0  0  0  0  0  # atno 17343 bound_to 10162
  156.0573  130.5632  150.9118 LP  0  0  0  0  0  0  0  0  0  0  0  0  # atno 17370 bound_to 10713
  157.6015  131.0941  150.8952 LP  0  0  0  0  0  0  0  0  0  0  0  0  # atno 17371 bound_to 10713
  141.2162  133.6779  156.6988 LP  0  0  0  0  0  0  0  0  0  0  0  0  # atno 17394 bound_to 11000
  140.2898  134.8250  157.4006 LP  0  0  0  0  0  0  0  0  0  0  0  0  # atno 17395 bound_to 11000

$$$$
