AV-unprocessed.smi:1396|AV-procd|sdf|5675|dock6
  -GOLD-   22720 5303D 1   1.00000     0.00000
 Structure written by MMmdl.
 47 48  0  0  0  0  0  0  0  0  2 V2000
  148.8768  127.0878  152.1816 C   0  0  0  0  0  0  0  0  0  0  0  0
  147.9954  128.2330  152.0121 N   0  0  0  0  0  0  0  0  0  0  0  0
  146.8916  128.4486  152.7415 C   0  0  0  0  0  0  0  0  0  0  0  0
  146.5209  127.6964  153.6434 O   0  0  0  0  0  0  0  0  0  0  0  0
  146.0942  129.7142  152.4085 C   0  0  0  0  0  0  0  0  0  0  0  0
  146.8678  130.9637  152.6280 N   0  3  2  0  0  0  0  0  0  0  0  0
  147.5781  130.9885  153.9351 C   0  0  0  0  0  0  0  0  0  0  0  0
  148.4716  132.2338  154.0570 C   0  0  0  0  0  0  0  0  0  0  0  0
  147.6543  133.5215  153.8689 C   0  0  1  0  0  0  0  0  0  0  0  0
  148.5379  134.6832  153.9147 N   0  0  0  0  0  0  0  0  0  0  0  0
  149.2768  135.0488  154.9724 C   0  0  0  0  0  0  0  0  0  0  0  0
  149.2809  134.4331  156.0376 O   0  0  0  0  0  0  0  0  0  0  0  0
  150.0033  136.1470  154.7008 N   0  0  0  0  0  0  0  0  0  0  0  0
  150.9078  136.8501  155.5436 C   0  0  0  0  0  0  0  0  0  0  0  0
  151.6508  137.9043  154.9748 C   0  0  0  0  0  0  0  0  0  0  0  0
  152.5454  138.6311  155.7828 C   0  0  0  0  0  0  0  0  0  0  0  0
  152.6666  138.2838  157.1426 C   0  0  0  0  0  0  0  0  0  0  0  0
  153.5494  138.9947  157.9295 O   0  0  0  0  0  0  0  0  0  0  0  0
  153.6034  138.6996  159.3210 C   0  0  0  0  0  0  0  0  0  0  0  0
  151.9474  137.2810  157.7042 N   0  0  0  0  0  0  0  0  0  0  0  0
  151.0909  136.5877  156.9239 C   0  0  0  0  0  0  0  0  0  0  0  0
  146.8968  133.4581  152.5301 C   0  0  0  0  0  0  0  0  0  0  0  0
  146.0418  132.1829  152.4333 C   0  0  0  0  0  0  0  0  0  0  0  0
  149.6904  127.1341  151.4576 H   0  0  0  0  0  0  0  0  0  0  0  0
  148.3356  126.1536  152.0251 H   0  0  0  0  0  0  0  0  0  0  0  0
  149.3109  127.0757  153.1822 H   0  0  0  0  0  0  0  0  0  0  0  0
  148.2407  128.9005  151.2950 H   0  0  0  0  0  0  0  0  0  0  0  0
  145.8123  129.6368  151.3576 H   0  0  0  0  0  0  0  0  0  0  0  0
  145.1654  129.7448  152.9808 H   0  0  0  0  0  0  0  0  0  0  0  0
  146.8490  130.9702  154.7468 H   0  0  0  0  0  0  0  0  0  0  0  0
  148.1949  130.0964  154.0472 H   0  0  0  0  0  0  0  0  0  0  0  0
  148.9613  132.2406  155.0314 H   0  0  0  0  0  0  0  0  0  0  0  0
  149.2662  132.1831  153.3108 H   0  0  0  0  0  0  0  0  0  0  0  0
  146.9312  133.5882  154.6844 H   0  0  0  0  0  0  0  0  0  0  0  0
  148.5979  135.2444  153.0774 H   0  0  0  0  0  0  0  0  0  0  0  0
  149.9377  136.4972  153.7563 H   0  0  0  0  0  0  0  0  0  0  0  0
  151.5420  138.1538  153.9293 H   0  0  0  0  0  0  0  0  0  0  0  0
  153.1285  139.4397  155.3674 H   0  0  0  0  0  0  0  0  0  0  0  0
  154.3505  139.3354  159.7957 H   0  0  0  0  0  0  0  0  0  0  0  0
  153.8915  137.6624  159.4987 H   0  0  0  0  0  0  0  0  0  0  0  0
  152.6464  138.8940  159.8071 H   0  0  0  0  0  0  0  0  0  0  0  0
  150.5373  135.8216  157.4428 H   0  0  0  0  0  0  0  0  0  0  0  0
  146.2585  134.3351  152.4160 H   0  0  0  0  0  0  0  0  0  0  0  0
  147.6059  133.4826  151.7009 H   0  0  0  0  0  0  0  0  0  0  0  0
  145.5608  132.1494  151.4551 H   0  0  0  0  0  0  0  0  0  0  0  0
  145.2449  132.2067  153.1785 H   0  0  0  0  0  0  0  0  0  0  0  0
  147.5761  130.9818  151.9075 H   0  0  0  0  0  0  0  0  0  0  0  0
  1  2  1  0  0  0  0
  1 24  1  0  0  0  0
  1 25  1  0  0  0  0
  1 26  1  0  0  0  0
  2  3  1  0  0  0  0
  2 27  1  0  0  0  0
  3  4  2  0  0  0  0
  3  5  1  0  0  0  0
  5  6  1  0  0  0  0
  5 28  1  0  0  0  0
  5 29  1  0  0  0  0
  6 23  1  0  0  0  0
  6  7  1  0  0  0  0
  6 47  1  0  0  0  0
  7  8  1  0  0  0  0
  7 30  1  0  0  0  0
  7 31  1  0  0  0  0
  8  9  1  0  0  0  0
  8 32  1  0  0  0  0
  8 33  1  0  0  0  0
  9 10  1  0  0  0  0
  9 22  1  0  0  0  0
  9 34  1  0  0  0  0
 10 11  1  0  0  0  0
 10 35  1  0  0  0  0
 11 12  2  0  0  0  0
 11 13  1  0  0  0  0
 13 14  1  0  0  0  0
 13 36  1  0  0  0  0
 14 21  1  0  0  0  0
 14 15  2  0  0  0  0
 15 16  1  0  0  0  0
 15 37  1  0  0  0  0
 16 17  2  0  0  0  0
 16 38  1  0  0  0  0
 17 18  1  0  0  0  0
 17 20  1  0  0  0  0
 18 19  1  0  0  0  0
 19 39  1  0  0  0  0
 19 40  1  0  0  0  0
 19 41  1  0  0  0  0
 20 21  2  0  0  0  0
 21 42  1  0  0  0  0
 22 23  1  0  0  0  0
 22 43  1  0  0  0  0
 22 44  1  0  0  0  0
 23 45  1  0  0  0  0
 23 46  1  0  0  0  0
M  CHG  1   6   1
M  END
> <s_m_source_file>
AV-unprocessed.smi

> <i_m_source_file_index>
1396

> <i_lp_mmshare_version>
43012

> <i_f3d_flags>
0

> <s_epik_input>
W0NIM11bTkhdQyg9TylbQ0gyXU4xW0NIMl1bQ0gyXVtDSF0oW0NIMl1bQ0gyXTEpW05IXUMoPU8pW05IXWMyW2NIXVtjSF1jKE9bQ0gzXSluW2NIXTI=

> <s_epik_cmdline>
J2VwaWtfcHl0aG9uJywgJy1waCcsICc3LjAnLCAnLXRuJywgJzgnLCAnLW1hJywgJzIwMCcsICctbWV0YWxfYmluZGluZycsICctaW1hZScsICc8aW5maWxlLm1hZT4nLCAnLW9tYWUnLCAnPG91dGZpbGUubWFlPic=

> <r_lp_tautomer_probability>
1

> <r_epik_Ionization_Penalty>
0.838943

> <r_epik_Ionization_Penalty_Charging>
0.838844

> <r_epik_Ionization_Penalty_Neutral>
9.87511e-05

> <r_epik_State_Penalty>
0.8734

> <r_epik_Charging_Adjusted_Penalty>
1.71224

> <i_epik_Tot_Q>
1

> <i_epik_Tot_abs_Q>
1

> <r_epik_Metal_State_Penalty>
0.877926

> <b_epik_Metal_Only>
0

> <s_lp_Force_Field>
OPLS_2005

> <r_lp_Energy>
18.1916

> <b_lp_Chiralities_Consistent>
1

> <s_lp_Variant>
AV-unprocessed.smi:1396-2

> <Gold.Version>
5.8.1

> <Gold.Id.Protein>
6NUR|6NUR_protein|mol2

> <Gold.PLP.Fitness>
50.8506

> <Gold.PLP.PLP>
-37.0535

> <Gold.PLP.part.hbond>
-5.5330

> <Gold.PLP.part.metal>
0.0000

> <Gold.PLP.part.buried>
-3.6728

> <Gold.PLP.part.nonpolar>
-28.1581

> <Gold.PLP.part.repulsive>
0.2824

> <Gold.PLP.ligand.clash>
0.0000

> <Gold.PLP.ligand.torsion>
0.0960

> <Gold.PLP.Chemscore.Hbond>
4.6560

> <Gold.PLP.Chemscore.CHOScore>
0.0000

> <Gold.PLP.Chemscore.Metal>
0.0000

> <Gold.Chemscore.Hbonds>
donor molecule, donor type, donor heavy atom, donor atom, acceptor molecule, acceptor atom, score
      L1  H     2    27       P1 10747  0.30
      L1  H     6    47       P1 10747  0.70
      L1  H    10    35       P1  7948  1.00
      L1  H    13    36       P1  7948  0.71
      P1  H  7997  8010       L1    18  1.00

> <Gold.PLP.Chemscore.Internal.Correction>
0.0212

> <Gold.Rescore>
     Score         DG    S(hbond)    S(metal)    S(lipo)     H(rot)  DE(clash)    DE(int)     intcor
     19.61     -20.94       3.68        0.00      70.69       2.00       0.03       1.30       ----

> <Gold.Chemscore.Fitness>
19.6051

> <Gold.Chemscore.DG>
-20.9369

> <Gold.Chemscore.ZeroCoef>
-5.4800

> <Gold.Chemscore.Hbond>
3.6816

> <Gold.Chemscore.Metal>
0.0000

> <Gold.Chemscore.Lipo>
70.6915

> <Gold.Chemscore.Internal_Hbond>
0.0000

> <Gold.Chemscore.DEClash>
0.0319

> <Gold.Chemscore.DEInternal>
1.2999

> <Gold.Chemscore.Rot>
1.9963

> <Gold.Chemscore.Internal.Correction>
   9.000000E+99

> <Gold.Chemscore.Hbonds>
donor molecule, donor type, donor heavy atom, donor atom, acceptor molecule, acceptor atom, score
      L1  H     2    27       P1 10747  0.04
      L1  H     6    47       P1 10747  0.71
      L1  H    10    35       P1  7948  0.80
      L1  H    13    36       P1  7948  0.18
      P1  H  7997  8010       L1    18  0.85

> <Gold.Chemscore.Hbond.Weighted>
-12.2965

> <Gold.Chemscore.Metal.Weighted>
-0.0000

> <Gold.Chemscore.Lipo.Weighted>
-8.2709

> <Gold.Chemscore.Internal_Hbond.Weighted>
0.0000

> <Gold.Chemscore.DEClash.Weighted>
0.0319

> <Gold.Chemscore.DEInternal.Weighted>
1.2999

> <Gold.Chemscore.Rot.Weighted>
5.1105

> <Gold.Chemscore.Internal.Correction.Weighted>
   9.000000E+99

> <Gold.Protein.RotatedTorsions>
[ 6907 6896 6895 6894 ] final   10.14 input  -60.11 | X-H torsion
[ 7974 7965 7964 7962 ] final   51.63 input  175.53 | X-H torsion
[ 8008 7997 7996 7995 ] final   36.00 input   59.86 | X-H torsion
[ 10167 10162 10161 10158 ] final  176.68 input  -65.29 | X-H torsion
[ 10718 10713 10712 10709 ] final   60.45 input   66.30 | X-H torsion
[ 10763 10752 10751 10750 ] final  146.14 input  -60.55 | X-H torsion
[ 11005 11000 10999 10996 ] final   11.09 input  -57.11 | X-H torsion

> <Gold.Protein.ActiveResidues>
 VAL166  LYS551  ARG553  GLY616  TRP617  ASP618  TYR619  PRO620  LYS621  CYS622 
 ASP623  PHE694  ASN695  SER759  ASP760  ASP761  ALA762  ILE779  LEU786  VAL792 
 PHE793  MET794  SER795  GLU796  ALA797  LYS798  CYS799  TRP800  GLU811  SER814 

> <Gold.Protein.RotatedAtoms>
  151.7335  135.0870  160.0303 H   0  0  0  0  0  0  0  0  0  0  0  0  # atno 6907 bound_to 6896
  152.3526  133.6194  159.5964 H   0  0  0  0  0  0  0  0  0  0  0  0  # atno 6908 bound_to 6896
  150.7550  133.9467  159.3514 H   0  0  0  0  0  0  0  0  0  0  0  0  # atno 6909 bound_to 6896
  145.9894  139.4323  143.0083 H   0  0  0  0  0  0  0  0  0  0  0  0  # atno 7974 bound_to 7965
  155.1802  140.3299  155.4376 H   0  0  0  0  0  0  0  0  0  0  0  0  # atno 8008 bound_to 7997
  156.2479  140.1928  156.6851 H   0  0  0  0  0  0  0  0  0  0  0  0  # atno 8009 bound_to 7997
  154.6276  140.0587  156.9679 H   0  0  0  0  0  0  0  0  0  0  0  0  # atno 8010 bound_to 7997
  139.5223  144.2887  152.0482 H   0  0  0  0  0  0  0  0  0  0  0  0  # atno 10167 bound_to 10162
  157.5753  130.8939  149.9337 H   0  0  0  0  0  0  0  0  0  0  0  0  # atno 10718 bound_to 10713
  154.0169  135.2909  155.3385 H   0  0  0  0  0  0  0  0  0  0  0  0  # atno 10763 bound_to 10752
  154.7069  135.5165  153.8612 H   0  0  0  0  0  0  0  0  0  0  0  0  # atno 10764 bound_to 10752
  153.0698  135.6644  154.0395 H   0  0  0  0  0  0  0  0  0  0  0  0  # atno 10765 bound_to 10752
  140.5072  134.0688  155.7808 H   0  0  0  0  0  0  0  0  0  0  0  0  # atno 11005 bound_to 11000
  145.7652  140.9919  143.1178 LP  0  0  0  0  0  0  0  0  0  0  0  0  # atno 17320 bound_to 7965
  144.6884  139.9380  143.7474 LP  0  0  0  0  0  0  0  0  0  0  0  0  # atno 17321 bound_to 7965
  140.2339  144.4339  150.6288 LP  0  0  0  0  0  0  0  0  0  0  0  0  # atno 17342 bound_to 10162
  140.6336  143.2191  151.6442 LP  0  0  0  0  0  0  0  0  0  0  0  0  # atno 17343 bound_to 10162
  156.0798  130.3674  150.0603 LP  0  0  0  0  0  0  0  0  0  0  0  0  # atno 17370 bound_to 10713
  156.8751  130.9537  151.3605 LP  0  0  0  0  0  0  0  0  0  0  0  0  # atno 17371 bound_to 10713
  141.1405  133.9147  157.2337 LP  0  0  0  0  0  0  0  0  0  0  0  0  # atno 17394 bound_to 11000
  139.9679  135.0136  156.9436 LP  0  0  0  0  0  0  0  0  0  0  0  0  # atno 17395 bound_to 11000

$$$$
