AV-unprocessed.smi:3306|AV-procd|sdf|12701|dock1
  -GOLD-   2272019 33D 1   1.00000     0.00000
 Structure written by MMmdl.
 45 46  0  0  0  0  0  0  0  0  3 V2000
  146.4902  139.2342  151.2483 C   0  0  0  0  0  0  0  0  0  0  0  0
  147.0792  138.6650  152.5497 C   0  0  0  0  0  0  0  0  0  0  0  0
  145.9942  138.0110  153.4273 C   0  0  0  0  0  0  0  0  0  0  0  0
  147.8912  139.6901  153.2693 N   0  3  2  0  0  0  0  0  0  0  0  0
  148.8736  139.1051  154.2197 C   0  0  0  0  0  0  0  0  0  0  0  0
  149.8392  140.1820  154.7441 C   0  0  0  0  0  0  0  0  0  0  0  0
  149.0778  141.3391  155.4122 C   0  0  1  0  0  0  0  0  0  0  0  0
  150.0295  142.3757  155.8736 N   0  3  0  0  0  0  0  0  0  0  0  0
  150.4986  142.2246  157.2668 C   0  0  0  0  0  0  0  0  0  0  0  0
  151.4485  143.3661  157.6546 C   0  0  0  0  0  0  0  0  0  0  0  0
  151.9699  143.2206  159.0715 C   0  0  0  0  0  0  0  0  0  0  0  0
  151.7519  144.2336  160.0293 C   0  0  0  0  0  0  0  0  0  0  0  0
  152.2579  144.0458  161.3305 C   0  0  0  0  0  0  0  0  0  0  0  0
  152.9554  142.8576  161.6221 C   0  0  0  0  0  0  0  0  0  0  0  0
  153.1169  141.9057  160.5958 C   0  0  0  0  0  0  0  0  0  0  0  0
  152.6367  142.0765  159.3446 N   0  0  0  0  0  0  0  0  0  0  0  0
  148.0457  141.9023  154.4151 C   0  0  0  0  0  0  0  0  0  0  0  0
  147.1127  140.7939  153.8956 C   0  0  0  0  0  0  0  0  0  0  0  0
  146.0200  138.4462  150.6591 H   0  0  0  0  0  0  0  0  0  0  0  0
  147.2655  139.6856  150.6283 H   0  0  0  0  0  0  0  0  0  0  0  0
  145.7295  139.9911  151.4384 H   0  0  0  0  0  0  0  0  0  0  0  0
  147.7659  137.8747  152.2425 H   0  0  0  0  0  0  0  0  0  0  0  0
  145.5072  137.1960  152.8908 H   0  0  0  0  0  0  0  0  0  0  0  0
  145.2146  138.7197  153.7074 H   0  0  0  0  0  0  0  0  0  0  0  0
  146.4108  137.5894  154.3417 H   0  0  0  0  0  0  0  0  0  0  0  0
  148.3509  138.6360  155.0542 H   0  0  0  0  0  0  0  0  0  0  0  0
  149.4494  138.3216  153.7257 H   0  0  0  0  0  0  0  0  0  0  0  0
  150.5359  139.7340  155.4539 H   0  0  0  0  0  0  0  0  0  0  0  0
  150.4421  140.5609  153.9171 H   0  0  0  0  0  0  0  0  0  0  0  0
  148.5556  140.9423  156.2848 H   0  0  0  0  0  0  0  0  0  0  0  0
  150.8456  142.3263  155.2801 H   0  0  0  0  0  0  0  0  0  0  0  0
  149.6457  142.2118  157.9455 H   0  0  0  0  0  0  0  0  0  0  0  0
  151.0104  141.2669  157.3710 H   0  0  0  0  0  0  0  0  0  0  0  0
  152.2974  143.3974  156.9699 H   0  0  0  0  0  0  0  0  0  0  0  0
  150.9390  144.3259  157.5564 H   0  0  0  0  0  0  0  0  0  0  0  0
  151.2125  145.1348  159.7771 H   0  0  0  0  0  0  0  0  0  0  0  0
  152.1141  144.7994  162.0906 H   0  0  0  0  0  0  0  0  0  0  0  0
  153.3573  142.6803  162.6087 H   0  0  0  0  0  0  0  0  0  0  0  0
  153.6447  140.9826  160.7847 H   0  0  0  0  0  0  0  0  0  0  0  0
  147.4430  142.6805  154.8834 H   0  0  0  0  0  0  0  0  0  0  0  0
  148.5576  142.3722  153.5738 H   0  0  0  0  0  0  0  0  0  0  0  0
  146.4175  141.2243  153.1757 H   0  0  0  0  0  0  0  0  0  0  0  0
  146.5153  140.4075  154.7226 H   0  0  0  0  0  0  0  0  0  0  0  0
  148.4507  140.1228  152.5481 H   0  0  0  0  0  0  0  0  0  0  0  0
  149.6094  143.2875  155.7609 H   0  0  0  0  0  0  0  0  0  0  0  0
  1  2  1  0  0  0  0
  1 19  1  0  0  0  0
  1 20  1  0  0  0  0
  1 21  1  0  0  0  0
  2  3  1  0  0  0  0
  2  4  1  0  0  0  0
  2 22  1  0  0  0  0
  3 23  1  0  0  0  0
  3 24  1  0  0  0  0
  3 25  1  0  0  0  0
  4 18  1  0  0  0  0
  4  5  1  0  0  0  0
  4 44  1  0  0  0  0
  5  6  1  0  0  0  0
  5 26  1  0  0  0  0
  5 27  1  0  0  0  0
  6  7  1  0  0  0  0
  6 28  1  0  0  0  0
  6 29  1  0  0  0  0
  7  8  1  0  0  0  0
  7 17  1  0  0  0  0
  7 30  1  0  0  0  0
  8  9  1  0  0  0  0
  8 31  1  0  0  0  0
  8 45  1  0  0  0  0
  9 10  1  0  0  0  0
  9 32  1  0  0  0  0
  9 33  1  0  0  0  0
 10 11  1  0  0  0  0
 10 34  1  0  0  0  0
 10 35  1  0  0  0  0
 11 16  1  0  0  0  0
 11 12  2  0  0  0  0
 12 13  1  0  0  0  0
 12 36  1  0  0  0  0
 13 14  2  0  0  0  0
 13 37  1  0  0  0  0
 14 15  1  0  0  0  0
 14 38  1  0  0  0  0
 15 16  2  0  0  0  0
 15 39  1  0  0  0  0
 17 18  1  0  0  0  0
 17 40  1  0  0  0  0
 17 41  1  0  0  0  0
 18 42  1  0  0  0  0
 18 43  1  0  0  0  0
M  CHG  1   4   1
M  CHG  1   8   1
M  END
> <s_m_source_file>
AV-unprocessed.smi

> <i_m_source_file_index>
3306

> <i_lp_mmshare_version>
43012

> <i_f3d_flags>
0

> <s_epik_input>
W0NIM11bQ0hdKFtDSDNdKU4xW0NIMl1bQ0gyXVtDSF0oW0NIMl1bQ0gyXTEpW05IXVtDSDJdW0NIMl1jMltjSF1bY0hdW2NIXVtjSF1uMg==

> <s_epik_cmdline>
J2VwaWtfcHl0aG9uJywgJy1waCcsICc3LjAnLCAnLXRuJywgJzgnLCAnLW1hJywgJzIwMCcsICctbWV0YWxfYmluZGluZycsICctaW1hZScsICc8aW5maWxlLm1hZT4nLCAnLW9tYWUnLCAnPG91dGZpbGUubWFlPic=

> <r_epik_Ionization_Penalty>
0.0800465

> <r_epik_Ionization_Penalty_Charging>
0.0790817

> <r_epik_Ionization_Penalty_Neutral>
0.000964829

> <r_epik_State_Penalty>
0.0665964

> <r_epik_Charging_Adjusted_Penalty>
0.145678

> <i_epik_Tot_Q>
2

> <i_epik_Tot_abs_Q>
2

> <r_epik_Metal_State_Penalty>
0.0683331

> <b_epik_Metal_Only>
0

> <s_lp_Force_Field>
OPLS_2005

> <r_lp_Energy>
27.4923

> <b_lp_Chiralities_Consistent>
1

> <s_lp_Variant>
AV-unprocessed.smi:3306-1

> <Gold.Version>
5.8.1

> <Gold.Id.Protein>
6NUR|6NUR_protein|mol2

> <Gold.PLP.Fitness>
51.3792

> <Gold.PLP.PLP>
-43.4472

> <Gold.PLP.part.hbond>
-2.0000

> <Gold.PLP.part.metal>
0.0000

> <Gold.PLP.part.buried>
-0.6887

> <Gold.PLP.part.nonpolar>
-41.4317

> <Gold.PLP.part.repulsive>
0.2135

> <Gold.PLP.ligand.clash>
0.0000

> <Gold.PLP.ligand.torsion>
0.6270

> <Gold.PLP.Chemscore.Hbond>
3.0000

> <Gold.PLP.Chemscore.CHOScore>
0.0000

> <Gold.PLP.Chemscore.Metal>
0.0000

> <Gold.Chemscore.Hbonds>
donor molecule, donor type, donor heavy atom, donor atom, acceptor molecule, acceptor atom, score
      L1  H     4    44       P1  7957  1.00
      L1  H     8    45       P1  8028  2.00

> <Gold.PLP.Chemscore.Internal.Correction>
0.1861

> <Gold.Rescore>
     Score         DG    S(hbond)    S(metal)    S(lipo)     H(rot)  DE(clash)    DE(int)     intcor
     22.95     -23.77       1.99        0.00     131.63       1.47       0.17       0.65       ----

> <Gold.Chemscore.Fitness>
22.9493

> <Gold.Chemscore.DG>
-23.7713

> <Gold.Chemscore.ZeroCoef>
-5.4800

> <Gold.Chemscore.Hbond>
1.9906

> <Gold.Chemscore.Metal>
0.0000

> <Gold.Chemscore.Lipo>
131.6307

> <Gold.Chemscore.Internal_Hbond>
0.0000

> <Gold.Chemscore.DEClash>
0.1713

> <Gold.Chemscore.DEInternal>
0.6508

> <Gold.Chemscore.Rot>
1.4679

> <Gold.Chemscore.Internal.Correction>
   9.000000E+99

> <Gold.Chemscore.Hbonds>
donor molecule, donor type, donor heavy atom, donor atom, acceptor molecule, acceptor atom, score
      L1  H     4    44       P1  7957  0.96
      L1  H     8    45       P1  8028  0.99

> <Gold.Chemscore.Hbond.Weighted>
-6.6484

> <Gold.Chemscore.Metal.Weighted>
-0.0000

> <Gold.Chemscore.Lipo.Weighted>
-15.4008

> <Gold.Chemscore.Internal_Hbond.Weighted>
0.0000

> <Gold.Chemscore.DEClash.Weighted>
0.1713

> <Gold.Chemscore.DEInternal.Weighted>
0.6508

> <Gold.Chemscore.Rot.Weighted>
3.7579

> <Gold.Chemscore.Internal.Correction.Weighted>
   9.000000E+99

> <Gold.Protein.RotatedTorsions>
[ 6907 6896 6895 6894 ] final -168.93 input  -60.11 | X-H torsion
[ 7974 7965 7964 7962 ] final  -54.76 input  175.53 | X-H torsion
[ 8008 7997 7996 7995 ] final   -4.31 input   59.86 | X-H torsion
[ 10167 10162 10161 10158 ] final -154.30 input  -65.29 | X-H torsion
[ 10718 10713 10712 10709 ] final -112.27 input   66.30 | X-H torsion
[ 10763 10752 10751 10750 ] final  169.49 input  -60.55 | X-H torsion
[ 11005 11000 10999 10996 ] final  141.38 input  -57.11 | X-H torsion

> <Gold.Protein.ActiveResidues>
 VAL166  LYS551  ARG553  GLY616  TRP617  ASP618  TYR619  PRO620  LYS621  CYS622 
 ASP623  PHE694  ASN695  SER759  ASP760  ASP761  ALA762  ILE779  LEU786  VAL792 
 PHE793  MET794  SER795  GLU796  ALA797  LYS798  CYS799  TRP800  GLU811  SER814 

> <Gold.Protein.RotatedAtoms>
  151.4835  133.3541  159.2841 H   0  0  0  0  0  0  0  0  0  0  0  0  # atno 6907 bound_to 6896
  150.8882  134.8284  159.7285 H   0  0  0  0  0  0  0  0  0  0  0  0  # atno 6908 bound_to 6896
  152.4806  134.4741  159.9696 H   0  0  0  0  0  0  0  0  0  0  0  0  # atno 6909 bound_to 6896
  145.8819  140.8138  142.9835 H   0  0  0  0  0  0  0  0  0  0  0  0  # atno 7974 bound_to 7965
  154.6157  140.2487  155.7613 H   0  0  0  0  0  0  0  0  0  0  0  0  # atno 8008 bound_to 7997
  156.2397  140.2937  156.0359 H   0  0  0  0  0  0  0  0  0  0  0  0  # atno 8009 bound_to 7997
  155.1979  140.0393  157.2902 H   0  0  0  0  0  0  0  0  0  0  0  0  # atno 8010 bound_to 7997
  139.7025  143.9240  152.2434 H   0  0  0  0  0  0  0  0  0  0  0  0  # atno 10167 bound_to 10162
  156.0696  130.5911  150.8486 H   0  0  0  0  0  0  0  0  0  0  0  0  # atno 10718 bound_to 10713
  154.3840  135.2753  155.2194 H   0  0  0  0  0  0  0  0  0  0  0  0  # atno 10763 bound_to 10752
  154.4289  135.5982  153.6060 H   0  0  0  0  0  0  0  0  0  0  0  0  # atno 10764 bound_to 10752
  152.9834  135.5991  154.4086 H   0  0  0  0  0  0  0  0  0  0  0  0  # atno 10765 bound_to 10752
  140.0397  134.9311  157.0819 H   0  0  0  0  0  0  0  0  0  0  0  0  # atno 11005 bound_to 11000
  144.6727  140.1397  143.7438 LP  0  0  0  0  0  0  0  0  0  0  0  0  # atno 17320 bound_to 7965
  145.9013  139.2432  143.1492 LP  0  0  0  0  0  0  0  0  0  0  0  0  # atno 17321 bound_to 7965
  139.9086  144.6869  150.8586 LP  0  0  0  0  0  0  0  0  0  0  0  0  # atno 17342 bound_to 10162
  140.7713  143.3460  151.2111 LP  0  0  0  0  0  0  0  0  0  0  0  0  # atno 17343 bound_to 10162
  157.5759  131.0946  150.9347 LP  0  0  0  0  0  0  0  0  0  0  0  0  # atno 17370 bound_to 10713
  156.9553  130.5435  149.5284 LP  0  0  0  0  0  0  0  0  0  0  0  0  # atno 17371 bound_to 10713
  140.4090  134.2002  155.7163 LP  0  0  0  0  0  0  0  0  0  0  0  0  # atno 17394 bound_to 11000
  141.1876  133.8277  157.1025 LP  0  0  0  0  0  0  0  0  0  0  0  0  # atno 17395 bound_to 11000

$$$$
