AV-unprocessed.smi:1014|AV-procd|sdf|4430|dock5
  -GOLD-   22720 2383D 1   1.00000     0.00000
 Structure written by MMmdl.
 34 34  0  0  0  0  0  0  0  0  2 V2000
  146.4468  142.4604  156.1214 C   0  0  0  0  0  0  0  0  0  0  0  0
  147.2559  141.1953  156.4472 C   0  0  0  0  0  0  0  0  0  0  0  0
  148.7463  141.2650  156.0488 C   0  0  2  0  0  0  0  0  0  0  0  0
  149.3325  142.5157  156.5821 N   0  3  0  0  0  0  0  0  0  0  0  0
  150.8113  142.5634  156.6095 C   0  0  0  0  0  0  0  0  0  0  0  0
  151.3229  143.7816  157.3952 C   0  0  0  0  0  0  0  0  0  0  0  0
  151.9075  143.4086  158.6709 N   0  0  0  0  0  0  0  0  0  0  0  0
  151.7858  144.0450  159.8879 C   0  0  0  0  0  0  0  0  0  0  0  0
  152.5151  143.3340  160.7986 C   0  0  0  0  0  0  0  0  0  0  0  0
  152.7121  143.6053  162.2623 C   0  0  0  0  0  0  0  0  0  0  0  0
  153.0520  142.2632  160.0292 C   0  0  0  0  0  0  0  0  0  0  0  0
  152.6885  142.3109  158.7578 N   0  0  0  0  0  0  0  0  0  0  0  0
  148.9254  141.1797  154.5242 C   0  0  0  0  0  0  0  0  0  0  0  0
  149.5588  140.1078  154.0410 N   0  0  0  0  0  0  0  0  0  0  0  0
  148.4908  142.0669  153.7921 O   0  0  0  0  0  0  0  0  0  0  0  0
  145.3939  142.3163  156.3651 H   0  0  0  0  0  0  0  0  0  0  0  0
  146.5098  142.7052  155.0609 H   0  0  0  0  0  0  0  0  0  0  0  0
  146.7960  143.3232  156.6886 H   0  0  0  0  0  0  0  0  0  0  0  0
  147.1627  140.9708  157.5110 H   0  0  0  0  0  0  0  0  0  0  0  0
  146.7908  140.3577  155.9254 H   0  0  0  0  0  0  0  0  0  0  0  0
  149.2627  140.4266  156.5199 H   0  0  0  0  0  0  0  0  0  0  0  0
  148.9842  143.2930  156.0387 H   0  0  0  0  0  0  0  0  0  0  0  0
  151.2028  141.6464  157.0521 H   0  0  0  0  0  0  0  0  0  0  0  0
  151.1880  142.6100  155.5873 H   0  0  0  0  0  0  0  0  0  0  0  0
  152.0854  144.3005  156.8129 H   0  0  0  0  0  0  0  0  0  0  0  0
  150.5193  144.5001  157.5653 H   0  0  0  0  0  0  0  0  0  0  0  0
  151.1969  144.9428  160.0053 H   0  0  0  0  0  0  0  0  0  0  0  0
  152.8582  142.6846  162.8277 H   0  0  0  0  0  0  0  0  0  0  0  0
  151.8535  144.1159  162.6993 H   0  0  0  0  0  0  0  0  0  0  0  0
  153.5848  144.2340  162.4399 H   0  0  0  0  0  0  0  0  0  0  0  0
  153.6929  141.4575  160.3556 H   0  0  0  0  0  0  0  0  0  0  0  0
  149.7079  140.0098  153.0471 H   0  0  0  0  0  0  0  0  0  0  0  0
  149.8957  139.3978  154.6758 H   0  0  0  0  0  0  0  0  0  0  0  0
  149.0136  142.6248  157.5346 H   0  0  0  0  0  0  0  0  0  0  0  0
  1  2  1  0  0  0  0
  1 16  1  0  0  0  0
  1 17  1  0  0  0  0
  1 18  1  0  0  0  0
  2  3  1  0  0  0  0
  2 19  1  0  0  0  0
  2 20  1  0  0  0  0
  3  4  1  0  0  0  0
  3 13  1  0  0  0  0
  3 21  1  0  0  0  0
  4  5  1  0  0  0  0
  4 22  1  0  0  0  0
  4 34  1  0  0  0  0
  5  6  1  0  0  0  0
  5 23  1  0  0  0  0
  5 24  1  0  0  0  0
  6  7  1  0  0  0  0
  6 25  1  0  0  0  0
  6 26  1  0  0  0  0
  7 12  1  0  0  0  0
  7  8  1  0  0  0  0
  8  9  2  0  0  0  0
  8 27  1  0  0  0  0
  9 10  1  0  0  0  0
  9 11  1  0  0  0  0
 10 28  1  0  0  0  0
 10 29  1  0  0  0  0
 10 30  1  0  0  0  0
 11 12  2  0  0  0  0
 11 31  1  0  0  0  0
 13 14  1  0  0  0  0
 13 15  2  0  0  0  0
 14 32  1  0  0  0  0
 14 33  1  0  0  0  0
M  CHG  1   4   1
M  END
> <s_m_source_file>
AV-unprocessed.smi

> <i_m_source_file_index>
1014

> <i_lp_mmshare_version>
43012

> <i_f3d_flags>
0

> <s_epik_input>
W0NIM11bQ0gyXVtDQEBIXShDKD1PKVtOSDJdKVtOSF1bQ0gyXVtDSDJdbjFbY0hdYyhbQ0gzXSlbY0hdbjE=

> <s_epik_cmdline>
J2VwaWtfcHl0aG9uJywgJy1waCcsICc3LjAnLCAnLXRuJywgJzgnLCAnLW1hJywgJzIwMCcsICctbWV0YWxfYmluZGluZycsICctaW1hZScsICc8aW5maWxlLm1hZT4nLCAnLW9tYWUnLCAnPG91dGZpbGUubWFlPic=

> <r_lp_tautomer_probability>
1

> <r_epik_Ionization_Penalty>
0.19042

> <r_epik_Ionization_Penalty_Charging>
0.190412

> <r_epik_Ionization_Penalty_Neutral>
7.5834e-06

> <r_epik_State_Penalty>
0.180404

> <r_epik_Charging_Adjusted_Penalty>
0.370816

> <i_epik_Tot_Q>
1

> <i_epik_Tot_abs_Q>
1

> <r_epik_Metal_State_Penalty>
0.180563

> <b_epik_Metal_Only>
0

> <s_lp_Force_Field>
OPLS_2005

> <r_lp_Energy>
2.67467

> <b_lp_Chiralities_Consistent>
1

> <s_lp_Variant>
AV-unprocessed.smi:1014-1

> <Gold.Version>
5.8.1

> <Gold.Id.Protein>
6NUR|6NUR_protein|mol2

> <Gold.PLP.Fitness>
43.7901

> <Gold.PLP.PLP>
-34.7800

> <Gold.PLP.part.hbond>
-3.0000

> <Gold.PLP.part.metal>
0.0000

> <Gold.PLP.part.buried>
-4.8061

> <Gold.PLP.part.nonpolar>
-27.2111

> <Gold.PLP.part.repulsive>
0.9549

> <Gold.PLP.ligand.clash>
0.0000

> <Gold.PLP.ligand.torsion>
0.8326

> <Gold.PLP.Chemscore.Hbond>
3.5280

> <Gold.PLP.Chemscore.CHOScore>
0.0000

> <Gold.PLP.Chemscore.Metal>
0.0000

> <Gold.Chemscore.Hbonds>
donor molecule, donor type, donor heavy atom, donor atom, acceptor molecule, acceptor atom, score
      L1  H     4    22       P1  8028  1.72
      L1  H    14    32       P1  7957  1.00
      P1  H  8011  8017       L1    15  0.38

> <Gold.PLP.Chemscore.Internal.Correction>
0.0913

> <Gold.Rescore>
     Score         DG    S(hbond)    S(metal)    S(lipo)     H(rot)  DE(clash)    DE(int)     intcor
     15.26     -16.26       2.52        0.00      76.68       2.59       0.05       0.94       ----

> <Gold.Chemscore.Fitness>
15.2622

> <Gold.Chemscore.DG>
-16.2566

> <Gold.Chemscore.ZeroCoef>
-5.4800

> <Gold.Chemscore.Hbond>
2.5240

> <Gold.Chemscore.Metal>
0.0000

> <Gold.Chemscore.Lipo>
76.6780

> <Gold.Chemscore.Internal_Hbond>
0.0000

> <Gold.Chemscore.DEClash>
0.0536

> <Gold.Chemscore.DEInternal>
0.9409

> <Gold.Chemscore.Rot>
2.5878

> <Gold.Chemscore.Internal.Correction>
   9.000000E+99

> <Gold.Chemscore.Hbonds>
donor molecule, donor type, donor heavy atom, donor atom, acceptor molecule, acceptor atom, score
      L1  H     4    22       P1  8028  0.82
      L1  H    14    32       P1  7957  1.00
      P1  H  8011  8017       L1    15  0.29

> <Gold.Chemscore.Hbond.Weighted>
-8.4300

> <Gold.Chemscore.Metal.Weighted>
-0.0000

> <Gold.Chemscore.Lipo.Weighted>
-8.9713

> <Gold.Chemscore.Internal_Hbond.Weighted>
0.0000

> <Gold.Chemscore.DEClash.Weighted>
0.0536

> <Gold.Chemscore.DEInternal.Weighted>
0.9409

> <Gold.Chemscore.Rot.Weighted>
6.6247

> <Gold.Chemscore.Internal.Correction.Weighted>
   9.000000E+99

> <Gold.Protein.RotatedTorsions>
[ 6907 6896 6895 6894 ] final   54.01 input  -60.11 | X-H torsion
[ 7974 7965 7964 7962 ] final   42.88 input  175.53 | X-H torsion
[ 8008 7997 7996 7995 ] final  174.76 input   59.86 | X-H torsion
[ 10167 10162 10161 10158 ] final  -33.84 input  -65.29 | X-H torsion
[ 10718 10713 10712 10709 ] final   80.29 input   66.30 | X-H torsion
[ 10763 10752 10751 10750 ] final   -3.43 input  -60.55 | X-H torsion
[ 11005 11000 10999 10996 ] final   38.98 input  -57.11 | X-H torsion

> <Gold.Protein.ActiveResidues>
 VAL166  LYS551  ARG553  GLY616  TRP617  ASP618  TYR619  PRO620  LYS621  CYS622 
 ASP623  PHE694  ASN695  SER759  ASP760  ASP761  ALA762  ILE779  LEU786  VAL792 
 PHE793  MET794  SER795  GLU796  ALA797  LYS798  CYS799  TRP800  GLU811  SER814 

> <Gold.Protein.RotatedAtoms>
  152.3395  134.7153  160.0267 H   0  0  0  0  0  0  0  0  0  0  0  0  # atno 6907 bound_to 6896
  151.7543  133.3324  159.3408 H   0  0  0  0  0  0  0  0  0  0  0  0  # atno 6908 bound_to 6896
  150.7471  134.6096  159.6124 H   0  0  0  0  0  0  0  0  0  0  0  0  # atno 6909 bound_to 6896
  146.0703  139.5250  142.9602 H   0  0  0  0  0  0  0  0  0  0  0  0  # atno 7974 bound_to 7965
  156.0941  140.1426  156.9554 H   0  0  0  0  0  0  0  0  0  0  0  0  # atno 8008 bound_to 7997
  154.4660  140.0926  156.7068 H   0  0  0  0  0  0  0  0  0  0  0  0  # atno 8009 bound_to 7997
  155.4871  140.3447  155.4351 H   0  0  0  0  0  0  0  0  0  0  0  0  # atno 8010 bound_to 7997
  140.7197  143.3591  151.1999 H   0  0  0  0  0  0  0  0  0  0  0  0  # atno 10167 bound_to 10162
  157.6802  130.9953  150.2057 H   0  0  0  0  0  0  0  0  0  0  0  0  # atno 10718 bound_to 10713
  153.3712  135.6994  153.6636 H   0  0  0  0  0  0  0  0  0  0  0  0  # atno 10763 bound_to 10752
  153.5285  135.3597  155.2665 H   0  0  0  0  0  0  0  0  0  0  0  0  # atno 10764 bound_to 10752
  154.8681  135.4175  154.2991 H   0  0  0  0  0  0  0  0  0  0  0  0  # atno 10765 bound_to 10752
  140.2073  134.3798  155.8066 H   0  0  0  0  0  0  0  0  0  0  0  0  # atno 11005 bound_to 11000
  145.6403  141.0285  143.1815 LP  0  0  0  0  0  0  0  0  0  0  0  0  # atno 17320 bound_to 7965
  144.7227  139.7975  143.7376 LP  0  0  0  0  0  0  0  0  0  0  0  0  # atno 17321 bound_to 7965
  139.7139  143.9332  152.2959 LP  0  0  0  0  0  0  0  0  0  0  0  0  # atno 17342 bound_to 10162
  139.9066  144.6881  150.8607 LP  0  0  0  0  0  0  0  0  0  0  0  0  # atno 17343 bound_to 10162
  156.2739  130.3725  149.8004 LP  0  0  0  0  0  0  0  0  0  0  0  0  # atno 17370 bound_to 10713
  156.5712  130.8425  151.3357 LP  0  0  0  0  0  0  0  0  0  0  0  0  # atno 17371 bound_to 10713
  141.2227  133.7124  156.8358 LP  0  0  0  0  0  0  0  0  0  0  0  0  # atno 17394 bound_to 11000
  140.1989  134.8911  157.3146 LP  0  0  0  0  0  0  0  0  0  0  0  0  # atno 17395 bound_to 11000

$$$$
