AV-unprocessed.smi:3166|AV-procd|sdf|12094|dock9
  -GOLD-   2272017523D 1   1.00000     0.00000
 Structure written by MMmdl.
 41 42  0  0  0  0  0  0  0  0  2 V2000
  145.4310  136.2865  151.3518 C   0  0  0  0  0  0  0  0  0  0  0  0
  145.8113  135.5329  152.6372 C   0  0  1  0  0  0  0  0  0  0  0  0
  146.4681  134.1793  152.2976 C   0  0  0  0  0  0  0  0  0  0  0  0
  145.5640  133.2615  151.6249 N   0  0  0  0  0  0  0  0  0  0  0  0
  145.7953  131.9555  151.2459 C   0  0  0  0  0  0  0  0  0  0  0  0
  144.6640  131.5046  150.6286 C   0  0  0  0  0  0  0  0  0  0  0  0
  143.7868  132.6239  150.6697 C   0  0  0  0  0  0  0  0  0  0  0  0
  144.3300  133.6748  151.2628 N   0  0  0  0  0  0  0  0  0  0  0  0
  146.7209  136.3403  153.4819 N   0  3  0  0  0  0  0  0  0  0  0  0
  146.2538  137.7086  153.7955 C   0  0  0  0  0  0  0  0  0  0  0  0
  147.3444  138.7707  153.5335 C   0  0  0  0  0  0  0  0  0  0  0  0
  147.7230  138.6536  152.1733 O   0  0  0  0  0  0  0  0  0  0  0  0
  146.8331  140.2081  153.8041 C   0  0  0  0  0  0  0  0  0  0  0  0
  147.9397  141.2703  153.6766 C   0  0  0  0  0  0  0  0  0  0  0  0
  149.1363  140.9435  154.5803 C   0  0  0  0  0  0  0  0  0  0  0  0
  149.6860  139.5429  154.2780 C   0  0  0  0  0  0  0  0  0  0  0  0
  148.5885  138.4709  154.4035 C   0  0  0  0  0  0  0  0  0  0  0  0
  144.7888  135.6745  150.7178 H   0  0  0  0  0  0  0  0  0  0  0  0
  146.3148  136.5504  150.7699 H   0  0  0  0  0  0  0  0  0  0  0  0
  144.8844  137.2046  151.5655 H   0  0  0  0  0  0  0  0  0  0  0  0
  144.8985  135.3387  153.2027 H   0  0  0  0  0  0  0  0  0  0  0  0
  147.3320  134.3319  151.6492 H   0  0  0  0  0  0  0  0  0  0  0  0
  146.8402  133.7002  153.2046 H   0  0  0  0  0  0  0  0  0  0  0  0
  146.7346  131.4600  151.4437 H   0  0  0  0  0  0  0  0  0  0  0  0
  144.4905  130.5256  150.2067 H   0  0  0  0  0  0  0  0  0  0  0  0
  142.7802  132.7040  150.2867 H   0  0  0  0  0  0  0  0  0  0  0  0
  146.8198  135.8592  154.3652 H   0  0  0  0  0  0  0  0  0  0  0  0
  145.3711  137.9354  153.1975 H   0  0  0  0  0  0  0  0  0  0  0  0
  145.9446  137.7460  154.8413 H   0  0  0  0  0  0  0  0  0  0  0  0
  147.8405  137.7369  151.9733 H   0  0  0  0  0  0  0  0  0  0  0  0
  146.0163  140.4608  153.1272 H   0  0  0  0  0  0  0  0  0  0  0  0
  146.4166  140.2576  154.8113 H   0  0  0  0  0  0  0  0  0  0  0  0
  148.2713  141.3369  152.6396 H   0  0  0  0  0  0  0  0  0  0  0  0
  147.5407  142.2521  153.9331 H   0  0  0  0  0  0  0  0  0  0  0  0
  149.9204  141.6889  154.4436 H   0  0  0  0  0  0  0  0  0  0  0  0
  148.8328  141.0014  155.6264 H   0  0  0  0  0  0  0  0  0  0  0  0
  150.1108  139.5239  153.2738 H   0  0  0  0  0  0  0  0  0  0  0  0
  150.5051  139.3132  154.9601 H   0  0  0  0  0  0  0  0  0  0  0  0
  148.2871  138.4063  155.4501 H   0  0  0  0  0  0  0  0  0  0  0  0
  149.0022  137.4936  154.1505 H   0  0  0  0  0  0  0  0  0  0  0  0
  147.6284  136.3893  153.0421 H   0  0  0  0  0  0  0  0  0  0  0  0
  1  2  1  0  0  0  0
  1 18  1  0  0  0  0
  1 19  1  0  0  0  0
  1 20  1  0  0  0  0
  2  3  1  0  0  0  0
  2  9  1  0  0  0  0
  2 21  1  0  0  0  0
  3  4  1  0  0  0  0
  3 22  1  0  0  0  0
  3 23  1  0  0  0  0
  4  8  1  0  0  0  0
  4  5  1  0  0  0  0
  5  6  2  0  0  0  0
  5 24  1  0  0  0  0
  6  7  1  0  0  0  0
  6 25  1  0  0  0  0
  7  8  2  0  0  0  0
  7 26  1  0  0  0  0
  9 10  1  0  0  0  0
  9 27  1  0  0  0  0
  9 41  1  0  0  0  0
 10 11  1  0  0  0  0
 10 28  1  0  0  0  0
 10 29  1  0  0  0  0
 11 17  1  0  0  0  0
 11 12  1  0  0  0  0
 11 13  1  0  0  0  0
 12 30  1  0  0  0  0
 13 14  1  0  0  0  0
 13 31  1  0  0  0  0
 13 32  1  0  0  0  0
 14 15  1  0  0  0  0
 14 33  1  0  0  0  0
 14 34  1  0  0  0  0
 15 16  1  0  0  0  0
 15 35  1  0  0  0  0
 15 36  1  0  0  0  0
 16 17  1  0  0  0  0
 16 37  1  0  0  0  0
 16 38  1  0  0  0  0
 17 39  1  0  0  0  0
 17 40  1  0  0  0  0
M  CHG  1   9   1
M  END
> <s_m_source_file>
AV-unprocessed.smi

> <i_m_source_file_index>
3166

> <i_lp_mmshare_version>
43012

> <i_f3d_flags>
0

> <s_epik_input>
bjFbY0hdW2NIXVtjSF1uMVtDSDJdW0NAQEhdKFtDSDNdKVtOSF1bQ0gyXUMyKFtPSF0pW0NIMl1bQ0gyXVtDSDJdW0NIMl1bQ0gyXTI=

> <s_epik_cmdline>
J2VwaWtfcHl0aG9uJywgJy1waCcsICc3LjAnLCAnLXRuJywgJzgnLCAnLW1hJywgJzIwMCcsICctbWV0YWxfYmluZGluZycsICctaW1hZScsICc8aW5maWxlLm1hZT4nLCAnLW9tYWUnLCAnPG91dGZpbGUubWFlPic=

> <r_lp_tautomer_probability>
1

> <r_epik_Ionization_Penalty>
0.0111521

> <r_epik_Ionization_Penalty_Charging>
0.0111472

> <r_epik_Ionization_Penalty_Neutral>
4.96355e-06

> <r_epik_State_Penalty>
0.00856328

> <r_epik_Charging_Adjusted_Penalty>
0.0197104

> <i_epik_Tot_Q>
1

> <i_epik_Tot_abs_Q>
1

> <r_epik_Metal_State_Penalty>
0.00856387

> <b_epik_Metal_Only>
0

> <s_lp_Force_Field>
OPLS_2005

> <r_lp_Energy>
16.9358

> <b_lp_Chiralities_Consistent>
1

> <s_lp_Variant>
AV-unprocessed.smi:3166-2

> <Gold.Version>
5.8.1

> <Gold.Id.Protein>
6NUR|6NUR_protein|mol2

> <Gold.PLP.Fitness>
47.4438

> <Gold.PLP.PLP>
-33.2169

> <Gold.PLP.part.hbond>
-2.9154

> <Gold.PLP.part.metal>
0.0000

> <Gold.PLP.part.buried>
-3.7229

> <Gold.PLP.part.nonpolar>
-26.6128

> <Gold.PLP.part.repulsive>
0.1366

> <Gold.PLP.ligand.clash>
0.0000

> <Gold.PLP.ligand.torsion>
0.4097

> <Gold.PLP.Chemscore.Hbond>
3.0000

> <Gold.PLP.Chemscore.CHOScore>
2.0000

> <Gold.PLP.Chemscore.Metal>
0.0000

> <Gold.Chemscore.Hbonds>
donor molecule, donor type, donor heavy atom, donor atom, acceptor molecule, acceptor atom, score
      L1  H     9    41       P1  7948  2.00
      L1  H    12    30       P1  7948  0.99
      L1  C     5    24       P1 10747  0.83
      L1  C     7    26       P1 10186  0.90

> <Gold.PLP.Chemscore.Internal.Correction>
0.0462

> <Gold.Rescore>
     Score         DG    S(hbond)    S(metal)    S(lipo)     H(rot)  DE(clash)    DE(int)     intcor
     14.84     -16.71       1.99        0.00      87.33       2.20       0.04       1.84       ----

> <Gold.Chemscore.Fitness>
14.8405

> <Gold.Chemscore.DG>
-16.7135

> <Gold.Chemscore.ZeroCoef>
-5.4800

> <Gold.Chemscore.Hbond>
1.9898

> <Gold.Chemscore.Metal>
0.0000

> <Gold.Chemscore.Lipo>
87.3265

> <Gold.Chemscore.Internal_Hbond>
0.0000

> <Gold.Chemscore.DEClash>
0.0367

> <Gold.Chemscore.DEInternal>
1.8363

> <Gold.Chemscore.Rot>
2.1991

> <Gold.Chemscore.Internal.Correction>
   9.000000E+99

> <Gold.Chemscore.Hbonds>
donor molecule, donor type, donor heavy atom, donor atom, acceptor molecule, acceptor atom, score
      L1  H     9    41       P1  7948  1.00
      L1  H    12    30       P1  7948  0.94

> <Gold.Chemscore.Hbond.Weighted>
-6.6461

> <Gold.Chemscore.Metal.Weighted>
-0.0000

> <Gold.Chemscore.Lipo.Weighted>
-10.2172

> <Gold.Chemscore.Internal_Hbond.Weighted>
0.0000

> <Gold.Chemscore.DEClash.Weighted>
0.0367

> <Gold.Chemscore.DEInternal.Weighted>
1.8363

> <Gold.Chemscore.Rot.Weighted>
5.6298

> <Gold.Chemscore.Internal.Correction.Weighted>
   9.000000E+99

> <Gold.Protein.RotatedTorsions>
[ 6907 6896 6895 6894 ] final   97.52 input  -60.11 | X-H torsion
[ 7974 7965 7964 7962 ] final  120.13 input  175.53 | X-H torsion
[ 8008 7997 7996 7995 ] final  158.63 input   59.86 | X-H torsion
[ 10167 10162 10161 10158 ] final   70.37 input  -65.29 | X-H torsion
[ 10718 10713 10712 10709 ] final    7.82 input   66.30 | X-H torsion
[ 10763 10752 10751 10750 ] final  169.62 input  -60.55 | X-H torsion
[ 11005 11000 10999 10996 ] final  126.19 input  -57.11 | X-H torsion

> <Gold.Protein.ActiveResidues>
 VAL166  LYS551  ARG553  GLY616  TRP617  ASP618  TYR619  PRO620  LYS621  CYS622 
 ASP623  PHE694  ASN695  SER759  ASP760  ASP761  ALA762  ILE779  LEU786  VAL792 
 PHE793  MET794  SER795  GLU796  ALA797  LYS798  CYS799  TRP800  GLU811  SER814 

> <Gold.Protein.RotatedAtoms>
  152.5422  134.0721  159.8198 H   0  0  0  0  0  0  0  0  0  0  0  0  # atno 6907 bound_to 6896
  151.0834  133.5364  159.2626 H   0  0  0  0  0  0  0  0  0  0  0  0  # atno 6908 bound_to 6896
  151.2183  135.0517  159.8993 H   0  0  0  0  0  0  0  0  0  0  0  0  # atno 6909 bound_to 6896
  145.1349  139.3304  143.4646 H   0  0  0  0  0  0  0  0  0  0  0  0  # atno 7974 bound_to 7965
  156.2290  140.1853  156.7289 H   0  0  0  0  0  0  0  0  0  0  0  0  # atno 8008 bound_to 7997
  154.5991  140.0639  156.9371 H   0  0  0  0  0  0  0  0  0  0  0  0  # atno 8009 bound_to 7997
  155.2205  140.3307  155.4318 H   0  0  0  0  0  0  0  0  0  0  0  0  # atno 8010 bound_to 7997
  140.0577  144.5259  150.7317 H   0  0  0  0  0  0  0  0  0  0  0  0  # atno 10167 bound_to 10162
  156.9426  130.5867  149.5653 H   0  0  0  0  0  0  0  0  0  0  0  0  # atno 10718 bound_to 10713
  154.3858  135.2753  155.2184 H   0  0  0  0  0  0  0  0  0  0  0  0  # atno 10763 bound_to 10752
  154.4271  135.5986  153.6049 H   0  0  0  0  0  0  0  0  0  0  0  0  # atno 10764 bound_to 10752
  152.9833  135.5986  154.4107 H   0  0  0  0  0  0  0  0  0  0  0  0  # atno 10765 bound_to 10752
  139.9443  134.9631  156.8669 H   0  0  0  0  0  0  0  0  0  0  0  0  # atno 11005 bound_to 11000
  146.3510  140.1362  142.8596 LP  0  0  0  0  0  0  0  0  0  0  0  0  # atno 17320 bound_to 7965
  145.0595  140.9077  143.4947 LP  0  0  0  0  0  0  0  0  0  0  0  0  # atno 17321 bound_to 7965
  140.7187  143.2568  151.4351 LP  0  0  0  0  0  0  0  0  0  0  0  0  # atno 17342 bound_to 10162
  139.5913  144.1493  152.2092 LP  0  0  0  0  0  0  0  0  0  0  0  0  # atno 17343 bound_to 10162
  156.0398  130.5481  150.8742 LP  0  0  0  0  0  0  0  0  0  0  0  0  # atno 17370 bound_to 10713
  157.5775  131.0946  150.9323 LP  0  0  0  0  0  0  0  0  0  0  0  0  # atno 17371 bound_to 10713
  140.5872  134.0295  155.7486 LP  0  0  0  0  0  0  0  0  0  0  0  0  # atno 17394 bound_to 11000
  141.1089  133.9649  157.2947 LP  0  0  0  0  0  0  0  0  0  0  0  0  # atno 17395 bound_to 11000

$$$$
