AV-unprocessed.smi:2885|AV-procd|sdf|11086|dock2
  -GOLD-   2272015553D 1   1.00000     0.00000
 Structure written by MMmdl.
 40 42  0  0  0  0  0  0  0  0  1 V2000
  150.9708  136.2326  153.8793 N   0  0  0  0  0  0  0  0  0  0  0  0
  151.4943  137.0730  154.7762 C   0  0  0  0  0  0  0  0  0  0  0  0
  152.4593  136.7705  155.4748 O   0  0  0  0  0  0  0  0  0  0  0  0
  150.7886  138.3771  154.9016 C   0  0  0  0  0  0  0  0  0  0  0  0
  151.3026  139.5551  155.3959 C   0  0  0  0  0  0  0  0  0  0  0  0
  150.2752  140.4902  155.3571 N   0  0  0  0  0  0  0  0  0  0  0  0
  150.3731  141.8748  155.8011 C   0  0  0  0  0  0  0  0  0  0  0  0
  150.6651  141.9774  157.3007 C   0  0  0  0  0  0  0  0  0  0  0  0
  149.7665  141.7681  158.1149 O   0  0  0  0  0  0  0  0  0  0  0  0
  151.9252  142.2787  157.6515 N   0  0  0  0  0  0  0  0  0  0  0  0
  152.4349  142.2871  159.0161 C   0  0  0  0  0  0  0  0  0  0  0  0
  152.5928  143.7171  159.5279 C   0  0  0  0  0  0  0  0  0  0  0  0
  151.8579  144.1574  160.8018 C   0  0  0  0  0  0  0  0  0  0  0  0
  151.6870  145.5414  160.1689 C   0  0  0  0  0  0  0  0  0  0  0  0
  151.8786  144.8703  158.8064 C   0  0  0  0  0  0  0  0  0  0  0  0
  149.2086  139.8465  154.8390 C   0  0  0  0  0  0  0  0  0  0  0  0
  147.8708  140.4905  154.6555 C   0  0  0  0  0  0  0  0  0  0  0  0
  147.1913  140.5076  153.3043 C   0  0  0  0  0  0  0  0  0  0  0  0
  147.7244  141.7881  153.8922 C   0  0  0  0  0  0  0  0  0  0  0  0
  149.4505  138.5677  154.5706 N   0  0  0  0  0  0  0  0  0  0  0  0
  151.3890  135.3243  153.7410 H   0  0  0  0  0  0  0  0  0  0  0  0
  150.1564  136.5063  153.3497 H   0  0  0  0  0  0  0  0  0  0  0  0
  152.2854  139.7994  155.7718 H   0  0  0  0  0  0  0  0  0  0  0  0
  151.1686  142.3739  155.2465 H   0  0  0  0  0  0  0  0  0  0  0  0
  149.4442  142.3917  155.5591 H   0  0  0  0  0  0  0  0  0  0  0  0
  152.5958  142.4396  156.9140 H   0  0  0  0  0  0  0  0  0  0  0  0
  151.7340  141.7338  159.6414 H   0  0  0  0  0  0  0  0  0  0  0  0
  153.3828  141.7494  159.0680 H   0  0  0  0  0  0  0  0  0  0  0  0
  153.6487  143.9765  159.6339 H   0  0  0  0  0  0  0  0  0  0  0  0
  150.9077  143.6401  160.9454 H   0  0  0  0  0  0  0  0  0  0  0  0
  152.4654  144.1408  161.7072 H   0  0  0  0  0  0  0  0  0  0  0  0
  150.7081  145.9964  160.3218 H   0  0  0  0  0  0  0  0  0  0  0  0
  152.4983  146.2261  160.4215 H   0  0  0  0  0  0  0  0  0  0  0  0
  152.5031  145.4242  158.1045 H   0  0  0  0  0  0  0  0  0  0  0  0
  150.9353  144.5654  158.3500 H   0  0  0  0  0  0  0  0  0  0  0  0
  147.2465  140.3388  155.5341 H   0  0  0  0  0  0  0  0  0  0  0  0
  147.7295  140.0836  152.4585 H   0  0  0  0  0  0  0  0  0  0  0  0
  146.1117  140.3748  153.2839 H   0  0  0  0  0  0  0  0  0  0  0  0
  147.0034  142.5106  154.2688 H   0  0  0  0  0  0  0  0  0  0  0  0
  148.6161  142.2128  153.4354 H   0  0  0  0  0  0  0  0  0  0  0  0
  1  2  1  0  0  0  0
  1 21  1  0  0  0  0
  1 22  1  0  0  0  0
  2  3  2  0  0  0  0
  2  4  1  0  0  0  0
  4 20  1  0  0  0  0
  4  5  2  0  0  0  0
  5  6  1  0  0  0  0
  5 23  1  0  0  0  0
  6  7  1  0  0  0  0
  6 16  1  0  0  0  0
  7  8  1  0  0  0  0
  7 24  1  0  0  0  0
  7 25  1  0  0  0  0
  8  9  2  0  0  0  0
  8 10  1  0  0  0  0
 10 11  1  0  0  0  0
 10 26  1  0  0  0  0
 11 12  1  0  0  0  0
 11 27  1  0  0  0  0
 11 28  1  0  0  0  0
 12 15  1  0  0  0  0
 12 13  1  0  0  0  0
 12 29  1  0  0  0  0
 13 14  1  0  0  0  0
 13 30  1  0  0  0  0
 13 31  1  0  0  0  0
 14 15  1  0  0  0  0
 14 32  1  0  0  0  0
 14 33  1  0  0  0  0
 15 34  1  0  0  0  0
 15 35  1  0  0  0  0
 16 17  1  0  0  0  0
 16 20  2  0  0  0  0
 17 19  1  0  0  0  0
 17 18  1  0  0  0  0
 17 36  1  0  0  0  0
 18 19  1  0  0  0  0
 18 37  1  0  0  0  0
 18 38  1  0  0  0  0
 19 39  1  0  0  0  0
 19 40  1  0  0  0  0
M  END
> <s_m_source_file>
AV-unprocessed.smi

> <i_m_source_file_index>
2885

> <i_lp_mmshare_version>
43012

> <i_f3d_flags>
0

> <s_epik_input>
W05IMl1DKD1PKWMxW2NIXW4oYyhuMSlbQ0hdMltDSDJdW0NIMl0yKVtDSDJdQyg9TylbTkhdW0NIMl1bQ0hdM1tDSDJdW0NIMl1bQ0gyXTM=

> <s_epik_cmdline>
J2VwaWtfcHl0aG9uJywgJy1waCcsICc3LjAnLCAnLXRuJywgJzgnLCAnLW1hJywgJzIwMCcsICctbWV0YWxfYmluZGluZycsICctaW1hZScsICc8aW5maWxlLm1hZT4nLCAnLW9tYWUnLCAnPG91dGZpbGUubWFlPic=

> <r_lp_tautomer_probability>
1

> <r_epik_Ionization_Penalty>
0.00135877

> <r_epik_Ionization_Penalty_Charging>
0.00135847

> <r_epik_Ionization_Penalty_Neutral>
3.0068e-07

> <r_epik_State_Penalty>
0.000904027

> <r_epik_Charging_Adjusted_Penalty>
0.00226249

> <i_epik_Tot_Q>
0

> <i_epik_Tot_abs_Q>
0

> <r_epik_Metal_State_Penalty>
-0

> <b_epik_Metal_Only>
0

> <s_lp_Force_Field>
OPLS_2005

> <r_lp_Energy>
17.7141

> <b_lp_Chiralities_Consistent>
1

> <s_lp_Variant>
AV-unprocessed.smi:2885-1

> <Gold.Version>
5.8.1

> <Gold.Id.Protein>
6NUR|6NUR_protein|mol2

> <Gold.PLP.Fitness>
45.5098

> <Gold.PLP.PLP>
-42.2709

> <Gold.PLP.part.hbond>
-3.0000

> <Gold.PLP.part.metal>
0.0000

> <Gold.PLP.part.buried>
-3.3612

> <Gold.PLP.part.nonpolar>
-37.1346

> <Gold.PLP.part.repulsive>
0.3859

> <Gold.PLP.ligand.clash>
0.0000

> <Gold.PLP.ligand.torsion>
1.3410

> <Gold.PLP.Chemscore.Hbond>
1.8800

> <Gold.PLP.Chemscore.CHOScore>
0.0000

> <Gold.PLP.Chemscore.Metal>
0.0000

> <Gold.Chemscore.Hbonds>
donor molecule, donor type, donor heavy atom, donor atom, acceptor molecule, acceptor atom, score
      L1  H     1    22       P1  7948  0.49
      P1  H 10752 10764       L1     3  0.69

> <Gold.PLP.Chemscore.Internal.Correction>
0.2809

> <Gold.Rescore>
     Score         DG    S(hbond)    S(metal)    S(lipo)     H(rot)  DE(clash)    DE(int)     intcor
     15.32     -16.80       1.47        0.00      98.18       1.98       0.08       1.40       ----

> <Gold.Chemscore.Fitness>
15.3197

> <Gold.Chemscore.DG>
-16.7957

> <Gold.Chemscore.ZeroCoef>
-5.4800

> <Gold.Chemscore.Hbond>
1.4657

> <Gold.Chemscore.Metal>
0.0000

> <Gold.Chemscore.Lipo>
98.1758

> <Gold.Chemscore.Internal_Hbond>
0.0000

> <Gold.Chemscore.DEClash>
0.0780

> <Gold.Chemscore.DEInternal>
1.3980

> <Gold.Chemscore.Rot>
1.9791

> <Gold.Chemscore.Internal.Correction>
   9.000000E+99

> <Gold.Chemscore.Hbonds>
donor molecule, donor type, donor heavy atom, donor atom, acceptor molecule, acceptor atom, score
      L1  H     1    22       P1  7948  0.02
      P1  H 10752 10764       L1     3  0.61

> <Gold.Chemscore.Hbond.Weighted>
-4.8956

> <Gold.Chemscore.Metal.Weighted>
-0.0000

> <Gold.Chemscore.Lipo.Weighted>
-11.4866

> <Gold.Chemscore.Internal_Hbond.Weighted>
0.0000

> <Gold.Chemscore.DEClash.Weighted>
0.0780

> <Gold.Chemscore.DEInternal.Weighted>
1.3980

> <Gold.Chemscore.Rot.Weighted>
5.0665

> <Gold.Chemscore.Internal.Correction.Weighted>
   9.000000E+99

> <Gold.Protein.RotatedTorsions>
[ 6907 6896 6895 6894 ] final   62.75 input  -60.11 | X-H torsion
[ 7974 7965 7964 7962 ] final  115.15 input  175.53 | X-H torsion
[ 8008 7997 7996 7995 ] final    0.55 input   59.86 | X-H torsion
[ 10167 10162 10161 10158 ] final -136.23 input  -65.29 | X-H torsion
[ 10718 10713 10712 10709 ] final   -8.53 input   66.30 | X-H torsion
[ 10763 10752 10751 10750 ] final  -22.82 input  -60.55 | X-H torsion
[ 11005 11000 10999 10996 ] final   95.80 input  -57.11 | X-H torsion

> <Gold.Protein.ActiveResidues>
 VAL166  LYS551  ARG553  GLY616  TRP617  ASP618  TYR619  PRO620  LYS621  CYS622 
 ASP623  PHE694  ASN695  SER759  ASP760  ASP761  ALA762  ILE779  LEU786  VAL792 
 PHE793  MET794  SER795  GLU796  ALA797  LYS798  CYS799  TRP800  GLU811  SER814 

> <Gold.Protein.RotatedAtoms>
  152.4197  134.5977  159.9991 H   0  0  0  0  0  0  0  0  0  0  0  0  # atno 6907 bound_to 6896
  151.6130  133.3340  159.3079 H   0  0  0  0  0  0  0  0  0  0  0  0  # atno 6908 bound_to 6896
  150.8086  134.7264  159.6732 H   0  0  0  0  0  0  0  0  0  0  0  0  # atno 6909 bound_to 6896
  145.1955  139.2978  143.4345 H   0  0  0  0  0  0  0  0  0  0  0  0  # atno 7974 bound_to 7965
  154.6694  140.2608  155.7023 H   0  0  0  0  0  0  0  0  0  0  0  0  # atno 8008 bound_to 7997
  156.2652  140.2832  156.1119 H   0  0  0  0  0  0  0  0  0  0  0  0  # atno 8009 bound_to 7997
  155.1190  140.0377  157.2735 H   0  0  0  0  0  0  0  0  0  0  0  0  # atno 8010 bound_to 7997
  139.8699  143.6970  152.2641 H   0  0  0  0  0  0  0  0  0  0  0  0  # atno 10167 bound_to 10162
  156.7012  130.5094  149.5917 H   0  0  0  0  0  0  0  0  0  0  0  0  # atno 10718 bound_to 10713
  153.6580  135.6978  153.5187 H   0  0  0  0  0  0  0  0  0  0  0  0  # atno 10763 bound_to 10752
  153.2654  135.4231  155.0935 H   0  0  0  0  0  0  0  0  0  0  0  0  # atno 10764 bound_to 10752
  154.8459  135.3565  154.6125 H   0  0  0  0  0  0  0  0  0  0  0  0  # atno 10765 bound_to 10752
  139.8786  134.8918  156.4065 H   0  0  0  0  0  0  0  0  0  0  0  0  # atno 11005 bound_to 11000
  146.3428  140.2182  142.8591 LP  0  0  0  0  0  0  0  0  0  0  0  0  # atno 17320 bound_to 7965
  144.9999  140.8622  143.5288 LP  0  0  0  0  0  0  0  0  0  0  0  0  # atno 17321 bound_to 7965
  139.7294  144.7586  151.0827 LP  0  0  0  0  0  0  0  0  0  0  0  0  # atno 17342 bound_to 10162
  140.7762  143.5108  150.9655 LP  0  0  0  0  0  0  0  0  0  0  0  0  # atno 17343 bound_to 10162
  156.1727  130.6448  151.0857 LP  0  0  0  0  0  0  0  0  0  0  0  0  # atno 17370 bound_to 10713
  157.6972  131.0789  150.6932 LP  0  0  0  0  0  0  0  0  0  0  0  0  # atno 17371 bound_to 10713
  140.9230  133.7631  155.9930 LP  0  0  0  0  0  0  0  0  0  0  0  0  # atno 17394 bound_to 11000
  140.8417  134.3058  157.5310 LP  0  0  0  0  0  0  0  0  0  0  0  0  # atno 17395 bound_to 11000

$$$$
