AV-unprocessed.smi:2843|AV-procd|sdf|10938|dock10
  -GOLD-   2272015383D 1   1.00000     0.00000
 Structure written by MMmdl.
 28 28  0  0  0  0  0  0  0  0  2 V2000
  153.6687  141.6883  160.0711 C   0  0  0  0  0  0  0  0  0  0  0  0
  153.1741  140.6680  159.1040 C   0  0  0  0  0  0  0  0  0  0  0  0
  151.9514  140.4368  158.5418 C   0  0  0  0  0  0  0  0  0  0  0  0
  152.1755  139.3153  157.6958 C   0  0  0  0  0  0  0  0  0  0  0  0
  151.1925  138.5995  156.8101 C   0  0  0  0  0  0  0  0  0  0  0  0
  151.7151  138.6968  155.0405 S   0  0  0  0  0  0  0  0  0  0  0  0
  153.0085  139.3997  155.0439 O   0  0  0  0  0  0  0  0  0  0  0  0
  151.7031  137.3182  154.5229 O   0  0  0  0  0  0  0  0  0  0  0  0
  150.5264  139.6094  154.4228 N   0  5  0  0  0  0  0  0  0  0  0  0
  149.1583  139.3952  154.8615 C   0  0  0  0  0  0  0  0  0  0  0  0
  148.1902  140.2499  154.0180 C   0  0  0  0  0  0  0  0  0  0  0  0
  147.9320  141.6705  154.5650 C   0  0  0  0  0  0  0  0  0  0  0  0
  149.1586  142.3582  154.6989 O   0  0  0  0  0  0  0  0  0  0  0  0
  153.4298  138.8969  157.7617 N   0  0  0  0  0  0  0  0  0  0  0  0
  154.0768  139.7590  158.6538 O   0  0  0  0  0  0  0  0  0  0  0  0
  152.9002  141.9300  160.8054 H   0  0  0  0  0  0  0  0  0  0  0  0
  153.9430  142.6073  159.5533 H   0  0  0  0  0  0  0  0  0  0  0  0
  154.5462  141.3268  160.6078 H   0  0  0  0  0  0  0  0  0  0  0  0
  151.0381  140.9908  158.7003 H   0  0  0  0  0  0  0  0  0  0  0  0
  151.0793  137.5504  157.0843 H   0  0  0  0  0  0  0  0  0  0  0  0
  150.2107  139.0649  156.8883 H   0  0  0  0  0  0  0  0  0  0  0  0
  148.8742  138.3469  154.7660 H   0  0  0  0  0  0  0  0  0  0  0  0
  149.0208  139.6444  155.9142 H   0  0  0  0  0  0  0  0  0  0  0  0
  148.5567  140.3114  152.9920 H   0  0  0  0  0  0  0  0  0  0  0  0
  147.2367  139.7236  153.9612 H   0  0  0  0  0  0  0  0  0  0  0  0
  147.2878  142.2477  153.8991 H   0  0  0  0  0  0  0  0  0  0  0  0
  147.4495  141.6436  155.5440 H   0  0  0  0  0  0  0  0  0  0  0  0
  148.9728  143.2703  154.8617 H   0  0  0  0  0  0  0  0  0  0  0  0
  1  2  1  0  0  0  0
  1 16  1  0  0  0  0
  1 17  1  0  0  0  0
  1 18  1  0  0  0  0
  2 15  1  0  0  0  0
  2  3  2  0  0  0  0
  3  4  1  0  0  0  0
  3 19  1  0  0  0  0
  4  5  1  0  0  0  0
  4 14  2  0  0  0  0
  5  6  1  0  0  0  0
  5 20  1  0  0  0  0
  5 21  1  0  0  0  0
  6  7  2  0  0  0  0
  6  8  2  0  0  0  0
  6  9  1  0  0  0  0
  9 10  1  0  0  0  0
 10 11  1  0  0  0  0
 10 22  1  0  0  0  0
 10 23  1  0  0  0  0
 11 12  1  0  0  0  0
 11 24  1  0  0  0  0
 11 25  1  0  0  0  0
 12 13  1  0  0  0  0
 12 26  1  0  0  0  0
 12 27  1  0  0  0  0
 13 28  1  0  0  0  0
 14 15  1  0  0  0  0
M  CHG  1   9  -1
M  END
> <s_m_source_file>
AV-unprocessed.smi

> <i_m_source_file_index>
2843

> <i_lp_mmshare_version>
43012

> <i_f3d_flags>
0

> <s_epik_input>
W0NIM11jMVtjSF1jKG5vMSlbQ0gyXVMoPU8pKD1PKVtOSF1bQ0gyXVtDSDJdW0NIMl1bT0hd

> <s_epik_cmdline>
J2VwaWtfcHl0aG9uJywgJy1waCcsICc3LjAnLCAnLXRuJywgJzgnLCAnLW1hJywgJzIwMCcsICctbWV0YWxfYmluZGluZycsICctaW1hZScsICc8aW5maWxlLm1hZT4nLCAnLW9tYWUnLCAnPG91dGZpbGUubWFlPic=

> <r_lp_tautomer_probability>
1

> <r_epik_Ionization_Penalty>
4.89444

> <r_epik_Ionization_Penalty_Charging>
4.89444

> <r_epik_Ionization_Penalty_Neutral>
8.7324e-07

> <r_epik_State_Penalty>
4.89429

> <r_epik_Charging_Adjusted_Penalty>
9.78873

> <i_epik_Tot_Q>
-1

> <i_epik_Tot_abs_Q>
1

> <r_epik_Metal_State_Penalty>
1.04833

> <b_epik_Metal_Only>
1

> <s_lp_Force_Field>
OPLS_2005

> <r_lp_Energy>
1.63452

> <b_lp_Chiralities_Consistent>
1

> <s_lp_Variant>
AV-unprocessed.smi:2843-2

> <Gold.Version>
5.8.1

> <Gold.Id.Protein>
6NUR|6NUR_protein|mol2

> <Gold.PLP.Fitness>
40.0570

> <Gold.PLP.PLP>
-27.6918

> <Gold.PLP.part.hbond>
-7.4386

> <Gold.PLP.part.metal>
0.0000

> <Gold.PLP.part.buried>
-3.5548

> <Gold.PLP.part.nonpolar>
-17.3945

> <Gold.PLP.part.repulsive>
0.3104

> <Gold.PLP.ligand.clash>
0.0000

> <Gold.PLP.ligand.torsion>
0.8466

> <Gold.PLP.Chemscore.Hbond>
4.3548

> <Gold.PLP.Chemscore.CHOScore>
0.0000

> <Gold.PLP.Chemscore.Metal>
0.0000

> <Gold.Chemscore.Hbonds>
donor molecule, donor type, donor heavy atom, donor atom, acceptor molecule, acceptor atom, score
      L1  H    13    28       P1  8028  1.00
      P1  H  7989  7998       L1     9  0.90
      P1  H  7997  8008       L1    15  0.24
      P1  H  7997  8009       L1     7  1.00
      P1  H 10752 10763       L1     8  0.81

> <Gold.PLP.Chemscore.Internal.Correction>
0.9941

> <Gold.Rescore>
     Score         DG    S(hbond)    S(metal)    S(lipo)     H(rot)  DE(clash)    DE(int)     intcor
     15.70     -16.97       3.61        0.00      54.06       2.69       0.16       1.10       ----

> <Gold.Chemscore.Fitness>
15.6991

> <Gold.Chemscore.DG>
-16.9681

> <Gold.Chemscore.ZeroCoef>
-5.4800

> <Gold.Chemscore.Hbond>
3.6100

> <Gold.Chemscore.Metal>
0.0000

> <Gold.Chemscore.Lipo>
54.0604

> <Gold.Chemscore.Internal_Hbond>
0.0000

> <Gold.Chemscore.DEClash>
0.1644

> <Gold.Chemscore.DEInternal>
1.1047

> <Gold.Chemscore.Rot>
2.6932

> <Gold.Chemscore.Internal.Correction>
   9.000000E+99

> <Gold.Chemscore.Hbonds>
donor molecule, donor type, donor heavy atom, donor atom, acceptor molecule, acceptor atom, score
      L1  H    13    28       P1  8028  0.99
      P1  H  7989  7998       L1     9  0.18
      P1  H  7997  8009       L1     7  1.00
      P1  H 10752 10763       L1     8  0.77

> <Gold.Chemscore.Hbond.Weighted>
-12.0575

> <Gold.Chemscore.Metal.Weighted>
-0.0000

> <Gold.Chemscore.Lipo.Weighted>
-6.3251

> <Gold.Chemscore.Internal_Hbond.Weighted>
0.0000

> <Gold.Chemscore.DEClash.Weighted>
0.1644

> <Gold.Chemscore.DEInternal.Weighted>
1.1047

> <Gold.Chemscore.Rot.Weighted>
6.8945

> <Gold.Chemscore.Internal.Correction.Weighted>
   9.000000E+99

> <Gold.Protein.RotatedTorsions>
[ 6907 6896 6895 6894 ] final  -56.90 input  -60.11 | X-H torsion
[ 7974 7965 7964 7962 ] final  -96.50 input  175.53 | X-H torsion
[ 8008 7997 7996 7995 ] final -128.60 input   59.86 | X-H torsion
[ 10167 10162 10161 10158 ] final  -28.35 input  -65.29 | X-H torsion
[ 10718 10713 10712 10709 ] final  142.44 input   66.30 | X-H torsion
[ 10763 10752 10751 10750 ] final   33.18 input  -60.55 | X-H torsion
[ 11005 11000 10999 10996 ] final  -26.64 input  -57.11 | X-H torsion

> <Gold.Protein.ActiveResidues>
 VAL166  LYS551  ARG553  GLY616  TRP617  ASP618  TYR619  PRO620  LYS621  CYS622 
 ASP623  PHE694  ASN695  SER759  ASP760  ASP761  ALA762  ILE779  LEU786  VAL792 
 PHE793  MET794  SER795  GLU796  ALA797  LYS798  CYS799  TRP800  GLU811  SER814 

> <Gold.Protein.RotatedAtoms>
  150.8130  134.7295  159.6704 H   0  0  0  0  0  0  0  0  0  0  0  0  # atno 6907 bound_to 6896
  152.4249  134.5883  159.9977 H   0  0  0  0  0  0  0  0  0  0  0  0  # atno 6908 bound_to 6896
  151.6088  133.3312  159.3099 H   0  0  0  0  0  0  0  0  0  0  0  0  # atno 6909 bound_to 6896
  145.3461  140.9468  143.2580 H   0  0  0  0  0  0  0  0  0  0  0  0  # atno 7974 bound_to 7965
  155.2654  140.0438  157.3001 H   0  0  0  0  0  0  0  0  0  0  0  0  # atno 8008 bound_to 7997
  154.5685  140.2367  155.8195 H   0  0  0  0  0  0  0  0  0  0  0  0  # atno 8009 bound_to 7997
  156.2104  140.3000  155.9728 H   0  0  0  0  0  0  0  0  0  0  0  0  # atno 8010 bound_to 7997
  140.7270  143.4017  151.1254 H   0  0  0  0  0  0  0  0  0  0  0  0  # atno 10167 bound_to 10162
  157.3805  131.0991  151.0743 H   0  0  0  0  0  0  0  0  0  0  0  0  # atno 10718 bound_to 10713
  153.0225  135.6394  154.1471 H   0  0  0  0  0  0  0  0  0  0  0  0  # atno 10763 bound_to 10752
  154.1204  135.2847  155.3211 H   0  0  0  0  0  0  0  0  0  0  0  0  # atno 10764 bound_to 10752
  154.6268  135.5506  153.7698 H   0  0  0  0  0  0  0  0  0  0  0  0  # atno 10765 bound_to 10752
  140.9048  133.7500  156.0591 H   0  0  0  0  0  0  0  0  0  0  0  0  # atno 11005 bound_to 11000
  144.8753  139.4980  143.6748 LP  0  0  0  0  0  0  0  0  0  0  0  0  # atno 17320 bound_to 7965
  146.2987  139.7359  142.9107 LP  0  0  0  0  0  0  0  0  0  0  0  0  # atno 17321 bound_to 7965
  139.7638  143.8596  152.3106 LP  0  0  0  0  0  0  0  0  0  0  0  0  # atno 17342 bound_to 10162
  139.8491  144.7173  150.9236 LP  0  0  0  0  0  0  0  0  0  0  0  0  # atno 17343 bound_to 10162
  157.1813  130.6311  149.5673 LP  0  0  0  0  0  0  0  0  0  0  0  0  # atno 17370 bound_to 10713
  155.9775  130.4752  150.6595 LP  0  0  0  0  0  0  0  0  0  0  0  0  # atno 17371 bound_to 10713
  140.8185  134.3317  157.5389 LP  0  0  0  0  0  0  0  0  0  0  0  0  # atno 17394 bound_to 11000
  139.8747  134.9295  156.3479 LP  0  0  0  0  0  0  0  0  0  0  0  0  # atno 17395 bound_to 11000

$$$$
