AV-unprocessed.smi:35|AV-procd|sdf|278|dock8
  -GOLD-   2262016 53D 1   1.00000     0.00000
 Structure written by MMmdl.
 28 29  0  0  0  0  0  0  0  0  2 V2000
  151.9413  135.4133  157.2314 O   0  0  0  0  0  0  0  0  0  0  0  0
  151.6021  136.4457  156.6563 C   0  0  0  0  0  0  0  0  0  0  0  0
  152.1086  137.6718  156.9738 N   0  5  0  0  0  0  0  0  0  0  0  0
  151.7185  138.8170  156.3411 C   0  0  0  0  0  0  0  0  0  0  0  0
  152.1825  139.9248  156.6125 O   0  0  0  0  0  0  0  0  0  0  0  0
  150.7304  138.7410  155.3197 N   0  0  0  0  0  0  0  0  0  0  0  0
  150.3047  140.0222  154.6226 C   0  0  1  0  0  0  0  0  0  0  0  0
  149.3616  139.7252  153.6331 O   0  0  0  0  0  0  0  0  0  0  0  0
  148.0488  139.9460  154.1402 C   0  0  2  0  0  0  0  0  0  0  0  0
  147.0186  140.0377  153.0017 C   0  0  0  0  0  0  0  0  0  0  0  0
  147.1371  138.9133  152.1568 O   0  0  0  0  0  0  0  0  0  0  0  0
  148.2429  141.2189  154.9694 C   0  0  2  0  0  0  0  0  0  0  0  0
  148.2241  142.3647  154.1327 O   0  0  0  0  0  0  0  0  0  0  0  0
  149.6086  140.9818  155.6135 C   0  0  2  0  0  0  0  0  0  0  0  0
  150.3247  142.1833  155.8297 O   0  0  0  0  0  0  0  0  0  0  0  0
  150.2217  137.5032  154.9560 C   0  0  0  0  0  0  0  0  0  0  0  0
  150.6164  136.3761  155.5817 C   0  0  0  0  0  0  0  0  0  0  0  0
  149.7992  134.6811  154.9602 Br  0  0  0  0  0  0  0  0  0  0  0  0
  151.2121  140.4174  154.1624 H   0  0  0  0  0  0  0  0  0  0  0  0
  147.7789  139.1368  154.8215 H   0  0  0  0  0  0  0  0  0  0  0  0
  146.0074  140.0364  153.4095 H   0  0  0  0  0  0  0  0  0  0  0  0
  147.1383  140.9564  152.4266 H   0  0  0  0  0  0  0  0  0  0  0  0
  147.9210  139.0133  151.6381 H   0  0  0  0  0  0  0  0  0  0  0  0
  147.4611  141.3355  155.7206 H   0  0  0  0  0  0  0  0  0  0  0  0
  148.2070  143.1317  154.6851 H   0  0  0  0  0  0  0  0  0  0  0  0
  149.4682  140.4748  156.5695 H   0  0  0  0  0  0  0  0  0  0  0  0
  149.7128  142.9023  155.7730 H   0  0  0  0  0  0  0  0  0  0  0  0
  149.4990  137.4157  154.1598 H   0  0  0  0  0  0  0  0  0  0  0  0
  1  2  2  0  0  0  0
  2 17  1  0  0  0  0
  2  3  1  0  0  0  0
  3  4  1  0  0  0  0
  4  5  2  0  0  0  0
  4  6  1  0  0  0  0
  6  7  1  0  0  0  0
  6 16  1  0  0  0  0
  7 14  1  0  0  0  0
  7  8  1  0  0  0  0
  7 19  1  0  0  0  0
  8  9  1  0  0  0  0
  9 10  1  0  0  0  0
  9 12  1  0  0  0  0
  9 20  1  0  0  0  0
 10 11  1  0  0  0  0
 10 21  1  0  0  0  0
 10 22  1  0  0  0  0
 11 23  1  0  0  0  0
 12 13  1  0  0  0  0
 12 14  1  0  0  0  0
 12 24  1  0  0  0  0
 13 25  1  0  0  0  0
 14 15  1  0  0  0  0
 14 26  1  0  0  0  0
 15 27  1  0  0  0  0
 16 17  2  0  0  0  0
 16 28  1  0  0  0  0
 17 18  1  0  0  0  0
M  CHG  1   3  -1
M  END
> <s_m_source_file>
AV-unprocessed.smi

> <i_m_source_file_index>
35

> <i_lp_mmshare_version>
43012

> <i_f3d_flags>
0

> <s_epik_input>
Tz1jMVtuSF1jKD1PKW4oW2NIXWMxQnIpW0NAQEhdMk9bQ0BASF0oW0NIMl1bT0hdKVtDQEBIXShbT0hdKVtDQEhdMltPSF0=

> <s_epik_cmdline>
J2VwaWtfcHl0aG9uJywgJy1waCcsICc3LjAnLCAnLXRuJywgJzgnLCAnLW1hJywgJzIwMCcsICctbWV0YWxfYmluZGluZycsICctaW1hZScsICc8aW5maWxlLm1hZT4nLCAnLW9tYWUnLCAnPG91dGZpbGUubWFlPic=

> <r_epik_Ionization_Penalty>
1.06112

> <r_epik_Ionization_Penalty_Charging>
2.1796e-09

> <r_epik_Ionization_Penalty_Neutral>
1.06112

> <r_epik_State_Penalty>
1.11484

> <r_epik_Charging_Adjusted_Penalty>
1.11484

> <i_epik_Tot_Q>
-1

> <i_epik_Tot_abs_Q>
1

> <r_epik_Metal_State_Penalty>
0.0032876

> <b_epik_Metal_Only>
0

> <s_epik_Chemistry_Notes>
This compound contains an acetal/aminal-like group ( X-CH(R)-Y where X, Y are N, S, or O) that may be acid/base labile, releasing an aldehyde.

> <s_lp_Force_Field>
OPLS_2005

> <r_lp_Energy>
41.3474

> <b_lp_Chiralities_Consistent>
1

> <s_lp_Variant>
AV-unprocessed.smi:35-32

> <Gold.Version>
5.8.1

> <Gold.Id.Protein>
6NUR|6NUR_protein|mol2

> <Gold.PLP.Fitness>
39.7071

> <Gold.PLP.PLP>
-23.8579

> <Gold.PLP.part.hbond>
-6.9725

> <Gold.PLP.part.metal>
0.0000

> <Gold.PLP.part.buried>
2.4522

> <Gold.PLP.part.nonpolar>
-22.3420

> <Gold.PLP.part.repulsive>
4.8945

> <Gold.PLP.ligand.clash>
0.0000

> <Gold.PLP.ligand.torsion>
0.0678

> <Gold.PLP.Chemscore.Hbond>
4.3763

> <Gold.PLP.Chemscore.CHOScore>
0.9454

> <Gold.PLP.Chemscore.Metal>
0.0000

> <Gold.Chemscore.Hbonds>
donor molecule, donor type, donor heavy atom, donor atom, acceptor molecule, acceptor atom, score
      L1  H    11    23       P1  7957  1.00
      L1  H    13    25       P1  8028  1.00
      L1  H    15    27       P1  8028  1.00
      P1  H  7997  8008       L1     5  0.63
      P1  H  8011  8017       L1    13  0.03
      L1  C    16    28       P1  7948  0.78

> <Gold.PLP.Chemscore.Internal.Correction>
0.0197

> <Gold.Rescore>
     Score         DG    S(hbond)    S(metal)    S(lipo)     H(rot)  DE(clash)    DE(int)     intcor
      9.95     -14.33       3.93        0.00      42.92       3.63       3.26       1.12       ----

> <Gold.Chemscore.Fitness>
9.9484

> <Gold.Chemscore.DG>
-14.3338

> <Gold.Chemscore.ZeroCoef>
-5.4800

> <Gold.Chemscore.Hbond>
3.9265

> <Gold.Chemscore.Metal>
0.0000

> <Gold.Chemscore.Lipo>
42.9246

> <Gold.Chemscore.Internal_Hbond>
0.0000

> <Gold.Chemscore.DEClash>
3.2629

> <Gold.Chemscore.DEInternal>
1.1224

> <Gold.Chemscore.Rot>
3.6261

> <Gold.Chemscore.Internal.Correction>
   9.000000E+99

> <Gold.Chemscore.Hbonds>
donor molecule, donor type, donor heavy atom, donor atom, acceptor molecule, acceptor atom, score
      L1  H    11    23       P1  7957  0.84
      L1  H    13    25       P1  8028  0.97
      L1  H    15    27       P1  8028  0.96
      P1  H  7997  8008       L1     5  0.58
      P1  H  8011  8017       L1    13  0.03

> <Gold.Chemscore.Hbond.Weighted>
-13.1144

> <Gold.Chemscore.Metal.Weighted>
-0.0000

> <Gold.Chemscore.Lipo.Weighted>
-5.0222

> <Gold.Chemscore.Internal_Hbond.Weighted>
0.0000

> <Gold.Chemscore.DEClash.Weighted>
3.2629

> <Gold.Chemscore.DEInternal.Weighted>
1.1224

> <Gold.Chemscore.Rot.Weighted>
9.2828

> <Gold.Chemscore.Internal.Correction.Weighted>
   9.000000E+99

> <Gold.Protein.RotatedTorsions>
[ 6907 6896 6895 6894 ] final   28.91 input  -60.11 | X-H torsion
[ 7974 7965 7964 7962 ] final   24.88 input  175.53 | X-H torsion
[ 8008 7997 7996 7995 ] final  -41.97 input   59.86 | X-H torsion
[ 10167 10162 10161 10158 ] final -162.49 input  -65.29 | X-H torsion
[ 10718 10713 10712 10709 ] final  -90.52 input   66.30 | X-H torsion
[ 10763 10752 10751 10750 ] final  129.82 input  -60.55 | X-H torsion
[ 11005 11000 10999 10996 ] final   45.93 input  -57.11 | X-H torsion

> <Gold.Protein.ActiveResidues>
 VAL166  LYS551  ARG553  GLY616  TRP617  ASP618  TYR619  PRO620  LYS621  CYS622 
 ASP623  PHE694  ASN695  SER759  ASP760  ASP761  ALA762  ILE779  LEU786  VAL792 
 PHE793  MET794  SER795  GLU796  ALA797  LYS798  CYS799  TRP800  GLU811  SER814 

> <Gold.Protein.RotatedAtoms>
  152.0238  134.9807  160.0570 H   0  0  0  0  0  0  0  0  0  0  0  0  # atno 6907 bound_to 6896
  152.1311  133.4403  159.4729 H   0  0  0  0  0  0  0  0  0  0  0  0  # atno 6908 bound_to 6896
  150.6856  134.2338  159.4488 H   0  0  0  0  0  0  0  0  0  0  0  0  # atno 6909 bound_to 6896
  146.1916  139.7543  142.8828 H   0  0  0  0  0  0  0  0  0  0  0  0  # atno 7974 bound_to 7965
  154.4001  140.1485  156.3279 H   0  0  0  0  0  0  0  0  0  0  0  0  # atno 8008 bound_to 7997
  155.8470  140.3459  155.5647 H   0  0  0  0  0  0  0  0  0  0  0  0  # atno 8009 bound_to 7997
  155.8025  140.0872  157.1939 H   0  0  0  0  0  0  0  0  0  0  0  0  # atno 8010 bound_to 7997
  139.6388  144.0298  152.2076 H   0  0  0  0  0  0  0  0  0  0  0  0  # atno 10167 bound_to 10162
  155.9988  130.4913  150.5335 H   0  0  0  0  0  0  0  0  0  0  0  0  # atno 10718 bound_to 10713
  153.7480  135.3214  155.3316 H   0  0  0  0  0  0  0  0  0  0  0  0  # atno 10763 bound_to 10752
  154.8273  135.4560  154.0961 H   0  0  0  0  0  0  0  0  0  0  0  0  # atno 10764 bound_to 10752
  153.2155  135.6941  153.8145 H   0  0  0  0  0  0  0  0  0  0  0  0  # atno 10765 bound_to 10752
  140.1415  134.4577  155.8446 H   0  0  0  0  0  0  0  0  0  0  0  0  # atno 11005 bound_to 11000
  145.3775  141.0353  143.3196 LP  0  0  0  0  0  0  0  0  0  0  0  0  # atno 17320 bound_to 7965
  144.8497  139.5341  143.6862 LP  0  0  0  0  0  0  0  0  0  0  0  0  # atno 17321 bound_to 7965
  139.9983  144.6312  150.7753 LP  0  0  0  0  0  0  0  0  0  0  0  0  # atno 17342 bound_to 10162
  140.7480  143.2915  151.3318 LP  0  0  0  0  0  0  0  0  0  0  0  0  # atno 17343 bound_to 10162
  157.3281  131.0694  151.1881 LP  0  0  0  0  0  0  0  0  0  0  0  0  # atno 17370 bound_to 10713
  157.2771  130.6732  149.6048 LP  0  0  0  0  0  0  0  0  0  0  0  0  # atno 17371 bound_to 10713
  141.2186  133.6835  156.7255 LP  0  0  0  0  0  0  0  0  0  0  0  0  # atno 17394 bound_to 11000
  140.2716  134.8387  157.3852 LP  0  0  0  0  0  0  0  0  0  0  0  0  # atno 17395 bound_to 11000

$$$$
