AV-unprocessed.smi:2967|AV-procd|sdf|11326|dock4
  -GOLD-   2272016233D 1   1.00000     0.00000
 Structure written by MMmdl.
 38 39  0  0  0  0  0  0  0  0  1 V2000
  151.4118  140.7490  156.0895 O   0  0  0  0  0  0  0  0  0  0  0  0
  150.6024  141.6580  155.8988 C   0  0  0  0  0  0  0  0  0  0  0  0
  149.4873  141.5149  154.8526 C   0  0  0  0  0  0  0  0  0  0  0  0
  148.9189  140.1602  154.7894 N   0  0  0  0  0  0  0  0  0  0  0  0
  147.5756  139.9517  155.0686 C   0  0  0  0  0  0  0  0  0  0  0  0
  146.9877  138.7325  155.0362 C   0  0  0  0  0  0  0  0  0  0  0  0
  147.7657  137.5461  154.6957 C   0  0  0  0  0  0  0  0  0  0  0  0
  147.3234  136.4011  154.6364 O   0  0  0  0  0  0  0  0  0  0  0  0
  149.1137  137.7961  154.4255 N   0  0  0  0  0  0  0  0  0  0  0  0
  149.7265  139.0498  154.4593 C   0  0  0  0  0  0  0  0  0  0  0  0
  150.9263  139.1586  154.2082 O   0  0  0  0  0  0  0  0  0  0  0  0
  150.6192  142.8134  156.5815 N   0  0  0  0  0  0  0  0  0  0  0  0
  151.5805  143.1760  157.6204 C   0  0  0  0  0  0  0  0  0  0  0  0
  151.5036  142.1304  158.7525 C   0  0  0  0  0  0  0  0  0  0  0  0
  152.6869  142.2078  159.7321 C   0  0  0  0  0  0  0  0  0  0  0  0
  152.5198  143.1929  160.9026 C   0  0  0  0  0  0  0  0  0  0  0  0
  151.8493  144.5391  160.5779 C   0  0  0  0  0  0  0  0  0  0  0  0
  152.2098  145.1393  159.2098 C   0  0  0  0  0  0  0  0  0  0  0  0
  151.3062  144.6240  158.0764 C   0  0  0  0  0  0  0  0  0  0  0  0
  149.6932  137.0039  154.1888 H   0  0  0  0  0  0  0  0  0  0  0  0
  148.7069  142.2403  155.0870 H   0  0  0  0  0  0  0  0  0  0  0  0
  149.8676  141.8084  153.8720 H   0  0  0  0  0  0  0  0  0  0  0  0
  146.9610  140.8016  155.3300 H   0  0  0  0  0  0  0  0  0  0  0  0
  145.9363  138.6342  155.2642 H   0  0  0  0  0  0  0  0  0  0  0  0
  149.9132  143.5005  156.3601 H   0  0  0  0  0  0  0  0  0  0  0  0
  152.5839  143.1310  157.1922 H   0  0  0  0  0  0  0  0  0  0  0  0
  150.5538  142.1934  159.2849 H   0  0  0  0  0  0  0  0  0  0  0  0
  151.5236  141.1386  158.2978 H   0  0  0  0  0  0  0  0  0  0  0  0
  152.8594  141.2175  160.1547 H   0  0  0  0  0  0  0  0  0  0  0  0
  153.5988  142.4438  159.1820 H   0  0  0  0  0  0  0  0  0  0  0  0
  151.9481  142.7118  161.6971 H   0  0  0  0  0  0  0  0  0  0  0  0
  153.5068  143.3807  161.3271 H   0  0  0  0  0  0  0  0  0  0  0  0
  150.7662  144.4359  160.6546 H   0  0  0  0  0  0  0  0  0  0  0  0
  152.1240  145.2475  161.3604 H   0  0  0  0  0  0  0  0  0  0  0  0
  152.0741  146.2197  159.2727 H   0  0  0  0  0  0  0  0  0  0  0  0
  153.2640  144.9859  158.9763 H   0  0  0  0  0  0  0  0  0  0  0  0
  151.4348  145.2845  157.2179 H   0  0  0  0  0  0  0  0  0  0  0  0
  150.2608  144.7284  158.3707 H   0  0  0  0  0  0  0  0  0  0  0  0
  1  2  2  0  0  0  0
  2  3  1  0  0  0  0
  2 12  1  0  0  0  0
  3  4  1  0  0  0  0
  3 21  1  0  0  0  0
  3 22  1  0  0  0  0
  4 10  1  0  0  0  0
  4  5  1  0  0  0  0
  5  6  2  0  0  0  0
  5 23  1  0  0  0  0
  6  7  1  0  0  0  0
  6 24  1  0  0  0  0
  7  8  2  0  0  0  0
  7  9  1  0  0  0  0
  9 20  1  0  0  0  0
  9 10  1  0  0  0  0
 10 11  2  0  0  0  0
 12 13  1  0  0  0  0
 12 25  1  0  0  0  0
 13 19  1  0  0  0  0
 13 14  1  0  0  0  0
 13 26  1  0  0  0  0
 14 15  1  0  0  0  0
 14 27  1  0  0  0  0
 14 28  1  0  0  0  0
 15 16  1  0  0  0  0
 15 29  1  0  0  0  0
 15 30  1  0  0  0  0
 16 17  1  0  0  0  0
 16 31  1  0  0  0  0
 16 32  1  0  0  0  0
 17 18  1  0  0  0  0
 17 33  1  0  0  0  0
 17 34  1  0  0  0  0
 18 19  1  0  0  0  0
 18 35  1  0  0  0  0
 18 36  1  0  0  0  0
 19 37  1  0  0  0  0
 19 38  1  0  0  0  0
M  END
> <s_m_source_file>
AV-unprocessed.smi

> <i_m_source_file_index>
2967

> <i_lp_mmshare_version>
43012

> <i_f3d_flags>
0

> <s_epik_input>
W0NIMl0xW0NIMl1bQ0gyXVtDSDJdW0NIMl1bQ0gyXVtDSF0xW05IXUMoPU8pW0NIMl1uMltjSF1bY0hdYyg9TylbbkhdYzI9Tw==

> <s_epik_cmdline>
J2VwaWtfcHl0aG9uJywgJy1waCcsICc3LjAnLCAnLXRuJywgJzgnLCAnLW1hJywgJzIwMCcsICctbWV0YWxfYmluZGluZycsICctaW1hZScsICc8aW5maWxlLm1hZT4nLCAnLW9tYWUnLCAnPG91dGZpbGUubWFlPic=

> <r_lp_tautomer_probability>
0.999537

> <r_epik_Ionization_Penalty>
0.00321433

> <r_epik_Ionization_Penalty_Charging>
0.00321431

> <r_epik_Ionization_Penalty_Neutral>
2.02148e-08

> <r_epik_State_Penalty>
0.00226744

> <r_epik_Charging_Adjusted_Penalty>
0.00548175

> <i_epik_Tot_Q>
0

> <i_epik_Tot_abs_Q>
0

> <r_epik_Metal_State_Penalty>
0.364272

> <b_epik_Metal_Only>
0

> <s_lp_Force_Field>
OPLS_2005

> <r_lp_Energy>
14.3008

> <b_lp_Chiralities_Consistent>
1

> <s_lp_Variant>
AV-unprocessed.smi:2967-1

> <Gold.Version>
5.8.1

> <Gold.Id.Protein>
6NUR|6NUR_protein|mol2

> <Gold.PLP.Fitness>
44.9567

> <Gold.PLP.PLP>
-39.5859

> <Gold.PLP.part.hbond>
-3.0000

> <Gold.PLP.part.metal>
0.0000

> <Gold.PLP.part.buried>
-5.7473

> <Gold.PLP.part.nonpolar>
-31.0334

> <Gold.PLP.part.repulsive>
0.3465

> <Gold.PLP.ligand.clash>
0.0000

> <Gold.PLP.ligand.torsion>
0.3223

> <Gold.PLP.Chemscore.Hbond>
2.0000

> <Gold.PLP.Chemscore.CHOScore>
0.0000

> <Gold.PLP.Chemscore.Metal>
0.0000

> <Gold.Chemscore.Hbonds>
donor molecule, donor type, donor heavy atom, donor atom, acceptor molecule, acceptor atom, score
      L1  H    12    25       P1  8028  1.00
      P1  H  7989  7998       L1    11  1.00

> <Gold.PLP.Chemscore.Internal.Correction>
0.0153

> <Gold.Rescore>
     Score         DG    S(hbond)    S(metal)    S(lipo)     H(rot)  DE(clash)    DE(int)     intcor
     14.62     -18.76       2.01        0.00      93.21       1.69       0.08       4.07       ----

> <Gold.Chemscore.Fitness>
14.6177

> <Gold.Chemscore.DG>
-18.7646

> <Gold.Chemscore.ZeroCoef>
-5.4800

> <Gold.Chemscore.Hbond>
2.0057

> <Gold.Chemscore.Metal>
0.0000

> <Gold.Chemscore.Lipo>
93.2089

> <Gold.Chemscore.Internal_Hbond>
0.0000

> <Gold.Chemscore.DEClash>
0.0779

> <Gold.Chemscore.DEInternal>
4.0689

> <Gold.Chemscore.Rot>
1.6874

> <Gold.Chemscore.Internal.Correction>
   9.000000E+99

> <Gold.Chemscore.Hbonds>
donor molecule, donor type, donor heavy atom, donor atom, acceptor molecule, acceptor atom, score
      L1  H    12    25       P1  8028  1.00
      P1  H  7989  7998       L1    11  0.95

> <Gold.Chemscore.Hbond.Weighted>
-6.6990

> <Gold.Chemscore.Metal.Weighted>
-0.0000

> <Gold.Chemscore.Lipo.Weighted>
-10.9054

> <Gold.Chemscore.Internal_Hbond.Weighted>
0.0000

> <Gold.Chemscore.DEClash.Weighted>
0.0779

> <Gold.Chemscore.DEInternal.Weighted>
4.0689

> <Gold.Chemscore.Rot.Weighted>
4.3198

> <Gold.Chemscore.Internal.Correction.Weighted>
   9.000000E+99

> <Gold.Protein.RotatedTorsions>
[ 6907 6896 6895 6894 ] final  -57.91 input  -60.11 | X-H torsion
[ 7974 7965 7964 7962 ] final   59.92 input  175.53 | X-H torsion
[ 8008 7997 7996 7995 ] final  -77.84 input   59.86 | X-H torsion
[ 10167 10162 10161 10158 ] final  -20.36 input  -65.29 | X-H torsion
[ 10718 10713 10712 10709 ] final  154.79 input   66.30 | X-H torsion
[ 10763 10752 10751 10750 ] final  162.14 input  -60.55 | X-H torsion
[ 11005 11000 10999 10996 ] final   20.76 input  -57.11 | X-H torsion

> <Gold.Protein.ActiveResidues>
 VAL166  LYS551  ARG553  GLY616  TRP617  ASP618  TYR619  PRO620  LYS621  CYS622 
 ASP623  PHE694  ASN695  SER759  ASP760  ASP761  ALA762  ILE779  LEU786  VAL792 
 PHE793  MET794  SER795  GLU796  ALA797  LYS798  CYS799  TRP800  GLU811  SER814 

> <Gold.Protein.RotatedAtoms>
  150.8048  134.7166  159.6633 H   0  0  0  0  0  0  0  0  0  0  0  0  # atno 6907 bound_to 6896
  152.4167  134.6025  160.0014 H   0  0  0  0  0  0  0  0  0  0  0  0  # atno 6908 bound_to 6896
  151.6252  133.3299  159.3133 H   0  0  0  0  0  0  0  0  0  0  0  0  # atno 6909 bound_to 6896
  145.9018  139.3587  143.0588 H   0  0  0  0  0  0  0  0  0  0  0  0  # atno 7974 bound_to 7965
  154.5633  140.0704  156.8853 H   0  0  0  0  0  0  0  0  0  0  0  0  # atno 8008 bound_to 7997
  155.2770  140.3369  155.4243 H   0  0  0  0  0  0  0  0  0  0  0  0  # atno 8009 bound_to 7997
  156.2060  140.1740  156.7784 H   0  0  0  0  0  0  0  0  0  0  0  0  # atno 8010 bound_to 7997
  140.7275  143.4730  151.0221 H   0  0  0  0  0  0  0  0  0  0  0  0  # atno 10167 bound_to 10162
  157.2270  131.0731  151.1877 H   0  0  0  0  0  0  0  0  0  0  0  0  # atno 10718 bound_to 10713
  154.2738  135.2765  155.2727 H   0  0  0  0  0  0  0  0  0  0  0  0  # atno 10763 bound_to 10752
  154.5278  135.5738  153.6737 H   0  0  0  0  0  0  0  0  0  0  0  0  # atno 10764 bound_to 10752
  152.9940  135.6220  154.2894 H   0  0  0  0  0  0  0  0  0  0  0  0  # atno 10765 bound_to 10752
  140.3990  134.1738  155.7663 H   0  0  0  0  0  0  0  0  0  0  0  0  # atno 11005 bound_to 11000
  145.8781  140.9379  143.0615 LP  0  0  0  0  0  0  0  0  0  0  0  0  # atno 17320 bound_to 7965
  144.6736  140.0744  143.7472 LP  0  0  0  0  0  0  0  0  0  0  0  0  # atno 17321 bound_to 7965
  139.8423  143.7547  152.3180 LP  0  0  0  0  0  0  0  0  0  0  0  0  # atno 17342 bound_to 10162
  139.7700  144.7479  151.0238 LP  0  0  0  0  0  0  0  0  0  0  0  0  # atno 17343 bound_to 10162
  157.3517  130.7085  149.6445 LP  0  0  0  0  0  0  0  0  0  0  0  0  # atno 17370 bound_to 10713
  155.9678  130.4250  150.4636 LP  0  0  0  0  0  0  0  0  0  0  0  0  # atno 17371 bound_to 10713
  141.1863  133.8304  157.1072 LP  0  0  0  0  0  0  0  0  0  0  0  0  # atno 17394 bound_to 11000
  140.0350  134.9882  157.0853 LP  0  0  0  0  0  0  0  0  0  0  0  0  # atno 17395 bound_to 11000

$$$$
