#       Name:                AV-unprocessed.smi:1641
#       Creating user name   scv26
#       Creation time:       Fri Mar 27 07:25:21 2020


#       File generated by GOLD software.
#

@<TRIPOS>MOLECULE
AV-unprocessed.smi:1641
    48    49     1
SMALL
NO_CHARGES


@<TRIPOS>ATOM
      1 ****        -3.8459   6.5125   3.3178 C.3            1 S1                 0.0000
      2 ****        -3.0185   5.8121   2.2951 C.2            1 S1                 0.0000
      3 ****        -1.7135   6.0466   2.1371 N.2            1 S1                 0.0000
      4 ****        -1.1624   5.2732   1.1256 N.2            1 S1                 0.0000
      5 ****        -2.0532   4.4594   0.5411 C.2            1 S1                 0.0000
      6 ****        -1.7216   3.6292  -0.4616 N.pl3          1 S1                -1.0000
      7 ****        -1.4312   2.3355  -0.1986 C.2            1 S1                 0.0000
      8 ****        -1.4303   1.7963   0.9107 O.2            1 S1                 0.0000
      9 ****        -1.1193   1.6203  -1.2887 N.am           1 S1                 0.0000
     10 ****        -0.7527   0.2093  -1.3008 C.3            1 S1                 0.0000
     11 ****         0.7135   0.0098  -0.8750 C.3            1 S1                 0.0000
     12 ****         1.1148  -1.4181  -0.9033 N.4            1 S1                 1.0000
     13 ****         2.5789  -1.5934  -1.0516 C.3            1 S1                 0.0000
     14 ****         2.9555  -3.0855  -1.1400 C.3            1 S1                 0.0000
     15 ****         2.5924  -3.7334  -2.4882 C.3            1 S1                 0.0000
     16 ****         2.4069  -3.7997  -0.0321 O.3            1 S1                 0.0000
     17 ****         0.9948  -3.6772   0.1194 C.3            1 S1                 0.0000
     18 ****         0.5810  -4.4928   1.3493 C.3            1 S1                 0.0000
     19 ****         0.6205  -2.1910   0.2615 C.3            1 S1                 0.0000
     20 ****        -3.6815   4.6094   1.2014 S.3            1 S1                 0.0000
     21 ****        -3.7174   6.0363   4.2899 H              1 S1                 0.0000
     22 ****        -4.9004   6.4716   3.0436 H              1 S1                 0.0000
     23 ****        -3.5471   7.5582   3.3954 H              1 S1                 0.0000
     24 ****        -1.1354   2.0994  -2.1774 H              1 S1                 0.0000
     25 ****        -1.4376  -0.3465  -0.6599 H              1 S1                 0.0000
     26 ****        -0.9001  -0.1692  -2.3126 H              1 S1                 0.0000
     27 ****         1.3436   0.5752  -1.5634 H              1 S1                 0.0000
     28 ****         0.8979   0.4229   0.1180 H              1 S1                 0.0000
     29 ****         2.9337  -1.0685  -1.9396 H              1 S1                 0.0000
     30 ****         3.0791  -1.1379  -0.1953 H              1 S1                 0.0000
     31 ****         4.0387  -3.1596  -1.0386 H              1 S1                 0.0000
     32 ****         3.1329  -3.2539  -3.3048 H              1 S1                 0.0000
     33 ****         1.5295  -3.6535  -2.7141 H              1 S1                 0.0000
     34 ****         2.8580  -4.7908  -2.4951 H              1 S1                 0.0000
     35 ****         0.4924  -4.1006  -0.7505 H              1 S1                 0.0000
     36 ****        -0.4967  -4.4445   1.5083 H              1 S1                 0.0000
     37 ****         1.0692  -4.1228   2.2514 H              1 S1                 0.0000
     38 ****         0.8522  -5.5421   1.2305 H              1 S1                 0.0000
     39 ****         1.0470  -1.7800   1.1782 H              1 S1                 0.0000
     40 ****        -0.4617  -2.0987   0.3467 H              1 S1                 0.0000
     41 ****         0.6950  -1.8190  -1.7298 H              1 S1                 0.0000
     42 ****        -1.1940   6.7031   2.6840 LP             1 S1                 0.0000
     43 ****        -0.1995   5.3182   0.8598 LP             1 S1                 0.0000
     44 ****        -1.6896   3.9681  -1.4019 LP             1 S1                 0.0000
     45 ****        -1.6607   2.3284   1.7255 LP             1 S1                 0.0000
     46 ****        -1.1992   0.8271   0.9953 LP             1 S1                 0.0000
     47 ****         2.8398  -3.4590   0.8025 LP             1 S1                 0.0000
     48 ****         2.6241  -4.7688  -0.1486 LP             1 S1                 0.0000
@<TRIPOS>BOND
    1    1    2 1     
    2    1   21 1     
    3    1   22 1     
    4    1   23 1     
    5    2   20 1     
    6    2    3 2     
    7    3    4 1     
    8    4    5 2     
    9    5    6 1     
   10    5   20 1     
   11    6    7 1     
   12    7    8 2     
   13    7    9 am    
   14    9   10 1     
   15    9   24 1     
   16   10   11 1     
   17   10   25 1     
   18   10   26 1     
   19   11   12 1     
   20   11   27 1     
   21   11   28 1     
   22   12   19 1     
   23   12   13 1     
   24   12   41 1     
   25   13   14 1     
   26   13   29 1     
   27   13   30 1     
   28   14   15 1     
   29   14   16 1     
   30   14   31 1     
   31   15   32 1     
   32   15   33 1     
   33   15   34 1     
   34   16   17 1     
   35   17   18 1     
   36   17   19 1     
   37   17   35 1     
   38   18   36 1     
   39   18   37 1     
   40   18   38 1     
   41   19   39 1     
   42   19   40 1     
   43    3   42 1     
   44    4   43 1     
   45    6   44 1     
   46    8   45 1     
   47    8   46 1     
   48   16   47 1     
   49   16   48 1     
@<TRIPOS>SUBSTRUCTURE
      1 S1             1
@<TRIPOS>SET
LONE_PAIRS      STATIC     ATOMS    <user>   **** ""
7 42 43 44 45 46 47 48
DONOR_HYDROGENS      STATIC     ATOMS    <user>   **** ""
2 24 41
ATOM$BLUE        STATIC     ATOMS    COLORGROUP SYSTEM
7 42 43 44 45 46 47 48
ATOM$RED        STATIC     ATOMS    COLORGROUP SYSTEM
2 24 41
