AV-unprocessed.smi:1464|AV-procd|sdf|5936|dock5
  -GOLD-   22720 6 13D 1   1.00000     0.00000
 Structure written by MMmdl.
 40 41  0  0  0  0  0  0  0  0  2 V2000
  144.4045  133.8292  162.4030 C   0  0  0  0  0  0  0  0  0  0  0  0
  145.4124  134.9903  162.4323 C   0  0  1  0  0  0  0  0  0  0  0  0
  146.8404  134.5164  162.0938 C   0  0  0  0  0  0  0  0  0  0  0  0
  147.8593  135.6596  162.2232 C   0  0  0  0  0  0  0  0  0  0  0  0
  147.4539  136.8747  161.3756 C   0  0  0  0  0  0  0  0  0  0  0  0
  146.0291  137.3473  161.7230 C   0  0  1  0  0  0  0  0  0  0  0  0
  145.6894  138.5240  160.9264 N   0  0  0  0  0  0  0  0  0  0  0  0
  144.4580  139.0390  160.7873 C   0  0  0  0  0  0  0  0  0  0  0  0
  143.4675  138.5818  161.3594 O   0  0  0  0  0  0  0  0  0  0  0  0
  144.3409  140.2652  159.8690 C   0  0  0  0  0  0  0  0  0  0  0  0
  144.5662  141.5417  160.5627 N   0  0  0  0  0  0  0  0  0  0  0  0
  145.9131  142.0797  160.3917 N   0  5  0  0  0  0  0  0  0  0  0  0
  146.2466  143.2411  161.0146 C   0  0  0  0  0  0  0  0  0  0  0  0
  147.3659  143.7423  160.9353 O   0  0  0  0  0  0  0  0  0  0  0  0
  145.2257  143.9139  161.8005 C   0  0  0  0  0  0  0  0  0  0  0  0
  143.9800  143.4121  161.9129 C   0  0  0  0  0  0  0  0  0  0  0  0
  143.5802  142.1672  161.2681 C   0  0  0  0  0  0  0  0  0  0  0  0
  142.4400  141.7100  161.3558 O   0  0  0  0  0  0  0  0  0  0  0  0
  144.9894  136.2031  161.5605 C   0  0  1  0  0  0  0  0  0  0  0  0
  144.7110  135.8377  160.0835 C   0  0  0  0  0  0  0  0  0  0  0  0
  144.3824  133.3354  161.4317 H   0  0  0  0  0  0  0  0  0  0  0  0
  143.3960  134.1775  162.6274 H   0  0  0  0  0  0  0  0  0  0  0  0
  144.6627  133.0727  163.1444 H   0  0  0  0  0  0  0  0  0  0  0  0
  145.4334  135.3423  163.4651 H   0  0  0  0  0  0  0  0  0  0  0  0
  147.1282  133.7019  162.7593 H   0  0  0  0  0  0  0  0  0  0  0  0
  146.8717  134.1080  161.0834 H   0  0  0  0  0  0  0  0  0  0  0  0
  147.9390  135.9584  163.2692 H   0  0  0  0  0  0  0  0  0  0  0  0
  148.8489  135.3115  161.9262 H   0  0  0  0  0  0  0  0  0  0  0  0
  148.1656  137.6843  161.5415 H   0  0  0  0  0  0  0  0  0  0  0  0
  147.5217  136.6221  160.3169 H   0  0  0  0  0  0  0  0  0  0  0  0
  146.0400  137.6508  162.7720 H   0  0  0  0  0  0  0  0  0  0  0  0
  146.4445  138.9672  160.4238 H   0  0  0  0  0  0  0  0  0  0  0  0
  145.0523  140.1395  159.0509 H   0  0  0  0  0  0  0  0  0  0  0  0
  143.3549  140.2824  159.4008 H   0  0  0  0  0  0  0  0  0  0  0  0
  145.4701  144.8385  162.3023 H   0  0  0  0  0  0  0  0  0  0  0  0
  143.2522  143.9472  162.5044 H   0  0  0  0  0  0  0  0  0  0  0  0
  144.0438  136.5674  161.9652 H   0  0  0  0  0  0  0  0  0  0  0  0
  145.5938  135.4379  159.5862 H   0  0  0  0  0  0  0  0  0  0  0  0
  144.3772  136.7042  159.5128 H   0  0  0  0  0  0  0  0  0  0  0  0
  143.9191  135.0947  159.9978 H   0  0  0  0  0  0  0  0  0  0  0  0
  1  2  1  0  0  0  0
  1 21  1  0  0  0  0
  1 22  1  0  0  0  0
  1 23  1  0  0  0  0
  2 19  1  0  0  0  0
  2  3  1  0  0  0  0
  2 24  1  0  0  0  0
  3  4  1  0  0  0  0
  3 25  1  0  0  0  0
  3 26  1  0  0  0  0
  4  5  1  0  0  0  0
  4 27  1  0  0  0  0
  4 28  1  0  0  0  0
  5  6  1  0  0  0  0
  5 29  1  0  0  0  0
  5 30  1  0  0  0  0
  6  7  1  0  0  0  0
  6 19  1  0  0  0  0
  6 31  1  0  0  0  0
  7  8  1  0  0  0  0
  7 32  1  0  0  0  0
  8  9  2  0  0  0  0
  8 10  1  0  0  0  0
 10 33  1  0  0  0  0
 10 34  1  0  0  0  0
 10 11  1  0  0  0  0
 11 12  1  0  0  0  0
 11 17  1  0  0  0  0
 12 13  1  0  0  0  0
 13 14  2  0  0  0  0
 13 15  1  0  0  0  0
 15 35  1  0  0  0  0
 15 16  2  0  0  0  0
 16 36  1  0  0  0  0
 16 17  1  0  0  0  0
 17 18  2  0  0  0  0
 19 20  1  0  0  0  0
 19 37  1  0  0  0  0
 20 38  1  0  0  0  0
 20 39  1  0  0  0  0
 20 40  1  0  0  0  0
M  CHG  1  12  -1
M  END
> <s_m_source_file>
AV-unprocessed.smi

> <i_m_source_file_index>
1464

> <i_lp_mmshare_version>
43012

> <i_f3d_flags>
0

> <s_epik_input>
W0NIM11bQ0BASF0xW0NIMl1bQ0gyXVtDSDJdW0NASF0oW0NASF0xW0NIM10pW05IXUMoPU8pW0NIMl1uMltuSF1jKD1PKVtjSF1bY0hdYzI9Tw==

> <s_epik_cmdline>
J2VwaWtfcHl0aG9uJywgJy1waCcsICc3LjAnLCAnLXRuJywgJzgnLCAnLW1hJywgJzIwMCcsICctbWV0YWxfYmluZGluZycsICctaW1hZScsICc8aW5maWxlLm1hZT4nLCAnLW9tYWUnLCAnPG91dGZpbGUubWFlPic=

> <r_lp_tautomer_probability>
1

> <r_epik_Ionization_Penalty>
0.101366

> <r_epik_Ionization_Penalty_Charging>
0.101366

> <r_epik_Ionization_Penalty_Neutral>
1.90469e-08

> <r_epik_State_Penalty>
0.035861

> <r_epik_Charging_Adjusted_Penalty>
0.137227

> <i_epik_Tot_Q>
-1

> <i_epik_Tot_abs_Q>
1

> <r_epik_Metal_State_Penalty>
0.035861

> <b_epik_Metal_Only>
0

> <s_lp_Force_Field>
OPLS_2005

> <r_lp_Energy>
30.1614

> <b_lp_Chiralities_Consistent>
1

> <s_lp_Variant>
AV-unprocessed.smi:1464-2

> <Gold.Version>
5.8.1

> <Gold.Id.Protein>
6NUR|6NUR_protein|mol2

> <Gold.PLP.Fitness>
40.5686

> <Gold.PLP.PLP>
-33.3144

> <Gold.PLP.part.hbond>
-4.0000

> <Gold.PLP.part.metal>
0.0000

> <Gold.PLP.part.buried>
-4.3590

> <Gold.PLP.part.nonpolar>
-29.1018

> <Gold.PLP.part.repulsive>
4.4814

> <Gold.PLP.ligand.clash>
0.0000

> <Gold.PLP.ligand.torsion>
0.8821

> <Gold.PLP.Chemscore.Hbond>
3.0000

> <Gold.PLP.Chemscore.CHOScore>
0.0000

> <Gold.PLP.Chemscore.Metal>
0.0000

> <Gold.Chemscore.Hbonds>
donor molecule, donor type, donor heavy atom, donor atom, acceptor molecule, acceptor atom, score
      P1  H  6933  6944       L1    14  1.00
      P1  H  6934  6946       L1    12  2.00

> <Gold.PLP.Chemscore.Internal.Correction>
0.0184

> <Gold.Rescore>
     Score         DG    S(hbond)    S(metal)    S(lipo)     H(rot)  DE(clash)    DE(int)     intcor
     10.98     -14.52       1.77        0.00      62.57       1.64       1.28       2.26       ----

> <Gold.Chemscore.Fitness>
10.9753

> <Gold.Chemscore.DG>
-14.5197

> <Gold.Chemscore.ZeroCoef>
-5.4800

> <Gold.Chemscore.Hbond>
1.7746

> <Gold.Chemscore.Metal>
0.0000

> <Gold.Chemscore.Lipo>
62.5678

> <Gold.Chemscore.Internal_Hbond>
0.0000

> <Gold.Chemscore.DEClash>
1.2839

> <Gold.Chemscore.DEInternal>
2.2605

> <Gold.Chemscore.Rot>
1.6438

> <Gold.Chemscore.Internal.Correction>
   9.000000E+99

> <Gold.Chemscore.Hbonds>
donor molecule, donor type, donor heavy atom, donor atom, acceptor molecule, acceptor atom, score
      P1  H  6933  6944       L1    14  0.45
      P1  H  6934  6946       L1    12  0.43

> <Gold.Chemscore.Hbond.Weighted>
-5.9273

> <Gold.Chemscore.Metal.Weighted>
-0.0000

> <Gold.Chemscore.Lipo.Weighted>
-7.3204

> <Gold.Chemscore.Internal_Hbond.Weighted>
0.0000

> <Gold.Chemscore.DEClash.Weighted>
1.2839

> <Gold.Chemscore.DEInternal.Weighted>
2.2605

> <Gold.Chemscore.Rot.Weighted>
4.2080

> <Gold.Chemscore.Internal.Correction.Weighted>
   9.000000E+99

> <Gold.Protein.RotatedTorsions>
[ 6907 6896 6895 6894 ] final -118.55 input  -60.11 | X-H torsion
[ 7974 7965 7964 7962 ] final  -27.14 input  175.53 | X-H torsion
[ 8008 7997 7996 7995 ] final  -48.82 input   59.86 | X-H torsion
[ 10167 10162 10161 10158 ] final  -28.55 input  -65.29 | X-H torsion
[ 10718 10713 10712 10709 ] final  163.92 input   66.30 | X-H torsion
[ 10763 10752 10751 10750 ] final -131.51 input  -60.55 | X-H torsion
[ 11005 11000 10999 10996 ] final  -72.60 input  -57.11 | X-H torsion

> <Gold.Protein.ActiveResidues>
 VAL166  LYS551  ARG553  GLY616  TRP617  ASP618  TYR619  PRO620  LYS621  CYS622 
 ASP623  PHE694  ASN695  SER759  ASP760  ASP761  ALA762  ILE779  LEU786  VAL792 
 PHE793  MET794  SER795  GLU796  ALA797  LYS798  CYS799  TRP800  GLU811  SER814 

> <Gold.Protein.RotatedAtoms>
  150.8229  133.8221  159.3130 H   0  0  0  0  0  0  0  0  0  0  0  0  # atno 6907 bound_to 6896
  151.5974  135.1048  160.0062 H   0  0  0  0  0  0  0  0  0  0  0  0  # atno 6908 bound_to 6896
  152.4317  133.7248  159.6610 H   0  0  0  0  0  0  0  0  0  0  0  0  # atno 6909 bound_to 6896
  146.1378  140.5113  142.8665 H   0  0  0  0  0  0  0  0  0  0  0  0  # atno 7974 bound_to 7965
  154.4034  140.1312  156.4401 H   0  0  0  0  0  0  0  0  0  0  0  0  # atno 8008 bound_to 7997
  155.7467  140.3489  155.5110 H   0  0  0  0  0  0  0  0  0  0  0  0  # atno 8009 bound_to 7997
  155.8988  140.1016  157.1355 H   0  0  0  0  0  0  0  0  0  0  0  0  # atno 8010 bound_to 7997
  140.7269  143.4001  151.1280 H   0  0  0  0  0  0  0  0  0  0  0  0  # atno 10167 bound_to 10162
  157.1017  131.0444  151.2495 H   0  0  0  0  0  0  0  0  0  0  0  0  # atno 10718 bound_to 10713
  154.8750  135.3828  154.4258 H   0  0  0  0  0  0  0  0  0  0  0  0  # atno 10763 bound_to 10752
  153.4957  135.7030  153.5865 H   0  0  0  0  0  0  0  0  0  0  0  0  # atno 10764 bound_to 10752
  153.4219  135.3899  155.2083 H   0  0  0  0  0  0  0  0  0  0  0  0  # atno 10765 bound_to 10752
  141.1611  133.6852  156.7084 H   0  0  0  0  0  0  0  0  0  0  0  0  # atno 11005 bound_to 11000
  144.7758  140.5737  143.6639 LP  0  0  0  0  0  0  0  0  0  0  0  0  # atno 17320 bound_to 7965
  145.5117  139.1479  143.3601 LP  0  0  0  0  0  0  0  0  0  0  0  0  # atno 17321 bound_to 7965
  139.7619  143.8622  152.3102 LP  0  0  0  0  0  0  0  0  0  0  0  0  # atno 17342 bound_to 10162
  139.8511  144.7164  150.9213 LP  0  0  0  0  0  0  0  0  0  0  0  0  # atno 17343 bound_to 10162
  157.4635  130.7667  149.7257 LP  0  0  0  0  0  0  0  0  0  0  0  0  # atno 17370 bound_to 10713
  155.9872  130.3969  150.3177 LP  0  0  0  0  0  0  0  0  0  0  0  0  # atno 17371 bound_to 10713
  140.2906  134.8244  157.4013 LP  0  0  0  0  0  0  0  0  0  0  0  0  # atno 17394 bound_to 11000
  140.1350  134.5045  155.8075 LP  0  0  0  0  0  0  0  0  0  0  0  0  # atno 17395 bound_to 11000

$$$$
