AV-unprocessed.smi:2988|AV-procd|sdf|11389|dock5
  -GOLD-   2272016313D 1   1.00000     0.00000
 Structure written by MMmdl.
 37 38  0  0  0  0  0  0  0  0  1 V2000
  149.4000  140.3562  154.4726 C   0  0  0  0  0  0  0  0  0  0  0  0
  148.0703  140.8722  155.0497 C   0  0  2  0  0  0  0  0  0  0  0  0
  147.5804  142.1297  154.3022 C   0  0  0  0  0  0  0  0  0  0  0  0
  146.2150  142.6025  154.8260 C   0  0  0  0  0  0  0  0  0  0  0  0
  146.2498  142.8459  156.3422 C   0  0  0  0  0  0  0  0  0  0  0  0
  146.7414  141.5976  157.0966 C   0  0  0  0  0  0  0  0  0  0  0  0
  148.1106  141.1077  156.5831 C   0  0  2  0  0  0  0  0  0  0  0  0
  149.1492  142.0658  156.9661 N   0  0  0  0  0  0  0  0  0  0  0  0
  150.2757  141.7887  157.6403 C   0  0  0  0  0  0  0  0  0  0  0  0
  150.5649  140.6644  158.0512 O   0  0  0  0  0  0  0  0  0  0  0  0
  151.2176  142.9723  157.8954 C   0  0  0  0  0  0  0  0  0  0  0  0
  151.8059  142.9380  159.2417 N   0  0  0  0  0  0  0  0  0  0  0  0
  151.4476  144.0062  160.0452 N   0  0  0  0  0  0  0  0  0  0  0  0
  151.8892  144.0661  161.2541 C   0  0  0  0  0  0  0  0  0  0  0  0
  152.7587  143.0518  161.8082 C   0  0  0  0  0  0  0  0  0  0  0  0
  153.3179  143.1847  163.4382 Cl  0  0  0  0  0  0  0  0  0  0  0  0
  153.1115  142.0139  161.0089 C   0  0  0  0  0  0  0  0  0  0  0  0
  154.1509  140.7627  161.5994 Cl  0  0  0  0  0  0  0  0  0  0  0  0
  152.6286  141.9131  159.6249 C   0  0  0  0  0  0  0  0  0  0  0  0
  152.9303  140.9903  158.8666 O   0  0  0  0  0  0  0  0  0  0  0  0
  150.1850  141.1109  154.5261 H   0  0  0  0  0  0  0  0  0  0  0  0
  149.2876  140.0770  153.4248 H   0  0  0  0  0  0  0  0  0  0  0  0
  149.7466  139.4744  155.0122 H   0  0  0  0  0  0  0  0  0  0  0  0
  147.3335  140.0872  154.8716 H   0  0  0  0  0  0  0  0  0  0  0  0
  148.3110  142.9333  154.4055 H   0  0  0  0  0  0  0  0  0  0  0  0
  147.5051  141.9217  153.2343 H   0  0  0  0  0  0  0  0  0  0  0  0
  145.9151  143.5153  154.3104 H   0  0  0  0  0  0  0  0  0  0  0  0
  145.4563  141.8536  154.5945 H   0  0  0  0  0  0  0  0  0  0  0  0
  146.9017  143.6923  156.5615 H   0  0  0  0  0  0  0  0  0  0  0  0
  145.2570  143.1253  156.6955 H   0  0  0  0  0  0  0  0  0  0  0  0
  146.7911  141.8036  158.1665 H   0  0  0  0  0  0  0  0  0  0  0  0
  146.0081  140.7991  156.9772 H   0  0  0  0  0  0  0  0  0  0  0  0
  148.3138  140.1526  157.0707 H   0  0  0  0  0  0  0  0  0  0  0  0
  149.0045  143.0212  156.6733 H   0  0  0  0  0  0  0  0  0  0  0  0
  152.0089  142.9965  157.1434 H   0  0  0  0  0  0  0  0  0  0  0  0
  150.6493  143.8928  157.7507 H   0  0  0  0  0  0  0  0  0  0  0  0
  151.6307  144.8858  161.9247 H   0  0  0  0  0  0  0  0  0  0  0  0
  1  2  1  0  0  0  0
  1 21  1  0  0  0  0
  1 22  1  0  0  0  0
  1 23  1  0  0  0  0
  2  7  1  0  0  0  0
  2  3  1  0  0  0  0
  2 24  1  0  0  0  0
  3  4  1  0  0  0  0
  3 25  1  0  0  0  0
  3 26  1  0  0  0  0
  4  5  1  0  0  0  0
  4 27  1  0  0  0  0
  4 28  1  0  0  0  0
  5  6  1  0  0  0  0
  5 29  1  0  0  0  0
  5 30  1  0  0  0  0
  6  7  1  0  0  0  0
  6 31  1  0  0  0  0
  6 32  1  0  0  0  0
  7  8  1  0  0  0  0
  7 33  1  0  0  0  0
  8  9  1  0  0  0  0
  8 34  1  0  0  0  0
  9 10  2  0  0  0  0
  9 11  1  0  0  0  0
 11 12  1  0  0  0  0
 11 35  1  0  0  0  0
 11 36  1  0  0  0  0
 12 19  1  0  0  0  0
 12 13  1  0  0  0  0
 13 14  2  0  0  0  0
 14 15  1  0  0  0  0
 14 37  1  0  0  0  0
 15 16  1  0  0  0  0
 15 17  2  0  0  0  0
 17 18  1  0  0  0  0
 17 19  1  0  0  0  0
 19 20  2  0  0  0  0
M  END
> <s_m_source_file>
AV-unprocessed.smi

> <i_m_source_file_index>
2988

> <i_lp_mmshare_version>
43012

> <i_f3d_flags>
0

> <s_epik_input>
W0NIM11bQ0BASF0xW0NIMl1bQ0gyXVtDSDJdW0NIMl1bQ0BIXTFbTkhdQyg9TylbQ0gyXW4ybltjSF1jKENsKWMoQ2wpYzI9Tw==

> <s_epik_cmdline>
J2VwaWtfcHl0aG9uJywgJy1waCcsICc3LjAnLCAnLXRuJywgJzgnLCAnLW1hJywgJzIwMCcsICctbWV0YWxfYmluZGluZycsICctaW1hZScsICc8aW5maWxlLm1hZT4nLCAnLW9tYWUnLCAnPG91dGZpbGUubWFlPic=

> <r_lp_tautomer_probability>
1

> <r_epik_Ionization_Penalty>
1.90782e-08

> <r_epik_Ionization_Penalty_Charging>
3.13143e-11

> <r_epik_Ionization_Penalty_Neutral>
1.90469e-08

> <r_epik_State_Penalty>
-0

> <r_epik_Charging_Adjusted_Penalty>
3.13143e-11

> <i_epik_Tot_Q>
0

> <i_epik_Tot_abs_Q>
0

> <r_epik_Metal_State_Penalty>
-0

> <b_epik_Metal_Only>
0

> <s_lp_Force_Field>
OPLS_2005

> <r_lp_Energy>
23.4163

> <b_lp_Chiralities_Consistent>
1

> <s_lp_Variant>
AV-unprocessed.smi:2988-3

> <Gold.Version>
5.8.1

> <Gold.Id.Protein>
6NUR|6NUR_protein|mol2

> <Gold.PLP.Fitness>
46.5164

> <Gold.PLP.PLP>
-44.2062

> <Gold.PLP.part.hbond>
-1.2071

> <Gold.PLP.part.metal>
0.0000

> <Gold.PLP.part.buried>
-4.0257

> <Gold.PLP.part.nonpolar>
-37.7256

> <Gold.PLP.part.repulsive>
0.0706

> <Gold.PLP.ligand.clash>
0.0000

> <Gold.PLP.ligand.torsion>
0.3483

> <Gold.PLP.Chemscore.Hbond>
1.0000

> <Gold.PLP.Chemscore.CHOScore>
0.0000

> <Gold.PLP.Chemscore.Metal>
0.0000

> <Gold.Chemscore.Hbonds>
donor molecule, donor type, donor heavy atom, donor atom, acceptor molecule, acceptor atom, score
      L1  H     8    34       P1  8028  1.00

> <Gold.PLP.Chemscore.Internal.Correction>
0.0067

> <Gold.Rescore>
     Score         DG    S(hbond)    S(metal)    S(lipo)     H(rot)  DE(clash)    DE(int)     intcor
     13.58     -16.65       0.99        0.00      99.92       1.50       0.09       2.98       ----

> <Gold.Chemscore.Fitness>
13.5788

> <Gold.Chemscore.DG>
-16.6479

> <Gold.Chemscore.ZeroCoef>
-5.4800

> <Gold.Chemscore.Hbond>
0.9914

> <Gold.Chemscore.Metal>
0.0000

> <Gold.Chemscore.Lipo>
99.9209

> <Gold.Chemscore.Internal_Hbond>
0.0000

> <Gold.Chemscore.DEClash>
0.0930

> <Gold.Chemscore.DEInternal>
2.9761

> <Gold.Chemscore.Rot>
1.4977

> <Gold.Chemscore.Internal.Correction>
   9.000000E+99

> <Gold.Chemscore.Hbonds>
donor molecule, donor type, donor heavy atom, donor atom, acceptor molecule, acceptor atom, score
      L1  H     8    34       P1  8028  0.95

> <Gold.Chemscore.Hbond.Weighted>
-3.3112

> <Gold.Chemscore.Metal.Weighted>
-0.0000

> <Gold.Chemscore.Lipo.Weighted>
-11.6907

> <Gold.Chemscore.Internal_Hbond.Weighted>
0.0000

> <Gold.Chemscore.DEClash.Weighted>
0.0930

> <Gold.Chemscore.DEInternal.Weighted>
2.9761

> <Gold.Chemscore.Rot.Weighted>
3.8341

> <Gold.Chemscore.Internal.Correction.Weighted>
   9.000000E+99

> <Gold.Protein.RotatedTorsions>
[ 6907 6896 6895 6894 ] final  118.45 input  -60.11 | X-H torsion
[ 7974 7965 7964 7962 ] final -159.93 input  175.53 | X-H torsion
[ 8008 7997 7996 7995 ] final -102.10 input   59.86 | X-H torsion
[ 10167 10162 10161 10158 ] final    9.62 input  -65.29 | X-H torsion
[ 10718 10713 10712 10709 ] final   10.40 input   66.30 | X-H torsion
[ 10763 10752 10751 10750 ] final  169.36 input  -60.55 | X-H torsion
[ 11005 11000 10999 10996 ] final -107.12 input  -57.11 | X-H torsion

> <Gold.Protein.ActiveResidues>
 VAL166  LYS551  ARG553  GLY616  TRP617  ASP618  TYR619  PRO620  LYS621  CYS622 
 ASP623  PHE694  ASN695  SER759  ASP760  ASP761  ALA762  ILE779  LEU786  VAL792 
 PHE793  MET794  SER795  GLU796  ALA797  LYS798  CYS799  TRP800  GLU811  SER814 

> <Gold.Protein.RotatedAtoms>
  152.4542  133.7689  159.6787 H   0  0  0  0  0  0  0  0  0  0  0  0  # atno 6907 bound_to 6896
  150.8463  133.7847  159.3048 H   0  0  0  0  0  0  0  0  0  0  0  0  # atno 6908 bound_to 6896
  151.5456  135.1071  159.9989 H   0  0  0  0  0  0  0  0  0  0  0  0  # atno 6909 bound_to 6896
  144.7446  140.3615  143.6095 H   0  0  0  0  0  0  0  0  0  0  0  0  # atno 7974 bound_to 7965
  154.8519  140.0430  157.1609 H   0  0  0  0  0  0  0  0  0  0  0  0  # atno 8008 bound_to 7997
  154.8934  140.2990  155.5337 H   0  0  0  0  0  0  0  0  0  0  0  0  # atno 8009 bound_to 7997
  156.2996  140.2389  156.3952 H   0  0  0  0  0  0  0  0  0  0  0  0  # atno 8010 bound_to 7997
  140.6244  143.8133  150.7215 H   0  0  0  0  0  0  0  0  0  0  0  0  # atno 10167 bound_to 10162
  156.9804  130.6003  149.5676 H   0  0  0  0  0  0  0  0  0  0  0  0  # atno 10718 bound_to 10713
  154.3820  135.2753  155.2206 H   0  0  0  0  0  0  0  0  0  0  0  0  # atno 10763 bound_to 10752
  154.4309  135.5977  153.6071 H   0  0  0  0  0  0  0  0  0  0  0  0  # atno 10764 bound_to 10752
  152.9834  135.5995  154.4063 H   0  0  0  0  0  0  0  0  0  0  0  0  # atno 10765 bound_to 10752
  141.0970  133.8953  157.1938 H   0  0  0  0  0  0  0  0  0  0  0  0  # atno 11005 bound_to 11000
  145.7172  139.1700  143.2505 LP  0  0  0  0  0  0  0  0  0  0  0  0  # atno 17320 bound_to 7965
  146.1303  140.7194  142.9415 LP  0  0  0  0  0  0  0  0  0  0  0  0  # atno 17321 bound_to 7965
  140.1731  143.4178  152.1987 LP  0  0  0  0  0  0  0  0  0  0  0  0  # atno 17342 bound_to 10162
  139.5467  144.7304  151.4562 LP  0  0  0  0  0  0  0  0  0  0  0  0  # atno 17343 bound_to 10162
  156.0246  130.5341  150.8372 LP  0  0  0  0  0  0  0  0  0  0  0  0  # atno 17370 bound_to 10713
  157.5530  131.0944  150.9669 LP  0  0  0  0  0  0  0  0  0  0  0  0  # atno 17371 bound_to 10713
  139.9810  135.0098  156.9748 LP  0  0  0  0  0  0  0  0  0  0  0  0  # atno 17394 bound_to 11000
  140.5116  134.0997  155.7271 LP  0  0  0  0  0  0  0  0  0  0  0  0  # atno 17395 bound_to 11000

$$$$
