AV-unprocessed.smi:1166|AV-procd|sdf|4937|dock1
  -GOLD-   22720 3523D 1   1.00000     0.00000
 Structure written by MMmdl.
 46 47  0  0  0  0  0  0  0  0  1 V2000
  149.7685  127.9965  154.3042 C   0  0  0  0  0  0  0  0  0  0  0  0
  148.8449  128.9340  153.6734 N   0  0  0  0  0  0  0  0  0  0  0  0
  147.7389  128.4322  152.8672 C   0  0  0  0  0  0  0  0  0  0  0  0
  149.0605  130.3257  153.7979 C   0  0  0  0  0  0  0  0  0  0  0  0
  150.0532  130.8462  154.6649 C   0  0  0  0  0  0  0  0  0  0  0  0
  150.2300  132.2402  154.7562 C   0  0  0  0  0  0  0  0  0  0  0  0
  149.4147  133.0885  153.9725 C   0  0  0  0  0  0  0  0  0  0  0  0
  149.4782  134.5084  153.9879 N   0  0  0  0  0  0  0  0  0  0  0  0
  150.0875  135.3143  154.8744 C   0  0  0  0  0  0  0  0  0  0  0  0
  150.7512  134.9408  155.8411 O   0  0  0  0  0  0  0  0  0  0  0  0
  149.8982  136.6043  154.5624 N   0  0  0  0  0  0  0  0  0  0  0  0
  150.4234  137.7397  155.3144 C   0  0  1  0  0  0  0  0  0  0  0  0
  151.6132  138.3785  154.5790 C   0  0  0  0  0  0  0  0  0  0  0  0
  152.1093  139.6001  155.3603 C   0  0  0  0  0  0  0  0  0  0  0  0
  150.9752  140.6134  155.5941 C   0  0  0  0  0  0  0  0  0  0  0  0
  149.7991  139.9805  156.2253 N   0  0  0  0  0  0  0  0  0  0  0  0
  149.5086  140.1887  157.9285 S   0  0  0  0  0  0  0  0  0  0  0  0
  150.6165  141.5766  158.4089 C   0  0  0  0  0  0  0  0  0  0  0  0
  148.1168  140.6346  158.0948 O   0  0  0  0  0  0  0  0  0  0  0  0
  149.9714  138.9733  158.6159 O   0  0  0  0  0  0  0  0  0  0  0  0
  149.3021  138.7740  155.5340 C   0  0  0  0  0  0  0  0  0  0  0  0
  148.4478  132.4807  153.1481 C   0  0  0  0  0  0  0  0  0  0  0  0
  148.2758  131.1458  153.0569 N   0  0  0  0  0  0  0  0  0  0  0  0
  149.7965  128.1534  155.3829 H   0  0  0  0  0  0  0  0  0  0  0  0
  150.7761  128.1271  153.9081 H   0  0  0  0  0  0  0  0  0  0  0  0
  149.4711  126.9630  154.1266 H   0  0  0  0  0  0  0  0  0  0  0  0
  147.8293  128.7754  151.8363 H   0  0  0  0  0  0  0  0  0  0  0  0
  146.7854  128.7760  153.2688 H   0  0  0  0  0  0  0  0  0  0  0  0
  147.7196  127.3422  152.8533 H   0  0  0  0  0  0  0  0  0  0  0  0
  150.6806  130.2056  155.2657 H   0  0  0  0  0  0  0  0  0  0  0  0
  150.9754  132.6242  155.4344 H   0  0  0  0  0  0  0  0  0  0  0  0
  149.0381  134.9664  153.2032 H   0  0  0  0  0  0  0  0  0  0  0  0
  149.3441  136.8185  153.7462 H   0  0  0  0  0  0  0  0  0  0  0  0
  150.7625  137.3840  156.2876 H   0  0  0  0  0  0  0  0  0  0  0  0
  152.4248  137.6589  154.4653 H   0  0  0  0  0  0  0  0  0  0  0  0
  151.3164  138.6792  153.5731 H   0  0  0  0  0  0  0  0  0  0  0  0
  152.5280  139.2786  156.3131 H   0  0  0  0  0  0  0  0  0  0  0  0
  152.9242  140.0796  154.8174 H   0  0  0  0  0  0  0  0  0  0  0  0
  151.3301  141.4466  156.2001 H   0  0  0  0  0  0  0  0  0  0  0  0
  150.6648  141.0392  154.6393 H   0  0  0  0  0  0  0  0  0  0  0  0
  150.4831  141.7863  159.4699 H   0  0  0  0  0  0  0  0  0  0  0  0
  150.3635  142.4686  157.8385 H   0  0  0  0  0  0  0  0  0  0  0  0
  151.6550  141.3022  158.2329 H   0  0  0  0  0  0  0  0  0  0  0  0
  148.8870  139.0797  154.5728 H   0  0  0  0  0  0  0  0  0  0  0  0
  148.4794  138.3313  156.0954 H   0  0  0  0  0  0  0  0  0  0  0  0
  147.7910  133.0830  152.5377 H   0  0  0  0  0  0  0  0  0  0  0  0
  1  2  1  0  0  0  0
  1 24  1  0  0  0  0
  1 25  1  0  0  0  0
  1 26  1  0  0  0  0
  2  3  1  0  0  0  0
  2  4  1  0  0  0  0
  3 27  1  0  0  0  0
  3 28  1  0  0  0  0
  3 29  1  0  0  0  0
  4 23  1  0  0  0  0
  4  5  2  0  0  0  0
  5  6  1  0  0  0  0
  5 30  1  0  0  0  0
  6  7  2  0  0  0  0
  6 31  1  0  0  0  0
  7  8  1  0  0  0  0
  7 22  1  0  0  0  0
  8  9  1  0  0  0  0
  8 32  1  0  0  0  0
  9 10  2  0  0  0  0
  9 11  1  0  0  0  0
 11 12  1  0  0  0  0
 11 33  1  0  0  0  0
 12 21  1  0  0  0  0
 12 13  1  0  0  0  0
 12 34  1  0  0  0  0
 13 14  1  0  0  0  0
 13 35  1  0  0  0  0
 13 36  1  0  0  0  0
 14 15  1  0  0  0  0
 14 37  1  0  0  0  0
 14 38  1  0  0  0  0
 15 16  1  0  0  0  0
 15 39  1  0  0  0  0
 15 40  1  0  0  0  0
 16 17  1  0  0  0  0
 16 21  1  0  0  0  0
 17 18  1  0  0  0  0
 17 19  2  0  0  0  0
 17 20  2  0  0  0  0
 18 41  1  0  0  0  0
 18 42  1  0  0  0  0
 18 43  1  0  0  0  0
 21 44  1  0  0  0  0
 21 45  1  0  0  0  0
 22 23  2  0  0  0  0
 22 46  1  0  0  0  0
M  END
> <s_m_source_file>
AV-unprocessed.smi

> <i_m_source_file_index>
1166

> <i_lp_mmshare_version>
43012

> <i_f3d_flags>
0

> <s_epik_input>
W0NIM11OKFtDSDNdKWMxW2NIXVtjSF1jKFtjSF1uMSlbTkhdQyg9TylbTkhdW0NAQEhdMltDSDJdW0NIMl1bQ0gyXU4oW0NIMl0yKVMoPU8pKD1PKVtDSDNd

> <s_epik_cmdline>
J2VwaWtfcHl0aG9uJywgJy1waCcsICc3LjAnLCAnLXRuJywgJzgnLCAnLW1hJywgJzIwMCcsICctbWV0YWxfYmluZGluZycsICctaW1hZScsICc8aW5maWxlLm1hZT4nLCAnLW9tYWUnLCAnPG91dGZpbGUubWFlPic=

> <r_lp_tautomer_probability>
1

> <r_epik_Ionization_Penalty>
0.585334

> <r_epik_Ionization_Penalty_Charging>
0

> <r_epik_Ionization_Penalty_Neutral>
0.585334

> <r_epik_State_Penalty>
0.597345

> <r_epik_Charging_Adjusted_Penalty>
0.597345

> <i_epik_Tot_Q>
0

> <i_epik_Tot_abs_Q>
0

> <r_epik_Metal_State_Penalty>
0.29678

> <b_epik_Metal_Only>
0

> <s_lp_Force_Field>
OPLS_2005

> <r_lp_Energy>
2.0747

> <b_lp_Chiralities_Consistent>
1

> <s_lp_Variant>
AV-unprocessed.smi:1166-4

> <Gold.Version>
5.8.1

> <Gold.Id.Protein>
6NUR|6NUR_protein|mol2

> <Gold.PLP.Fitness>
40.1630

> <Gold.PLP.PLP>
-35.4232

> <Gold.PLP.part.hbond>
-2.8811

> <Gold.PLP.part.metal>
0.0000

> <Gold.PLP.part.buried>
-3.7597

> <Gold.PLP.part.nonpolar>
-29.4139

> <Gold.PLP.part.repulsive>
0.8049

> <Gold.PLP.ligand.clash>
0.0000

> <Gold.PLP.ligand.torsion>
1.4625

> <Gold.PLP.Chemscore.Hbond>
1.8640

> <Gold.PLP.Chemscore.CHOScore>
0.0000

> <Gold.PLP.Chemscore.Metal>
0.0000

> <Gold.Chemscore.Hbonds>
donor molecule, donor type, donor heavy atom, donor atom, acceptor molecule, acceptor atom, score
      L1  H     8    32       P1  7948  0.85
      L1  H    11    33       P1  7948  0.85

> <Gold.PLP.Chemscore.Internal.Correction>
2.0728

> <Gold.Rescore>
     Score         DG    S(hbond)    S(metal)    S(lipo)     H(rot)  DE(clash)    DE(int)     intcor
     12.86     -15.51       1.28        0.00      70.90       1.00       0.06       2.58       ----

> <Gold.Chemscore.Fitness>
12.8635

> <Gold.Chemscore.DG>
-15.5063

> <Gold.Chemscore.ZeroCoef>
-5.4800

> <Gold.Chemscore.Hbond>
1.2847

> <Gold.Chemscore.Metal>
0.0000

> <Gold.Chemscore.Lipo>
70.9004

> <Gold.Chemscore.Internal_Hbond>
0.0000

> <Gold.Chemscore.DEClash>
0.0643

> <Gold.Chemscore.DEInternal>
2.5785

> <Gold.Chemscore.Rot>
1.0000

> <Gold.Chemscore.Internal.Correction>
   9.000000E+99

> <Gold.Chemscore.Hbonds>
donor molecule, donor type, donor heavy atom, donor atom, acceptor molecule, acceptor atom, score
      L1  H     8    32       P1  7948  0.14
      L1  H    11    33       P1  7948  0.77

> <Gold.Chemscore.Hbond.Weighted>
-4.2909

> <Gold.Chemscore.Metal.Weighted>
-0.0000

> <Gold.Chemscore.Lipo.Weighted>
-8.2953

> <Gold.Chemscore.Internal_Hbond.Weighted>
0.0000

> <Gold.Chemscore.DEClash.Weighted>
0.0643

> <Gold.Chemscore.DEInternal.Weighted>
2.5785

> <Gold.Chemscore.Rot.Weighted>
2.5600

> <Gold.Chemscore.Internal.Correction.Weighted>
   9.000000E+99

> <Gold.Protein.RotatedTorsions>
[ 6907 6896 6895 6894 ] final  166.90 input  -60.11 | X-H torsion
[ 7974 7965 7964 7962 ] final  -45.30 input  175.53 | X-H torsion
[ 8008 7997 7996 7995 ] final  156.23 input   59.86 | X-H torsion
[ 10167 10162 10161 10158 ] final -136.13 input  -65.29 | X-H torsion
[ 10718 10713 10712 10709 ] final  167.29 input   66.30 | X-H torsion
[ 10763 10752 10751 10750 ] final  113.68 input  -60.55 | X-H torsion
[ 11005 11000 10999 10996 ] final -127.35 input  -57.11 | X-H torsion

> <Gold.Protein.ActiveResidues>
 VAL166  LYS551  ARG553  GLY616  TRP617  ASP618  TYR619  PRO620  LYS621  CYS622 
 ASP623  PHE694  ASN695  SER759  ASP760  ASP761  ALA762  ILE779  LEU786  VAL792 
 PHE793  MET794  SER795  GLU796  ALA797  LYS798  CYS799  TRP800  GLU811  SER814 

> <Gold.Protein.RotatedAtoms>
  151.8717  133.3477  159.3736 H   0  0  0  0  0  0  0  0  0  0  0  0  # atno 6907 bound_to 6896
  150.7151  134.5106  159.5615 H   0  0  0  0  0  0  0  0  0  0  0  0  # atno 6908 bound_to 6896
  152.2640  134.8004  160.0476 H   0  0  0  0  0  0  0  0  0  0  0  0  # atno 6909 bound_to 6896
  145.9834  140.7259  142.9352 H   0  0  0  0  0  0  0  0  0  0  0  0  # atno 7974 bound_to 7965
  156.2434  140.1918  156.6924 H   0  0  0  0  0  0  0  0  0  0  0  0  # atno 8008 bound_to 7997
  154.6242  140.0604  156.9679 H   0  0  0  0  0  0  0  0  0  0  0  0  # atno 8009 bound_to 7997
  155.1813  140.3276  155.4377 H   0  0  0  0  0  0  0  0  0  0  0  0  # atno 8010 bound_to 7997
  139.8709  143.6958  152.2640 H   0  0  0  0  0  0  0  0  0  0  0  0  # atno 10167 bound_to 10162
  157.0536  131.0320  151.2672 H   0  0  0  0  0  0  0  0  0  0  0  0  # atno 10718 bound_to 10713
  153.4961  135.3648  155.2516 H   0  0  0  0  0  0  0  0  0  0  0  0  # atno 10763 bound_to 10752
  154.8750  135.3989  154.3532 H   0  0  0  0  0  0  0  0  0  0  0  0  # atno 10764 bound_to 10752
  153.4160  135.7079  153.6392 H   0  0  0  0  0  0  0  0  0  0  0  0  # atno 10765 bound_to 10752
  140.9607  134.0941  157.3971 H   0  0  0  0  0  0  0  0  0  0  0  0  # atno 11005 bound_to 11000
  144.6868  140.2947  143.7272 LP  0  0  0  0  0  0  0  0  0  0  0  0  # atno 17320 bound_to 7965
  145.7736  139.1866  143.2198 LP  0  0  0  0  0  0  0  0  0  0  0  0  # atno 17321 bound_to 7965
  139.7284  144.7587  151.0841 LP  0  0  0  0  0  0  0  0  0  0  0  0  # atno 17342 bound_to 10162
  140.7761  143.5118  150.9643 LP  0  0  0  0  0  0  0  0  0  0  0  0  # atno 17343 bound_to 10162
  157.5011  130.7880  149.7605 LP  0  0  0  0  0  0  0  0  0  0  0  0  # atno 17370 bound_to 10713
  156.0000  130.3885  150.2643 LP  0  0  0  0  0  0  0  0  0  0  0  0  # atno 17371 bound_to 10713
  139.8877  135.0092  156.6576 LP  0  0  0  0  0  0  0  0  0  0  0  0  # atno 17394 bound_to 11000
  140.7472  133.8928  155.8320 LP  0  0  0  0  0  0  0  0  0  0  0  0  # atno 17395 bound_to 11000

$$$$
