AV-unprocessed.smi:109|AV-procd|sdf|1061|dock10
  -GOLD-   2262018133D 1   1.00000     0.00000
 Structure written by MMmdl.
 58 61  0  0  0  0  0  0  0  0  1 V2000
  151.0502  140.1611  154.7042 O   0  0  0  0  0  0  0  0  0  0  0  0
  149.7307  140.0632  155.1954 C   0  0  0  0  0  0  0  0  0  0  0  0
  149.5991  140.8688  156.4995 C   0  0  0  0  0  0  0  0  0  0  0  0
  150.6376  140.4879  157.5825 C   0  0  2  0  0  0  0  0  0  0  0  0
  150.0678  139.4592  158.4564 N   0  0  0  0  0  0  0  0  0  0  0  0
  149.7911  138.2102  158.0186 C   0  0  0  0  0  0  0  0  0  0  0  0
  150.1860  137.7820  156.7916 N   0  0  0  0  0  0  0  0  0  0  0  0
  149.8961  136.5411  156.3903 C   0  0  0  0  0  0  0  0  0  0  0  0
  149.2334  135.5862  157.0460 N   0  0  0  0  0  0  0  0  0  0  0  0
  148.8307  136.0109  158.2783 C   0  0  0  0  0  0  0  0  0  0  0  0
  149.0715  137.2986  158.8336 C   0  0  0  0  0  0  0  0  0  0  0  0
  148.5176  137.3736  160.1048 N   0  0  0  0  0  0  0  0  0  0  0  0
  147.9774  136.1981  160.2838 C   0  0  0  0  0  0  0  0  0  0  0  0
  148.1215  135.3153  159.2365 N   0  0  0  0  0  0  0  0  0  0  0  0
  147.6067  133.9159  159.1511 C   0  0  1  0  0  0  0  0  0  0  0  0
  146.2635  133.9733  158.7919 O   0  0  0  0  0  0  0  0  0  0  0  0
  145.9091  132.8549  157.9753 C   0  0  1  0  0  0  0  0  0  0  0  0
  145.2416  133.3789  156.6923 C   0  0  0  0  0  0  0  0  0  0  0  0
  145.0537  132.3226  155.7749 O   0  0  0  0  0  0  0  0  0  0  0  0
  147.2292  132.1102  157.6936 C   0  0  2  0  0  0  0  0  0  0  0  0
  147.2785  130.9509  158.5093 O   0  0  0  0  0  0  0  0  0  0  0  0
  148.3098  133.1265  158.0525 C   0  0  2  0  0  0  0  0  0  0  0  0
  149.5063  132.5056  158.4840 O   0  0  0  0  0  0  0  0  0  0  0  0
  151.1158  141.6920  158.4436 C   0  0  0  0  0  0  0  0  0  0  0  0
  151.4167  142.9609  157.6067 C   0  0  0  0  0  0  0  0  0  0  0  0
  151.9332  144.1256  158.4675 C   0  0  0  0  0  0  0  0  0  0  0  0
  153.1748  143.7222  159.2716 C   0  0  0  0  0  0  0  0  0  0  0  0
  152.8822  142.4859  160.1298 C   0  0  0  0  0  0  0  0  0  0  0  0
  152.3757  141.3197  159.2670 C   0  0  0  0  0  0  0  0  0  0  0  0
  147.7183  133.4860  160.1479 H   0  0  0  0  0  0  0  0  0  0  0  0
  145.2113  132.2111  158.5142 H   0  0  0  0  0  0  0  0  0  0  0  0
  147.3182  131.7879  156.6555 H   0  0  0  0  0  0  0  0  0  0  0  0
  148.5039  133.7743  157.1971 H   0  0  0  0  0  0  0  0  0  0  0  0
  151.6487  140.0543  155.4277 H   0  0  0  0  0  0  0  0  0  0  0  0
  149.0494  140.4340  154.4298 H   0  0  0  0  0  0  0  0  0  0  0  0
  149.4924  139.0130  155.3660 H   0  0  0  0  0  0  0  0  0  0  0  0
  149.7116  141.9181  156.2318 H   0  0  0  0  0  0  0  0  0  0  0  0
  148.5908  140.7589  156.9011 H   0  0  0  0  0  0  0  0  0  0  0  0
  151.5190  140.1133  157.0632 H   0  0  0  0  0  0  0  0  0  0  0  0
  149.8217  139.7721  159.3845 H   0  0  0  0  0  0  0  0  0  0  0  0
  150.2452  136.2750  155.4035 H   0  0  0  0  0  0  0  0  0  0  0  0
  147.4550  135.9405  161.1938 H   0  0  0  0  0  0  0  0  0  0  0  0
  144.2944  133.8735  156.9023 H   0  0  0  0  0  0  0  0  0  0  0  0
  145.8851  134.1134  156.2072 H   0  0  0  0  0  0  0  0  0  0  0  0
  144.1371  132.0926  155.7654 H   0  0  0  0  0  0  0  0  0  0  0  0
  147.7546  131.1582  159.2984 H   0  0  0  0  0  0  0  0  0  0  0  0
  149.6725  131.7590  157.9291 H   0  0  0  0  0  0  0  0  0  0  0  0
  150.3184  141.9431  159.1451 H   0  0  0  0  0  0  0  0  0  0  0  0
  152.1486  142.7261  156.8326 H   0  0  0  0  0  0  0  0  0  0  0  0
  150.5211  143.3091  157.0946 H   0  0  0  0  0  0  0  0  0  0  0  0
  152.1650  144.9811  157.8327 H   0  0  0  0  0  0  0  0  0  0  0  0
  151.1467  144.4517  159.1492 H   0  0  0  0  0  0  0  0  0  0  0  0
  154.0012  143.5117  158.5915 H   0  0  0  0  0  0  0  0  0  0  0  0
  153.4957  144.5499  159.9044 H   0  0  0  0  0  0  0  0  0  0  0  0
  153.7826  142.1864  160.6669 H   0  0  0  0  0  0  0  0  0  0  0  0
  152.1372  142.7315  160.8875 H   0  0  0  0  0  0  0  0  0  0  0  0
  152.1729  140.4730  159.9229 H   0  0  0  0  0  0  0  0  0  0  0  0
  153.1704  140.9974  158.5928 H   0  0  0  0  0  0  0  0  0  0  0  0
  1  2  1  0  0  0  0
  1 34  1  0  0  0  0
  2  3  1  0  0  0  0
  2 35  1  0  0  0  0
  2 36  1  0  0  0  0
  3  4  1  0  0  0  0
  3 37  1  0  0  0  0
  3 38  1  0  0  0  0
  4  5  1  0  0  0  0
  4 24  1  0  0  0  0
  4 39  1  0  0  0  0
  5  6  1  0  0  0  0
  5 40  1  0  0  0  0
  6 11  1  0  0  0  0
  6  7  2  0  0  0  0
  7  8  1  0  0  0  0
  8  9  2  0  0  0  0
  8 41  1  0  0  0  0
  9 10  1  0  0  0  0
 10 14  1  0  0  0  0
 10 11  2  0  0  0  0
 11 12  1  0  0  0  0
 12 13  2  0  0  0  0
 13 14  1  0  0  0  0
 13 42  1  0  0  0  0
 14 15  1  0  0  0  0
 15 30  1  0  0  0  0
 15 22  1  0  0  0  0
 15 16  1  0  0  0  0
 16 17  1  0  0  0  0
 17 31  1  0  0  0  0
 17 18  1  0  0  0  0
 17 20  1  0  0  0  0
 18 19  1  0  0  0  0
 18 43  1  0  0  0  0
 18 44  1  0  0  0  0
 19 45  1  0  0  0  0
 20 32  1  0  0  0  0
 20 21  1  0  0  0  0
 20 22  1  0  0  0  0
 21 46  1  0  0  0  0
 22 33  1  0  0  0  0
 22 23  1  0  0  0  0
 23 47  1  0  0  0  0
 24 29  1  0  0  0  0
 24 25  1  0  0  0  0
 24 48  1  0  0  0  0
 25 26  1  0  0  0  0
 25 49  1  0  0  0  0
 25 50  1  0  0  0  0
 26 27  1  0  0  0  0
 26 51  1  0  0  0  0
 26 52  1  0  0  0  0
 27 28  1  0  0  0  0
 27 53  1  0  0  0  0
 27 54  1  0  0  0  0
 28 29  1  0  0  0  0
 28 55  1  0  0  0  0
 28 56  1  0  0  0  0
 29 57  1  0  0  0  0
 29 58  1  0  0  0  0
M  END
> <s_m_source_file>
AV-unprocessed.smi

> <i_m_source_file_index>
109

> <i_lp_mmshare_version>
43012

> <i_f3d_flags>
0

> <s_epik_input>
W0NIMl0xW0NIMl1bQ0gyXVtDSDJdW0NIMl1bQ0hdMVtDQEhdKFtDSDJdW0NIMl1bT0hdKVtOSF1jKG5bY0hdbjIpYyhjMjMpbltjSF1uM1tDQEBIXTRPW0NASF0oW0NIMl1bT0hdKVtDQEBIXShbT0hdKVtDQEhdNFtPSF0=

> <s_epik_cmdline>
J2VwaWtfcHl0aG9uJywgJy1waCcsICc3LjAnLCAnLXRuJywgJzgnLCAnLW1hJywgJzIwMCcsICctbWV0YWxfYmluZGluZycsICctaW1hZScsICc8aW5maWxlLm1hZT4nLCAnLW9tYWUnLCAnPG91dGZpbGUubWFlPic=

> <r_lp_tautomer_probability>
1

> <r_epik_Ionization_Penalty>
0.000793976

> <r_epik_Ionization_Penalty_Charging>
0

> <r_epik_Ionization_Penalty_Neutral>
0.000793976

> <r_epik_State_Penalty>
-0

> <r_epik_Charging_Adjusted_Penalty>
0

> <i_epik_Tot_Q>
0

> <i_epik_Tot_abs_Q>
0

> <r_epik_Metal_State_Penalty>
-0

> <b_epik_Metal_Only>
0

> <s_epik_Chemistry_Notes>
This compound contains an acetal/aminal-like group ( X-CH(R)-Y where X, Y are N, S, or O) that may be acid/base labile, releasing an aldehyde.

> <s_lp_Force_Field>
OPLS_2005

> <r_lp_Energy>
56.6401

> <b_lp_Chiralities_Consistent>
1

> <s_lp_Variant>
AV-unprocessed.smi:109-31

> <Gold.Version>
5.8.1

> <Gold.Id.Protein>
6NUR|6NUR_protein|mol2

> <Gold.PLP.Fitness>
46.0624

> <Gold.PLP.PLP>
-37.2829

> <Gold.PLP.part.hbond>
-4.9772

> <Gold.PLP.part.metal>
0.0000

> <Gold.PLP.part.buried>
-5.4072

> <Gold.PLP.part.nonpolar>
-27.8128

> <Gold.PLP.part.repulsive>
0.2031

> <Gold.PLP.ligand.clash>
0.0000

> <Gold.PLP.ligand.torsion>
1.3156

> <Gold.PLP.Chemscore.Hbond>
3.7337

> <Gold.PLP.Chemscore.CHOScore>
0.0000

> <Gold.PLP.Chemscore.Metal>
0.0000

> <Gold.Chemscore.Hbonds>
donor molecule, donor type, donor heavy atom, donor atom, acceptor molecule, acceptor atom, score
      L1  H    19    45       P1 10957  0.98
      P1  H  6896  6909       L1    23  1.00
      P1  H  6931  6943       L1    12  0.49
      P1  H  6934  6947       L1    12  0.20
      P1  H  7989  7998       L1     1  0.96

> <Gold.PLP.Chemscore.Internal.Correction>
0.2096

> <Gold.Rescore>
     Score         DG    S(hbond)    S(metal)    S(lipo)     H(rot)  DE(clash)    DE(int)     intcor
      9.77     -13.90       3.79        0.00      83.48       5.47       0.05       4.07       ----

> <Gold.Chemscore.Fitness>
9.7734

> <Gold.Chemscore.DG>
-13.8996

> <Gold.Chemscore.ZeroCoef>
-5.4800

> <Gold.Chemscore.Hbond>
3.7863

> <Gold.Chemscore.Metal>
0.0000

> <Gold.Chemscore.Lipo>
83.4768

> <Gold.Chemscore.Internal_Hbond>
0.0000

> <Gold.Chemscore.DEClash>
0.0515

> <Gold.Chemscore.DEInternal>
4.0747

> <Gold.Chemscore.Rot>
5.4662

> <Gold.Chemscore.Internal.Correction>
   9.000000E+99

> <Gold.Chemscore.Hbonds>
donor molecule, donor type, donor heavy atom, donor atom, acceptor molecule, acceptor atom, score
      L1  H    19    45       P1 10957  0.87
      P1  H  6896  6909       L1    23  0.96
      P1  H  6931  6943       L1    12  0.40
      P1  H  6934  6947       L1    12  0.17
      P1  H  7989  7998       L1     1  0.83

> <Gold.Chemscore.Hbond.Weighted>
-12.6463

> <Gold.Chemscore.Metal.Weighted>
-0.0000

> <Gold.Chemscore.Lipo.Weighted>
-9.7668

> <Gold.Chemscore.Internal_Hbond.Weighted>
0.0000

> <Gold.Chemscore.DEClash.Weighted>
0.0515

> <Gold.Chemscore.DEInternal.Weighted>
4.0747

> <Gold.Chemscore.Rot.Weighted>
13.9935

> <Gold.Chemscore.Internal.Correction.Weighted>
   9.000000E+99

> <Gold.Protein.RotatedTorsions>
[ 6907 6896 6895 6894 ] final  -11.51 input  -60.11 | X-H torsion
[ 7974 7965 7964 7962 ] final  -43.97 input  175.53 | X-H torsion
[ 8008 7997 7996 7995 ] final  -42.84 input   59.86 | X-H torsion
[ 10167 10162 10161 10158 ] final -111.20 input  -65.29 | X-H torsion
[ 10718 10713 10712 10709 ] final  -41.75 input   66.30 | X-H torsion
[ 10763 10752 10751 10750 ] final  -94.35 input  -60.55 | X-H torsion
[ 11005 11000 10999 10996 ] final  -27.74 input  -57.11 | X-H torsion

> <Gold.Protein.ActiveResidues>
 VAL166  LYS551  ARG553  GLY616  TRP617  ASP618  TYR619  PRO620  LYS621  CYS622 
 ASP623  PHE694  ASN695  SER759  ASP760  ASP761  ALA762  ILE779  LEU786  VAL792 
 PHE793  MET794  SER795  GLU796  ALA797  LYS798  CYS799  TRP800  GLU811  SER814 

> <Gold.Protein.RotatedAtoms>
  151.3850  135.0946  159.9507 H   0  0  0  0  0  0  0  0  0  0  0  0  # atno 6907 bound_to 6896
  152.5097  133.9035  159.7463 H   0  0  0  0  0  0  0  0  0  0  0  0  # atno 6908 bound_to 6896
  150.9476  133.6530  159.2807 H   0  0  0  0  0  0  0  0  0  0  0  0  # atno 6909 bound_to 6896
  145.9967  140.7121  142.9290 H   0  0  0  0  0  0  0  0  0  0  0  0  # atno 7974 bound_to 7965
  154.3998  140.1463  156.3422 H   0  0  0  0  0  0  0  0  0  0  0  0  # atno 8008 bound_to 7997
  155.8346  140.3464  155.5572 H   0  0  0  0  0  0  0  0  0  0  0  0  # atno 8009 bound_to 7997
  155.8151  140.0890  157.1872 H   0  0  0  0  0  0  0  0  0  0  0  0  # atno 8010 bound_to 7997
  140.1362  143.4318  152.1594 H   0  0  0  0  0  0  0  0  0  0  0  0  # atno 10167 bound_to 10162
  156.2669  130.4202  149.8480 H   0  0  0  0  0  0  0  0  0  0  0  0  # atno 10718 bound_to 10713
  154.7046  135.5161  153.8576 H   0  0  0  0  0  0  0  0  0  0  0  0  # atno 10763 bound_to 10752
  153.0731  135.6607  154.0213 H   0  0  0  0  0  0  0  0  0  0  0  0  # atno 10764 bound_to 10752
  154.0066  135.3006  155.3376 H   0  0  0  0  0  0  0  0  0  0  0  0  # atno 10765 bound_to 10752
  140.9146  133.7438  156.0717 H   0  0  0  0  0  0  0  0  0  0  0  0  # atno 11005 bound_to 11000
  144.6906  140.3162  143.7240 LP  0  0  0  0  0  0  0  0  0  0  0  0  # atno 17320 bound_to 7965
  145.7549  139.1806  143.2300 LP  0  0  0  0  0  0  0  0  0  0  0  0  # atno 17321 bound_to 7965
  139.5495  144.7326  151.4480 LP  0  0  0  0  0  0  0  0  0  0  0  0  # atno 17342 bound_to 10162
  140.6788  143.8130  150.7093 LP  0  0  0  0  0  0  0  0  0  0  0  0  # atno 17343 bound_to 10162
  156.5975  130.8532  151.3423 LP  0  0  0  0  0  0  0  0  0  0  0  0  # atno 17370 bound_to 10713
  157.7270  130.9638  150.1682 LP  0  0  0  0  0  0  0  0  0  0  0  0  # atno 17371 bound_to 10713
  140.8066  134.3447  157.5424 LP  0  0  0  0  0  0  0  0  0  0  0  0  # atno 17394 bound_to 11000
  139.8763  134.9229  156.3312 LP  0  0  0  0  0  0  0  0  0  0  0  0  # atno 17395 bound_to 11000

$$$$
