AV-unprocessed.smi:1724|AV-procd|sdf|6952|dock6
  -GOLD-   22720 8163D 1   1.00000     0.00000
 Structure written by MMmdl.
 37 38  0  0  0  0  0  0  0  0  2 V2000
  148.7258  133.3868  155.4804 O   0  0  0  0  0  0  0  0  0  0  0  0
  148.8237  134.1445  154.5156 C   0  0  0  0  0  0  0  0  0  0  0  0
  148.2285  133.9118  153.3367 N   0  0  0  0  0  0  0  0  0  0  0  0
  147.3885  132.7605  153.0190 C   0  0  0  0  0  0  0  0  0  0  0  0
  146.6174  132.9424  151.6955 C   0  0  1  0  0  0  0  0  0  0  0  0
  145.7424  131.7274  151.3325 C   0  0  0  0  0  0  0  0  0  0  0  0
  144.9348  132.0149  150.0619 C   0  0  0  0  0  0  0  0  0  0  0  0
  144.1543  133.3295  150.2078 C   0  0  0  0  0  0  0  0  0  0  0  0
  145.0539  134.3902  150.5081 O   0  0  0  0  0  0  0  0  0  0  0  0
  145.7369  134.2077  151.7441 C   0  0  0  0  0  0  0  0  0  0  0  0
  149.5164  135.2975  154.4763 N   0  0  0  0  0  0  0  0  0  0  0  0
  150.2880  135.9265  155.4700 C   0  0  0  0  0  0  0  0  0  0  0  0
  150.3004  137.2644  155.7271 C   0  0  0  0  0  0  0  0  0  0  0  0
  151.1256  137.8477  156.7782 C   0  0  0  0  0  0  0  0  0  0  0  0
  151.1769  139.3290  157.1045 C   0  0  0  0  0  0  0  0  0  0  0  0
  151.5989  140.0198  156.0459 F   0  0  0  0  0  0  0  0  0  0  0  0
  149.9621  139.7711  157.4273 F   0  0  0  0  0  0  0  0  0  0  0  0
  151.9995  139.5768  158.1240 F   0  0  0  0  0  0  0  0  0  0  0  0
  151.8609  136.8981  157.4584 C   0  0  0  0  0  0  0  0  0  0  0  0
  151.9037  135.5612  157.2714 N   0  5  0  0  0  0  0  0  0  0  0  0
  151.1308  135.0256  156.2849 C   0  0  0  0  0  0  0  0  0  0  0  0
  151.1216  133.8142  156.0621 O   0  0  0  0  0  0  0  0  0  0  0  0
  148.3626  134.5896  152.6005 H   0  0  0  0  0  0  0  0  0  0  0  0
  147.9739  131.8398  152.9944 H   0  0  0  0  0  0  0  0  0  0  0  0
  146.6798  132.6434  153.8393 H   0  0  0  0  0  0  0  0  0  0  0  0
  147.3486  133.0813  150.8975 H   0  0  0  0  0  0  0  0  0  0  0  0
  146.3546  130.8382  151.1798 H   0  0  0  0  0  0  0  0  0  0  0  0
  145.0630  131.5017  152.1556 H   0  0  0  0  0  0  0  0  0  0  0  0
  145.6088  132.0850  149.2072 H   0  0  0  0  0  0  0  0  0  0  0  0
  144.2513  131.1911  149.8551 H   0  0  0  0  0  0  0  0  0  0  0  0
  143.6330  133.5619  149.2792 H   0  0  0  0  0  0  0  0  0  0  0  0
  143.3955  133.2483  150.9877 H   0  0  0  0  0  0  0  0  0  0  0  0
  145.0171  134.1524  152.5624 H   0  0  0  0  0  0  0  0  0  0  0  0
  146.3544  135.0876  151.9262 H   0  0  0  0  0  0  0  0  0  0  0  0
  149.4732  135.8108  153.6081 H   0  0  0  0  0  0  0  0  0  0  0  0
  149.6887  137.9450  155.1606 H   0  0  0  0  0  0  0  0  0  0  0  0
  152.5131  137.2720  158.2766 H   0  0  0  0  0  0  0  0  0  0  0  0
  1  2  2  0  0  0  0
  2  3  1  0  0  0  0
  2 11  1  0  0  0  0
  3  4  1  0  0  0  0
  3 23  1  0  0  0  0
  4  5  1  0  0  0  0
  4 24  1  0  0  0  0
  4 25  1  0  0  0  0
  5 10  1  0  0  0  0
  5  6  1  0  0  0  0
  5 26  1  0  0  0  0
  6  7  1  0  0  0  0
  6 27  1  0  0  0  0
  6 28  1  0  0  0  0
  7  8  1  0  0  0  0
  7 29  1  0  0  0  0
  7 30  1  0  0  0  0
  8  9  1  0  0  0  0
  8 31  1  0  0  0  0
  8 32  1  0  0  0  0
  9 10  1  0  0  0  0
 10 33  1  0  0  0  0
 10 34  1  0  0  0  0
 11 12  1  0  0  0  0
 11 35  1  0  0  0  0
 12 21  1  0  0  0  0
 12 13  2  0  0  0  0
 13 14  1  0  0  0  0
 13 36  1  0  0  0  0
 14 15  1  0  0  0  0
 14 19  2  0  0  0  0
 15 16  1  0  0  0  0
 15 17  1  0  0  0  0
 15 18  1  0  0  0  0
 19 20  1  0  0  0  0
 19 37  1  0  0  0  0
 20 21  1  0  0  0  0
 21 22  2  0  0  0  0
M  CHG  1  20  -1
M  END
> <s_m_source_file>
AV-unprocessed.smi

> <i_m_source_file_index>
1724

> <i_lp_mmshare_version>
43012

> <i_f3d_flags>
0

> <s_epik_input>
Tz1jMVtuSF1bY0hdYyhDKEYpKEYpRilbY0hdYzFbTkhdQyg9TylbTkhdW0NIMl1bQ0BASF0yW0NIMl1bQ0gyXVtDSDJdT1tDSDJdMg==

> <s_epik_cmdline>
J2VwaWtfcHl0aG9uJywgJy1waCcsICc3LjAnLCAnLXRuJywgJzgnLCAnLW1hJywgJzIwMCcsICctbWV0YWxfYmluZGluZycsICctaW1hZScsICc8aW5maWxlLm1hZT4nLCAnLW9tYWUnLCAnPG91dGZpbGUubWFlPic=

> <r_lp_tautomer_probability>
1

> <r_epik_Ionization_Penalty>
3.16025

> <r_epik_Ionization_Penalty_Charging>
0.171172

> <r_epik_Ionization_Penalty_Neutral>
2.98908

> <r_epik_State_Penalty>
2.98521

> <r_epik_Charging_Adjusted_Penalty>
3.15638

> <i_epik_Tot_Q>
-1

> <i_epik_Tot_abs_Q>
1

> <r_epik_Metal_State_Penalty>
0.452642

> <b_epik_Metal_Only>
1

> <s_lp_Force_Field>
OPLS_2005

> <r_lp_Energy>
24.0618

> <b_lp_Chiralities_Consistent>
1

> <s_lp_Variant>
AV-unprocessed.smi:1724-4

> <Gold.Version>
5.8.1

> <Gold.Id.Protein>
6NUR|6NUR_protein|mol2

> <Gold.PLP.Fitness>
36.7123

> <Gold.PLP.PLP>
-31.4943

> <Gold.PLP.part.hbond>
-3.0000

> <Gold.PLP.part.metal>
0.0000

> <Gold.PLP.part.buried>
-6.5003

> <Gold.PLP.part.nonpolar>
-23.1811

> <Gold.PLP.part.repulsive>
0.5031

> <Gold.PLP.ligand.clash>
0.0000

> <Gold.PLP.ligand.torsion>
0.3967

> <Gold.PLP.Chemscore.Hbond>
2.0000

> <Gold.PLP.Chemscore.CHOScore>
0.0000

> <Gold.PLP.Chemscore.Metal>
0.0000

> <Gold.Chemscore.Hbonds>
donor molecule, donor type, donor heavy atom, donor atom, acceptor molecule, acceptor atom, score
      L1  H     3    23       P1  7948  0.95
      L1  H    11    35       P1  7948  1.00

> <Gold.PLP.Chemscore.Internal.Correction>
0.0114

> <Gold.Rescore>
     Score         DG    S(hbond)    S(metal)    S(lipo)     H(rot)  DE(clash)    DE(int)     intcor
     10.98     -14.35       1.70        0.00      56.34       1.32       0.08       3.29       ----

> <Gold.Chemscore.Fitness>
10.9832

> <Gold.Chemscore.DG>
-14.3471

> <Gold.Chemscore.ZeroCoef>
-5.4800

> <Gold.Chemscore.Hbond>
1.6967

> <Gold.Chemscore.Metal>
0.0000

> <Gold.Chemscore.Lipo>
56.3386

> <Gold.Chemscore.Internal_Hbond>
0.0000

> <Gold.Chemscore.DEClash>
0.0782

> <Gold.Chemscore.DEInternal>
3.2857

> <Gold.Chemscore.Rot>
1.3248

> <Gold.Chemscore.Internal.Correction>
   9.000000E+99

> <Gold.Chemscore.Hbonds>
donor molecule, donor type, donor heavy atom, donor atom, acceptor molecule, acceptor atom, score
      L1  H     3    23       P1  7948  0.21
      L1  H    11    35       P1  7948  0.39

> <Gold.Chemscore.Hbond.Weighted>
-5.6670

> <Gold.Chemscore.Metal.Weighted>
-0.0000

> <Gold.Chemscore.Lipo.Weighted>
-6.5916

> <Gold.Chemscore.Internal_Hbond.Weighted>
0.0000

> <Gold.Chemscore.DEClash.Weighted>
0.0782

> <Gold.Chemscore.DEInternal.Weighted>
3.2857

> <Gold.Chemscore.Rot.Weighted>
3.3915

> <Gold.Chemscore.Internal.Correction.Weighted>
   9.000000E+99

> <Gold.Protein.RotatedTorsions>
[ 6907 6896 6895 6894 ] final -129.87 input  -60.11 | X-H torsion
[ 7974 7965 7964 7962 ] final  115.39 input  175.53 | X-H torsion
[ 8008 7997 7996 7995 ] final  162.69 input   59.86 | X-H torsion
[ 10167 10162 10161 10158 ] final  -75.24 input  -65.29 | X-H torsion
[ 10718 10713 10712 10709 ] final   89.72 input   66.30 | X-H torsion
[ 10763 10752 10751 10750 ] final   74.62 input  -60.55 | X-H torsion
[ 11005 11000 10999 10996 ] final  105.91 input  -57.11 | X-H torsion

> <Gold.Protein.ActiveResidues>
 VAL166  LYS551  ARG553  GLY616  TRP617  ASP618  TYR619  PRO620  LYS621  CYS622 
 ASP623  PHE694  ASN695  SER759  ASP760  ASP761  ALA762  ILE779  LEU786  VAL792 
 PHE793  MET794  SER795  GLU796  ALA797  LYS798  CYS799  TRP800  GLU811  SER814 

> <Gold.Protein.RotatedAtoms>
  150.9335  133.6739  159.2805 H   0  0  0  0  0  0  0  0  0  0  0  0  # atno 6907 bound_to 6896
  151.4153  135.0989  159.9607 H   0  0  0  0  0  0  0  0  0  0  0  0  # atno 6908 bound_to 6896
  152.5037  133.8798  159.7395 H   0  0  0  0  0  0  0  0  0  0  0  0  # atno 6909 bound_to 6896
  145.1925  139.2993  143.4360 H   0  0  0  0  0  0  0  0  0  0  0  0  # atno 7974 bound_to 7965
  156.2013  140.1744  156.7893 H   0  0  0  0  0  0  0  0  0  0  0  0  # atno 8008 bound_to 7997
  154.5595  140.0702  156.8828 H   0  0  0  0  0  0  0  0  0  0  0  0  # atno 8009 bound_to 7997
  155.2874  140.3353  155.4257 H   0  0  0  0  0  0  0  0  0  0  0  0  # atno 8010 bound_to 7997
  140.4959  143.2371  151.7832 H   0  0  0  0  0  0  0  0  0  0  0  0  # atno 10167 bound_to 10162
  157.6956  131.0344  150.3469 H   0  0  0  0  0  0  0  0  0  0  0  0  # atno 10718 bound_to 10713
  153.0599  135.5019  154.8069 H   0  0  0  0  0  0  0  0  0  0  0  0  # atno 10763 bound_to 10752
  154.6866  135.2977  154.9541 H   0  0  0  0  0  0  0  0  0  0  0  0  # atno 10764 bound_to 10752
  154.0309  135.6729  153.4833 H   0  0  0  0  0  0  0  0  0  0  0  0  # atno 10765 bound_to 10752
  139.8807  134.9351  156.5586 H   0  0  0  0  0  0  0  0  0  0  0  0  # atno 11005 bound_to 11000
  146.3433  140.2143  142.8590 LP  0  0  0  0  0  0  0  0  0  0  0  0  # atno 17320 bound_to 7965
  145.0027  140.8646  143.5272 LP  0  0  0  0  0  0  0  0  0  0  0  0  # atno 17321 bound_to 7965
  139.4861  144.4587  151.9567 LP  0  0  0  0  0  0  0  0  0  0  0  0  # atno 17342 bound_to 10162
  140.3675  144.2896  150.5924 LP  0  0  0  0  0  0  0  0  0  0  0  0  # atno 17343 bound_to 10162
  156.3923  130.3900  149.7021 LP  0  0  0  0  0  0  0  0  0  0  0  0  # atno 17370 bound_to 10713
  156.4367  130.7841  151.2862 LP  0  0  0  0  0  0  0  0  0  0  0  0  # atno 17371 bound_to 10713
  140.8186  133.8371  155.8875 LP  0  0  0  0  0  0  0  0  0  0  0  0  # atno 17394 bound_to 11000
  140.9439  134.1865  157.4777 LP  0  0  0  0  0  0  0  0  0  0  0  0  # atno 17395 bound_to 11000

$$$$
