AV-unprocessed.smi:814|AV-procd|sdf|3823|dock10
  -GOLD-   22720 1263D 1   1.00000     0.00000
 Structure written by MMmdl.
 36 37  0  0  0  0  0  0  0  0  1 V2000
  153.4295  142.4972  160.8715 C   0  0  0  0  0  0  0  0  0  0  0  0
  152.6841  142.7111  159.6461 N   0  0  0  0  0  0  0  0  0  0  0  0
  152.3569  143.9435  159.0958 C   0  0  0  0  0  0  0  0  0  0  0  0
  151.6453  143.6865  157.9489 C   0  0  0  0  0  0  0  0  0  0  0  0
  151.5269  142.3116  157.7783 N   0  0  0  0  0  0  0  0  0  0  0  0
  152.1707  141.7834  158.8150 C   0  0  0  0  0  0  0  0  0  0  0  0
  152.2844  140.3100  159.0574 C   0  0  0  0  0  0  0  0  0  0  0  0
  152.2740  139.5007  157.7507 C   0  0  0  0  0  0  0  0  0  0  0  0
  151.0117  139.6488  157.0358 N   0  0  0  0  0  0  0  0  0  0  0  0
  150.8937  139.8519  155.7145 C   0  0  0  0  0  0  0  0  0  0  0  0
  151.8604  139.9282  154.9554 O   0  0  0  0  0  0  0  0  0  0  0  0
  149.4670  139.9941  155.1673 C   0  0  2  0  0  0  0  0  0  0  0  0
  149.1654  138.9186  154.0978 C   0  0  0  0  0  0  0  0  0  0  0  0
  147.8652  139.1916  153.3622 C   0  0  0  0  0  0  0  0  0  0  0  0
  147.2378  140.3801  153.3857 C   0  0  0  0  0  0  0  0  0  0  0  0
  147.7603  141.5864  154.1457 C   0  0  0  0  0  0  0  0  0  0  0  0
  149.2224  141.4053  154.5956 C   0  0  0  0  0  0  0  0  0  0  0  0
  153.5949  143.4469  161.3813 H   0  0  0  0  0  0  0  0  0  0  0  0
  154.3954  142.0471  160.6412 H   0  0  0  0  0  0  0  0  0  0  0  0
  152.8724  141.8355  161.5348 H   0  0  0  0  0  0  0  0  0  0  0  0
  152.6465  144.8772  159.5550 H   0  0  0  0  0  0  0  0  0  0  0  0
  151.2124  144.3779  157.2410 H   0  0  0  0  0  0  0  0  0  0  0  0
  153.2105  140.1252  159.6033 H   0  0  0  0  0  0  0  0  0  0  0  0
  151.4769  139.9829  159.7128 H   0  0  0  0  0  0  0  0  0  0  0  0
  153.0749  139.8435  157.0952 H   0  0  0  0  0  0  0  0  0  0  0  0
  152.4696  138.4460  157.9528 H   0  0  0  0  0  0  0  0  0  0  0  0
  150.1662  139.6020  157.5860 H   0  0  0  0  0  0  0  0  0  0  0  0
  148.7695  139.8493  155.9945 H   0  0  0  0  0  0  0  0  0  0  0  0
  149.9635  138.8590  153.3562 H   0  0  0  0  0  0  0  0  0  0  0  0
  149.0980  137.9380  154.5704 H   0  0  0  0  0  0  0  0  0  0  0  0
  147.4496  138.3766  152.7879 H   0  0  0  0  0  0  0  0  0  0  0  0
  146.3074  140.5062  152.8520 H   0  0  0  0  0  0  0  0  0  0  0  0
  147.6726  142.4734  153.5177 H   0  0  0  0  0  0  0  0  0  0  0  0
  147.1161  141.7447  155.0110 H   0  0  0  0  0  0  0  0  0  0  0  0
  149.4755  142.1703  155.3313 H   0  0  0  0  0  0  0  0  0  0  0  0
  149.8812  141.5717  153.7416 H   0  0  0  0  0  0  0  0  0  0  0  0
  1  2  1  0  0  0  0
  1 18  1  0  0  0  0
  1 19  1  0  0  0  0
  1 20  1  0  0  0  0
  2  6  1  0  0  0  0
  2  3  1  0  0  0  0
  3  4  2  0  0  0  0
  3 21  1  0  0  0  0
  4  5  1  0  0  0  0
  4 22  1  0  0  0  0
  5  6  2  0  0  0  0
  6  7  1  0  0  0  0
  7  8  1  0  0  0  0
  7 23  1  0  0  0  0
  7 24  1  0  0  0  0
  8  9  1  0  0  0  0
  8 25  1  0  0  0  0
  8 26  1  0  0  0  0
  9 10  1  0  0  0  0
  9 27  1  0  0  0  0
 10 11  2  0  0  0  0
 10 12  1  0  0  0  0
 12 17  1  0  0  0  0
 12 13  1  0  0  0  0
 12 28  1  0  0  0  0
 13 14  1  0  0  0  0
 13 29  1  0  0  0  0
 13 30  1  0  0  0  0
 14 15  2  0  0  0  0
 14 31  1  0  0  0  0
 15 16  1  0  0  0  0
 15 32  1  0  0  0  0
 16 17  1  0  0  0  0
 16 33  1  0  0  0  0
 16 34  1  0  0  0  0
 17 35  1  0  0  0  0
 17 36  1  0  0  0  0
M  END
> <s_m_source_file>
AV-unprocessed.smi

> <i_m_source_file_index>
814

> <i_lp_mmshare_version>
43012

> <i_f3d_flags>
0

> <s_epik_input>
W0NIM11uMVtjSF1bY0hdbmMxW0NIMl1bQ0gyXVtOSF1DKD1PKVtDQEBIXTJbQ0gyXVtDSF09W0NIXVtDSDJdW0NIMl0y

> <s_epik_cmdline>
J2VwaWtfcHl0aG9uJywgJy1waCcsICc3LjAnLCAnLXRuJywgJzgnLCAnLW1hJywgJzIwMCcsICctbWV0YWxfYmluZGluZycsICctaW1hZScsICc8aW5maWxlLm1hZT4nLCAnLW9tYWUnLCAnPG91dGZpbGUubWFlPic=

> <r_lp_tautomer_probability>
1

> <r_epik_Ionization_Penalty>
1.21249

> <r_epik_Ionization_Penalty_Charging>
1.21249

> <r_epik_Ionization_Penalty_Neutral>
1.60917e-08

> <r_epik_State_Penalty>
1.27906

> <r_epik_Charging_Adjusted_Penalty>
2.49154

> <i_epik_Tot_Q>
0

> <i_epik_Tot_abs_Q>
0

> <r_epik_Metal_State_Penalty>
0.409603

> <b_epik_Metal_Only>
0

> <s_lp_Force_Field>
OPLS_2005

> <r_lp_Energy>
6.39824

> <b_lp_Chiralities_Consistent>
1

> <s_lp_Variant>
AV-unprocessed.smi:814-3

> <Gold.Version>
5.8.1

> <Gold.Id.Protein>
6NUR|6NUR_protein|mol2

> <Gold.PLP.Fitness>
44.8151

> <Gold.PLP.PLP>
-39.7973

> <Gold.PLP.part.hbond>
-1.0000

> <Gold.PLP.part.metal>
0.0000

> <Gold.PLP.part.buried>
-1.7927

> <Gold.PLP.part.nonpolar>
-36.2760

> <Gold.PLP.part.repulsive>
0.1414

> <Gold.PLP.ligand.clash>
0.0000

> <Gold.PLP.ligand.torsion>
0.5031

> <Gold.PLP.Chemscore.Hbond>
1.0000

> <Gold.PLP.Chemscore.CHOScore>
1.0000

> <Gold.PLP.Chemscore.Metal>
0.0000

> <Gold.Chemscore.Hbonds>
donor molecule, donor type, donor heavy atom, donor atom, acceptor molecule, acceptor atom, score
      P1  H  7989  7998       L1    11  0.94
      L1  C     4    22       P1  8028  0.32

> <Gold.PLP.Chemscore.Internal.Correction>
0.0240

> <Gold.Rescore>
     Score         DG    S(hbond)    S(metal)    S(lipo)     H(rot)  DE(clash)    DE(int)     intcor
     14.82     -15.30       0.99        0.00      90.29       1.58       0.02       0.47       ----

> <Gold.Chemscore.Fitness>
14.8153

> <Gold.Chemscore.DG>
-15.3048

> <Gold.Chemscore.ZeroCoef>
-5.4800

> <Gold.Chemscore.Hbond>
0.9905

> <Gold.Chemscore.Metal>
0.0000

> <Gold.Chemscore.Lipo>
90.2897

> <Gold.Chemscore.Internal_Hbond>
0.0000

> <Gold.Chemscore.DEClash>
0.0221

> <Gold.Chemscore.DEInternal>
0.4674

> <Gold.Chemscore.Rot>
1.5809

> <Gold.Chemscore.Internal.Correction>
   9.000000E+99

> <Gold.Chemscore.Hbonds>
donor molecule, donor type, donor heavy atom, donor atom, acceptor molecule, acceptor atom, score
      P1  H  7989  7998       L1    11  0.87

> <Gold.Chemscore.Hbond.Weighted>
-3.3081

> <Gold.Chemscore.Metal.Weighted>
-0.0000

> <Gold.Chemscore.Lipo.Weighted>
-10.5639

> <Gold.Chemscore.Internal_Hbond.Weighted>
0.0000

> <Gold.Chemscore.DEClash.Weighted>
0.0221

> <Gold.Chemscore.DEInternal.Weighted>
0.4674

> <Gold.Chemscore.Rot.Weighted>
4.0472

> <Gold.Chemscore.Internal.Correction.Weighted>
   9.000000E+99

> <Gold.Protein.RotatedTorsions>
[ 6907 6896 6895 6894 ] final  -66.13 input  -60.11 | X-H torsion
[ 7974 7965 7964 7962 ] final  -13.71 input  175.53 | X-H torsion
[ 8008 7997 7996 7995 ] final  -91.86 input   59.86 | X-H torsion
[ 10167 10162 10161 10158 ] final -131.27 input  -65.29 | X-H torsion
[ 10718 10713 10712 10709 ] final  -10.50 input   66.30 | X-H torsion
[ 10763 10752 10751 10750 ] final   39.85 input  -60.55 | X-H torsion
[ 11005 11000 10999 10996 ] final  -46.65 input  -57.11 | X-H torsion

> <Gold.Protein.ActiveResidues>
 VAL166  LYS551  ARG553  GLY616  TRP617  ASP618  TYR619  PRO620  LYS621  CYS622 
 ASP623  PHE694  ASN695  SER759  ASP760  ASP761  ALA762  ILE779  LEU786  VAL792 
 PHE793  MET794  SER795  GLU796  ALA797  LYS798  CYS799  TRP800  GLU811  SER814 

> <Gold.Protein.RotatedAtoms>
  150.7483  134.6064  159.6063 H   0  0  0  0  0  0  0  0  0  0  0  0  # atno 6907 bound_to 6896
  152.3411  134.7130  160.0272 H   0  0  0  0  0  0  0  0  0  0  0  0  # atno 6908 bound_to 6896
  151.7582  133.3296  159.3447 H   0  0  0  0  0  0  0  0  0  0  0  0  # atno 6909 bound_to 6896
  146.2103  140.3243  142.8393 H   0  0  0  0  0  0  0  0  0  0  0  0  # atno 7974 bound_to 7965
  154.7160  140.0515  157.0595 H   0  0  0  0  0  0  0  0  0  0  0  0  # atno 8008 bound_to 7997
  155.0491  140.3177  155.4679 H   0  0  0  0  0  0  0  0  0  0  0  0  # atno 8009 bound_to 7997
  156.2803  140.2119  156.5616 H   0  0  0  0  0  0  0  0  0  0  0  0  # atno 8010 bound_to 7997
  139.9206  143.6386  152.2554 H   0  0  0  0  0  0  0  0  0  0  0  0  # atno 10167 bound_to 10162
  156.6726  130.5013  149.5995 H   0  0  0  0  0  0  0  0  0  0  0  0  # atno 10718 bound_to 10713
  152.9954  135.6208  154.2532 H   0  0  0  0  0  0  0  0  0  0  0  0  # atno 10763 bound_to 10752
  154.2270  135.2793  155.2906 H   0  0  0  0  0  0  0  0  0  0  0  0  # atno 10764 bound_to 10752
  154.5481  135.5741  153.6956 H   0  0  0  0  0  0  0  0  0  0  0  0  # atno 10765 bound_to 10752
  141.0592  133.6715  156.3185 H   0  0  0  0  0  0  0  0  0  0  0  0  # atno 11005 bound_to 11000
  144.8898  140.7509  143.5934 LP  0  0  0  0  0  0  0  0  0  0  0  0  # atno 17320 bound_to 7965
  145.3165  139.1802  143.4611 LP  0  0  0  0  0  0  0  0  0  0  0  0  # atno 17321 bound_to 7965
  139.6864  144.7651  151.1515 LP  0  0  0  0  0  0  0  0  0  0  0  0  # atno 17342 bound_to 10162
  140.7663  143.5650  150.9057 LP  0  0  0  0  0  0  0  0  0  0  0  0  # atno 17343 bound_to 10162
  156.1927  130.6570  151.1080 LP  0  0  0  0  0  0  0  0  0  0  0  0  # atno 17370 bound_to 10713
  157.7072  131.0751  150.6627 LP  0  0  0  0  0  0  0  0  0  0  0  0  # atno 17371 bound_to 10713
  140.5903  134.5657  157.5498 LP  0  0  0  0  0  0  0  0  0  0  0  0  # atno 17394 bound_to 11000
  139.9417  134.7775  156.0661 LP  0  0  0  0  0  0  0  0  0  0  0  0  # atno 17395 bound_to 11000

$$$$
