AV-unprocessed.smi:2810|AV-procd|sdf|10827|dock6
  -GOLD-   2272015263D 1   1.00000     0.00000
 Structure written by MMmdl.
 39 40  0  0  0  0  0  0  0  0  1 V2000
  148.1653  142.4999  158.2847 C   0  0  0  0  0  0  0  0  0  0  0  0
  149.5815  141.9671  158.3312 C   0  0  0  0  0  0  0  0  0  0  0  0
  149.9681  140.8367  157.5822 C   0  0  0  0  0  0  0  0  0  0  0  0
  151.3154  140.4200  157.7123 C   0  0  0  0  0  0  0  0  0  0  0  0
  151.8467  139.3096  157.0254 N   0  0  0  0  0  0  0  0  0  0  0  0
  151.7373  139.4696  155.5770 C   0  0  0  0  0  0  0  0  0  0  0  0
  152.5226  138.3699  154.8479 C   0  0  0  0  0  0  0  0  0  0  0  0
  152.0682  137.0985  155.2917 O   0  0  0  0  0  0  0  0  0  0  0  0
  152.3096  136.9149  156.6816 C   0  0  0  0  0  0  0  0  0  0  0  0
  151.5265  137.9593  157.5115 C   0  0  1  0  0  0  0  0  0  0  0  0
  151.8348  137.7160  159.0006 C   0  0  0  0  0  0  0  0  0  0  0  0
  153.0143  138.1480  159.4533 N   0  0  0  0  0  0  0  0  0  0  0  0
  151.0187  137.1587  159.7326 O   0  0  0  0  0  0  0  0  0  0  0  0
  152.1737  141.0995  158.5068 N   0  0  0  0  0  0  0  0  0  0  0  0
  151.7012  142.1585  159.1727 C   0  0  0  0  0  0  0  0  0  0  0  0
  152.6813  142.9028  160.0698 C   0  0  0  0  0  0  0  0  0  0  0  0
  153.3820  141.9610  161.0612 C   0  0  0  0  0  0  0  0  0  0  0  0
  152.0291  144.1156  160.7512 C   0  0  0  0  0  0  0  0  0  0  0  0
  150.4502  142.6263  159.1268 N   0  0  0  0  0  0  0  0  0  0  0  0
  147.5864  142.0108  157.5009 H   0  0  0  0  0  0  0  0  0  0  0  0
  148.1662  143.5722  158.0876 H   0  0  0  0  0  0  0  0  0  0  0  0
  147.6662  142.3248  159.2380 H   0  0  0  0  0  0  0  0  0  0  0  0
  149.2617  140.3251  156.9463 H   0  0  0  0  0  0  0  0  0  0  0  0
  150.6852  139.4269  155.2904 H   0  0  0  0  0  0  0  0  0  0  0  0
  152.1132  140.4440  155.2614 H   0  0  0  0  0  0  0  0  0  0  0  0
  152.3669  138.4469  153.7717 H   0  0  0  0  0  0  0  0  0  0  0  0
  153.5949  138.4722  155.0234 H   0  0  0  0  0  0  0  0  0  0  0  0
  151.9982  135.9044  156.9497 H   0  0  0  0  0  0  0  0  0  0  0  0
  153.3823  136.9751  156.8773 H   0  0  0  0  0  0  0  0  0  0  0  0
  150.4626  137.7865  157.3404 H   0  0  0  0  0  0  0  0  0  0  0  0
  153.2629  138.0146  160.4226 H   0  0  0  0  0  0  0  0  0  0  0  0
  153.6532  138.6097  158.8225 H   0  0  0  0  0  0  0  0  0  0  0  0
  153.4661  143.3030  159.4253 H   0  0  0  0  0  0  0  0  0  0  0  0
  153.8954  141.1543  160.5374 H   0  0  0  0  0  0  0  0  0  0  0  0
  152.6706  141.5093  161.7534 H   0  0  0  0  0  0  0  0  0  0  0  0
  154.1246  142.4968  161.6525 H   0  0  0  0  0  0  0  0  0  0  0  0
  151.6081  144.7994  160.0133 H   0  0  0  0  0  0  0  0  0  0  0  0
  152.7573  144.6731  161.3407 H   0  0  0  0  0  0  0  0  0  0  0  0
  151.2243  143.8114  161.4212 H   0  0  0  0  0  0  0  0  0  0  0  0
  1  2  1  0  0  0  0
  1 20  1  0  0  0  0
  1 21  1  0  0  0  0
  1 22  1  0  0  0  0
  2 19  1  0  0  0  0
  2  3  2  0  0  0  0
  3  4  1  0  0  0  0
  3 23  1  0  0  0  0
  4  5  1  0  0  0  0
  4 14  2  0  0  0  0
  5 10  1  0  0  0  0
  5  6  1  0  0  0  0
  6  7  1  0  0  0  0
  6 24  1  0  0  0  0
  6 25  1  0  0  0  0
  7  8  1  0  0  0  0
  7 26  1  0  0  0  0
  7 27  1  0  0  0  0
  8  9  1  0  0  0  0
  9 10  1  0  0  0  0
  9 28  1  0  0  0  0
  9 29  1  0  0  0  0
 10 11  1  0  0  0  0
 10 30  1  0  0  0  0
 11 12  1  0  0  0  0
 11 13  2  0  0  0  0
 12 31  1  0  0  0  0
 12 32  1  0  0  0  0
 14 15  1  0  0  0  0
 15 16  1  0  0  0  0
 15 19  2  0  0  0  0
 16 17  1  0  0  0  0
 16 18  1  0  0  0  0
 16 33  1  0  0  0  0
 17 34  1  0  0  0  0
 17 35  1  0  0  0  0
 17 36  1  0  0  0  0
 18 37  1  0  0  0  0
 18 38  1  0  0  0  0
 18 39  1  0  0  0  0
M  END
> <s_m_source_file>
AV-unprocessed.smi

> <i_m_source_file_index>
2810

> <i_lp_mmshare_version>
43012

> <i_f3d_flags>
0

> <s_epik_input>
W0NIM11bQ0hdKFtDSDNdKWMobjEpbmMoW2NIXWMxW0NIM10pTjJbQ0gyXVtDSDJdT1tDSDJdW0NASF0yQyg9TylbTkgyXQ==

> <s_epik_cmdline>
J2VwaWtfcHl0aG9uJywgJy1waCcsICc3LjAnLCAnLXRuJywgJzgnLCAnLW1hJywgJzIwMCcsICctbWV0YWxfYmluZGluZycsICctaW1hZScsICc8aW5maWxlLm1hZT4nLCAnLW9tYWUnLCAnPG91dGZpbGUubWFlPic=

> <r_lp_tautomer_probability>
1

> <r_epik_Ionization_Penalty>
0.00607782

> <r_epik_Ionization_Penalty_Charging>
0

> <r_epik_Ionization_Penalty_Neutral>
0.00607782

> <r_epik_State_Penalty>
0.00441345

> <r_epik_Charging_Adjusted_Penalty>
0.00441345

> <i_epik_Tot_Q>
0

> <i_epik_Tot_abs_Q>
0

> <r_epik_Metal_State_Penalty>
-0

> <b_epik_Metal_Only>
0

> <s_lp_Force_Field>
OPLS_2005

> <r_lp_Energy>
6.57668

> <b_lp_Chiralities_Consistent>
1

> <s_lp_Variant>
AV-unprocessed.smi:2810-1

> <Gold.Version>
5.8.1

> <Gold.Id.Protein>
6NUR|6NUR_protein|mol2

> <Gold.PLP.Fitness>
37.3416

> <Gold.PLP.PLP>
-32.7147

> <Gold.PLP.part.hbond>
-2.5372

> <Gold.PLP.part.metal>
0.0000

> <Gold.PLP.part.buried>
-6.2082

> <Gold.PLP.part.nonpolar>
-24.8685

> <Gold.PLP.part.repulsive>
0.2209

> <Gold.PLP.ligand.clash>
0.0000

> <Gold.PLP.ligand.torsion>
0.6587

> <Gold.PLP.Chemscore.Hbond>
1.8703

> <Gold.PLP.Chemscore.CHOScore>
0.0000

> <Gold.PLP.Chemscore.Metal>
0.0000

> <Gold.Chemscore.Hbonds>
donor molecule, donor type, donor heavy atom, donor atom, acceptor molecule, acceptor atom, score
      P1  H  6896  6909       L1    13  0.98
      P1  H 10752 10764       L1     8  0.88

> <Gold.PLP.Chemscore.Internal.Correction>
0.3335

> <Gold.Rescore>
     Score         DG    S(hbond)    S(metal)    S(lipo)     H(rot)  DE(clash)    DE(int)     intcor
     13.34     -14.19       1.58        0.00      66.81       1.71       0.05       0.80       ----

> <Gold.Chemscore.Fitness>
13.3446

> <Gold.Chemscore.DG>
-14.1913

> <Gold.Chemscore.ZeroCoef>
-5.4800

> <Gold.Chemscore.Hbond>
1.5797

> <Gold.Chemscore.Metal>
0.0000

> <Gold.Chemscore.Lipo>
66.8128

> <Gold.Chemscore.Internal_Hbond>
0.0000

> <Gold.Chemscore.DEClash>
0.0491

> <Gold.Chemscore.DEInternal>
0.7975

> <Gold.Chemscore.Rot>
1.7117

> <Gold.Chemscore.Internal.Correction>
   9.000000E+99

> <Gold.Chemscore.Hbonds>
donor molecule, donor type, donor heavy atom, donor atom, acceptor molecule, acceptor atom, score
      P1  H  6896  6909       L1    13  0.80
      P1  H 10752 10764       L1     8  0.28

> <Gold.Chemscore.Hbond.Weighted>
-5.2762

> <Gold.Chemscore.Metal.Weighted>
-0.0000

> <Gold.Chemscore.Lipo.Weighted>
-7.8171

> <Gold.Chemscore.Internal_Hbond.Weighted>
0.0000

> <Gold.Chemscore.DEClash.Weighted>
0.0491

> <Gold.Chemscore.DEInternal.Weighted>
0.7975

> <Gold.Chemscore.Rot.Weighted>
4.3820

> <Gold.Chemscore.Internal.Correction.Weighted>
   9.000000E+99

> <Gold.Protein.RotatedTorsions>
[ 6907 6896 6895 6894 ] final  102.96 input  -60.11 | X-H torsion
[ 7974 7965 7964 7962 ] final -142.52 input  175.53 | X-H torsion
[ 8008 7997 7996 7995 ] final -139.06 input   59.86 | X-H torsion
[ 10167 10162 10161 10158 ] final  150.78 input  -65.29 | X-H torsion
[ 10718 10713 10712 10709 ] final  124.12 input   66.30 | X-H torsion
[ 10763 10752 10751 10750 ] final  -62.31 input  -60.55 | X-H torsion
[ 11005 11000 10999 10996 ] final  100.30 input  -57.11 | X-H torsion

> <Gold.Protein.ActiveResidues>
 VAL166  LYS551  ARG553  GLY616  TRP617  ASP618  TYR619  PRO620  LYS621  CYS622 
 ASP623  PHE694  ASN695  SER759  ASP760  ASP761  ALA762  ILE779  LEU786  VAL792 
 PHE793  MET794  SER795  GLU796  ALA797  LYS798  CYS799  TRP800  GLU811  SER814 

> <Gold.Protein.RotatedAtoms>
  152.5309  133.9897  159.7844 H   0  0  0  0  0  0  0  0  0  0  0  0  # atno 6907 bound_to 6896
  151.0135  133.5935  159.2687 H   0  0  0  0  0  0  0  0  0  0  0  0  # atno 6908 bound_to 6896
  151.3000  135.0772  159.9288 H   0  0  0  0  0  0  0  0  0  0  0  0  # atno 6909 bound_to 6896
  144.8437  140.5947  143.5435 H   0  0  0  0  0  0  0  0  0  0  0  0  # atno 7974 bound_to 7965
  155.4386  140.0530  157.3012 H   0  0  0  0  0  0  0  0  0  0  0  0  # atno 8008 bound_to 7997
  154.4828  140.2088  155.9681 H   0  0  0  0  0  0  0  0  0  0  0  0  # atno 8009 bound_to 7997
  156.1231  140.3185  155.8242 H   0  0  0  0  0  0  0  0  0  0  0  0  # atno 8010 bound_to 7997
  139.4846  144.5494  151.7427 H   0  0  0  0  0  0  0  0  0  0  0  0  # atno 10167 bound_to 10162
  157.5610  131.1089  150.8538 H   0  0  0  0  0  0  0  0  0  0  0  0  # atno 10718 bound_to 10713
  154.2979  135.6240  153.5412 H   0  0  0  0  0  0  0  0  0  0  0  0  # atno 10763 bound_to 10752
  152.9844  135.5671  154.5317 H   0  0  0  0  0  0  0  0  0  0  0  0  # atno 10764 bound_to 10752
  154.4941  135.2869  155.1449 H   0  0  0  0  0  0  0  0  0  0  0  0  # atno 10765 bound_to 10752
  139.8771  134.9134  156.4736 H   0  0  0  0  0  0  0  0  0  0  0  0  # atno 11005 bound_to 11000
  145.4641  139.1510  143.3850 LP  0  0  0  0  0  0  0  0  0  0  0  0  # atno 17320 bound_to 7965
  146.2725  140.4772  142.8808 LP  0  0  0  0  0  0  0  0  0  0  0  0  # atno 17321 bound_to 7965
  140.5046  144.1117  150.5979 LP  0  0  0  0  0  0  0  0  0  0  0  0  # atno 17342 bound_to 10162
  140.4022  143.2698  151.9934 LP  0  0  0  0  0  0  0  0  0  0  0  0  # atno 17343 bound_to 10162
  156.9036  130.5255  149.5282 LP  0  0  0  0  0  0  0  0  0  0  0  0  # atno 17370 bound_to 10713
  156.0663  130.5705  150.9294 LP  0  0  0  0  0  0  0  0  0  0  0  0  # atno 17371 bound_to 10713
  140.8778  133.7940  155.9433 LP  0  0  0  0  0  0  0  0  0  0  0  0  # atno 17394 bound_to 11000
  140.8886  134.2523  157.5107 LP  0  0  0  0  0  0  0  0  0  0  0  0  # atno 17395 bound_to 11000

$$$$
