AV-unprocessed.smi:1257|AV-procd|sdf|5286|dock4
  -GOLD-   22720 4403D 1   1.00000     0.00000
 Structure written by MMmdl.
 47 48  0  0  0  0  0  0  0  0  1 V2000
  144.8629  134.6604  151.7789 C   0  0  0  0  0  0  0  0  0  0  0  0
  145.5054  135.3512  152.9893 C   0  0  0  0  0  0  0  0  0  0  0  0
  146.2289  136.5567  152.6008 N   0  0  0  0  0  0  0  0  0  0  0  0
  145.9456  137.7969  153.0268 C   0  0  0  0  0  0  0  0  0  0  0  0
  145.0193  138.0480  153.7999 O   0  0  0  0  0  0  0  0  0  0  0  0
  146.8382  138.9159  152.4747 C   0  0  0  0  0  0  0  0  0  0  0  0
  147.6594  139.5465  153.5051 N   0  0  0  0  0  0  0  0  0  0  0  0
  147.3057  140.6214  154.2290 C   0  0  0  0  0  0  0  0  0  0  0  0
  146.1991  141.1566  154.1590 O   0  0  0  0  0  0  0  0  0  0  0  0
  148.3414  141.1183  155.1947 C   0  0  0  0  0  0  0  0  0  0  0  0
  149.7104  140.8511  154.9857 C   0  0  0  0  0  0  0  0  0  0  0  0
  150.6504  141.3081  155.9295 C   0  0  0  0  0  0  0  0  0  0  0  0
  150.1980  142.0153  157.0683 C   0  0  0  0  0  0  0  0  0  0  0  0
  151.1224  142.4788  158.0283 N   0  0  0  0  0  0  0  0  0  0  0  0
  151.9859  141.4597  158.6155 C   0  0  0  0  0  0  0  0  0  0  0  0
  152.6752  142.0051  159.8793 C   0  0  1  0  0  0  0  0  0  0  0  0
  153.6953  141.0125  160.4465 C   0  0  0  0  0  0  0  0  0  0  0  0
  153.3648  143.2149  159.5665 O   0  0  0  0  0  0  0  0  0  0  0  0
  152.5435  144.2478  159.0178 C   0  0  2  0  0  0  0  0  0  0  0  0
  151.5959  144.8576  160.0660 C   0  0  0  0  0  0  0  0  0  0  0  0
  151.8173  143.7357  157.7591 C   0  0  0  0  0  0  0  0  0  0  0  0
  148.8805  142.2572  157.2756 N   0  0  0  0  0  0  0  0  0  0  0  0
  147.9834  141.8190  156.3678 C   0  0  0  0  0  0  0  0  0  0  0  0
  144.3498  133.7478  152.0824 H   0  0  0  0  0  0  0  0  0  0  0  0
  145.6129  134.3888  151.0355 H   0  0  0  0  0  0  0  0  0  0  0  0
  144.1286  135.3055  151.2951 H   0  0  0  0  0  0  0  0  0  0  0  0
  144.7476  135.5900  153.7373 H   0  0  0  0  0  0  0  0  0  0  0  0
  146.2102  134.6712  153.4682 H   0  0  0  0  0  0  0  0  0  0  0  0
  147.0037  136.4389  151.9639 H   0  0  0  0  0  0  0  0  0  0  0  0
  147.4664  138.5271  151.6712 H   0  0  0  0  0  0  0  0  0  0  0  0
  146.2013  139.6811  152.0302 H   0  0  0  0  0  0  0  0  0  0  0  0
  148.5819  139.1619  153.6478 H   0  0  0  0  0  0  0  0  0  0  0  0
  150.0440  140.3038  154.1159 H   0  0  0  0  0  0  0  0  0  0  0  0
  151.6988  141.0973  155.7796 H   0  0  0  0  0  0  0  0  0  0  0  0
  151.4291  140.5593  158.8724 H   0  0  0  0  0  0  0  0  0  0  0  0
  152.7332  141.1687  157.8760 H   0  0  0  0  0  0  0  0  0  0  0  0
  151.9281  142.1964  160.6498 H   0  0  0  0  0  0  0  0  0  0  0  0
  153.2185  140.0693  160.7143 H   0  0  0  0  0  0  0  0  0  0  0  0
  154.1692  141.4111  161.3437 H   0  0  0  0  0  0  0  0  0  0  0  0
  154.4816  140.7970  159.7223 H   0  0  0  0  0  0  0  0  0  0  0  0
  153.2220  145.0429  158.7074 H   0  0  0  0  0  0  0  0  0  0  0  0
  151.0799  145.7274  159.6589 H   0  0  0  0  0  0  0  0  0  0  0  0
  152.1490  145.1854  160.9464 H   0  0  0  0  0  0  0  0  0  0  0  0
  150.8310  144.1535  160.3928 H   0  0  0  0  0  0  0  0  0  0  0  0
  152.5421  143.5705  156.9607 H   0  0  0  0  0  0  0  0  0  0  0  0
  151.1169  144.4938  157.4063 H   0  0  0  0  0  0  0  0  0  0  0  0
  146.9498  142.0332  156.5973 H   0  0  0  0  0  0  0  0  0  0  0  0
  1  2  1  0  0  0  0
  1 24  1  0  0  0  0
  1 25  1  0  0  0  0
  1 26  1  0  0  0  0
  2  3  1  0  0  0  0
  2 27  1  0  0  0  0
  2 28  1  0  0  0  0
  3  4  1  0  0  0  0
  3 29  1  0  0  0  0
  4  5  2  0  0  0  0
  4  6  1  0  0  0  0
  6  7  1  0  0  0  0
  6 30  1  0  0  0  0
  6 31  1  0  0  0  0
  7  8  1  0  0  0  0
  7 32  1  0  0  0  0
  8  9  2  0  0  0  0
  8 10  1  0  0  0  0
 10 23  1  0  0  0  0
 10 11  2  0  0  0  0
 11 12  1  0  0  0  0
 11 33  1  0  0  0  0
 12 13  2  0  0  0  0
 12 34  1  0  0  0  0
 13 14  1  0  0  0  0
 13 22  1  0  0  0  0
 14 21  1  0  0  0  0
 14 15  1  0  0  0  0
 15 16  1  0  0  0  0
 15 35  1  0  0  0  0
 15 36  1  0  0  0  0
 16 17  1  0  0  0  0
 16 18  1  0  0  0  0
 16 37  1  0  0  0  0
 17 38  1  0  0  0  0
 17 39  1  0  0  0  0
 17 40  1  0  0  0  0
 18 19  1  0  0  0  0
 19 20  1  0  0  0  0
 19 21  1  0  0  0  0
 19 41  1  0  0  0  0
 20 42  1  0  0  0  0
 20 43  1  0  0  0  0
 20 44  1  0  0  0  0
 21 45  1  0  0  0  0
 21 46  1  0  0  0  0
 22 23  2  0  0  0  0
 23 47  1  0  0  0  0
M  END
> <s_m_source_file>
AV-unprocessed.smi

> <i_m_source_file_index>
1257

> <i_lp_mmshare_version>
43012

> <i_f3d_flags>
0

> <s_epik_input>
W0NIM11bQ0gyXVtOSF1DKD1PKVtDSDJdW05IXUMoPU8pYzFbY0hdW2NIXWMobltjSF0xKU4yW0NIMl1bQ0BASF0oW0NIM10pT1tDQEBIXShbQ0gzXSlbQ0gyXTI=

> <s_epik_cmdline>
J2VwaWtfcHl0aG9uJywgJy1waCcsICc3LjAnLCAnLXRuJywgJzgnLCAnLW1hJywgJzIwMCcsICctbWV0YWxfYmluZGluZycsICctaW1hZScsICc8aW5maWxlLm1hZT4nLCAnLW9tYWUnLCAnPG91dGZpbGUubWFlPic=

> <r_lp_tautomer_probability>
1

> <r_epik_Ionization_Penalty>
1.15681e-05

> <r_epik_Ionization_Penalty_Charging>
0

> <r_epik_Ionization_Penalty_Neutral>
1.15681e-05

> <r_epik_State_Penalty>
-0

> <r_epik_Charging_Adjusted_Penalty>
0

> <i_epik_Tot_Q>
0

> <i_epik_Tot_abs_Q>
0

> <r_epik_Metal_State_Penalty>
-0

> <b_epik_Metal_Only>
0

> <s_lp_Force_Field>
OPLS_2005

> <r_lp_Energy>
16.6587

> <b_lp_Chiralities_Consistent>
1

> <s_lp_Variant>
AV-unprocessed.smi:1257-3

> <Gold.Version>
5.8.1

> <Gold.Id.Protein>
6NUR|6NUR_protein|mol2

> <Gold.PLP.Fitness>
44.0272

> <Gold.PLP.PLP>
-42.8100

> <Gold.PLP.part.hbond>
-1.9260

> <Gold.PLP.part.metal>
0.0000

> <Gold.PLP.part.buried>
-4.2873

> <Gold.PLP.part.nonpolar>
-38.5467

> <Gold.PLP.part.repulsive>
1.6570

> <Gold.PLP.ligand.clash>
0.0000

> <Gold.PLP.ligand.torsion>
0.8108

> <Gold.PLP.Chemscore.Hbond>
0.8320

> <Gold.PLP.Chemscore.CHOScore>
0.0000

> <Gold.PLP.Chemscore.Metal>
0.0000

> <Gold.Chemscore.Hbonds>
donor molecule, donor type, donor heavy atom, donor atom, acceptor molecule, acceptor atom, score
      L1  H     3    29       P1  7948  0.91

> <Gold.PLP.Chemscore.Internal.Correction>
0.3428

> <Gold.Rescore>
     Score         DG    S(hbond)    S(metal)    S(lipo)     H(rot)  DE(clash)    DE(int)     intcor
     15.52     -16.50       0.98        0.00     103.46       1.71       0.13       0.85       ----

> <Gold.Chemscore.Fitness>
15.5243

> <Gold.Chemscore.DG>
-16.5028

> <Gold.Chemscore.ZeroCoef>
-5.4800

> <Gold.Chemscore.Hbond>
0.9843

> <Gold.Chemscore.Metal>
0.0000

> <Gold.Chemscore.Lipo>
103.4554

> <Gold.Chemscore.Internal_Hbond>
0.0000

> <Gold.Chemscore.DEClash>
0.1281

> <Gold.Chemscore.DEInternal>
0.8505

> <Gold.Chemscore.Rot>
1.7066

> <Gold.Chemscore.Internal.Correction>
   9.000000E+99

> <Gold.Chemscore.Hbonds>
donor molecule, donor type, donor heavy atom, donor atom, acceptor molecule, acceptor atom, score
      L1  H     3    29       P1  7948  0.87

> <Gold.Chemscore.Hbond.Weighted>
-3.2875

> <Gold.Chemscore.Metal.Weighted>
-0.0000

> <Gold.Chemscore.Lipo.Weighted>
-12.1043

> <Gold.Chemscore.Internal_Hbond.Weighted>
0.0000

> <Gold.Chemscore.DEClash.Weighted>
0.1281

> <Gold.Chemscore.DEInternal.Weighted>
0.8505

> <Gold.Chemscore.Rot.Weighted>
4.3690

> <Gold.Chemscore.Internal.Correction.Weighted>
   9.000000E+99

> <Gold.Protein.RotatedTorsions>
[ 6907 6896 6895 6894 ] final   12.37 input  -60.11 | X-H torsion
[ 7974 7965 7964 7962 ] final  -25.92 input  175.53 | X-H torsion
[ 8008 7997 7996 7995 ] final   42.68 input   59.86 | X-H torsion
[ 10167 10162 10161 10158 ] final  121.67 input  -65.29 | X-H torsion
[ 10718 10713 10712 10709 ] final  -23.44 input   66.30 | X-H torsion
[ 10763 10752 10751 10750 ] final -117.13 input  -60.55 | X-H torsion
[ 11005 11000 10999 10996 ] final   53.06 input  -57.11 | X-H torsion

> <Gold.Protein.ActiveResidues>
 VAL166  LYS551  ARG553  GLY616  TRP617  ASP618  TYR619  PRO620  LYS621  CYS622 
 ASP623  PHE694  ASN695  SER759  ASP760  ASP761  ALA762  ILE779  LEU786  VAL792 
 PHE793  MET794  SER795  GLU796  ALA797  LYS798  CYS799  TRP800  GLU811  SER814 

> <Gold.Protein.RotatedAtoms>
  151.7693  135.0790  160.0357 H   0  0  0  0  0  0  0  0  0  0  0  0  # atno 6907 bound_to 6896
  152.3300  133.5943  159.5811 H   0  0  0  0  0  0  0  0  0  0  0  0  # atno 6908 bound_to 6896
  150.7417  133.9799  159.3614 H   0  0  0  0  0  0  0  0  0  0  0  0  # atno 6909 bound_to 6896
  146.1460  140.4950  142.8632 H   0  0  0  0  0  0  0  0  0  0  0  0  # atno 7974 bound_to 7965
  155.2902  140.3378  155.4253 H   0  0  0  0  0  0  0  0  0  0  0  0  # atno 8008 bound_to 7997
  156.2050  140.1747  156.7860 H   0  0  0  0  0  0  0  0  0  0  0  0  # atno 8009 bound_to 7997
  154.5608  140.0687  156.8800 H   0  0  0  0  0  0  0  0  0  0  0  0  # atno 8010 bound_to 7997
  139.5905  144.7023  151.3301 H   0  0  0  0  0  0  0  0  0  0  0  0  # atno 10167 bound_to 10162
  156.4910  130.4566  149.6755 H   0  0  0  0  0  0  0  0  0  0  0  0  # atno 10718 bound_to 10713
  154.8544  135.4321  154.1930 H   0  0  0  0  0  0  0  0  0  0  0  0  # atno 10763 bound_to 10752
  153.2994  135.6967  153.7223 H   0  0  0  0  0  0  0  0  0  0  0  0  # atno 10764 bound_to 10752
  153.6359  135.3476  155.3030 H   0  0  0  0  0  0  0  0  0  0  0  0  # atno 10765 bound_to 10752
  140.0798  134.5354  155.8958 H   0  0  0  0  0  0  0  0  0  0  0  0  # atno 11005 bound_to 11000
  144.7847  140.5911  143.6582 LP  0  0  0  0  0  0  0  0  0  0  0  0  # atno 17320 bound_to 7965
  145.4937  139.1487  143.3695 LP  0  0  0  0  0  0  0  0  0  0  0  0  # atno 17321 bound_to 7965
  140.7169  143.7242  150.7673 LP  0  0  0  0  0  0  0  0  0  0  0  0  # atno 17342 bound_to 10162
  140.0797  143.4981  152.2537 LP  0  0  0  0  0  0  0  0  0  0  0  0  # atno 17343 bound_to 10162
  156.3426  130.7390  151.2338 LP  0  0  0  0  0  0  0  0  0  0  0  0  # atno 17370 bound_to 10713
  157.7474  131.0399  150.4573 LP  0  0  0  0  0  0  0  0  0  0  0  0  # atno 17371 bound_to 10713
  141.2042  133.6638  156.6110 LP  0  0  0  0  0  0  0  0  0  0  0  0  # atno 17394 bound_to 11000
  140.3504  134.7773  157.4463 LP  0  0  0  0  0  0  0  0  0  0  0  0  # atno 17395 bound_to 11000

$$$$
