#       Name:                AV-unprocessed.smi:2888
#       Creating user name   scv26
#       Creation time:       Fri Mar 27 15:57:06 2020


#       File generated by GOLD software.
#

@<TRIPOS>MOLECULE
AV-unprocessed.smi:2888
    37    39     1
SMALL
NO_CHARGES


@<TRIPOS>ATOM
      1 ****        -3.4130  -2.0170   0.2028 C.3            1 S1                 0.0000
      2 ****        -2.7082  -0.6850   0.3455 C.ar           1 S1                 0.0000
      3 ****        -3.4118   0.5354   0.2741 C.ar           1 S1                 0.0000
      4 ****        -2.6387   1.7060   0.4223 C.ar           1 S1                 0.0000
      5 ****        -3.2670   3.0821   0.3646 C.3            1 S1                 0.0000
      6 ****        -1.3021   1.6574   0.6181 N.ar           1 S1                 0.0000
      7 ****        -0.7389   0.4475   0.6652 C.ar           1 S1                 0.0000
      8 ****         0.6305   0.4373   0.8563 N.pl3          1 S1                 0.0000
      9 ****         1.4722  -0.7426   0.6939 C.3            1 S1                 0.0000
     10 ****         2.9310  -0.5044   1.0900 C.3            1 S1                 0.0000
     11 ****         3.6779  -0.9736  -0.1670 C.3            1 S1                 0.0000
     12 ****         3.5605   0.0482  -1.3050 C.3            1 S1                 0.0000
     13 ****         2.1045  -0.1286  -1.7311 C.3            1 S1                 0.0000
     14 ****         1.6196  -1.2223  -0.7635 C.3            1 S1                 0.0000
     15 ****         2.8068  -1.9875  -0.6405 O.3            1 S1                 0.0000
     16 ****        -1.3720  -0.7252   0.5408 N.ar           1 S1                 0.0000
     17 ****        -4.4943  -1.8874   0.1538 H              1 S1                 0.0000
     18 ****        -3.1861  -2.6609   1.0530 H              1 S1                 0.0000
     19 ****        -3.0874  -2.5208  -0.7075 H              1 S1                 0.0000
     20 ****        -4.4796   0.5715   0.1150 H              1 S1                 0.0000
     21 ****        -4.3553   3.0171   0.3440 H              1 S1                 0.0000
     22 ****        -2.9389   3.6098  -0.5312 H              1 S1                 0.0000
     23 ****        -2.9782   3.6703   1.2360 H              1 S1                 0.0000
     24 ****         1.0866   1.3356   0.9181 H              1 S1                 0.0000
     25 ****         1.0718  -1.5534   1.3043 H              1 S1                 0.0000
     26 ****         3.1576   0.5345   1.3339 H              1 S1                 0.0000
     27 ****         3.1935  -1.1185   1.9521 H              1 S1                 0.0000
     28 ****         4.6980  -1.3085   0.0226 H              1 S1                 0.0000
     29 ****         3.7871   1.0637  -0.9782 H              1 S1                 0.0000
     30 ****         4.2320  -0.2052  -2.1260 H              1 S1                 0.0000
     31 ****         1.5258   0.7927  -1.6610 H              1 S1                 0.0000
     32 ****         2.0517  -0.4793  -2.7623 H              1 S1                 0.0000
     33 ****         0.7631  -1.7874  -1.1319 H              1 S1                 0.0000
     34 ****        -0.7591   2.4905   0.7230 LP             1 S1                 0.0000
     35 ****         2.7058  -2.7327   0.0187 LP             1 S1                 0.0000
     36 ****         3.1063  -2.3585  -1.5196 LP             1 S1                 0.0000
     37 ****        -0.8776  -1.5931   0.5902 LP             1 S1                 0.0000
@<TRIPOS>BOND
    1    1    2 1     
    2    1   17 1     
    3    1   18 1     
    4    1   19 1     
    5    2   16 ar    
    6    2    3 ar    
    7    3    4 ar    
    8    3   20 1     
    9    4    5 1     
   10    4    6 ar    
   11    5   21 1     
   12    5   22 1     
   13    5   23 1     
   14    6    7 ar    
   15    7    8 1     
   16    7   16 ar    
   17    8    9 1     
   18    8   24 1     
   19    9   14 1     
   20    9   10 1     
   21    9   25 1     
   22   10   11 1     
   23   10   26 1     
   24   10   27 1     
   25   11   15 1     
   26   11   12 1     
   27   11   28 1     
   28   12   13 1     
   29   12   29 1     
   30   12   30 1     
   31   13   14 1     
   32   13   31 1     
   33   13   32 1     
   34   14   15 1     
   35   14   33 1     
   36    6   34 1     
   37   15   35 1     
   38   15   36 1     
   39   16   37 1     
@<TRIPOS>SUBSTRUCTURE
      1 S1             1
@<TRIPOS>SET
LONE_PAIRS      STATIC     ATOMS    <user>   **** ""
4 34 35 36 37
DONOR_HYDROGENS      STATIC     ATOMS    <user>   **** ""
1 24
ATOM$BLUE        STATIC     ATOMS    COLORGROUP SYSTEM
4 34 35 36 37
ATOM$RED        STATIC     ATOMS    COLORGROUP SYSTEM
1 24
