AV-unprocessed.smi:1013|AV-procd|sdf|4427|dock6
  -GOLD-   22720 2383D 1   1.00000     0.00000
 Structure written by MMmdl.
 30 31  0  0  0  0  0  0  0  0  3 V2000
  151.6233  137.2194  154.3777 O   0  0  0  0  0  0  0  0  0  0  0  0
  151.4532  138.4418  154.5778 C   0  0  0  0  0  0  0  0  0  0  0  0
  152.3655  139.2988  154.6160 O   0  5  0  0  0  0  0  0  0  0  0  0
  150.0058  138.9235  154.7758 C   0  0  1  0  0  0  0  0  0  0  0  0
  149.9951  140.4389  155.0888 C   0  0  0  0  0  0  0  0  0  0  0  0
  150.6960  140.7785  156.3169 N   0  0  0  0  0  0  0  0  0  0  0  0
  151.3502  139.9312  157.1849 C   0  0  0  0  0  0  0  0  0  0  0  0
  151.8303  140.6916  158.2120 C   0  0  0  0  0  0  0  0  0  0  0  0
  151.4028  142.0133  157.8943 C   0  0  0  0  0  0  0  0  0  0  0  0
  151.6369  143.2837  158.6687 C   0  0  0  0  0  0  0  0  0  0  0  0
  152.2238  144.1913  157.8889 F   0  0  0  0  0  0  0  0  0  0  0  0
  150.4791  143.7779  159.1068 F   0  0  0  0  0  0  0  0  0  0  0  0
  152.4220  143.0367  159.7172 F   0  0  0  0  0  0  0  0  0  0  0  0
  150.7166  142.0540  156.7604 N   0  0  0  0  0  0  0  0  0  0  0  0
  149.2134  138.6342  153.5586 N   0  3  0  0  0  0  0  0  0  0  0  0
  147.7530  138.7970  153.7158 C   0  0  0  0  0  0  0  0  0  0  0  0
  147.0131  139.0138  152.4178 C   0  0  0  0  0  0  0  0  0  0  0  0
  147.2734  140.1797  153.3475 C   0  0  0  0  0  0  0  0  0  0  0  0
  149.5592  138.3890  155.6169 H   0  0  0  0  0  0  0  0  0  0  0  0
  150.4624  140.9949  154.2745 H   0  0  0  0  0  0  0  0  0  0  0  0
  148.9717  140.8092  155.1707 H   0  0  0  0  0  0  0  0  0  0  0  0
  151.4208  138.8689  157.0018 H   0  0  0  0  0  0  0  0  0  0  0  0
  152.3969  140.3537  159.0670 H   0  0  0  0  0  0  0  0  0  0  0  0
  149.5149  139.2787  152.8425 H   0  0  0  0  0  0  0  0  0  0  0  0
  147.2931  138.2802  154.5563 H   0  0  0  0  0  0  0  0  0  0  0  0
  147.5808  138.9713  151.4898 H   0  0  0  0  0  0  0  0  0  0  0  0
  145.9930  138.6401  152.3556 H   0  0  0  0  0  0  0  0  0  0  0  0
  146.4215  140.5791  153.8941 H   0  0  0  0  0  0  0  0  0  0  0  0
  148.0115  140.9161  153.0346 H   0  0  0  0  0  0  0  0  0  0  0  0
  149.4181  137.6918  153.2586 H   0  0  0  0  0  0  0  0  0  0  0  0
  1  2  2  0  0  0  0
  2  3  1  0  0  0  0
  2  4  1  0  0  0  0
  4  5  1  0  0  0  0
  4 15  1  0  0  0  0
  4 19  1  0  0  0  0
  5  6  1  0  0  0  0
  5 20  1  0  0  0  0
  5 21  1  0  0  0  0
  6 14  1  0  0  0  0
  6  7  1  0  0  0  0
  7  8  2  0  0  0  0
  7 22  1  0  0  0  0
  8  9  1  0  0  0  0
  8 23  1  0  0  0  0
  9 10  1  0  0  0  0
  9 14  2  0  0  0  0
 10 11  1  0  0  0  0
 10 12  1  0  0  0  0
 10 13  1  0  0  0  0
 15 16  1  0  0  0  0
 15 24  1  0  0  0  0
 15 30  1  0  0  0  0
 16 18  1  0  0  0  0
 16 17  1  0  0  0  0
 16 25  1  0  0  0  0
 17 18  1  0  0  0  0
 17 26  1  0  0  0  0
 17 27  1  0  0  0  0
 18 28  1  0  0  0  0
 18 29  1  0  0  0  0
M  CHG  1   3  -1
M  CHG  1  15   1
M  END
> <s_m_source_file>
AV-unprocessed.smi

> <i_m_source_file_index>
1013

> <i_lp_mmshare_version>
43012

> <i_f3d_flags>
0

> <s_epik_input>
W0NIMl0xW0NIMl1bQ0hdMVtOSF1bQ0BIXShDKD1PKVtPSF0pW0NIMl1uMltjSF1bY0hdYyhuMilDKEYpKEYpRg==

> <s_epik_cmdline>
J2VwaWtfcHl0aG9uJywgJy1waCcsICc3LjAnLCAnLXRuJywgJzgnLCAnLW1hJywgJzIwMCcsICctbWV0YWxfYmluZGluZycsICctaW1hZScsICc8aW5maWxlLm1hZT4nLCAnLW9tYWUnLCAnPG91dGZpbGUubWFlPic=

> <r_lp_tautomer_probability>
1

> <r_epik_Ionization_Penalty>
0.183175

> <r_epik_Ionization_Penalty_Charging>
0.183175

> <r_epik_Ionization_Penalty_Neutral>
3.57035e-11

> <r_epik_State_Penalty>
0.172705

> <r_epik_Charging_Adjusted_Penalty>
0.35588

> <i_epik_Tot_Q>
0

> <i_epik_Tot_abs_Q>
2

> <r_epik_Metal_State_Penalty>
0.172705

> <b_epik_Metal_Only>
0

> <s_lp_Force_Field>
OPLS_2005

> <r_lp_Energy>
10.483

> <b_lp_Chiralities_Consistent>
1

> <s_lp_Variant>
AV-unprocessed.smi:1013-2

> <Gold.Version>
5.8.1

> <Gold.Id.Protein>
6NUR|6NUR_protein|mol2

> <Gold.PLP.Fitness>
55.6220

> <Gold.PLP.PLP>
-39.3312

> <Gold.PLP.part.hbond>
-4.0000

> <Gold.PLP.part.metal>
0.0000

> <Gold.PLP.part.buried>
-3.6248

> <Gold.PLP.part.nonpolar>
-33.0216

> <Gold.PLP.part.repulsive>
0.3970

> <Gold.PLP.ligand.clash>
0.0000

> <Gold.PLP.ligand.torsion>
0.4601

> <Gold.PLP.Chemscore.Hbond>
5.4882

> <Gold.PLP.Chemscore.CHOScore>
0.0000

> <Gold.PLP.Chemscore.Metal>
0.0000

> <Gold.Chemscore.Hbonds>
donor molecule, donor type, donor heavy atom, donor atom, acceptor molecule, acceptor atom, score
      L1  H    15    24       P1  7957  1.00
      L1  H    15    30       P1  7948  1.75
      P1  H  7989  7998       L1     3  0.71
      P1  H 10752 10763       L1     1  1.95

> <Gold.PLP.Chemscore.Internal.Correction>
0.7465

> <Gold.Rescore>
     Score         DG    S(hbond)    S(metal)    S(lipo)     H(rot)  DE(clash)    DE(int)     intcor
     14.91     -16.84       3.24        0.00      61.40       2.60       0.14       1.79       ----

> <Gold.Chemscore.Fitness>
14.9141

> <Gold.Chemscore.DG>
-16.8403

> <Gold.Chemscore.ZeroCoef>
-5.4800

> <Gold.Chemscore.Hbond>
3.2408

> <Gold.Chemscore.Metal>
0.0000

> <Gold.Chemscore.Lipo>
61.4041

> <Gold.Chemscore.Internal_Hbond>
0.0000

> <Gold.Chemscore.DEClash>
0.1383

> <Gold.Chemscore.DEInternal>
1.7878

> <Gold.Chemscore.Rot>
2.5970

> <Gold.Chemscore.Internal.Correction>
   9.000000E+99

> <Gold.Chemscore.Hbonds>
donor molecule, donor type, donor heavy atom, donor atom, acceptor molecule, acceptor atom, score
      L1  H    15    24       P1  7957  0.99
      L1  H    15    30       P1  7948  0.76
      P1  H  7989  7998       L1     3  0.33
      P1  H 10752 10763       L1     1  0.90

> <Gold.Chemscore.Hbond.Weighted>
-10.8244

> <Gold.Chemscore.Metal.Weighted>
-0.0000

> <Gold.Chemscore.Lipo.Weighted>
-7.1843

> <Gold.Chemscore.Internal_Hbond.Weighted>
0.0000

> <Gold.Chemscore.DEClash.Weighted>
0.1383

> <Gold.Chemscore.DEInternal.Weighted>
1.7878

> <Gold.Chemscore.Rot.Weighted>
6.6484

> <Gold.Chemscore.Internal.Correction.Weighted>
   9.000000E+99

> <Gold.Protein.RotatedTorsions>
[ 6907 6896 6895 6894 ] final  166.55 input  -60.11 | X-H torsion
[ 7974 7965 7964 7962 ] final  -83.99 input  175.53 | X-H torsion
[ 8008 7997 7996 7995 ] final   -3.66 input   59.86 | X-H torsion
[ 10167 10162 10161 10158 ] final -127.07 input  -65.29 | X-H torsion
[ 10718 10713 10712 10709 ] final -153.17 input   66.30 | X-H torsion
[ 10763 10752 10751 10750 ] final   42.27 input  -60.55 | X-H torsion
[ 11005 11000 10999 10996 ] final  152.71 input  -57.11 | X-H torsion

> <Gold.Protein.ActiveResidues>
 VAL166  LYS551  ARG553  GLY616  TRP617  ASP618  TYR619  PRO620  LYS621  CYS622 
 ASP623  PHE694  ASN695  SER759  ASP760  ASP761  ALA762  ILE779  LEU786  VAL792 
 PHE793  MET794  SER795  GLU796  ALA797  LYS798  CYS799  TRP800  GLU811  SER814 

> <Gold.Protein.RotatedAtoms>
  151.8771  133.3487  159.3753 H   0  0  0  0  0  0  0  0  0  0  0  0  # atno 6907 bound_to 6896
  150.7137  134.5055  159.5591 H   0  0  0  0  0  0  0  0  0  0  0  0  # atno 6908 bound_to 6896
  152.2600  134.8045  160.0483 H   0  0  0  0  0  0  0  0  0  0  0  0  # atno 6909 bound_to 6896
  145.5126  140.9538  143.1699 H   0  0  0  0  0  0  0  0  0  0  0  0  # atno 7974 bound_to 7965
  154.6225  140.2503  155.7532 H   0  0  0  0  0  0  0  0  0  0  0  0  # atno 8008 bound_to 7997
  156.2435  140.2923  156.0459 H   0  0  0  0  0  0  0  0  0  0  0  0  # atno 8009 bound_to 7997
  155.1874  140.0390  157.2884 H   0  0  0  0  0  0  0  0  0  0  0  0  # atno 8010 bound_to 7997
  139.9647  143.5911  152.2433 H   0  0  0  0  0  0  0  0  0  0  0  0  # atno 10167 bound_to 10162
  156.4822  130.8308  151.2535 H   0  0  0  0  0  0  0  0  0  0  0  0  # atno 10718 bound_to 10713
  152.9887  135.6137  154.2922 H   0  0  0  0  0  0  0  0  0  0  0  0  # atno 10763 bound_to 10752
  154.2646  135.2781  155.2765 H   0  0  0  0  0  0  0  0  0  0  0  0  # atno 10764 bound_to 10752
  154.5175  135.5824  153.6711 H   0  0  0  0  0  0  0  0  0  0  0  0  # atno 10765 bound_to 10752
  140.1332  134.8788  157.2232 H   0  0  0  0  0  0  0  0  0  0  0  0  # atno 11005 bound_to 11000
  144.7719  139.6716  143.7191 LP  0  0  0  0  0  0  0  0  0  0  0  0  # atno 17320 bound_to 7965
  146.2157  139.5545  142.9652 LP  0  0  0  0  0  0  0  0  0  0  0  0  # atno 17321 bound_to 7965
  139.6527  144.7661  151.2117 LP  0  0  0  0  0  0  0  0  0  0  0  0  # atno 17342 bound_to 10162
  140.7541  143.6136  150.8582 LP  0  0  0  0  0  0  0  0  0  0  0  0  # atno 17343 bound_to 10162
  157.7482  131.0041  150.3063 LP  0  0  0  0  0  0  0  0  0  0  0  0  # atno 17370 bound_to 10713
  156.3510  130.3831  149.7329 LP  0  0  0  0  0  0  0  0  0  0  0  0  # atno 17371 bound_to 10713
  140.2815  134.3344  155.7341 LP  0  0  0  0  0  0  0  0  0  0  0  0  # atno 17394 bound_to 11000
  141.2174  133.7481  156.9371 LP  0  0  0  0  0  0  0  0  0  0  0  0  # atno 17395 bound_to 11000

$$$$
