AV-unprocessed.smi:1639|AV-procd|sdf|6550|dock7
  -GOLD-   22720 7233D 1   1.00000     0.00000
 Structure written by MMmdl.
 38 39  0  0  0  0  0  0  0  0  2 V2000
  148.0722  127.7830  152.4282 C   0  0  0  0  0  0  0  0  0  0  0  0
  146.6241  128.2746  152.3756 C   0  0  0  0  0  0  0  0  0  0  0  0
  146.4313  129.2459  153.3908 O   0  0  0  0  0  0  0  0  0  0  0  0
  147.1465  130.4540  153.1745 C   0  0  2  0  0  0  0  0  0  0  0  0
  148.1042  130.6836  154.3555 C   0  0  0  0  0  0  0  0  0  0  0  0
  148.7780  132.0601  154.2314 C   0  0  0  0  0  0  0  0  0  0  0  0
  147.7287  133.1767  154.0859 C   0  0  0  0  0  0  0  0  0  0  0  0
  146.8163  132.8924  152.9807 N   0  0  0  0  0  0  0  0  0  0  0  0
  145.9522  133.9563  152.6932 C   0  0  0  0  0  0  0  0  0  0  0  0
  144.5766  133.8652  152.9768 C   0  0  0  0  0  0  0  0  0  0  0  0
  143.7880  134.9853  152.6621 C   0  0  0  0  0  0  0  0  0  0  0  0
  142.2976  135.0064  152.9283 C   0  0  0  0  0  0  0  0  0  0  0  0
  144.3242  136.0934  152.1109 N   0  0  0  0  0  0  0  0  0  0  0  0
  145.6386  136.1175  151.8625 C   0  0  0  0  0  0  0  0  0  0  0  0
  146.1761  137.2508  151.3006 N   0  0  0  0  0  0  0  0  0  0  0  0
  146.4554  135.0897  152.1366 N   0  3  0  0  0  0  0  0  0  0  0  0
  146.1321  131.6053  153.0723 C   0  0  0  0  0  0  0  0  0  0  0  0
  148.2575  127.0332  151.6588 H   0  0  0  0  0  0  0  0  0  0  0  0
  148.2971  127.3321  153.3950 H   0  0  0  0  0  0  0  0  0  0  0  0
  148.7711  128.6047  152.2702 H   0  0  0  0  0  0  0  0  0  0  0  0
  146.4108  128.7081  151.3973 H   0  0  0  0  0  0  0  0  0  0  0  0
  145.9425  127.4358  152.5250 H   0  0  0  0  0  0  0  0  0  0  0  0
  147.7286  130.4177  152.2507 H   0  0  0  0  0  0  0  0  0  0  0  0
  147.5513  130.6314  155.2943 H   0  0  0  0  0  0  0  0  0  0  0  0
  148.8567  129.8953  154.3908 H   0  0  0  0  0  0  0  0  0  0  0  0
  149.4071  132.2489  155.1018 H   0  0  0  0  0  0  0  0  0  0  0  0
  149.4388  132.0654  153.3635 H   0  0  0  0  0  0  0  0  0  0  0  0
  147.1600  133.2723  155.0120 H   0  0  0  0  0  0  0  0  0  0  0  0
  148.2266  134.1324  153.9165 H   0  0  0  0  0  0  0  0  0  0  0  0
  144.1511  132.9762  153.4198 H   0  0  0  0  0  0  0  0  0  0  0  0
  141.9650  134.0696  153.3767 H   0  0  0  0  0  0  0  0  0  0  0  0
  141.7471  135.1529  151.9987 H   0  0  0  0  0  0  0  0  0  0  0  0
  142.0444  135.8182  153.6107 H   0  0  0  0  0  0  0  0  0  0  0  0
  145.5873  138.0418  151.0832 H   0  0  0  0  0  0  0  0  0  0  0  0
  147.1630  137.3044  151.0941 H   0  0  0  0  0  0  0  0  0  0  0  0
  145.4963  131.4628  152.1973 H   0  0  0  0  0  0  0  0  0  0  0  0
  145.4797  131.6010  153.9470 H   0  0  0  0  0  0  0  0  0  0  0  0
  147.4535  135.1462  151.9347 H   0  0  0  0  0  0  0  0  0  0  0  0
  1  2  1  0  0  0  0
  1 18  1  0  0  0  0
  1 19  1  0  0  0  0
  1 20  1  0  0  0  0
  2  3  1  0  0  0  0
  2 21  1  0  0  0  0
  2 22  1  0  0  0  0
  3  4  1  0  0  0  0
  4 17  1  0  0  0  0
  4  5  1  0  0  0  0
  4 23  1  0  0  0  0
  5  6  1  0  0  0  0
  5 24  1  0  0  0  0
  5 25  1  0  0  0  0
  6  7  1  0  0  0  0
  6 26  1  0  0  0  0
  6 27  1  0  0  0  0
  7  8  1  0  0  0  0
  7 28  1  0  0  0  0
  7 29  1  0  0  0  0
  8  9  1  0  0  0  0
  8 17  1  0  0  0  0
  9 16  1  0  0  0  0
  9 10  2  0  0  0  0
 10 11  1  0  0  0  0
 10 30  1  0  0  0  0
 11 12  1  0  0  0  0
 11 13  2  0  0  0  0
 12 31  1  0  0  0  0
 12 32  1  0  0  0  0
 12 33  1  0  0  0  0
 13 14  1  0  0  0  0
 14 15  1  0  0  0  0
 14 16  2  0  0  0  0
 15 34  1  0  0  0  0
 15 35  1  0  0  0  0
 16 38  1  0  0  0  0
 17 36  1  0  0  0  0
 17 37  1  0  0  0  0
M  CHG  1  16   1
M  END
> <s_m_source_file>
AV-unprocessed.smi

> <i_m_source_file_index>
1639

> <i_lp_mmshare_version>
43012

> <i_f3d_flags>
0

> <s_epik_input>
W0NIM11bQ0gyXU9bQ0BASF0xW0NIMl1bQ0gyXVtDSDJdTihbQ0gyXTEpYzJbY0hdYyhbQ0gzXSluYyhuMilbTkgyXQ==

> <s_epik_cmdline>
J2VwaWtfcHl0aG9uJywgJy1waCcsICc3LjAnLCAnLXRuJywgJzgnLCAnLW1hJywgJzIwMCcsICctbWV0YWxfYmluZGluZycsICctaW1hZScsICc8aW5maWxlLm1hZT4nLCAnLW9tYWUnLCAnPG91dGZpbGUubWFlPic=

> <r_lp_tautomer_probability>
0.424989

> <r_epik_Ionization_Penalty>
0.443088

> <r_epik_Ionization_Penalty_Charging>
0.443085

> <r_epik_Ionization_Penalty_Neutral>
3.21819e-06

> <r_epik_State_Penalty>
1.26241

> <r_epik_Charging_Adjusted_Penalty>
1.70549

> <i_epik_Tot_Q>
1

> <i_epik_Tot_abs_Q>
1

> <r_epik_Metal_State_Penalty>
1.59997

> <b_epik_Metal_Only>
0

> <s_lp_Force_Field>
OPLS_2005

> <r_lp_Energy>
14.3037

> <b_lp_Chiralities_Consistent>
1

> <s_lp_Variant>
AV-unprocessed.smi:1639-3

> <Gold.Version>
5.8.1

> <Gold.Id.Protein>
6NUR|6NUR_protein|mol2

> <Gold.PLP.Fitness>
34.8184

> <Gold.PLP.PLP>
-29.3064

> <Gold.PLP.part.hbond>
-2.7787

> <Gold.PLP.part.metal>
0.0000

> <Gold.PLP.part.buried>
-4.8109

> <Gold.PLP.part.nonpolar>
-23.0387

> <Gold.PLP.part.repulsive>
0.5610

> <Gold.PLP.ligand.clash>
0.1776

> <Gold.PLP.ligand.torsion>
1.1766

> <Gold.PLP.Chemscore.Hbond>
2.6289

> <Gold.PLP.Chemscore.CHOScore>
0.0000

> <Gold.PLP.Chemscore.Metal>
0.0000

> <Gold.Chemscore.Hbonds>
donor molecule, donor type, donor heavy atom, donor atom, acceptor molecule, acceptor atom, score
      L1  H    15    34       P1 10171  0.48
      L1  H    15    35       P1  7948  0.89
      L1  H    16    38       P1  7948  1.92

> <Gold.PLP.Chemscore.Internal.Correction>
0.1560

> <Gold.Rescore>
     Score         DG    S(hbond)    S(metal)    S(lipo)     H(rot)  DE(clash)    DE(int)     intcor
     13.19     -14.38       1.79        0.00      56.95       1.46       0.21       0.98       ----

> <Gold.Chemscore.Fitness>
13.1896

> <Gold.Chemscore.DG>
-14.3791

> <Gold.Chemscore.ZeroCoef>
-5.4800

> <Gold.Chemscore.Hbond>
1.7855

> <Gold.Chemscore.Metal>
0.0000

> <Gold.Chemscore.Lipo>
56.9468

> <Gold.Chemscore.Internal_Hbond>
0.0000

> <Gold.Chemscore.DEClash>
0.2107

> <Gold.Chemscore.DEInternal>
0.9787

> <Gold.Chemscore.Rot>
1.4560

> <Gold.Chemscore.Internal.Correction>
   9.000000E+99

> <Gold.Chemscore.Hbonds>
donor molecule, donor type, donor heavy atom, donor atom, acceptor molecule, acceptor atom, score
      L1  H    15    34       P1 10171  0.47
      L1  H    15    35       P1  7948  0.44
      L1  H    16    38       P1  7948  0.88

> <Gold.Chemscore.Hbond.Weighted>
-5.9635

> <Gold.Chemscore.Metal.Weighted>
-0.0000

> <Gold.Chemscore.Lipo.Weighted>
-6.6628

> <Gold.Chemscore.Internal_Hbond.Weighted>
0.0000

> <Gold.Chemscore.DEClash.Weighted>
0.2107

> <Gold.Chemscore.DEInternal.Weighted>
0.9787

> <Gold.Chemscore.Rot.Weighted>
3.7272

> <Gold.Chemscore.Internal.Correction.Weighted>
   9.000000E+99

> <Gold.Protein.RotatedTorsions>
[ 6907 6896 6895 6894 ] final   69.23 input  -60.11 | X-H torsion
[ 7974 7965 7964 7962 ] final  173.40 input  175.53 | X-H torsion
[ 8008 7997 7996 7995 ] final  -99.24 input   59.86 | X-H torsion
[ 10167 10162 10161 10158 ] final -108.69 input  -65.29 | X-H torsion
[ 10718 10713 10712 10709 ] final   75.05 input   66.30 | X-H torsion
[ 10763 10752 10751 10750 ] final   49.22 input  -60.55 | X-H torsion
[ 11005 11000 10999 10996 ] final   26.49 input  -57.11 | X-H torsion

> <Gold.Protein.ActiveResidues>
 VAL166  LYS551  ARG553  GLY616  TRP617  ASP618  TYR619  PRO620  LYS621  CYS622 
 ASP623  PHE694  ASN695  SER759  ASP760  ASP761  ALA762  ILE779  LEU786  VAL792 
 PHE793  MET794  SER795  GLU796  ALA797  LYS798  CYS799  TRP800  GLU811  SER814 

> <Gold.Protein.RotatedAtoms>
  152.4673  134.5046  159.9734 H   0  0  0  0  0  0  0  0  0  0  0  0  # atno 6907 bound_to 6896
  151.5080  133.3485  159.2888 H   0  0  0  0  0  0  0  0  0  0  0  0  # atno 6908 bound_to 6896
  150.8663  134.8056  159.7183 H   0  0  0  0  0  0  0  0  0  0  0  0  # atno 6909 bound_to 6896
  144.7244  139.9642  143.6435 H   0  0  0  0  0  0  0  0  0  0  0  0  # atno 7974 bound_to 7965
  154.8121  140.0449  157.1350 H   0  0  0  0  0  0  0  0  0  0  0  0  # atno 8008 bound_to 7997
  154.9356  140.3045  155.5126 H   0  0  0  0  0  0  0  0  0  0  0  0  # atno 8009 bound_to 7997
  156.2972  140.2315  156.4420 H   0  0  0  0  0  0  0  0  0  0  0  0  # atno 8010 bound_to 7997
  140.1635  143.4101  152.1408 H   0  0  0  0  0  0  0  0  0  0  0  0  # atno 10167 bound_to 10162
  157.6618  130.9707  150.1298 H   0  0  0  0  0  0  0  0  0  0  0  0  # atno 10718 bound_to 10713
  152.9788  135.5919  154.4054 H   0  0  0  0  0  0  0  0  0  0  0  0  # atno 10763 bound_to 10752
  154.3695  135.2767  155.2276 H   0  0  0  0  0  0  0  0  0  0  0  0  # atno 10764 bound_to 10752
  154.4238  135.6052  153.6081 H   0  0  0  0  0  0  0  0  0  0  0  0  # atno 10765 bound_to 10752
  140.3364  134.2381  155.7695 H   0  0  0  0  0  0  0  0  0  0  0  0  # atno 11005 bound_to 11000
  146.0613  139.3607  143.0579 LP  0  0  0  0  0  0  0  0  0  0  0  0  # atno 17320 bound_to 7965
  145.8088  140.9736  143.0960 LP  0  0  0  0  0  0  0  0  0  0  0  0  # atno 17321 bound_to 7965
  139.5370  144.7220  151.4859 LP  0  0  0  0  0  0  0  0  0  0  0  0  # atno 17342 bound_to 10162
  140.6628  143.8462  150.6907 LP  0  0  0  0  0  0  0  0  0  0  0  0  # atno 17343 bound_to 10162
  156.2147  130.3669  149.8627 LP  0  0  0  0  0  0  0  0  0  0  0  0  # atno 17370 bound_to 10713
  156.6496  130.8738  151.3529 LP  0  0  0  0  0  0  0  0  0  0  0  0  # atno 17371 bound_to 10713
  141.2050  133.7872  157.0257 LP  0  0  0  0  0  0  0  0  0  0  0  0  # atno 17394 bound_to 11000
  140.0817  134.9644  157.1635 LP  0  0  0  0  0  0  0  0  0  0  0  0  # atno 17395 bound_to 11000

$$$$
