AV-unprocessed.smi:1761|AV-procd|sdf|7096|dock3
  -GOLD-   22720 8313D 1   1.00000     0.00000
 Structure written by MMmdl.
 34 35  0  0  0  0  0  0  0  0  1 V2000
  149.5907  140.8394  157.6113 O   0  0  0  0  0  0  0  0  0  0  0  0
  149.6155  141.9312  157.0424 C   0  0  0  0  0  0  0  0  0  0  0  0
  150.2827  143.0174  157.4705 N   0  0  0  0  0  0  0  0  0  0  0  0
  151.1057  143.1467  158.6214 C   0  0  0  0  0  0  0  0  0  0  0  0
  151.1547  144.4444  159.1791 C   0  0  0  0  0  0  0  0  0  0  0  0
  151.9469  144.6793  160.3197 C   0  0  0  0  0  0  0  0  0  0  0  0
  152.6713  143.6091  160.8741 C   0  0  0  0  0  0  0  0  0  0  0  0
  152.5665  142.3485  160.2581 C   0  0  0  0  0  0  0  0  0  0  0  0
  151.8077  142.1210  159.1651 N   0  0  0  0  0  0  0  0  0  0  0  0
  148.9675  142.1814  155.8951 N   0  0  0  0  0  0  0  0  0  0  0  0
  148.1544  141.2176  155.1557 C   0  0  1  0  0  0  0  0  0  0  0  0
  147.3785  141.9230  154.0262 C   0  0  0  0  0  0  0  0  0  0  0  0
  146.5100  140.9266  153.2407 C   0  0  0  0  0  0  0  0  0  0  0  0
  147.3509  139.7654  152.6870 C   0  0  0  0  0  0  0  0  0  0  0  0
  148.1414  139.0583  153.8029 C   0  0  0  0  0  0  0  0  0  0  0  0
  149.0053  140.0403  154.6180 C   0  0  1  0  0  0  0  0  0  0  0  0
  150.0617  140.5124  153.8016 O   0  0  0  0  0  0  0  0  0  0  0  0
  150.2006  143.8464  156.9011 H   0  0  0  0  0  0  0  0  0  0  0  0
  150.5933  145.2560  158.7396 H   0  0  0  0  0  0  0  0  0  0  0  0
  151.9980  145.6641  160.7600 H   0  0  0  0  0  0  0  0  0  0  0  0
  153.2903  143.7506  161.7476 H   0  0  0  0  0  0  0  0  0  0  0  0
  153.1063  141.5002  160.6523 H   0  0  0  0  0  0  0  0  0  0  0  0
  149.0432  143.1063  155.4980 H   0  0  0  0  0  0  0  0  0  0  0  0
  147.4130  140.8088  155.8453 H   0  0  0  0  0  0  0  0  0  0  0  0
  146.7453  142.7077  154.4417 H   0  0  0  0  0  0  0  0  0  0  0  0
  148.0732  142.4165  153.3453 H   0  0  0  0  0  0  0  0  0  0  0  0
  145.7275  140.5329  153.8905 H   0  0  0  0  0  0  0  0  0  0  0  0
  146.0034  141.4401  152.4231 H   0  0  0  0  0  0  0  0  0  0  0  0
  146.7043  139.0483  152.1807 H   0  0  0  0  0  0  0  0  0  0  0  0
  148.0402  140.1430  151.9307 H   0  0  0  0  0  0  0  0  0  0  0  0
  147.4394  138.5620  154.4742 H   0  0  0  0  0  0  0  0  0  0  0  0
  148.7643  138.2697  153.3786 H   0  0  0  0  0  0  0  0  0  0  0  0
  149.4564  139.5015  155.4520 H   0  0  0  0  0  0  0  0  0  0  0  0
  149.7363  140.6062  152.9195 H   0  0  0  0  0  0  0  0  0  0  0  0
  1  2  2  0  0  0  0
  2  3  1  0  0  0  0
  2 10  1  0  0  0  0
  3  4  1  0  0  0  0
  3 18  1  0  0  0  0
  4  9  1  0  0  0  0
  4  5  2  0  0  0  0
  5  6  1  0  0  0  0
  5 19  1  0  0  0  0
  6  7  2  0  0  0  0
  6 20  1  0  0  0  0
  7  8  1  0  0  0  0
  7 21  1  0  0  0  0
  8  9  2  0  0  0  0
  8 22  1  0  0  0  0
 10 11  1  0  0  0  0
 10 23  1  0  0  0  0
 11 16  1  0  0  0  0
 11 12  1  0  0  0  0
 11 24  1  0  0  0  0
 12 13  1  0  0  0  0
 12 25  1  0  0  0  0
 12 26  1  0  0  0  0
 13 14  1  0  0  0  0
 13 27  1  0  0  0  0
 13 28  1  0  0  0  0
 14 15  1  0  0  0  0
 14 29  1  0  0  0  0
 14 30  1  0  0  0  0
 15 16  1  0  0  0  0
 15 31  1  0  0  0  0
 15 32  1  0  0  0  0
 16 17  1  0  0  0  0
 16 33  1  0  0  0  0
 17 34  1  0  0  0  0
M  END
> <s_m_source_file>
AV-unprocessed.smi

> <i_m_source_file_index>
1761

> <i_lp_mmshare_version>
43012

> <i_f3d_flags>
0

> <s_epik_input>
bjFbY0hdW2NIXVtjSF1bY0hdYzFbTkhdQyg9TylbTkhdW0NAQEhdMltDSDJdW0NIMl1bQ0gyXVtDSDJdW0NASF0yW09IXQ==

> <s_epik_cmdline>
J2VwaWtfcHl0aG9uJywgJy1waCcsICc3LjAnLCAnLXRuJywgJzgnLCAnLW1hJywgJzIwMCcsICctbWV0YWxfYmluZGluZycsICctaW1hZScsICc8aW5maWxlLm1hZT4nLCAnLW9tYWUnLCAnPG91dGZpbGUubWFlPic=

> <r_lp_tautomer_probability>
1

> <r_epik_Ionization_Penalty>
4.92589e-05

> <r_epik_Ionization_Penalty_Charging>
0

> <r_epik_Ionization_Penalty_Neutral>
4.92589e-05

> <r_epik_State_Penalty>
-0

> <r_epik_Charging_Adjusted_Penalty>
0

> <i_epik_Tot_Q>
0

> <i_epik_Tot_abs_Q>
0

> <r_epik_Metal_State_Penalty>
-0

> <b_epik_Metal_Only>
0

> <s_lp_Force_Field>
OPLS_2005

> <r_lp_Energy>
15.389

> <b_lp_Chiralities_Consistent>
1

> <s_lp_Variant>
AV-unprocessed.smi:1761-2

> <Gold.Version>
5.8.1

> <Gold.Id.Protein>
6NUR|6NUR_protein|mol2

> <Gold.PLP.Fitness>
42.3490

> <Gold.PLP.PLP>
-32.7178

> <Gold.PLP.part.hbond>
-3.6443

> <Gold.PLP.part.metal>
0.0000

> <Gold.PLP.part.buried>
0.7294

> <Gold.PLP.part.nonpolar>
-29.1350

> <Gold.PLP.part.repulsive>
0.1484

> <Gold.PLP.ligand.clash>
0.0000

> <Gold.PLP.ligand.torsion>
0.2310

> <Gold.PLP.Chemscore.Hbond>
3.3600

> <Gold.PLP.Chemscore.CHOScore>
0.0000

> <Gold.PLP.Chemscore.Metal>
0.0000

> <Gold.Chemscore.Hbonds>
donor molecule, donor type, donor heavy atom, donor atom, acceptor molecule, acceptor atom, score
      L1  H     3    18       P1  8028  0.82
      L1  H    10    23       P1  8028  1.00
      L1  H    17    34       P1  7957  1.00
      P1  H  7989  7998       L1    17  0.51

> <Gold.PLP.Chemscore.Internal.Correction>
0.0131

> <Gold.Rescore>
     Score         DG    S(hbond)    S(metal)    S(lipo)     H(rot)  DE(clash)    DE(int)     intcor
     19.39     -21.99       3.11        0.00      84.25       1.47       1.62       0.98       ----

> <Gold.Chemscore.Fitness>
19.3930

> <Gold.Chemscore.DG>
-21.9885

> <Gold.Chemscore.ZeroCoef>
-5.4800

> <Gold.Chemscore.Hbond>
3.1144

> <Gold.Chemscore.Metal>
0.0000

> <Gold.Chemscore.Lipo>
84.2513

> <Gold.Chemscore.Internal_Hbond>
0.0000

> <Gold.Chemscore.DEClash>
1.6197

> <Gold.Chemscore.DEInternal>
0.9758

> <Gold.Chemscore.Rot>
1.4653

> <Gold.Chemscore.Internal.Correction>
   9.000000E+99

> <Gold.Chemscore.Hbonds>
donor molecule, donor type, donor heavy atom, donor atom, acceptor molecule, acceptor atom, score
      L1  H     3    18       P1  8028  0.76
      L1  H    10    23       P1  8028  0.94
      L1  H    17    34       P1  7957  0.96
      P1  H  7989  7998       L1    17  0.07

> <Gold.Chemscore.Hbond.Weighted>
-10.4022

> <Gold.Chemscore.Metal.Weighted>
-0.0000

> <Gold.Chemscore.Lipo.Weighted>
-9.8574

> <Gold.Chemscore.Internal_Hbond.Weighted>
0.0000

> <Gold.Chemscore.DEClash.Weighted>
1.6197

> <Gold.Chemscore.DEInternal.Weighted>
0.9758

> <Gold.Chemscore.Rot.Weighted>
3.7511

> <Gold.Chemscore.Internal.Correction.Weighted>
   9.000000E+99

> <Gold.Protein.RotatedTorsions>
[ 6907 6896 6895 6894 ] final  -76.93 input  -60.11 | X-H torsion
[ 7974 7965 7964 7962 ] final  -22.92 input  175.53 | X-H torsion
[ 8008 7997 7996 7995 ] final  140.62 input   59.86 | X-H torsion
[ 10167 10162 10161 10158 ] final  -82.19 input  -65.29 | X-H torsion
[ 10718 10713 10712 10709 ] final -110.28 input   66.30 | X-H torsion
[ 10763 10752 10751 10750 ] final  -39.21 input  -60.55 | X-H torsion
[ 11005 11000 10999 10996 ] final  -17.28 input  -57.11 | X-H torsion

> <Gold.Protein.ActiveResidues>
 VAL166  LYS551  ARG553  GLY616  TRP617  ASP618  TYR619  PRO620  LYS621  CYS622 
 ASP623  PHE694  ASN695  SER759  ASP760  ASP761  ALA762  ILE779  LEU786  VAL792 
 PHE793  MET794  SER795  GLU796  ALA797  LYS798  CYS799  TRP800  GLU811  SER814 

> <Gold.Protein.RotatedAtoms>
  150.7013  134.4499  159.5330 H   0  0  0  0  0  0  0  0  0  0  0  0  # atno 6907 bound_to 6896
  152.2193  134.8425  160.0497 H   0  0  0  0  0  0  0  0  0  0  0  0  # atno 6908 bound_to 6896
  151.9281  133.3569  159.3958 H   0  0  0  0  0  0  0  0  0  0  0  0  # atno 6909 bound_to 6896
  146.1647  140.4545  142.8557 H   0  0  0  0  0  0  0  0  0  0  0  0  # atno 7974 bound_to 7965
  156.2977  140.2337  156.4430 H   0  0  0  0  0  0  0  0  0  0  0  0  # atno 8008 bound_to 7997
  154.8169  140.0440  157.1403 H   0  0  0  0  0  0  0  0  0  0  0  0  # atno 8009 bound_to 7997
  154.9360  140.3023  155.5148 H   0  0  0  0  0  0  0  0  0  0  0  0  # atno 8010 bound_to 7997
  140.4342  143.2537  151.8716 H   0  0  0  0  0  0  0  0  0  0  0  0  # atno 10167 bound_to 10162
  156.0582  130.5807  150.8215 H   0  0  0  0  0  0  0  0  0  0  0  0  # atno 10718 bound_to 10713
  153.9256  135.6777  153.4746 H   0  0  0  0  0  0  0  0  0  0  0  0  # atno 10763 bound_to 10752
  153.1006  135.4830  154.8856 H   0  0  0  0  0  0  0  0  0  0  0  0  # atno 10764 bound_to 10752
  154.7455  135.3171  154.8609 H   0  0  0  0  0  0  0  0  0  0  0  0  # atno 10765 bound_to 10752
  140.8152  133.8110  155.9604 H   0  0  0  0  0  0  0  0  0  0  0  0  # atno 11005 bound_to 11000
  144.8076  140.6327  143.6437 LP  0  0  0  0  0  0  0  0  0  0  0  0  # atno 17320 bound_to 7965
  145.4498  139.1525  143.3925 LP  0  0  0  0  0  0  0  0  0  0  0  0  # atno 17321 bound_to 7965
  139.4786  144.5301  151.8679 LP  0  0  0  0  0  0  0  0  0  0  0  0  # atno 17342 bound_to 10162
  140.4392  144.2009  150.5890 LP  0  0  0  0  0  0  0  0  0  0  0  0  # atno 17343 bound_to 10162
  157.5570  131.0945  150.9614 LP  0  0  0  0  0  0  0  0  0  0  0  0  # atno 17370 bound_to 10713
  156.9861  130.5545  149.5300 LP  0  0  0  0  0  0  0  0  0  0  0  0  # atno 17371 bound_to 10713
  140.9156  134.2206  157.4959 LP  0  0  0  0  0  0  0  0  0  0  0  0  # atno 17394 bound_to 11000
  139.8711  134.9769  156.4940 LP  0  0  0  0  0  0  0  0  0  0  0  0  # atno 17395 bound_to 11000

$$$$
