AV-unprocessed.smi:1053|AV-procd|sdf|4619|dock2
  -GOLD-   22720 3123D 1   1.00000     0.00000
 Structure written by MMmdl.
 38 39  0  0  0  0  0  0  0  0  2 V2000
  147.4351  138.8552  153.5806 C   0  0  0  0  0  0  0  0  0  0  0  0
  148.8416  139.0087  154.1769 C   0  0  0  0  0  0  0  0  0  0  0  0
  149.5580  137.7108  154.3038 N   0  3  1  0  0  0  0  0  0  0  0  0
  151.0276  137.8603  154.4376 C   0  0  0  0  0  0  0  0  0  0  0  0
  151.4168  138.2813  155.8669 C   0  0  0  0  0  0  0  0  0  0  0  0
  150.8979  137.3399  156.7989 O   0  0  0  0  0  0  0  0  0  0  0  0
  149.4764  137.2664  156.7693 C   0  0  2  0  0  0  0  0  0  0  0  0
  149.0390  136.2924  157.8779 C   0  0  0  0  0  0  0  0  0  0  0  0
  148.5069  136.9722  159.0522 N   0  0  0  0  0  0  0  0  0  0  0  0
  148.1873  136.3573  160.2492 C   0  0  0  0  0  0  0  0  0  0  0  0
  148.0422  137.1193  161.3392 N   0  0  0  0  0  0  0  0  0  0  0  0
  147.7264  136.4895  162.4913 C   0  0  0  0  0  0  0  0  0  0  0  0
  147.5528  135.0929  162.5495 C   0  0  0  0  0  0  0  0  0  0  0  0
  147.7307  134.3883  161.3378 C   0  0  0  0  0  0  0  0  0  0  0  0
  147.5769  132.8773  161.2494 C   0  0  0  0  0  0  0  0  0  0  0  0
  146.3678  132.5221  161.6844 F   0  0  0  0  0  0  0  0  0  0  0  0
  147.7205  132.4430  159.9967 F   0  0  0  0  0  0  0  0  0  0  0  0
  148.4995  132.2873  162.0098 F   0  0  0  0  0  0  0  0  0  0  0  0
  148.0475  135.0318  160.1897 N   0  0  0  0  0  0  0  0  0  0  0  0
  149.0357  136.8070  155.3604 C   0  0  0  0  0  0  0  0  0  0  0  0
  146.9939  139.8334  153.3885 H   0  0  0  0  0  0  0  0  0  0  0  0
  146.7594  138.3264  154.2520 H   0  0  0  0  0  0  0  0  0  0  0  0
  147.4637  138.3155  152.6335 H   0  0  0  0  0  0  0  0  0  0  0  0
  149.4121  139.6581  153.5117 H   0  0  0  0  0  0  0  0  0  0  0  0
  148.7906  139.5253  155.1350 H   0  0  0  0  0  0  0  0  0  0  0  0
  151.4923  136.9008  154.2067 H   0  0  0  0  0  0  0  0  0  0  0  0
  151.4125  138.5709  153.7051 H   0  0  0  0  0  0  0  0  0  0  0  0
  152.5020  138.3088  155.9654 H   0  0  0  0  0  0  0  0  0  0  0  0
  151.0538  139.2836  156.0992 H   0  0  0  0  0  0  0  0  0  0  0  0
  149.0739  138.2555  156.9885 H   0  0  0  0  0  0  0  0  0  0  0  0
  148.2755  135.6136  157.4973 H   0  0  0  0  0  0  0  0  0  0  0  0
  149.8810  135.6685  158.1806 H   0  0  0  0  0  0  0  0  0  0  0  0
  148.4141  137.9772  159.0158 H   0  0  0  0  0  0  0  0  0  0  0  0
  147.6094  137.1040  163.3716 H   0  0  0  0  0  0  0  0  0  0  0  0
  147.2995  134.5974  163.4753 H   0  0  0  0  0  0  0  0  0  0  0  0
  147.9519  136.7219  155.2964 H   0  0  0  0  0  0  0  0  0  0  0  0
  149.4250  135.8058  155.1708 H   0  0  0  0  0  0  0  0  0  0  0  0
  149.4071  137.2401  153.4228 H   0  0  0  0  0  0  0  0  0  0  0  0
  1  2  1  0  0  0  0
  1 21  1  0  0  0  0
  1 22  1  0  0  0  0
  1 23  1  0  0  0  0
  2  3  1  0  0  0  0
  2 24  1  0  0  0  0
  2 25  1  0  0  0  0
  3 20  1  0  0  0  0
  3  4  1  0  0  0  0
  3 38  1  0  0  0  0
  4  5  1  0  0  0  0
  4 26  1  0  0  0  0
  4 27  1  0  0  0  0
  5  6  1  0  0  0  0
  5 28  1  0  0  0  0
  5 29  1  0  0  0  0
  6  7  1  0  0  0  0
  7  8  1  0  0  0  0
  7 20  1  0  0  0  0
  7 30  1  0  0  0  0
  8  9  1  0  0  0  0
  8 31  1  0  0  0  0
  8 32  1  0  0  0  0
  9 10  1  0  0  0  0
  9 33  1  0  0  0  0
 10 19  1  0  0  0  0
 10 11  2  0  0  0  0
 11 12  1  0  0  0  0
 12 13  2  0  0  0  0
 12 34  1  0  0  0  0
 13 14  1  0  0  0  0
 13 35  1  0  0  0  0
 14 15  1  0  0  0  0
 14 19  2  0  0  0  0
 15 16  1  0  0  0  0
 15 17  1  0  0  0  0
 15 18  1  0  0  0  0
 20 36  1  0  0  0  0
 20 37  1  0  0  0  0
M  CHG  1   3   1
M  END
> <s_m_source_file>
AV-unprocessed.smi

> <i_m_source_file_index>
1053

> <i_lp_mmshare_version>
43012

> <i_f3d_flags>
0

> <s_epik_input>
W0NIM11bQ0gyXU4xW0NIMl1bQ0gyXU9bQ0BIXShbQ0gyXTEpW0NIMl1bTkhdYzJuW2NIXVtjSF1jKG4yKUMoRikoRilG

> <s_epik_cmdline>
J2VwaWtfcHl0aG9uJywgJy1waCcsICc3LjAnLCAnLXRuJywgJzgnLCAnLW1hJywgJzIwMCcsICctbWV0YWxfYmluZGluZycsICctaW1hZScsICc8aW5maWxlLm1hZT4nLCAnLW9tYWUnLCAnPG91dGZpbGUubWFlPic=

> <r_lp_tautomer_probability>
1

> <r_epik_Ionization_Penalty>
0.178506

> <r_epik_Ionization_Penalty_Charging>
0.178504

> <r_epik_Ionization_Penalty_Neutral>
2.47619e-06

> <r_epik_State_Penalty>
0.167974

> <r_epik_Charging_Adjusted_Penalty>
0.346478

> <i_epik_Tot_Q>
1

> <i_epik_Tot_abs_Q>
1

> <r_epik_Metal_State_Penalty>
0.167974

> <b_epik_Metal_Only>
0

> <s_lp_Force_Field>
OPLS_2005

> <r_lp_Energy>
12.8268

> <b_lp_Chiralities_Consistent>
1

> <s_lp_Variant>
AV-unprocessed.smi:1053-3

> <Gold.Version>
5.8.1

> <Gold.Id.Protein>
6NUR|6NUR_protein|mol2

> <Gold.PLP.Fitness>
41.4039

> <Gold.PLP.PLP>
-31.7733

> <Gold.PLP.part.hbond>
-3.0000

> <Gold.PLP.part.metal>
0.0000

> <Gold.PLP.part.buried>
-4.2956

> <Gold.PLP.part.nonpolar>
-24.1328

> <Gold.PLP.part.repulsive>
0.1701

> <Gold.PLP.ligand.clash>
0.0000

> <Gold.PLP.ligand.torsion>
0.8653

> <Gold.PLP.Chemscore.Hbond>
3.7680

> <Gold.PLP.Chemscore.CHOScore>
0.0000

> <Gold.PLP.Chemscore.Metal>
0.0000

> <Gold.Chemscore.Hbonds>
donor molecule, donor type, donor heavy atom, donor atom, acceptor molecule, acceptor atom, score
      L1  H     3    38       P1  7948  2.00
      P1  H  6931  6943       L1    11  1.00
      P1  H  6934  6947       L1    11  0.52

> <Gold.PLP.Chemscore.Internal.Correction>
0.0572

> <Gold.Rescore>
     Score         DG    S(hbond)    S(metal)    S(lipo)     H(rot)  DE(clash)    DE(int)     intcor
     15.74     -16.43       2.42        0.00      58.68       1.55       0.00       0.69       ----

> <Gold.Chemscore.Fitness>
15.7379

> <Gold.Chemscore.DG>
-16.4324

> <Gold.Chemscore.ZeroCoef>
-5.4800

> <Gold.Chemscore.Hbond>
2.4153

> <Gold.Chemscore.Metal>
0.0000

> <Gold.Chemscore.Lipo>
58.6833

> <Gold.Chemscore.Internal_Hbond>
0.0000

> <Gold.Chemscore.DEClash>
0.0000

> <Gold.Chemscore.DEInternal>
0.6945

> <Gold.Chemscore.Rot>
1.5549

> <Gold.Chemscore.Internal.Correction>
   9.000000E+99

> <Gold.Chemscore.Hbonds>
donor molecule, donor type, donor heavy atom, donor atom, acceptor molecule, acceptor atom, score
      L1  H     3    38       P1  7948  0.94
      P1  H  6931  6943       L1    11  0.25
      P1  H  6934  6947       L1    11  0.45

> <Gold.Chemscore.Hbond.Weighted>
-8.0670

> <Gold.Chemscore.Metal.Weighted>
-0.0000

> <Gold.Chemscore.Lipo.Weighted>
-6.8660

> <Gold.Chemscore.Internal_Hbond.Weighted>
0.0000

> <Gold.Chemscore.DEClash.Weighted>
0.0000

> <Gold.Chemscore.DEInternal.Weighted>
0.6945

> <Gold.Chemscore.Rot.Weighted>
3.9806

> <Gold.Chemscore.Internal.Correction.Weighted>
   9.000000E+99

> <Gold.Protein.RotatedTorsions>
[ 6907 6896 6895 6894 ] final -136.14 input  -60.11 | X-H torsion
[ 7974 7965 7964 7962 ] final -140.34 input  175.53 | X-H torsion
[ 8008 7997 7996 7995 ] final   88.25 input   59.86 | X-H torsion
[ 10167 10162 10161 10158 ] final   78.59 input  -65.29 | X-H torsion
[ 10718 10713 10712 10709 ] final  171.76 input   66.30 | X-H torsion
[ 10763 10752 10751 10750 ] final  -27.90 input  -60.55 | X-H torsion
[ 11005 11000 10999 10996 ] final   74.34 input  -57.11 | X-H torsion

> <Gold.Protein.ActiveResidues>
 VAL166  LYS551  ARG553  GLY616  TRP617  ASP618  TYR619  PRO620  LYS621  CYS622 
 ASP623  PHE694  ASN695  SER759  ASP760  ASP761  ALA762  ILE779  LEU786  VAL792 
 PHE793  MET794  SER795  GLU796  ALA797  LYS798  CYS799  TRP800  GLU811  SER814 

> <Gold.Protein.RotatedAtoms>
  151.0065  133.6006  159.2687 H   0  0  0  0  0  0  0  0  0  0  0  0  # atno 6907 bound_to 6896
  151.3173  135.0809  159.9303 H   0  0  0  0  0  0  0  0  0  0  0  0  # atno 6908 bound_to 6896
  152.5288  133.9718  159.7820 H   0  0  0  0  0  0  0  0  0  0  0  0  # atno 6909 bound_to 6896
  144.8605  140.6212  143.5331 H   0  0  0  0  0  0  0  0  0  0  0  0  # atno 7974 bound_to 7965
  155.9855  140.3373  155.6703 H   0  0  0  0  0  0  0  0  0  0  0  0  # atno 8008 bound_to 7997
  155.6491  140.0703  157.2611 H   0  0  0  0  0  0  0  0  0  0  0  0  # atno 8009 bound_to 7997
  154.4204  140.1729  156.1643 H   0  0  0  0  0  0  0  0  0  0  0  0  # atno 8010 bound_to 7997
  139.9693  144.5905  150.8000 H   0  0  0  0  0  0  0  0  0  0  0  0  # atno 10167 bound_to 10162
  156.9888  131.0141  151.2862 H   0  0  0  0  0  0  0  0  0  0  0  0  # atno 10718 bound_to 10713
  153.7396  135.6933  153.4970 H   0  0  0  0  0  0  0  0  0  0  0  0  # atno 10763 bound_to 10752
  153.2079  135.4413  155.0343 H   0  0  0  0  0  0  0  0  0  0  0  0  # atno 10764 bound_to 10752
  154.8225  135.3429  154.6922 H   0  0  0  0  0  0  0  0  0  0  0  0  # atno 10765 bound_to 10752
  139.9396  134.7424  156.1136 H   0  0  0  0  0  0  0  0  0  0  0  0  # atno 11005 bound_to 11000
  145.4321  139.1547  143.4016 LP  0  0  0  0  0  0  0  0  0  0  0  0  # atno 17320 bound_to 7965
  146.2857  140.4438  142.8759 LP  0  0  0  0  0  0  0  0  0  0  0  0  # atno 17321 bound_to 7965
  140.7527  143.2995  151.3117 LP  0  0  0  0  0  0  0  0  0  0  0  0  # atno 17342 bound_to 10162
  139.6493  144.0392  152.2614 LP  0  0  0  0  0  0  0  0  0  0  0  0  # atno 17343 bound_to 10162
  157.5473  130.8159  149.8102 LP  0  0  0  0  0  0  0  0  0  0  0  0  # atno 17370 bound_to 10713
  156.0215  130.3794  150.1948 LP  0  0  0  0  0  0  0  0  0  0  0  0  # atno 17371 bound_to 10713
  141.1024  133.6672  156.2786 LP  0  0  0  0  0  0  0  0  0  0  0  0  # atno 17394 bound_to 11000
  140.5987  134.5577  157.5513 LP  0  0  0  0  0  0  0  0  0  0  0  0  # atno 17395 bound_to 11000

$$$$
