AV-unprocessed.smi:265|AV-procd|sdf|2022|dock3
  -GOLD-   2262021223D 1   1.00000     0.00000
 Structure written by MMmdl.
 52 56  0  0  0  0  0  0  0  0  1 V2000
  143.6994  132.4525  149.2023 C   0  0  0  0  0  0  0  0  0  0  0  0
  143.9217  132.2909  150.7141 C   0  0  1  0  0  0  0  0  0  0  0  0
  145.0413  131.4243  150.8859 O   0  0  0  0  0  0  0  0  0  0  0  0
  145.7509  131.8066  152.0510 C   0  0  0  0  0  0  0  0  0  0  0  0
  145.6826  133.3248  151.9942 C   0  0  0  0  0  0  0  0  0  0  0  0
  144.2582  133.5825  151.5122 C   0  0  2  0  0  0  0  0  0  0  0  0
  143.4143  133.6150  152.6515 O   0  0  0  0  0  0  0  0  0  0  0  0
  144.0862  134.9259  150.7552 C   0  0  0  0  0  0  0  0  0  0  0  0
  144.9648  135.9806  151.2389 N   0  0  0  0  0  0  0  0  0  0  0  0
  145.7469  136.8159  150.4733 C   0  0  0  0  0  0  0  0  0  0  0  0
  146.4532  137.6855  151.1424 N   0  0  0  0  0  0  0  0  0  0  0  0
  146.1391  137.4287  152.4721 C   0  0  0  0  0  0  0  0  0  0  0  0
  146.5493  137.9912  153.7144 C   0  0  0  0  0  0  0  0  0  0  0  0
  147.4220  139.0277  153.7989 N   0  0  0  0  0  0  0  0  0  0  0  0
  146.8451  140.2730  154.3004 C   0  0  0  0  0  0  0  0  0  0  0  0
  147.7426  141.4683  153.9467 C   0  0  0  0  0  0  0  0  0  0  0  0
  149.1892  141.2573  154.4226 C   0  0  1  0  0  0  0  0  0  0  0  0
  149.2487  141.2795  155.8430 O   0  0  0  0  0  0  0  0  0  0  0  0
  150.5789  141.2723  156.3644 C   0  0  0  0  0  0  0  0  0  0  0  0
  151.4524  140.1756  155.7268 C   0  0  0  0  0  0  0  0  0  0  0  0
  152.5114  139.8496  156.2584 O   0  0  0  0  0  0  0  0  0  0  0  0
  151.0415  139.6326  154.5695 N   0  0  0  0  0  0  0  0  0  0  0  0
  149.7450  139.8952  153.9532 C   0  0  1  0  0  0  0  0  0  0  0  0
  148.7741  138.7419  154.2801 C   0  0  0  0  0  0  0  0  0  0  0  0
  146.0304  137.4461  154.8476 N   0  0  0  0  0  0  0  0  0  0  0  0
  145.1668  136.4293  154.7748 C   0  0  0  0  0  0  0  0  0  0  0  0
  144.6940  135.8127  153.6904 N   0  0  0  0  0  0  0  0  0  0  0  0
  145.2126  136.3502  152.5498 C   0  0  0  0  0  0  0  0  0  0  0  0
  149.8045  142.0707  154.0328 H   0  0  0  0  0  0  0  0  0  0  0  0
  149.8893  139.9313  152.8728 H   0  0  0  0  0  0  0  0  0  0  0  0
  142.8463  133.0972  148.9901 H   0  0  0  0  0  0  0  0  0  0  0  0
  143.4989  131.4865  148.7387 H   0  0  0  0  0  0  0  0  0  0  0  0
  144.5777  132.8731  148.7121 H   0  0  0  0  0  0  0  0  0  0  0  0
  143.0466  131.7960  151.1396 H   0  0  0  0  0  0  0  0  0  0  0  0
  145.2433  131.4209  152.9364 H   0  0  0  0  0  0  0  0  0  0  0  0
  146.7730  131.4278  152.0432 H   0  0  0  0  0  0  0  0  0  0  0  0
  145.9232  133.8033  152.9446 H   0  0  0  0  0  0  0  0  0  0  0  0
  146.3995  133.6783  151.2524 H   0  0  0  0  0  0  0  0  0  0  0  0
  143.4628  132.7757  153.0828 H   0  0  0  0  0  0  0  0  0  0  0  0
  144.2815  134.7943  149.6907 H   0  0  0  0  0  0  0  0  0  0  0  0
  143.0575  135.2793  150.8388 H   0  0  0  0  0  0  0  0  0  0  0  0
  145.7745  136.7613  149.3945 H   0  0  0  0  0  0  0  0  0  0  0  0
  145.8459  140.4433  153.9014 H   0  0  0  0  0  0  0  0  0  0  0  0
  146.7375  140.1966  155.3833 H   0  0  0  0  0  0  0  0  0  0  0  0
  147.7390  141.6064  152.8648 H   0  0  0  0  0  0  0  0  0  0  0  0
  147.3349  142.3841  154.3756 H   0  0  0  0  0  0  0  0  0  0  0  0
  151.0442  142.2424  156.1860 H   0  0  0  0  0  0  0  0  0  0  0  0
  150.5360  141.1286  157.4443 H   0  0  0  0  0  0  0  0  0  0  0  0
  151.6307  138.9403  154.1302 H   0  0  0  0  0  0  0  0  0  0  0  0
  148.7350  138.5783  155.3585 H   0  0  0  0  0  0  0  0  0  0  0  0
  149.1444  137.8198  153.8291 H   0  0  0  0  0  0  0  0  0  0  0  0
  144.8022  136.0569  155.7209 H   0  0  0  0  0  0  0  0  0  0  0  0
  1  2  1  0  0  0  0
  1 31  1  0  0  0  0
  1 32  1  0  0  0  0
  1 33  1  0  0  0  0
  2  6  1  0  0  0  0
  2  3  1  0  0  0  0
  2 34  1  0  0  0  0
  3  4  1  0  0  0  0
  4  5  1  0  0  0  0
  4 35  1  0  0  0  0
  4 36  1  0  0  0  0
  5  6  1  0  0  0  0
  5 37  1  0  0  0  0
  5 38  1  0  0  0  0
  6  7  1  0  0  0  0
  6  8  1  0  0  0  0
  7 39  1  0  0  0  0
  8  9  1  0  0  0  0
  8 40  1  0  0  0  0
  8 41  1  0  0  0  0
  9 28  1  0  0  0  0
  9 10  1  0  0  0  0
 10 11  2  0  0  0  0
 10 42  1  0  0  0  0
 11 12  1  0  0  0  0
 12 28  2  0  0  0  0
 12 13  1  0  0  0  0
 13 14  1  0  0  0  0
 13 25  2  0  0  0  0
 14 24  1  0  0  0  0
 14 15  1  0  0  0  0
 15 16  1  0  0  0  0
 15 43  1  0  0  0  0
 15 44  1  0  0  0  0
 16 17  1  0  0  0  0
 16 45  1  0  0  0  0
 16 46  1  0  0  0  0
 17 29  1  0  0  0  0
 17 23  1  0  0  0  0
 17 18  1  0  0  0  0
 18 19  1  0  0  0  0
 19 20  1  0  0  0  0
 19 47  1  0  0  0  0
 19 48  1  0  0  0  0
 20 21  2  0  0  0  0
 20 22  1  0  0  0  0
 22 23  1  0  0  0  0
 22 49  1  0  0  0  0
 23 30  1  0  0  0  0
 23 24  1  0  0  0  0
 24 50  1  0  0  0  0
 24 51  1  0  0  0  0
 25 26  1  0  0  0  0
 26 27  2  0  0  0  0
 26 52  1  0  0  0  0
 27 28  1  0  0  0  0
M  END
> <s_m_source_file>
AV-unprocessed.smi

> <i_m_source_file_index>
265

> <i_lp_mmshare_version>
43012

> <i_f3d_flags>
0

> <s_epik_input>
W0NIMl0xW0NIMl1PW0NAQEhdKFtDSDNdKVtDQEBdMShbT0hdKVtDSDJdbihbY0hdbjIpYyhjMjMpbltjSF1uYzNOKFtDSDJdW0NIMl00KVtDSDJdW0NAQEhdKFtDQEhdNDUpW05IXUMoPU8pW0NIMl1PNQ==

> <s_epik_cmdline>
J2VwaWtfcHl0aG9uJywgJy1waCcsICc3LjAnLCAnLXRuJywgJzgnLCAnLW1hJywgJzIwMCcsICctbWV0YWxfYmluZGluZycsICctaW1hZScsICc8aW5maWxlLm1hZT4nLCAnLW9tYWUnLCAnPG91dGZpbGUubWFlPic=

> <r_lp_tautomer_probability>
1

> <r_epik_Ionization_Penalty>
0.00221504

> <r_epik_Ionization_Penalty_Charging>
0

> <r_epik_Ionization_Penalty_Neutral>
0.00221504

> <r_epik_State_Penalty>
-0

> <r_epik_Charging_Adjusted_Penalty>
0

> <i_epik_Tot_Q>
0

> <i_epik_Tot_abs_Q>
0

> <r_epik_Metal_State_Penalty>
-0

> <b_epik_Metal_Only>
0

> <s_lp_Force_Field>
OPLS_2005

> <r_lp_Energy>
44.6863

> <b_lp_Chiralities_Consistent>
1

> <s_lp_Variant>
AV-unprocessed.smi:265-8

> <Gold.Version>
5.8.1

> <Gold.Id.Protein>
6NUR|6NUR_protein|mol2

> <Gold.PLP.Fitness>
49.2211

> <Gold.PLP.PLP>
-39.0188

> <Gold.PLP.part.hbond>
-3.0000

> <Gold.PLP.part.metal>
0.0000

> <Gold.PLP.part.buried>
-0.1393

> <Gold.PLP.part.nonpolar>
-40.1811

> <Gold.PLP.part.repulsive>
4.5074

> <Gold.PLP.ligand.clash>
0.0000

> <Gold.PLP.ligand.torsion>
0.8255

> <Gold.PLP.Chemscore.Hbond>
2.8294

> <Gold.PLP.Chemscore.CHOScore>
1.0000

> <Gold.PLP.Chemscore.Metal>
0.0000

> <Gold.Chemscore.Hbonds>
donor molecule, donor type, donor heavy atom, donor atom, acceptor molecule, acceptor atom, score
      L1  H     7    39       P1 10957  0.64
      P1  H  7954  7966       L1    11  0.76
      P1  H  7997  8008       L1    21  1.00
      L1  C    10    42       P1  7921  0.78

> <Gold.PLP.Chemscore.Internal.Correction>
0.3651

> <Gold.Rescore>
     Score         DG    S(hbond)    S(metal)    S(lipo)     H(rot)  DE(clash)    DE(int)     intcor
     11.40     -15.79       1.96        0.00      81.21       2.25       2.22       2.16       ----

> <Gold.Chemscore.Fitness>
11.4013

> <Gold.Chemscore.DG>
-15.7879

> <Gold.Chemscore.ZeroCoef>
-5.4800

> <Gold.Chemscore.Hbond>
1.9624

> <Gold.Chemscore.Metal>
0.0000

> <Gold.Chemscore.Lipo>
81.2089

> <Gold.Chemscore.Internal_Hbond>
0.0000

> <Gold.Chemscore.DEClash>
2.2234

> <Gold.Chemscore.DEInternal>
2.1632

> <Gold.Chemscore.Rot>
2.2453

> <Gold.Chemscore.Internal.Correction>
   9.000000E+99

> <Gold.Chemscore.Hbonds>
donor molecule, donor type, donor heavy atom, donor atom, acceptor molecule, acceptor atom, score
      L1  H     7    39       P1 10957  0.22
      P1  H  7954  7966       L1    11  0.23
      P1  H  7997  8008       L1    21  1.00

> <Gold.Chemscore.Hbond.Weighted>
-6.5543

> <Gold.Chemscore.Metal.Weighted>
-0.0000

> <Gold.Chemscore.Lipo.Weighted>
-9.5014

> <Gold.Chemscore.Internal_Hbond.Weighted>
0.0000

> <Gold.Chemscore.DEClash.Weighted>
2.2234

> <Gold.Chemscore.DEInternal.Weighted>
2.1632

> <Gold.Chemscore.Rot.Weighted>
5.7479

> <Gold.Chemscore.Internal.Correction.Weighted>
   9.000000E+99

> <Gold.Protein.RotatedTorsions>
[ 6907 6896 6895 6894 ] final  139.08 input  -60.11 | X-H torsion
[ 7974 7965 7964 7962 ] final  159.30 input  175.53 | X-H torsion
[ 8008 7997 7996 7995 ] final  -46.44 input   59.86 | X-H torsion
[ 10167 10162 10161 10158 ] final  156.42 input  -65.29 | X-H torsion
[ 10718 10713 10712 10709 ] final   90.84 input   66.30 | X-H torsion
[ 10763 10752 10751 10750 ] final  102.01 input  -60.55 | X-H torsion
[ 11005 11000 10999 10996 ] final  134.42 input  -57.11 | X-H torsion

> <Gold.Protein.ActiveResidues>
 VAL166  LYS551  ARG553  GLY616  TRP617  ASP618  TYR619  PRO620  LYS621  CYS622 
 ASP623  PHE694  ASN695  SER759  ASP760  ASP761  ALA762  ILE779  LEU786  VAL792 
 PHE793  MET794  SER795  GLU796  ALA797  LYS798  CYS799  TRP800  GLU811  SER814 

> <Gold.Protein.RotatedAtoms>
  152.2591  133.5281  159.5370 H   0  0  0  0  0  0  0  0  0  0  0  0  # atno 6907 bound_to 6896
  150.7119  134.0855  159.3922 H   0  0  0  0  0  0  0  0  0  0  0  0  # atno 6908 bound_to 6896
  151.8773  135.0467  160.0536 H   0  0  0  0  0  0  0  0  0  0  0  0  # atno 6909 bound_to 6896
  144.7797  139.7599  143.6264 H   0  0  0  0  0  0  0  0  0  0  0  0  # atno 7974 bound_to 7965
  154.4007  140.1371  156.4011 H   0  0  0  0  0  0  0  0  0  0  0  0  # atno 8008 bound_to 7997
  155.7823  140.3481  155.5284 H   0  0  0  0  0  0  0  0  0  0  0  0  # atno 8009 bound_to 7997
  155.8661  140.0964  157.1571 H   0  0  0  0  0  0  0  0  0  0  0  0  # atno 8010 bound_to 7997
  139.4821  144.5011  151.8167 H   0  0  0  0  0  0  0  0  0  0  0  0  # atno 10167 bound_to 10162
  157.6959  131.0385  150.3639 H   0  0  0  0  0  0  0  0  0  0  0  0  # atno 10718 bound_to 10713
  153.3340  135.4025  155.1519 H   0  0  0  0  0  0  0  0  0  0  0  0  # atno 10763 bound_to 10752
  154.8629  135.3617  154.5433 H   0  0  0  0  0  0  0  0  0  0  0  0  # atno 10764 bound_to 10752
  153.5873  135.7075  153.5497 H   0  0  0  0  0  0  0  0  0  0  0  0  # atno 10765 bound_to 10752
  139.9913  134.9514  156.9863 H   0  0  0  0  0  0  0  0  0  0  0  0  # atno 11005 bound_to 11000
  146.1999  139.5287  142.9750 LP  0  0  0  0  0  0  0  0  0  0  0  0  # atno 17320 bound_to 7965
  145.6084  141.0344  143.1980 LP  0  0  0  0  0  0  0  0  0  0  0  0  # atno 17321 bound_to 7965
  140.4504  144.1863  150.5897 LP  0  0  0  0  0  0  0  0  0  0  0  0  # atno 17342 bound_to 10162
  140.4591  143.2456  151.9244 LP  0  0  0  0  0  0  0  0  0  0  0  0  # atno 17343 bound_to 10162
  156.4072  130.3927  149.6917 LP  0  0  0  0  0  0  0  0  0  0  0  0  # atno 17370 bound_to 10713
  156.4214  130.7770  151.2788 LP  0  0  0  0  0  0  0  0  0  0  0  0  # atno 17371 bound_to 10713
  140.4902  134.1201  155.7231 LP  0  0  0  0  0  0  0  0  0  0  0  0  # atno 17394 bound_to 11000
  141.1568  133.8867  157.1955 LP  0  0  0  0  0  0  0  0  0  0  0  0  # atno 17395 bound_to 11000

$$$$
