AV-unprocessed.smi:828|AV-procd|sdf|3859|dock3
  -GOLD-   22720 1313D 1   1.00000     0.00000
 Structure written by MMmdl.
 35 36  0  0  0  0  0  0  0  0  2 V2000
  149.6031  123.8888  151.6828 C   0  0  0  0  0  0  0  0  0  0  0  0
  148.9951  125.2182  151.9744 C   0  0  0  0  0  0  0  0  0  0  0  0
  148.4013  125.5035  153.1397 N   0  0  0  0  0  0  0  0  0  0  0  0
  147.9118  126.8016  153.1771 N   0  0  0  0  0  0  0  0  0  0  0  0
  148.1507  127.4587  152.0339 C   0  0  0  0  0  0  0  0  0  0  0  0
  147.7576  128.8032  151.7996 N   0  0  0  0  0  0  0  0  0  0  0  0
  146.6171  129.4135  152.1668 C   0  0  0  0  0  0  0  0  0  0  0  0
  145.6955  128.8860  152.7899 O   0  0  0  0  0  0  0  0  0  0  0  0
  146.5987  130.6927  151.7637 N   0  0  0  0  0  0  0  0  0  0  0  0
  145.5166  131.6431  152.0079 C   0  0  0  0  0  0  0  0  0  0  0  0
  145.4894  132.7751  150.9505 C   0  0  1  0  0  0  0  0  0  0  0  0
  144.1350  133.4912  150.8283 C   0  0  0  0  0  0  0  0  0  0  0  0
  144.4985  134.8598  150.2718 C   0  0  0  0  0  0  0  0  0  0  0  0
  145.8142  135.1592  150.9824 C   0  0  0  0  0  0  0  0  0  0  0  0
  146.5061  133.8574  151.1190 N   0  3  1  0  0  0  0  0  0  0  0  0
  147.3999  133.7944  152.2994 C   0  0  0  0  0  0  0  0  0  0  0  0
  148.9982  126.5338  150.8060 S   0  0  0  0  0  0  0  0  0  0  0  0
  149.8484  123.3685  152.6092 H   0  0  0  0  0  0  0  0  0  0  0  0
  150.5172  124.0135  151.1021 H   0  0  0  0  0  0  0  0  0  0  0  0
  148.9047  123.2777  151.1111 H   0  0  0  0  0  0  0  0  0  0  0  0
  148.4273  129.3667  151.2967 H   0  0  0  0  0  0  0  0  0  0  0  0
  147.4009  131.0405  151.2587 H   0  0  0  0  0  0  0  0  0  0  0  0
  144.5588  131.1218  152.0493 H   0  0  0  0  0  0  0  0  0  0  0  0
  145.6864  132.0605  153.0003 H   0  0  0  0  0  0  0  0  0  0  0  0
  145.7112  132.3282  149.9801 H   0  0  0  0  0  0  0  0  0  0  0  0
  143.4264  132.9536  150.1976 H   0  0  0  0  0  0  0  0  0  0  0  0
  143.6818  133.6144  151.8129 H   0  0  0  0  0  0  0  0  0  0  0  0
  144.6570  134.7974  149.1942 H   0  0  0  0  0  0  0  0  0  0  0  0
  143.7331  135.6131  150.4605 H   0  0  0  0  0  0  0  0  0  0  0  0
  146.4257  135.8837  150.4440 H   0  0  0  0  0  0  0  0  0  0  0  0
  145.6006  135.5703  151.9709 H   0  0  0  0  0  0  0  0  0  0  0  0
  146.8371  133.8522  153.2317 H   0  0  0  0  0  0  0  0  0  0  0  0
  148.1005  134.6297  152.2805 H   0  0  0  0  0  0  0  0  0  0  0  0
  147.9905  132.8784  152.2989 H   0  0  0  0  0  0  0  0  0  0  0  0
  147.1081  133.7781  150.3117 H   0  0  0  0  0  0  0  0  0  0  0  0
  1  2  1  0  0  0  0
  1 18  1  0  0  0  0
  1 19  1  0  0  0  0
  1 20  1  0  0  0  0
  2 17  1  0  0  0  0
  2  3  2  0  0  0  0
  3  4  1  0  0  0  0
  4  5  2  0  0  0  0
  5  6  1  0  0  0  0
  5 17  1  0  0  0  0
  6  7  1  0  0  0  0
  6 21  1  0  0  0  0
  7  8  2  0  0  0  0
  7  9  1  0  0  0  0
  9 10  1  0  0  0  0
  9 22  1  0  0  0  0
 10 11  1  0  0  0  0
 10 23  1  0  0  0  0
 10 24  1  0  0  0  0
 11 15  1  0  0  0  0
 11 12  1  0  0  0  0
 11 25  1  0  0  0  0
 12 13  1  0  0  0  0
 12 26  1  0  0  0  0
 12 27  1  0  0  0  0
 13 14  1  0  0  0  0
 13 28  1  0  0  0  0
 13 29  1  0  0  0  0
 14 15  1  0  0  0  0
 14 30  1  0  0  0  0
 14 31  1  0  0  0  0
 15 16  1  0  0  0  0
 15 35  1  0  0  0  0
 16 32  1  0  0  0  0
 16 33  1  0  0  0  0
 16 34  1  0  0  0  0
M  CHG  1  15   1
M  END
> <s_m_source_file>
AV-unprocessed.smi

> <i_m_source_file_index>
828

> <i_lp_mmshare_version>
43012

> <i_f3d_flags>
0

> <s_epik_input>
W0NIM11jMW5uYyhzMSlbTkhdQyg9TylbTkhdW0NIMl1bQ0BASF0yW0NIMl1bQ0gyXVtDSDJdTjJbQ0gzXQ==

> <s_epik_cmdline>
J2VwaWtfcHl0aG9uJywgJy1waCcsICc3LjAnLCAnLXRuJywgJzgnLCAnLW1hJywgJzIwMCcsICctbWV0YWxfYmluZGluZycsICctaW1hZScsICc8aW5maWxlLm1hZT4nLCAnLW9tYWUnLCAnPG91dGZpbGUubWFlPic=

> <r_lp_tautomer_probability>
1

> <r_epik_Ionization_Penalty>
0.00466477

> <r_epik_Ionization_Penalty_Charging>
0.00372199

> <r_epik_Ionization_Penalty_Neutral>
0.000942783

> <r_epik_State_Penalty>
-0

> <r_epik_Charging_Adjusted_Penalty>
0.00372199

> <i_epik_Tot_Q>
1

> <i_epik_Tot_abs_Q>
1

> <r_epik_Metal_State_Penalty>
0.28212

> <b_epik_Metal_Only>
0

> <s_lp_Force_Field>
OPLS_2005

> <r_lp_Energy>
28.4237

> <b_lp_Chiralities_Consistent>
1

> <s_lp_Variant>
AV-unprocessed.smi:828-2

> <Gold.Version>
5.8.1

> <Gold.Id.Protein>
6NUR|6NUR_protein|mol2

> <Gold.PLP.Fitness>
38.4307

> <Gold.PLP.PLP>
-34.1819

> <Gold.PLP.part.hbond>
-3.1919

> <Gold.PLP.part.metal>
0.0000

> <Gold.PLP.part.buried>
-5.5278

> <Gold.PLP.part.nonpolar>
-24.4492

> <Gold.PLP.part.repulsive>
0.3249

> <Gold.PLP.ligand.clash>
0.0000

> <Gold.PLP.ligand.torsion>
0.6523

> <Gold.PLP.Chemscore.Hbond>
1.8500

> <Gold.PLP.Chemscore.CHOScore>
0.0000

> <Gold.PLP.Chemscore.Metal>
0.0000

> <Gold.Chemscore.Hbonds>
donor molecule, donor type, donor heavy atom, donor atom, acceptor molecule, acceptor atom, score
      L1  H     6    21       P1 10747  0.85
      L1  H     9    22       P1 10747  1.00

> <Gold.PLP.Chemscore.Internal.Correction>
0.0034

> <Gold.Rescore>
     Score         DG    S(hbond)    S(metal)    S(lipo)     H(rot)  DE(clash)    DE(int)     intcor
     11.43     -13.03       1.22        0.00      58.70       1.33       0.02       1.59       ----

> <Gold.Chemscore.Fitness>
11.4266

> <Gold.Chemscore.DG>
-13.0321

> <Gold.Chemscore.ZeroCoef>
-5.4800

> <Gold.Chemscore.Hbond>
1.2238

> <Gold.Chemscore.Metal>
0.0000

> <Gold.Chemscore.Lipo>
58.6990

> <Gold.Chemscore.Internal_Hbond>
0.0000

> <Gold.Chemscore.DEClash>
0.0187

> <Gold.Chemscore.DEInternal>
1.5869

> <Gold.Chemscore.Rot>
1.3294

> <Gold.Chemscore.Internal.Correction>
   9.000000E+99

> <Gold.Chemscore.Hbonds>
donor molecule, donor type, donor heavy atom, donor atom, acceptor molecule, acceptor atom, score
      L1  H     6    21       P1 10747  0.14
      L1  H     9    22       P1 10747  0.98

> <Gold.Chemscore.Hbond.Weighted>
-4.0876

> <Gold.Chemscore.Metal.Weighted>
-0.0000

> <Gold.Chemscore.Lipo.Weighted>
-6.8678

> <Gold.Chemscore.Internal_Hbond.Weighted>
0.0000

> <Gold.Chemscore.DEClash.Weighted>
0.0187

> <Gold.Chemscore.DEInternal.Weighted>
1.5869

> <Gold.Chemscore.Rot.Weighted>
3.4033

> <Gold.Chemscore.Internal.Correction.Weighted>
   9.000000E+99

> <Gold.Protein.RotatedTorsions>
[ 6907 6896 6895 6894 ] final  142.62 input  -60.11 | X-H torsion
[ 7974 7965 7964 7962 ] final  -92.71 input  175.53 | X-H torsion
[ 8008 7997 7996 7995 ] final -115.57 input   59.86 | X-H torsion
[ 10167 10162 10161 10158 ] final  -22.79 input  -65.29 | X-H torsion
[ 10718 10713 10712 10709 ] final  122.61 input   66.30 | X-H torsion
[ 10763 10752 10751 10750 ] final   39.17 input  -60.55 | X-H torsion
[ 11005 11000 10999 10996 ] final  115.54 input  -57.11 | X-H torsion

> <Gold.Protein.ActiveResidues>
 VAL166  LYS551  ARG553  GLY616  TRP617  ASP618  TYR619  PRO620  LYS621  CYS622 
 ASP623  PHE694  ASN695  SER759  ASP760  ASP761  ALA762  ILE779  LEU786  VAL792 
 PHE793  MET794  SER795  GLU796  ALA797  LYS798  CYS799  TRP800  GLU811  SER814 

> <Gold.Protein.RotatedAtoms>
  152.2165  133.4950  159.5138 H   0  0  0  0  0  0  0  0  0  0  0  0  # atno 6907 bound_to 6896
  150.7002  134.1399  159.4110 H   0  0  0  0  0  0  0  0  0  0  0  0  # atno 6908 bound_to 6896
  151.9319  135.0252  160.0580 H   0  0  0  0  0  0  0  0  0  0  0  0  # atno 6909 bound_to 6896
  145.3962  140.9533  143.2312 H   0  0  0  0  0  0  0  0  0  0  0  0  # atno 7974 bound_to 7965
  155.0541  140.0393  157.2554 H   0  0  0  0  0  0  0  0  0  0  0  0  # atno 8008 bound_to 7997
  154.7113  140.2693  155.6602 H   0  0  0  0  0  0  0  0  0  0  0  0  # atno 8009 bound_to 7997
  156.2790  140.2721  156.1755 H   0  0  0  0  0  0  0  0  0  0  0  0  # atno 8010 bound_to 7997
  140.7287  143.4502  151.0527 H   0  0  0  0  0  0  0  0  0  0  0  0  # atno 10167 bound_to 10162
  157.5729  131.1082  150.8334 H   0  0  0  0  0  0  0  0  0  0  0  0  # atno 10718 bound_to 10713
  152.9976  135.6228  154.2423 H   0  0  0  0  0  0  0  0  0  0  0  0  # atno 10763 bound_to 10752
  154.2163  135.2798  155.2942 H   0  0  0  0  0  0  0  0  0  0  0  0  # atno 10764 bound_to 10752
  154.5565  135.5718  153.7027 H   0  0  0  0  0  0  0  0  0  0  0  0  # atno 10765 bound_to 10752
  139.9013  134.9585  156.7062 H   0  0  0  0  0  0  0  0  0  0  0  0  # atno 11005 bound_to 11000
  144.8405  139.5479  143.6902 LP  0  0  0  0  0  0  0  0  0  0  0  0  # atno 17320 bound_to 7965
  146.2774  139.6787  142.9253 LP  0  0  0  0  0  0  0  0  0  0  0  0  # atno 17321 bound_to 7965
  139.8178  143.7862  152.3175 LP  0  0  0  0  0  0  0  0  0  0  0  0  # atno 17342 bound_to 10162
  139.7934  144.7402  150.9924 LP  0  0  0  0  0  0  0  0  0  0  0  0  # atno 17343 bound_to 10162
  156.8801  130.5176  149.5291 LP  0  0  0  0  0  0  0  0  0  0  0  0  # atno 17370 bound_to 10713
  156.0774  130.5792  150.9499 LP  0  0  0  0  0  0  0  0  0  0  0  0  # atno 17371 bound_to 10713
  140.7112  133.9222  155.8085 LP  0  0  0  0  0  0  0  0  0  0  0  0  # atno 17394 bound_to 11000
  141.0299  134.0771  157.4026 LP  0  0  0  0  0  0  0  0  0  0  0  0  # atno 17395 bound_to 11000

$$$$
