AV-unprocessed.smi:788|AV-procd|sdf|3732|dock10
  -GOLD-   22720 1163D 1   1.00000     0.00000
 Structure written by MMmdl.
 35 36  0  0  0  0  0  0  0  0  1 V2000
  151.3659  143.3423  157.5988 C   0  0  0  0  0  0  0  0  0  0  0  0
  152.1905  143.4504  158.8931 C   0  0  1  0  0  0  0  0  0  0  0  0
  151.3250  143.9330  160.0751 C   0  0  0  0  0  0  0  0  0  0  0  0
  152.1590  144.0926  161.3554 C   0  0  0  0  0  0  0  0  0  0  0  0
  152.8979  142.7931  161.7103 C   0  0  0  0  0  0  0  0  0  0  0  0
  153.7739  142.3043  160.5386 C   0  0  1  0  0  0  0  0  0  0  0  0
  154.5572  141.0341  160.9123 C   0  0  0  0  0  0  0  0  0  0  0  0
  152.9376  142.1388  159.2444 C   0  0  1  0  0  0  0  0  0  0  0  0
  151.9972  141.0235  159.3729 N   0  0  0  0  0  0  0  0  0  0  0  0
  152.0053  139.8760  158.6752 C   0  0  0  0  0  0  0  0  0  0  0  0
  152.8384  139.6281  157.8056 O   0  0  0  0  0  0  0  0  0  0  0  0
  151.0324  138.9893  158.9768 N   0  0  0  0  0  0  0  0  0  0  0  0
  150.7312  137.6957  158.4567 C   0  0  0  0  0  0  0  0  0  0  0  0
  149.9319  136.7974  159.0561 N   0  0  0  0  0  0  0  0  0  0  0  0
  149.8245  135.6218  158.3259 N   0  0  0  0  0  0  0  0  0  0  0  0
  150.5486  135.6744  157.2046 C   0  0  0  0  0  0  0  0  0  0  0  0
  151.4315  137.1663  156.9329 S   0  0  0  0  0  0  0  0  0  0  0  0
  150.5410  142.6368  157.7020 H   0  0  0  0  0  0  0  0  0  0  0  0
  151.9860  143.0106  156.7657 H   0  0  0  0  0  0  0  0  0  0  0  0
  150.9386  144.3078  157.3272 H   0  0  0  0  0  0  0  0  0  0  0  0
  152.9497  144.2138  158.7157 H   0  0  0  0  0  0  0  0  0  0  0  0
  150.8554  144.8856  159.8280 H   0  0  0  0  0  0  0  0  0  0  0  0
  150.5113  143.2291  160.2551 H   0  0  0  0  0  0  0  0  0  0  0  0
  152.8823  144.8978  161.2213 H   0  0  0  0  0  0  0  0  0  0  0  0
  151.5150  144.3913  162.1829 H   0  0  0  0  0  0  0  0  0  0  0  0
  153.5149  142.9569  162.5943 H   0  0  0  0  0  0  0  0  0  0  0  0
  152.1733  142.0241  161.9822 H   0  0  0  0  0  0  0  0  0  0  0  0
  154.5153  143.0808  160.3435 H   0  0  0  0  0  0  0  0  0  0  0  0
  153.8927  140.2200  161.2029 H   0  0  0  0  0  0  0  0  0  0  0  0
  155.2301  141.2227  161.7490 H   0  0  0  0  0  0  0  0  0  0  0  0
  155.1629  140.6868  160.0747 H   0  0  0  0  0  0  0  0  0  0  0  0
  153.6341  141.9328  158.4298 H   0  0  0  0  0  0  0  0  0  0  0  0
  151.2703  141.1352  160.0655 H   0  0  0  0  0  0  0  0  0  0  0  0
  150.3990  139.3016  159.6983 H   0  0  0  0  0  0  0  0  0  0  0  0
  150.5630  134.8287  156.5332 H   0  0  0  0  0  0  0  0  0  0  0  0
  1  2  1  0  0  0  0
  1 18  1  0  0  0  0
  1 19  1  0  0  0  0
  1 20  1  0  0  0  0
  2  8  1  0  0  0  0
  2  3  1  0  0  0  0
  2 21  1  0  0  0  0
  3  4  1  0  0  0  0
  3 22  1  0  0  0  0
  3 23  1  0  0  0  0
  4  5  1  0  0  0  0
  4 24  1  0  0  0  0
  4 25  1  0  0  0  0
  5  6  1  0  0  0  0
  5 26  1  0  0  0  0
  5 27  1  0  0  0  0
  6  7  1  0  0  0  0
  6  8  1  0  0  0  0
  6 28  1  0  0  0  0
  7 29  1  0  0  0  0
  7 30  1  0  0  0  0
  7 31  1  0  0  0  0
  8  9  1  0  0  0  0
  8 32  1  0  0  0  0
  9 10  1  0  0  0  0
  9 33  1  0  0  0  0
 10 11  2  0  0  0  0
 10 12  1  0  0  0  0
 12 13  1  0  0  0  0
 12 34  1  0  0  0  0
 13 17  1  0  0  0  0
 13 14  2  0  0  0  0
 14 15  1  0  0  0  0
 15 16  2  0  0  0  0
 16 17  1  0  0  0  0
 16 35  1  0  0  0  0
M  END
> <s_m_source_file>
AV-unprocessed.smi

> <i_m_source_file_index>
788

> <i_lp_mmshare_version>
43012

> <i_f3d_flags>
0

> <s_epik_input>
W0NIM11bQ0BASF0xW0NIMl1bQ0gyXVtDSDJdW0NAQEhdKFtDSDNdKVtDQEhdMVtOSF1DKD1PKVtOSF1jMm5uW2NIXXMy

> <s_epik_cmdline>
J2VwaWtfcHl0aG9uJywgJy1waCcsICc3LjAnLCAnLXRuJywgJzgnLCAnLW1hJywgJzIwMCcsICctbWV0YWxfYmluZGluZycsICctaW1hZScsICc8aW5maWxlLm1hZT4nLCAnLW9tYWUnLCAnPG91dGZpbGUubWFlPic=

> <r_lp_tautomer_probability>
1

> <r_epik_Ionization_Penalty>
0.000304078

> <r_epik_Ionization_Penalty_Charging>
0

> <r_epik_Ionization_Penalty_Neutral>
0.000304078

> <r_epik_State_Penalty>
-0

> <r_epik_Charging_Adjusted_Penalty>
0

> <i_epik_Tot_Q>
0

> <i_epik_Tot_abs_Q>
0

> <r_epik_Metal_State_Penalty>
0.164801

> <b_epik_Metal_Only>
0

> <s_lp_Force_Field>
OPLS_2005

> <r_lp_Energy>
12.7564

> <b_lp_Chiralities_Consistent>
1

> <s_lp_Variant>
AV-unprocessed.smi:788-2

> <Gold.Version>
5.8.1

> <Gold.Id.Protein>
6NUR|6NUR_protein|mol2

> <Gold.PLP.Fitness>
39.9742

> <Gold.PLP.PLP>
-34.3831

> <Gold.PLP.part.hbond>
-2.1053

> <Gold.PLP.part.metal>
0.0000

> <Gold.PLP.part.buried>
-4.8871

> <Gold.PLP.part.nonpolar>
-27.3998

> <Gold.PLP.part.repulsive>
0.3173

> <Gold.PLP.ligand.clash>
0.0000

> <Gold.PLP.ligand.torsion>
0.0762

> <Gold.PLP.Chemscore.Hbond>
1.9120

> <Gold.PLP.Chemscore.CHOScore>
0.0000

> <Gold.PLP.Chemscore.Metal>
0.0000

> <Gold.Chemscore.Hbonds>
donor molecule, donor type, donor heavy atom, donor atom, acceptor molecule, acceptor atom, score
      P1  H  6896  6909       L1    15  0.88
      P1  H  7997  8009       L1    11  1.00

> <Gold.PLP.Chemscore.Internal.Correction>
0.0076

> <Gold.Rescore>
     Score         DG    S(hbond)    S(metal)    S(lipo)     H(rot)  DE(clash)    DE(int)     intcor
     17.02     -18.28       1.21        0.00      96.77       1.00       0.03       1.24       ----

> <Gold.Chemscore.Fitness>
17.0172

> <Gold.Chemscore.DG>
-18.2844

> <Gold.Chemscore.ZeroCoef>
-5.4800

> <Gold.Chemscore.Hbond>
1.2101

> <Gold.Chemscore.Metal>
0.0000

> <Gold.Chemscore.Lipo>
96.7735

> <Gold.Chemscore.Internal_Hbond>
0.0000

> <Gold.Chemscore.DEClash>
0.0294

> <Gold.Chemscore.DEInternal>
1.2378

> <Gold.Chemscore.Rot>
1.0000

> <Gold.Chemscore.Internal.Correction>
   9.000000E+99

> <Gold.Chemscore.Hbonds>
donor molecule, donor type, donor heavy atom, donor atom, acceptor molecule, acceptor atom, score
      P1  H  6896  6909       L1    15  0.21
      P1  H  7997  8009       L1    11  0.99

> <Gold.Chemscore.Hbond.Weighted>
-4.0419

> <Gold.Chemscore.Metal.Weighted>
-0.0000

> <Gold.Chemscore.Lipo.Weighted>
-11.3225

> <Gold.Chemscore.Internal_Hbond.Weighted>
0.0000

> <Gold.Chemscore.DEClash.Weighted>
0.0294

> <Gold.Chemscore.DEInternal.Weighted>
1.2378

> <Gold.Chemscore.Rot.Weighted>
2.5600

> <Gold.Chemscore.Internal.Correction.Weighted>
   9.000000E+99

> <Gold.Protein.RotatedTorsions>
[ 6907 6896 6895 6894 ] final   34.69 input  -60.11 | X-H torsion
[ 7974 7965 7964 7962 ] final  -20.18 input  175.53 | X-H torsion
[ 8008 7997 7996 7995 ] final  172.53 input   59.86 | X-H torsion
[ 10167 10162 10161 10158 ] final   16.25 input  -65.29 | X-H torsion
[ 10718 10713 10712 10709 ] final  -59.94 input   66.30 | X-H torsion
[ 10763 10752 10751 10750 ] final   65.15 input  -60.55 | X-H torsion
[ 11005 11000 10999 10996 ] final  -54.67 input  -57.11 | X-H torsion

> <Gold.Protein.ActiveResidues>
 VAL166  LYS551  ARG553  GLY616  TRP617  ASP618  TYR619  PRO620  LYS621  CYS622 
 ASP623  PHE694  ASN695  SER759  ASP760  ASP761  ALA762  ILE779  LEU786  VAL792 
 PHE793  MET794  SER795  GLU796  ALA797  LYS798  CYS799  TRP800  GLU811  SER814 

> <Gold.Protein.RotatedAtoms>
  152.1058  134.9309  160.0567 H   0  0  0  0  0  0  0  0  0  0  0  0  # atno 6907 bound_to 6896
  152.0506  133.4012  159.4383 H   0  0  0  0  0  0  0  0  0  0  0  0  # atno 6908 bound_to 6896
  150.6841  134.3233  159.4839 H   0  0  0  0  0  0  0  0  0  0  0  0  # atno 6909 bound_to 6896
  146.1802  140.4166  142.8497 H   0  0  0  0  0  0  0  0  0  0  0  0  # atno 7974 bound_to 7965
  156.1165  140.1483  156.9265 H   0  0  0  0  0  0  0  0  0  0  0  0  # atno 8008 bound_to 7997
  154.4804  140.0881  156.7407 H   0  0  0  0  0  0  0  0  0  0  0  0  # atno 8009 bound_to 7997
  155.4504  140.3434  155.4302 H   0  0  0  0  0  0  0  0  0  0  0  0  # atno 8010 bound_to 7997
  140.5811  143.8980  150.6790 H   0  0  0  0  0  0  0  0  0  0  0  0  # atno 10167 bound_to 10162
  156.1026  130.4184  150.0784 H   0  0  0  0  0  0  0  0  0  0  0  0  # atno 10718 bound_to 10713
  153.0084  135.5367  154.6622 H   0  0  0  0  0  0  0  0  0  0  0  0  # atno 10763 bound_to 10752
  154.5828  135.2851  155.0717 H   0  0  0  0  0  0  0  0  0  0  0  0  # atno 10764 bound_to 10752
  154.1840  135.6511  153.5094 H   0  0  0  0  0  0  0  0  0  0  0  0  # atno 10765 bound_to 10752
  141.1037  133.6615  156.4355 H   0  0  0  0  0  0  0  0  0  0  0  0  # atno 11005 bound_to 11000
  144.8302  140.6694  143.6296 LP  0  0  0  0  0  0  0  0  0  0  0  0  # atno 17320 bound_to 7965
  145.4098  139.1582  143.4132 LP  0  0  0  0  0  0  0  0  0  0  0  0  # atno 17321 bound_to 7965
  140.2479  143.3615  152.1431 LP  0  0  0  0  0  0  0  0  0  0  0  0  # atno 17342 bound_to 10162
  139.5170  144.6986  151.5560 LP  0  0  0  0  0  0  0  0  0  0  0  0  # atno 17343 bound_to 10162
  156.8768  130.9543  151.3603 LP  0  0  0  0  0  0  0  0  0  0  0  0  # atno 17370 bound_to 10713
  157.6198  130.8646  149.9090 LP  0  0  0  0  0  0  0  0  0  0  0  0  # atno 17371 bound_to 10713
  140.4957  134.6533  157.5229 LP  0  0  0  0  0  0  0  0  0  0  0  0  # atno 17394 bound_to 11000
  139.9898  134.7003  155.9709 LP  0  0  0  0  0  0  0  0  0  0  0  0  # atno 17395 bound_to 11000

$$$$
