AV-unprocessed.smi:193|AV-procd|sdf|1519|dock3
  -GOLD-   2262019353D 1   1.00000     0.00000
 Structure written by MMmdl.
 61 65  0  0  0  0  0  0  0  0  1 V2000
  152.2134  139.4155  155.7393 C   0  0  0  0  0  0  0  0  0  0  0  0
  151.5235  140.7753  155.9217 C   0  0  1  0  0  0  0  0  0  0  0  0
  150.1472  140.8085  155.2211 C   0  0  0  0  0  0  0  0  0  0  0  0
  149.0181  140.4319  156.0703 N   0  0  0  0  0  0  0  0  0  0  0  0
  148.1059  139.6712  155.4130 C   0  0  0  0  0  0  0  0  0  0  0  0
  147.3949  140.1951  154.3779 N   0  0  0  0  0  0  0  0  0  0  0  0
  146.5170  139.4396  153.7117 C   0  0  0  0  0  0  0  0  0  0  0  0
  146.2006  138.1583  153.9083 N   0  0  0  0  0  0  0  0  0  0  0  0
  146.9095  137.6271  154.9452 C   0  0  0  0  0  0  0  0  0  0  0  0
  147.8768  138.3058  155.7393 C   0  0  0  0  0  0  0  0  0  0  0  0
  148.3955  137.4411  156.6944 N   0  0  0  0  0  0  0  0  0  0  0  0
  147.7730  136.3152  156.4770 C   0  0  0  0  0  0  0  0  0  0  0  0
  146.8544  136.3402  155.4519 N   0  0  0  0  0  0  0  0  0  0  0  0
  146.0228  135.2337  155.0023 C   0  0  0  0  0  0  0  0  0  0  0  0
  146.5735  134.4915  153.7584 C   0  0  0  0  0  0  0  0  0  0  0  0
  146.7290  135.4425  152.7196 O   0  0  0  0  0  0  0  0  0  0  0  0
  147.9555  133.8806  154.0665 C   0  0  0  0  0  0  0  0  0  0  0  0
  148.4680  132.9934  152.9180 C   0  0  0  0  0  0  0  0  0  0  0  0
  147.5115  131.9838  152.6199 O   0  0  0  0  0  0  0  0  0  0  0  0
  146.2754  132.5166  152.1601 C   0  0  0  0  0  0  0  0  0  0  0  0
  145.6274  133.3775  153.2592 C   0  0  0  0  0  0  0  0  0  0  0  0
  148.4888  141.5151  156.9011 C   0  0  0  0  0  0  0  0  0  0  0  0
  149.3741  141.8503  158.1096 C   0  0  0  0  0  0  0  0  0  0  0  0
  150.7032  142.3333  157.7312 N   0  0  0  0  0  0  0  0  0  0  0  0
  151.2686  143.0021  158.8939 C   0  0  1  0  0  0  0  0  0  0  0  0
  152.7607  143.2473  158.8968 C   0  0  0  0  0  0  0  0  0  0  0  0
  151.8083  144.4031  158.7017 C   0  0  2  0  0  0  0  0  0  0  0  0
  151.6401  145.4492  159.7818 C   0  0  0  0  0  0  0  0  0  0  0  0
  151.5572  141.1885  157.4093 C   0  0  0  0  0  0  0  0  0  0  0  0
  151.6872  138.6299  156.2810 H   0  0  0  0  0  0  0  0  0  0  0  0
  153.2375  139.4427  156.1125 H   0  0  0  0  0  0  0  0  0  0  0  0
  152.2560  139.1277  154.6885 H   0  0  0  0  0  0  0  0  0  0  0  0
  152.1385  141.4977  155.3830 H   0  0  0  0  0  0  0  0  0  0  0  0
  149.9666  141.8256  154.8704 H   0  0  0  0  0  0  0  0  0  0  0  0
  150.1839  140.2049  154.3128 H   0  0  0  0  0  0  0  0  0  0  0  0
  145.9952  139.9309  152.9038 H   0  0  0  0  0  0  0  0  0  0  0  0
  147.9625  135.4310  157.0680 H   0  0  0  0  0  0  0  0  0  0  0  0
  145.8949  134.5397  155.8344 H   0  0  0  0  0  0  0  0  0  0  0  0
  145.0301  135.6314  154.7867 H   0  0  0  0  0  0  0  0  0  0  0  0
  147.6477  135.5125  152.5101 H   0  0  0  0  0  0  0  0  0  0  0  0
  148.6809  134.6651  154.2864 H   0  0  0  0  0  0  0  0  0  0  0  0
  147.8867  133.2690  154.9670 H   0  0  0  0  0  0  0  0  0  0  0  0
  148.6804  133.5852  152.0263 H   0  0  0  0  0  0  0  0  0  0  0  0
  149.4033  132.5142  153.2074 H   0  0  0  0  0  0  0  0  0  0  0  0
  146.4328  133.0958  151.2490 H   0  0  0  0  0  0  0  0  0  0  0  0
  145.6145  131.6906  151.8968 H   0  0  0  0  0  0  0  0  0  0  0  0
  145.3633  132.7298  154.0963 H   0  0  0  0  0  0  0  0  0  0  0  0
  144.6914  133.7971  152.8882 H   0  0  0  0  0  0  0  0  0  0  0  0
  148.3378  142.4066  156.2907 H   0  0  0  0  0  0  0  0  0  0  0  0
  147.5067  141.2379  157.2867 H   0  0  0  0  0  0  0  0  0  0  0  0
  148.8628  142.6414  158.6601 H   0  0  0  0  0  0  0  0  0  0  0  0
  149.4365  141.0047  158.7964 H   0  0  0  0  0  0  0  0  0  0  0  0
  150.8312  142.8003  159.8707 H   0  0  0  0  0  0  0  0  0  0  0  0
  153.2773  143.1704  159.8513 H   0  0  0  0  0  0  0  0  0  0  0  0
  153.3339  142.9208  158.0313 H   0  0  0  0  0  0  0  0  0  0  0  0
  151.7531  144.8077  157.6925 H   0  0  0  0  0  0  0  0  0  0  0  0
  151.7107  144.9983  160.7721 H   0  0  0  0  0  0  0  0  0  0  0  0
  150.6664  145.9302  159.6870 H   0  0  0  0  0  0  0  0  0  0  0  0
  152.4152  146.2097  159.6891 H   0  0  0  0  0  0  0  0  0  0  0  0
  151.3163  140.3397  158.0513 H   0  0  0  0  0  0  0  0  0  0  0  0
  152.5948  141.4358  157.6402 H   0  0  0  0  0  0  0  0  0  0  0  0
  1  2  1  0  0  0  0
  1 30  1  0  0  0  0
  1 31  1  0  0  0  0
  1 32  1  0  0  0  0
  2 29  1  0  0  0  0
  2  3  1  0  0  0  0
  2 33  1  0  0  0  0
  3  4  1  0  0  0  0
  3 34  1  0  0  0  0
  3 35  1  0  0  0  0
  4  5  1  0  0  0  0
  4 22  1  0  0  0  0
  5 10  1  0  0  0  0
  5  6  2  0  0  0  0
  6  7  1  0  0  0  0
  7  8  2  0  0  0  0
  7 36  1  0  0  0  0
  8  9  1  0  0  0  0
  9 13  1  0  0  0  0
  9 10  2  0  0  0  0
 10 11  1  0  0  0  0
 11 12  2  0  0  0  0
 12 13  1  0  0  0  0
 12 37  1  0  0  0  0
 13 14  1  0  0  0  0
 14 15  1  0  0  0  0
 14 38  1  0  0  0  0
 14 39  1  0  0  0  0
 15 21  1  0  0  0  0
 15 16  1  0  0  0  0
 15 17  1  0  0  0  0
 16 40  1  0  0  0  0
 17 18  1  0  0  0  0
 17 41  1  0  0  0  0
 17 42  1  0  0  0  0
 18 19  1  0  0  0  0
 18 43  1  0  0  0  0
 18 44  1  0  0  0  0
 19 20  1  0  0  0  0
 20 21  1  0  0  0  0
 20 45  1  0  0  0  0
 20 46  1  0  0  0  0
 21 47  1  0  0  0  0
 21 48  1  0  0  0  0
 22 23  1  0  0  0  0
 22 49  1  0  0  0  0
 22 50  1  0  0  0  0
 23 24  1  0  0  0  0
 23 51  1  0  0  0  0
 23 52  1  0  0  0  0
 24 25  1  0  0  0  0
 24 29  1  0  0  0  0
 25 27  1  0  0  0  0
 25 26  1  0  0  0  0
 25 53  1  0  0  0  0
 26 27  1  0  0  0  0
 26 54  1  0  0  0  0
 26 55  1  0  0  0  0
 27 28  1  0  0  0  0
 27 56  1  0  0  0  0
 28 57  1  0  0  0  0
 28 58  1  0  0  0  0
 28 59  1  0  0  0  0
 29 60  1  0  0  0  0
 29 61  1  0  0  0  0
M  END
> <s_m_source_file>
AV-unprocessed.smi

> <i_m_source_file_index>
193

> <i_lp_mmshare_version>
43012

> <i_f3d_flags>
0

> <s_epik_input>
W0NIM11bQ0BASF0xW0NIMl1bQ0BIXTFOKFtDSDJdMilbQ0gyXVtDSDJdTihbQ0gyXVtDQEhdMltDSDNdKWMobltjSF1uMyljKGMzNCluW2NIXW40W0NIMl1DNShbT0hdKVtDSDJdW0NIMl1PW0NIMl1bQ0gyXTU=

> <s_epik_cmdline>
J2VwaWtfcHl0aG9uJywgJy1waCcsICc3LjAnLCAnLXRuJywgJzgnLCAnLW1hJywgJzIwMCcsICctbWV0YWxfYmluZGluZycsICctaW1hZScsICc8aW5maWxlLm1hZT4nLCAnLW9tYWUnLCAnPG91dGZpbGUubWFlPic=

> <r_lp_tautomer_probability>
1

> <r_epik_Ionization_Penalty>
1.45227

> <r_epik_Ionization_Penalty_Charging>
0

> <r_epik_Ionization_Penalty_Neutral>
1.45227

> <r_epik_State_Penalty>
2.02377

> <r_epik_Charging_Adjusted_Penalty>
2.02377

> <i_epik_Tot_Q>
0

> <i_epik_Tot_abs_Q>
0

> <r_epik_Metal_State_Penalty>
2.01937

> <b_epik_Metal_Only>
0

> <s_lp_Force_Field>
OPLS_2005

> <r_lp_Energy>
55.8214

> <b_lp_Chiralities_Consistent>
1

> <s_lp_Variant>
AV-unprocessed.smi:193-24

> <Gold.Version>
5.8.1

> <Gold.Id.Protein>
6NUR|6NUR_protein|mol2

> <Gold.PLP.Fitness>
43.1249

> <Gold.PLP.PLP>
-38.1577

> <Gold.PLP.part.hbond>
-0.9293

> <Gold.PLP.part.metal>
0.0000

> <Gold.PLP.part.buried>
-5.1201

> <Gold.PLP.part.nonpolar>
-32.7692

> <Gold.PLP.part.repulsive>
1.3528

> <Gold.PLP.ligand.clash>
0.0000

> <Gold.PLP.ligand.torsion>
1.2645

> <Gold.PLP.Chemscore.Hbond>
1.0000

> <Gold.PLP.Chemscore.CHOScore>
1.0000

> <Gold.PLP.Chemscore.Metal>
0.0000

> <Gold.Chemscore.Hbonds>
donor molecule, donor type, donor heavy atom, donor atom, acceptor molecule, acceptor atom, score
      L1  H    16    40       P1  7948  1.00
      L1  C     7    36       P1 10175  1.00

> <Gold.PLP.Chemscore.Internal.Correction>
1.4962

> <Gold.Rescore>
     Score         DG    S(hbond)    S(metal)    S(lipo)     H(rot)  DE(clash)    DE(int)     intcor
     14.28     -15.65       1.00        0.00     105.76       2.17       0.15       1.22       ----

> <Gold.Chemscore.Fitness>
14.2840

> <Gold.Chemscore.DG>
-15.6479

> <Gold.Chemscore.ZeroCoef>
-5.4800

> <Gold.Chemscore.Hbond>
0.9998

> <Gold.Chemscore.Metal>
0.0000

> <Gold.Chemscore.Lipo>
105.7638

> <Gold.Chemscore.Internal_Hbond>
0.0000

> <Gold.Chemscore.DEClash>
0.1481

> <Gold.Chemscore.DEInternal>
1.2158

> <Gold.Chemscore.Rot>
2.1664

> <Gold.Chemscore.Internal.Correction>
   9.000000E+99

> <Gold.Chemscore.Hbonds>
donor molecule, donor type, donor heavy atom, donor atom, acceptor molecule, acceptor atom, score
      L1  H    16    40       P1  7948  0.97

> <Gold.Chemscore.Hbond.Weighted>
-3.3395

> <Gold.Chemscore.Metal.Weighted>
-0.0000

> <Gold.Chemscore.Lipo.Weighted>
-12.3744

> <Gold.Chemscore.Internal_Hbond.Weighted>
0.0000

> <Gold.Chemscore.DEClash.Weighted>
0.1481

> <Gold.Chemscore.DEInternal.Weighted>
1.2158

> <Gold.Chemscore.Rot.Weighted>
5.5459

> <Gold.Chemscore.Internal.Correction.Weighted>
   9.000000E+99

> <Gold.Protein.RotatedTorsions>
[ 6907 6896 6895 6894 ] final -143.33 input  -60.11 | X-H torsion
[ 7974 7965 7964 7962 ] final  172.18 input  175.53 | X-H torsion
[ 8008 7997 7996 7995 ] final  170.22 input   59.86 | X-H torsion
[ 10167 10162 10161 10158 ] final  -40.71 input  -65.29 | X-H torsion
[ 10718 10713 10712 10709 ] final  145.86 input   66.30 | X-H torsion
[ 10763 10752 10751 10750 ] final -169.57 input  -60.55 | X-H torsion
[ 11005 11000 10999 10996 ] final   36.56 input  -57.11 | X-H torsion

> <Gold.Protein.ActiveResidues>
 VAL166  LYS551  ARG553  GLY616  TRP617  ASP618  TYR619  PRO620  LYS621  CYS622 
 ASP623  PHE694  ASN695  SER759  ASP760  ASP761  ALA762  ILE779  LEU786  VAL792 
 PHE793  MET794  SER795  GLU796  ALA797  LYS798  CYS799  TRP800  GLU811  SER814 

> <Gold.Protein.RotatedAtoms>
  151.0990  133.5258  159.2610 H   0  0  0  0  0  0  0  0  0  0  0  0  # atno 6907 bound_to 6896
  151.2095  135.0475  159.8915 H   0  0  0  0  0  0  0  0  0  0  0  0  # atno 6908 bound_to 6896
  152.5441  134.0808  159.8288 H   0  0  0  0  0  0  0  0  0  0  0  0  # atno 6909 bound_to 6896
  144.7275  139.9460  143.6430 H   0  0  0  0  0  0  0  0  0  0  0  0  # atno 7974 bound_to 7965
  156.1386  140.1543  156.8956 H   0  0  0  0  0  0  0  0  0  0  0  0  # atno 8008 bound_to 7997
  154.4968  140.0836  156.7752 H   0  0  0  0  0  0  0  0  0  0  0  0  # atno 8009 bound_to 7997
  155.4122  140.3419  155.4267 H   0  0  0  0  0  0  0  0  0  0  0  0  # atno 8010 bound_to 7997
  140.7025  143.3137  151.2964 H   0  0  0  0  0  0  0  0  0  0  0  0  # atno 10167 bound_to 10162
  157.3402  131.0934  151.1089 H   0  0  0  0  0  0  0  0  0  0  0  0  # atno 10718 bound_to 10713
  154.6508  135.2911  154.9989 H   0  0  0  0  0  0  0  0  0  0  0  0  # atno 10763 bound_to 10752
  154.1082  135.6566  153.4884 H   0  0  0  0  0  0  0  0  0  0  0  0  # atno 10764 bound_to 10752
  153.0375  135.5259  154.7416 H   0  0  0  0  0  0  0  0  0  0  0  0  # atno 10765 bound_to 10752
  140.2313  134.3524  155.7962 H   0  0  0  0  0  0  0  0  0  0  0  0  # atno 11005 bound_to 11000
  146.0748  139.3736  143.0501 LP  0  0  0  0  0  0  0  0  0  0  0  0  # atno 17320 bound_to 7965
  145.7920  140.9810  143.1044 LP  0  0  0  0  0  0  0  0  0  0  0  0  # atno 17321 bound_to 7965
  139.6568  144.0261  152.2665 LP  0  0  0  0  0  0  0  0  0  0  0  0  # atno 17342 bound_to 10162
  139.9815  144.6425  150.7896 LP  0  0  0  0  0  0  0  0  0  0  0  0  # atno 17343 bound_to 10162
  157.2304  130.6522  149.5847 LP  0  0  0  0  0  0  0  0  0  0  0  0  # atno 17370 bound_to 10713
  155.9706  130.4600  150.6058 LP  0  0  0  0  0  0  0  0  0  0  0  0  # atno 17371 bound_to 10713
  141.2217  133.7247  156.8736 LP  0  0  0  0  0  0  0  0  0  0  0  0  # atno 17394 bound_to 11000
  140.1747  134.9075  157.2876 LP  0  0  0  0  0  0  0  0  0  0  0  0  # atno 17395 bound_to 11000

$$$$
