#       Name:                AV-unprocessed.smi:3165
#       Creating user name   scv26
#       Creation time:       Fri Mar 27 17:52:16 2020


#       File generated by GOLD software.
#

@<TRIPOS>MOLECULE
AV-unprocessed.smi:3165
    41    42     1
SMALL
NO_CHARGES


@<TRIPOS>ATOM
      1 ****        -2.1243  -0.6763  -1.3372 C.3            1 S1                 0.0000
      2 ****        -1.5050   0.0008  -0.0970 C.3            1 S1                 0.0000
      3 ****        -2.0020  -0.6197   1.2248 C.3            1 S1                 0.0000
      4 ****        -3.4434  -0.5389   1.3824 N.pl3          1 S1                 0.0000
      5 ****        -4.2100   0.5732   1.6596 C.2            1 S1                 0.0000
      6 ****        -5.5112   0.1644   1.7228 C.2            1 S1                 0.0000
      7 ****        -5.4385  -1.2342   1.4714 C.2            1 S1                 0.0000
      8 ****        -4.1994  -1.6528   1.2707 N.2            1 S1                 0.0000
      9 ****        -0.0405  -0.0463  -0.1233 N.3            1 S1                 0.0000
     10 ****         0.5999   0.6873  -1.2162 C.3            1 S1                 0.0000
     11 ****         2.1315   0.6976  -1.0752 C.3            1 S1                 0.0000
     12 ****         2.7665  -0.7093  -1.0736 C.3            1 S1                 0.0000
     13 ****         4.2842  -0.6114  -0.8863 C.3            1 S1                 0.0000
     14 ****         4.5965   0.2341   0.3534 C.3            1 S1                 0.0000
     15 ****         3.8851   1.5944   0.2684 C.3            1 S1                 0.0000
     16 ****         2.4815   1.4061   0.1125 O.3            1 S1                 0.0000
     17 ****        -3.2133  -0.6478  -1.3053 H              1 S1                 0.0000
     18 ****        -1.8242  -1.7224  -1.4072 H              1 S1                 0.0000
     19 ****        -1.8323  -0.1806  -2.2624 H              1 S1                 0.0000
     20 ****        -1.8165   1.0461  -0.1006 H              1 S1                 0.0000
     21 ****        -1.6934  -1.6648   1.2929 H              1 S1                 0.0000
     22 ****        -1.5471  -0.1070   2.0735 H              1 S1                 0.0000
     23 ****        -3.7700   1.5514   1.7861 H              1 S1                 0.0000
     24 ****        -6.3819   0.7717   1.9201 H              1 S1                 0.0000
     25 ****        -6.2434  -1.9530   1.4307 H              1 S1                 0.0000
     26 ****         0.3259   0.2876   0.7626 H              1 S1                 0.0000
     27 ****         0.3387   0.2433  -2.1764 H              1 S1                 0.0000
     28 ****         0.2375   1.7157  -1.2372 H              1 S1                 0.0000
     29 ****         2.5293   1.2553  -1.9249 H              1 S1                 0.0000
     30 ****         2.3479  -1.3119  -0.2670 H              1 S1                 0.0000
     31 ****         2.5360  -1.2298  -2.0035 H              1 S1                 0.0000
     32 ****         4.7205  -1.6059  -0.7893 H              1 S1                 0.0000
     33 ****         4.7355  -0.1543  -1.7676 H              1 S1                 0.0000
     34 ****         4.2667  -0.2933   1.2492 H              1 S1                 0.0000
     35 ****         5.6730   0.3759   0.4519 H              1 S1                 0.0000
     36 ****         4.0636   2.1668   1.1789 H              1 S1                 0.0000
     37 ****         4.2768   2.1862  -0.5602 H              1 S1                 0.0000
     38 ****        -3.8916  -2.5847   1.0792 LP             1 S1                 0.0000
     39 ****         0.1835  -1.0075  -0.2839 LP             1 S1                 0.0000
     40 ****         2.1416   0.8917   0.8998 LP             1 S1                 0.0000
     41 ****         2.0425   2.3043   0.0864 LP             1 S1                 0.0000
@<TRIPOS>BOND
    1    1    2 1     
    2    1   17 1     
    3    1   18 1     
    4    1   19 1     
    5    2    3 1     
    6    2    9 1     
    7    2   20 1     
    8    3    4 1     
    9    3   21 1     
   10    3   22 1     
   11    4    8 1     
   12    4    5 1     
   13    5    6 2     
   14    5   23 1     
   15    6    7 1     
   16    6   24 1     
   17    7    8 2     
   18    7   25 1     
   19    9   10 1     
   20    9   26 1     
   21   10   11 1     
   22   10   27 1     
   23   10   28 1     
   24   11   16 1     
   25   11   12 1     
   26   11   29 1     
   27   12   13 1     
   28   12   30 1     
   29   12   31 1     
   30   13   14 1     
   31   13   32 1     
   32   13   33 1     
   33   14   15 1     
   34   14   34 1     
   35   14   35 1     
   36   15   16 1     
   37   15   36 1     
   38   15   37 1     
   39    8   38 1     
   40    9   39 1     
   41   16   40 1     
   42   16   41 1     
@<TRIPOS>SUBSTRUCTURE
      1 S1             1
@<TRIPOS>SET
LONE_PAIRS      STATIC     ATOMS    <user>   **** ""
4 38 39 40 41
DONOR_HYDROGENS      STATIC     ATOMS    <user>   **** ""
1 26
ATOM$BLUE        STATIC     ATOMS    COLORGROUP SYSTEM
4 38 39 40 41
ATOM$RED        STATIC     ATOMS    COLORGROUP SYSTEM
1 26
