AV-unprocessed.smi:2124|AV-procd|sdf|8660|dock9
  -GOLD-   2272011413D 1   1.00000     0.00000
 Structure written by MMmdl.
 47 49  0  0  0  0  0  0  0  0  1 V2000
  149.7057  133.7754  154.3205 C   0  0  0  0  0  0  0  0  0  0  0  0
  149.7354  134.9564  155.2665 C   0  0  0  0  0  0  0  0  0  0  0  0
  149.8127  136.1812  154.6243 N   0  0  0  0  0  0  0  0  0  0  0  0
  149.8618  137.3210  155.4072 C   0  0  0  0  0  0  0  0  0  0  0  0
  149.9582  138.6196  154.6257 C   0  0  0  0  0  0  0  0  0  0  0  0
  149.8217  137.2446  156.7617 C   0  0  0  0  0  0  0  0  0  0  0  0
  149.8718  138.4771  157.6642 C   0  0  0  0  0  0  0  0  0  0  0  0
  151.1895  139.2568  157.6791 C   0  0  0  0  0  0  0  0  0  0  0  0
  152.1388  138.8999  156.9806 O   0  0  0  0  0  0  0  0  0  0  0  0
  151.2210  140.3314  158.4826 N   0  0  0  0  0  0  0  0  0  0  0  0
  152.3489  141.2462  158.6544 C   0  0  2  0  0  0  0  0  0  0  0  0
  153.4373  140.5241  159.4664 C   0  0  0  0  0  0  0  0  0  0  0  0
  151.8769  142.5550  159.3358 C   0  0  1  0  0  0  0  0  0  0  0  0
  153.0273  143.5510  159.6242 C   0  0  0  0  0  0  0  0  0  0  0  0
  152.5452  144.8537  158.9618 C   0  0  2  0  0  0  0  0  0  0  0  0
  151.3543  145.4245  159.7523 C   0  0  0  0  0  0  0  0  0  0  0  0
  150.2171  144.4481  159.3993 C   0  0  0  0  0  0  0  0  0  0  0  0
  150.9175  143.4267  158.4830 C   0  0  1  0  0  0  0  0  0  0  0  0
  151.8708  144.3254  157.7029 C   0  0  0  0  0  0  0  0  0  0  0  0
  149.7153  135.9072  157.3910 C   0  0  0  0  0  0  0  0  0  0  0  0
  149.6475  135.7742  158.6124 O   0  0  0  0  0  0  0  0  0  0  0  0
  149.6883  134.7809  156.5523 N   0  0  0  0  0  0  0  0  0  0  0  0
  149.8419  136.2836  153.6201 H   0  0  0  0  0  0  0  0  0  0  0  0
  149.8038  132.8361  154.8664 H   0  0  0  0  0  0  0  0  0  0  0  0
  150.5251  133.8384  153.6036 H   0  0  0  0  0  0  0  0  0  0  0  0
  148.7643  133.7554  153.7710 H   0  0  0  0  0  0  0  0  0  0  0  0
  150.8871  139.1389  154.8619 H   0  0  0  0  0  0  0  0  0  0  0  0
  149.1228  139.2756  154.8721 H   0  0  0  0  0  0  0  0  0  0  0  0
  149.9387  138.4433  153.5494 H   0  0  0  0  0  0  0  0  0  0  0  0
  149.6601  138.1689  158.6880 H   0  0  0  0  0  0  0  0  0  0  0  0
  149.0626  139.1624  157.4085 H   0  0  0  0  0  0  0  0  0  0  0  0
  150.3878  140.5421  159.0128 H   0  0  0  0  0  0  0  0  0  0  0  0
  152.7768  141.4963  157.6824 H   0  0  0  0  0  0  0  0  0  0  0  0
  154.3242  141.1446  159.5936 H   0  0  0  0  0  0  0  0  0  0  0  0
  153.7538  139.6075  158.9675 H   0  0  0  0  0  0  0  0  0  0  0  0
  153.0782  140.2535  160.4599 H   0  0  0  0  0  0  0  0  0  0  0  0
  151.3812  142.2858  160.2702 H   0  0  0  0  0  0  0  0  0  0  0  0
  153.2144  143.6714  160.6918 H   0  0  0  0  0  0  0  0  0  0  0  0
  153.9614  143.2303  159.1614 H   0  0  0  0  0  0  0  0  0  0  0  0
  153.3426  145.5770  158.7889 H   0  0  0  0  0  0  0  0  0  0  0  0
  151.5519  145.4643  160.8240 H   0  0  0  0  0  0  0  0  0  0  0  0
  151.1117  146.4337  159.4173 H   0  0  0  0  0  0  0  0  0  0  0  0
  149.7739  143.9854  160.2818 H   0  0  0  0  0  0  0  0  0  0  0  0
  149.4222  144.9667  158.8616 H   0  0  0  0  0  0  0  0  0  0  0  0
  150.2141  142.8670  157.8670 H   0  0  0  0  0  0  0  0  0  0  0  0
  151.3611  145.1000  157.1274 H   0  0  0  0  0  0  0  0  0  0  0  0
  152.5464  143.7777  157.0438 H   0  0  0  0  0  0  0  0  0  0  0  0
  1 24  1  0  0  0  0
  1 25  1  0  0  0  0
  1 26  1  0  0  0  0
  1  2  1  0  0  0  0
  2  3  1  0  0  0  0
  2 22  2  0  0  0  0
  3  4  1  0  0  0  0
  3 23  1  0  0  0  0
  4  6  2  0  0  0  0
  4  5  1  0  0  0  0
  5 27  1  0  0  0  0
  5 28  1  0  0  0  0
  5 29  1  0  0  0  0
  6 20  1  0  0  0  0
  6  7  1  0  0  0  0
  7  8  1  0  0  0  0
  7 30  1  0  0  0  0
  7 31  1  0  0  0  0
  8  9  2  0  0  0  0
  8 10  1  0  0  0  0
 10 11  1  0  0  0  0
 10 32  1  0  0  0  0
 11 12  1  0  0  0  0
 11 13  1  0  0  0  0
 11 33  1  0  0  0  0
 12 34  1  0  0  0  0
 12 35  1  0  0  0  0
 12 36  1  0  0  0  0
 13 18  1  0  0  0  0
 13 14  1  0  0  0  0
 13 37  1  0  0  0  0
 14 15  1  0  0  0  0
 14 38  1  0  0  0  0
 14 39  1  0  0  0  0
 15 19  1  0  0  0  0
 15 16  1  0  0  0  0
 15 40  1  0  0  0  0
 16 17  1  0  0  0  0
 16 41  1  0  0  0  0
 16 42  1  0  0  0  0
 17 18  1  0  0  0  0
 17 43  1  0  0  0  0
 17 44  1  0  0  0  0
 18 19  1  0  0  0  0
 18 45  1  0  0  0  0
 19 46  1  0  0  0  0
 19 47  1  0  0  0  0
 20 21  2  0  0  0  0
 20 22  1  0  0  0  0
M  END
> <s_m_source_file>
AV-unprocessed.smi

> <i_m_source_file_index>
2124

> <i_lp_mmshare_version>
43012

> <i_f3d_flags>
0

> <s_epik_input>
W0NIM11jMW5jKFtDSDNdKWMoYyg9TylbbkhdMSlbQ0gyXUMoPU8pW05IXVtDQEhdKFtDSDNdKVtDQEhdKFtDSDJdW0NASF0yMylbQ0BIXShbQ0gyXTMpW0NIMl1bQ0gyXTI=

> <s_epik_cmdline>
J2VwaWtfcHl0aG9uJywgJy1waCcsICc3LjAnLCAnLXRuJywgJzgnLCAnLW1hJywgJzIwMCcsICctbWV0YWxfYmluZGluZycsICctaW1hZScsICc8aW5maWxlLm1hZT4nLCAnLW9tYWUnLCAnPG91dGZpbGUubWFlPic=

> <r_lp_tautomer_probability>
0.156392

> <r_epik_Ionization_Penalty>
0.0139374

> <r_epik_Ionization_Penalty_Charging>
0.0138122

> <r_epik_Ionization_Penalty_Neutral>
0.000125146

> <r_epik_State_Penalty>
1.15342

> <r_epik_Charging_Adjusted_Penalty>
1.16723

> <i_epik_Tot_Q>
0

> <i_epik_Tot_abs_Q>
0

> <r_epik_Metal_State_Penalty>
1.3173

> <b_epik_Metal_Only>
0

> <s_lp_Force_Field>
OPLS_2005

> <r_lp_Energy>
56.0933

> <b_lp_Chiralities_Consistent>
1

> <s_lp_Variant>
AV-unprocessed.smi:2124-11

> <Gold.Version>
5.8.1

> <Gold.Id.Protein>
6NUR|6NUR_protein|mol2

> <Gold.PLP.Fitness>
46.4786

> <Gold.PLP.PLP>
-40.9909

> <Gold.PLP.part.hbond>
-2.0000

> <Gold.PLP.part.metal>
0.0000

> <Gold.PLP.part.buried>
-7.0248

> <Gold.PLP.part.nonpolar>
-32.7394

> <Gold.PLP.part.repulsive>
0.1938

> <Gold.PLP.ligand.clash>
0.0000

> <Gold.PLP.ligand.torsion>
0.2637

> <Gold.PLP.Chemscore.Hbond>
2.0000

> <Gold.PLP.Chemscore.CHOScore>
0.0000

> <Gold.PLP.Chemscore.Metal>
0.0000

> <Gold.Chemscore.Hbonds>
donor molecule, donor type, donor heavy atom, donor atom, acceptor molecule, acceptor atom, score
      L1  H     3    23       P1  7948  0.95
      P1  H  6896  6907       L1    21  1.00

> <Gold.PLP.Chemscore.Internal.Correction>
0.0152

> <Gold.Rescore>
     Score         DG    S(hbond)    S(metal)    S(lipo)     H(rot)  DE(clash)    DE(int)     intcor
     20.56     -20.82       1.99        0.00     110.47       1.65       0.00       0.27       ----

> <Gold.Chemscore.Fitness>
20.5562

> <Gold.Chemscore.DG>
-20.8249

> <Gold.Chemscore.ZeroCoef>
-5.4800

> <Gold.Chemscore.Hbond>
1.9918

> <Gold.Chemscore.Metal>
0.0000

> <Gold.Chemscore.Lipo>
110.4699

> <Gold.Chemscore.Internal_Hbond>
0.0000

> <Gold.Chemscore.DEClash>
0.0004

> <Gold.Chemscore.DEInternal>
0.2682

> <Gold.Chemscore.Rot>
1.6534

> <Gold.Chemscore.Internal.Correction>
   9.000000E+99

> <Gold.Chemscore.Hbonds>
donor molecule, donor type, donor heavy atom, donor atom, acceptor molecule, acceptor atom, score
      L1  H     3    23       P1  7948  0.21
      P1  H  6896  6907       L1    21  0.92

> <Gold.Chemscore.Hbond.Weighted>
-6.6525

> <Gold.Chemscore.Metal.Weighted>
-0.0000

> <Gold.Chemscore.Lipo.Weighted>
-12.9250

> <Gold.Chemscore.Internal_Hbond.Weighted>
0.0000

> <Gold.Chemscore.DEClash.Weighted>
0.0004

> <Gold.Chemscore.DEInternal.Weighted>
0.2682

> <Gold.Chemscore.Rot.Weighted>
4.2326

> <Gold.Chemscore.Internal.Correction.Weighted>
   9.000000E+99

> <Gold.Protein.RotatedTorsions>
[ 6907 6896 6895 6894 ] final  -80.67 input  -60.11 | X-H torsion
[ 7974 7965 7964 7962 ] final   25.45 input  175.53 | X-H torsion
[ 8008 7997 7996 7995 ] final   14.77 input   59.86 | X-H torsion
[ 10167 10162 10161 10158 ] final  103.63 input  -65.29 | X-H torsion
[ 10718 10713 10712 10709 ] final   36.38 input   66.30 | X-H torsion
[ 10763 10752 10751 10750 ] final   91.12 input  -60.55 | X-H torsion
[ 11005 11000 10999 10996 ] final  -10.77 input  -57.11 | X-H torsion

> <Gold.Protein.ActiveResidues>
 VAL166  LYS551  ARG553  GLY616  TRP617  ASP618  TYR619  PRO620  LYS621  CYS622 
 ASP623  PHE694  ASN695  SER759  ASP760  ASP761  ALA762  ILE779  LEU786  VAL792 
 PHE793  MET794  SER795  GLU796  ALA797  LYS798  CYS799  TRP800  GLU811  SER814 

> <Gold.Protein.RotatedAtoms>
  150.6925  134.3933  159.5086 H   0  0  0  0  0  0  0  0  0  0  0  0  # atno 6907 bound_to 6896
  152.1718  134.8825  160.0543 H   0  0  0  0  0  0  0  0  0  0  0  0  # atno 6908 bound_to 6896
  151.9848  133.3735  159.4158 H   0  0  0  0  0  0  0  0  0  0  0  0  # atno 6909 bound_to 6896
  146.1888  139.7463  142.8847 H   0  0  0  0  0  0  0  0  0  0  0  0  # atno 7974 bound_to 7965
  154.8531  140.2932  155.5586 H   0  0  0  0  0  0  0  0  0  0  0  0  # atno 8008 bound_to 7997
  156.3017  140.2492  156.3425 H   0  0  0  0  0  0  0  0  0  0  0  0  # atno 8009 bound_to 7997
  154.8999  140.0392  157.1876 H   0  0  0  0  0  0  0  0  0  0  0  0  # atno 8010 bound_to 7997
  139.7246  144.7050  151.0818 H   0  0  0  0  0  0  0  0  0  0  0  0  # atno 10167 bound_to 10162
  157.3342  130.7513  149.6867 H   0  0  0  0  0  0  0  0  0  0  0  0  # atno 10718 bound_to 10713
  153.2049  135.4409  155.0310 H   0  0  0  0  0  0  0  0  0  0  0  0  # atno 10763 bound_to 10752
  154.8168  135.3319  154.7157 H   0  0  0  0  0  0  0  0  0  0  0  0  # atno 10764 bound_to 10752
  153.7599  135.6992  153.4983 H   0  0  0  0  0  0  0  0  0  0  0  0  # atno 10765 bound_to 10752
  140.7482  133.8614  155.9023 H   0  0  0  0  0  0  0  0  0  0  0  0  # atno 11005 bound_to 11000
  145.3858  141.0365  143.3152 LP  0  0  0  0  0  0  0  0  0  0  0  0  # atno 17320 bound_to 7965
  144.8446  139.5417  143.6884 LP  0  0  0  0  0  0  0  0  0  0  0  0  # atno 17321 bound_to 7965
  140.7760  143.5121  150.9639 LP  0  0  0  0  0  0  0  0  0  0  0  0  # atno 17342 bound_to 10162
  139.8809  143.7074  152.3157 LP  0  0  0  0  0  0  0  0  0  0  0  0  # atno 17343 bound_to 10162
  155.9699  130.4186  150.4337 LP  0  0  0  0  0  0  0  0  0  0  0  0  # atno 17370 bound_to 10713
  157.2374  131.0518  151.2457 LP  0  0  0  0  0  0  0  0  0  0  0  0  # atno 17371 bound_to 10713
  140.9775  134.1450  157.4523 LP  0  0  0  0  0  0  0  0  0  0  0  0  # atno 17394 bound_to 11000
  139.8792  134.9999  156.5982 LP  0  0  0  0  0  0  0  0  0  0  0  0  # atno 17395 bound_to 11000

$$$$
