AV-unprocessed.smi:381|AV-procd|sdf|2461|dock2
  -GOLD-   2262022403D 1   1.00000     0.00000
 Structure written by MMmdl.
 45 46  0  0  0  0  0  0  0  0  1 V2000
  148.1972  134.3337  155.8092 O   0  0  0  0  0  0  0  0  0  0  0  0
  148.4090  134.8100  154.6957 C   0  0  0  0  0  0  0  0  0  0  0  0
  149.3285  135.7602  154.4627 N   0  0  0  0  0  0  0  0  0  0  0  0
  150.1957  136.3343  155.4815 C   0  0  0  0  0  0  0  0  0  0  0  0
  151.1195  137.3962  154.8703 C   0  0  0  0  0  0  0  0  0  0  0  0
  150.5311  138.7899  154.9712 C   0  0  0  0  0  0  0  0  0  0  0  0
  151.0923  139.7493  155.8394 C   0  0  0  0  0  0  0  0  0  0  0  0
  150.5174  141.0335  155.8941 C   0  0  0  0  0  0  0  0  0  0  0  0
  149.4015  141.3038  155.0771 C   0  0  0  0  0  0  0  0  0  0  0  0
  148.8548  140.3930  154.2430 N   0  0  0  0  0  0  0  0  0  0  0  0
  149.4132  139.1642  154.1954 C   0  0  0  0  0  0  0  0  0  0  0  0
  147.7263  134.4034  153.6096 N   0  0  0  0  0  0  0  0  0  0  0  0
  146.6664  133.3948  153.5132 C   0  0  0  0  0  0  0  0  0  0  0  0
  147.2045  132.2099  152.6775 C   0  0  0  0  0  0  0  0  0  0  0  0
  146.1961  131.0970  152.3360 C   0  0  0  0  0  0  0  0  0  0  0  0
  145.4987  131.2359  150.9635 C   0  0  0  0  0  0  0  0  0  0  0  0
  144.1895  132.0469  150.9632 C   0  0  0  0  0  0  0  0  0  0  0  0
  144.3156  133.5563  150.6659 C   0  0  0  0  0  0  0  0  0  0  0  0
  145.3573  134.3441  151.4809 C   0  0  0  0  0  0  0  0  0  0  0  0
  145.3593  134.0337  152.9906 C   0  0  0  0  0  0  0  0  0  0  0  0
  149.4410  136.0966  153.5174 H   0  0  0  0  0  0  0  0  0  0  0  0
  149.5896  136.7793  156.2727 H   0  0  0  0  0  0  0  0  0  0  0  0
  150.7858  135.5371  155.9358 H   0  0  0  0  0  0  0  0  0  0  0  0
  152.0907  137.3792  155.3669 H   0  0  0  0  0  0  0  0  0  0  0  0
  151.3063  137.1702  153.8194 H   0  0  0  0  0  0  0  0  0  0  0  0
  151.9500  139.5077  156.4499 H   0  0  0  0  0  0  0  0  0  0  0  0
  150.9226  141.7935  156.5455 H   0  0  0  0  0  0  0  0  0  0  0  0
  148.9359  142.2781  155.0938 H   0  0  0  0  0  0  0  0  0  0  0  0
  148.9547  138.4608  153.5159 H   0  0  0  0  0  0  0  0  0  0  0  0
  147.9722  134.8538  152.7399 H   0  0  0  0  0  0  0  0  0  0  0  0
  146.4627  133.0042  154.5117 H   0  0  0  0  0  0  0  0  0  0  0  0
  147.6879  132.5583  151.7642 H   0  0  0  0  0  0  0  0  0  0  0  0
  148.0115  131.7565  153.2550 H   0  0  0  0  0  0  0  0  0  0  0  0
  146.7606  130.1642  152.3039 H   0  0  0  0  0  0  0  0  0  0  0  0
  145.4717  130.9616  153.1399 H   0  0  0  0  0  0  0  0  0  0  0  0
  146.1871  131.6057  150.2031 H   0  0  0  0  0  0  0  0  0  0  0  0
  145.2397  130.2259  150.6430 H   0  0  0  0  0  0  0  0  0  0  0  0
  143.5387  131.6305  150.1933 H   0  0  0  0  0  0  0  0  0  0  0  0
  143.6483  131.8790  151.8942 H   0  0  0  0  0  0  0  0  0  0  0  0
  144.5367  133.6931  149.6067 H   0  0  0  0  0  0  0  0  0  0  0  0
  143.3364  134.0109  150.8196 H   0  0  0  0  0  0  0  0  0  0  0  0
  146.3450  134.1913  151.0487 H   0  0  0  0  0  0  0  0  0  0  0  0
  145.1648  135.4083  151.3411 H   0  0  0  0  0  0  0  0  0  0  0  0
  144.5178  133.3973  153.2578 H   0  0  0  0  0  0  0  0  0  0  0  0
  145.1662  134.9579  153.5364 H   0  0  0  0  0  0  0  0  0  0  0  0
  1  2  2  0  0  0  0
  2  3  1  0  0  0  0
  2 12  1  0  0  0  0
  3  4  1  0  0  0  0
  3 21  1  0  0  0  0
  4  5  1  0  0  0  0
  4 22  1  0  0  0  0
  4 23  1  0  0  0  0
  5  6  1  0  0  0  0
  5 24  1  0  0  0  0
  5 25  1  0  0  0  0
  6 11  1  0  0  0  0
  6  7  2  0  0  0  0
  7  8  1  0  0  0  0
  7 26  1  0  0  0  0
  8  9  2  0  0  0  0
  8 27  1  0  0  0  0
  9 10  1  0  0  0  0
  9 28  1  0  0  0  0
 10 11  2  0  0  0  0
 11 29  1  0  0  0  0
 12 13  1  0  0  0  0
 12 30  1  0  0  0  0
 13 20  1  0  0  0  0
 13 14  1  0  0  0  0
 13 31  1  0  0  0  0
 14 15  1  0  0  0  0
 14 32  1  0  0  0  0
 14 33  1  0  0  0  0
 15 16  1  0  0  0  0
 15 34  1  0  0  0  0
 15 35  1  0  0  0  0
 16 17  1  0  0  0  0
 16 36  1  0  0  0  0
 16 37  1  0  0  0  0
 17 18  1  0  0  0  0
 17 38  1  0  0  0  0
 17 39  1  0  0  0  0
 18 19  1  0  0  0  0
 18 40  1  0  0  0  0
 18 41  1  0  0  0  0
 19 20  1  0  0  0  0
 19 42  1  0  0  0  0
 19 43  1  0  0  0  0
 20 44  1  0  0  0  0
 20 45  1  0  0  0  0
M  END
> <s_m_source_file>
AV-unprocessed.smi

> <i_m_source_file_index>
381

> <i_lp_mmshare_version>
43012

> <i_f3d_flags>
0

> <s_epik_input>
W0NIMl0xW0NIMl1bQ0gyXVtDSDJdW0NIMl1bQ0gyXVtDSDJdW0NIXTFbTkhdQyg9TylbTkhdW0NIMl1bQ0gyXWMyW2NIXVtjSF1bY0hdbltjSF0y

> <s_epik_cmdline>
J2VwaWtfcHl0aG9uJywgJy1waCcsICc3LjAnLCAnLXRuJywgJzgnLCAnLW1hJywgJzIwMCcsICctbWV0YWxfYmluZGluZycsICctaW1hZScsICc8aW5maWxlLm1hZT4nLCAnLW9tYWUnLCAnPG91dGZpbGUubWFlPic=

> <r_epik_Ionization_Penalty>
0.0144395

> <r_epik_Ionization_Penalty_Charging>
0

> <r_epik_Ionization_Penalty_Neutral>
0.0144395

> <r_epik_State_Penalty>
0.0112394

> <r_epik_Charging_Adjusted_Penalty>
0.0112394

> <i_epik_Tot_Q>
0

> <i_epik_Tot_abs_Q>
0

> <r_epik_Metal_State_Penalty>
0.0109727

> <b_epik_Metal_Only>
0

> <s_lp_Force_Field>
OPLS_2005

> <r_lp_Energy>
29.8357

> <b_lp_Chiralities_Consistent>
1

> <s_lp_Variant>
AV-unprocessed.smi:381-1

> <Gold.Version>
5.8.1

> <Gold.Id.Protein>
6NUR|6NUR_protein|mol2

> <Gold.PLP.Fitness>
46.6024

> <Gold.PLP.PLP>
-36.2300

> <Gold.PLP.part.hbond>
-2.0000

> <Gold.PLP.part.metal>
0.0000

> <Gold.PLP.part.buried>
-2.2436

> <Gold.PLP.part.nonpolar>
-31.6721

> <Gold.PLP.part.repulsive>
0.7887

> <Gold.PLP.ligand.clash>
0.0000

> <Gold.PLP.ligand.torsion>
0.3329

> <Gold.PLP.Chemscore.Hbond>
1.9440

> <Gold.PLP.Chemscore.CHOScore>
1.7167

> <Gold.PLP.Chemscore.Metal>
0.0000

> <Gold.Chemscore.Hbonds>
donor molecule, donor type, donor heavy atom, donor atom, acceptor molecule, acceptor atom, score
      L1  H     3    21       P1  7948  1.00
      L1  H    12    30       P1  7948  0.98
      L1  C     9    28       P1  8028  1.00
      L1  C    11    29       P1  7948  0.45
      L1  C    11    29       P1  7957  0.02

> <Gold.PLP.Chemscore.Internal.Correction>
0.0561

> <Gold.Rescore>
     Score         DG    S(hbond)    S(metal)    S(lipo)     H(rot)  DE(clash)    DE(int)     intcor
     17.85     -18.25       1.76        0.00      89.95       1.42       0.03       0.37       ----

> <Gold.Chemscore.Fitness>
17.8490

> <Gold.Chemscore.DG>
-18.2530

> <Gold.Chemscore.ZeroCoef>
-5.4800

> <Gold.Chemscore.Hbond>
1.7628

> <Gold.Chemscore.Metal>
0.0000

> <Gold.Chemscore.Lipo>
89.9450

> <Gold.Chemscore.Internal_Hbond>
0.0000

> <Gold.Chemscore.DEClash>
0.0310

> <Gold.Chemscore.DEInternal>
0.3730

> <Gold.Chemscore.Rot>
1.4213

> <Gold.Chemscore.Internal.Correction>
   9.000000E+99

> <Gold.Chemscore.Hbonds>
donor molecule, donor type, donor heavy atom, donor atom, acceptor molecule, acceptor atom, score
      L1  H     3    21       P1  7948  0.54
      L1  H    12    30       P1  7948  0.82

> <Gold.Chemscore.Hbond.Weighted>
-5.8879

> <Gold.Chemscore.Metal.Weighted>
-0.0000

> <Gold.Chemscore.Lipo.Weighted>
-10.5236

> <Gold.Chemscore.Internal_Hbond.Weighted>
0.0000

> <Gold.Chemscore.DEClash.Weighted>
0.0310

> <Gold.Chemscore.DEInternal.Weighted>
0.3730

> <Gold.Chemscore.Rot.Weighted>
3.6385

> <Gold.Chemscore.Internal.Correction.Weighted>
   9.000000E+99

> <Gold.Protein.RotatedTorsions>
[ 6907 6896 6895 6894 ] final   70.72 input  -60.11 | X-H torsion
[ 7974 7965 7964 7962 ] final  -78.54 input  175.53 | X-H torsion
[ 8008 7997 7996 7995 ] final   53.30 input   59.86 | X-H torsion
[ 10167 10162 10161 10158 ] final -137.33 input  -65.29 | X-H torsion
[ 10718 10713 10712 10709 ] final  117.55 input   66.30 | X-H torsion
[ 10763 10752 10751 10750 ] final   70.10 input  -60.55 | X-H torsion
[ 11005 11000 10999 10996 ] final  104.26 input  -57.11 | X-H torsion

> <Gold.Protein.ActiveResidues>
 VAL166  LYS551  ARG553  GLY616  TRP617  ASP618  TYR619  PRO620  LYS621  CYS622 
 ASP623  PHE694  ASN695  SER759  ASP760  ASP761  ALA762  ILE779  LEU786  VAL792 
 PHE793  MET794  SER795  GLU796  ALA797  LYS798  CYS799  TRP800  GLU811  SER814 

> <Gold.Protein.RotatedAtoms>
  152.4766  134.4827  159.9670 H   0  0  0  0  0  0  0  0  0  0  0  0  # atno 6907 bound_to 6896
  151.4842  133.3533  159.2851 H   0  0  0  0  0  0  0  0  0  0  0  0  # atno 6908 bound_to 6896
  150.8809  134.8227  159.7285 H   0  0  0  0  0  0  0  0  0  0  0  0  # atno 6909 bound_to 6896
  145.5851  140.9441  143.1323 H   0  0  0  0  0  0  0  0  0  0  0  0  # atno 7974 bound_to 7965
  155.4660  140.3463  155.4319 H   0  0  0  0  0  0  0  0  0  0  0  0  # atno 8008 bound_to 7997
  156.1131  140.1466  156.9340 H   0  0  0  0  0  0  0  0  0  0  0  0  # atno 8009 bound_to 7997
  154.4770  140.0882  156.7264 H   0  0  0  0  0  0  0  0  0  0  0  0  # atno 8010 bound_to 7997
  139.8589  143.7103  152.2652 H   0  0  0  0  0  0  0  0  0  0  0  0  # atno 10167 bound_to 10162
  157.6089  131.1038  150.7630 H   0  0  0  0  0  0  0  0  0  0  0  0  # atno 10718 bound_to 10713
  153.0323  135.5186  154.7390 H   0  0  0  0  0  0  0  0  0  0  0  0  # atno 10763 bound_to 10752
  154.6395  135.2910  155.0123 H   0  0  0  0  0  0  0  0  0  0  0  0  # atno 10764 bound_to 10752
  154.1046  135.6631  153.4926 H   0  0  0  0  0  0  0  0  0  0  0  0  # atno 10765 bound_to 10752
  139.8790  134.9294  156.5334 H   0  0  0  0  0  0  0  0  0  0  0  0  # atno 11005 bound_to 11000
  144.7376  139.7540  143.7323 LP  0  0  0  0  0  0  0  0  0  0  0  0  # atno 17320 bound_to 7965
  146.1688  139.4830  142.9941 LP  0  0  0  0  0  0  0  0  0  0  0  0  # atno 17321 bound_to 7965
  139.7393  144.7563  151.0678 LP  0  0  0  0  0  0  0  0  0  0  0  0  # atno 17342 bound_to 10162
  140.7778  143.4992  150.9793 LP  0  0  0  0  0  0  0  0  0  0  0  0  # atno 17343 bound_to 10162
  156.8012  130.4922  149.5369 LP  0  0  0  0  0  0  0  0  0  0  0  0  # atno 17370 bound_to 10713
  156.1185  130.6092  151.0157 LP  0  0  0  0  0  0  0  0  0  0  0  0  # atno 17371 bound_to 10713
  140.8364  133.8239  155.9032 LP  0  0  0  0  0  0  0  0  0  0  0  0  # atno 17394 bound_to 11000
  140.9280  134.2058  157.4883 LP  0  0  0  0  0  0  0  0  0  0  0  0  # atno 17395 bound_to 11000

$$$$
