AV-unprocessed.smi:1033|AV-procd|sdf|4510|dock5
  -GOLD-   22720 2513D 1   1.00000     0.00000
 Structure written by MMmdl.
 57 59  0  0  0  0  0  0  0  0  3 V2000
  151.9802  144.5752  159.2181 C   0  0  0  0  0  0  0  0  0  0  0  0
  152.5932  143.3057  159.7827 C   0  0  0  0  0  0  0  0  0  0  0  0
  152.9119  142.2463  158.9033 C   0  0  0  0  0  0  0  0  0  0  0  0
  153.4839  141.0498  159.3881 C   0  0  0  0  0  0  0  0  0  0  0  0
  153.8713  139.9010  158.7194 N   0  0  0  0  0  0  0  0  0  0  0  0
  154.3323  139.1513  159.7165 C   0  0  0  0  0  0  0  0  0  0  0  0
  154.2968  139.6833  160.9538 N   0  0  0  0  0  0  0  0  0  0  0  0
  154.7493  139.0720  162.1901 C   0  0  0  0  0  0  0  0  0  0  0  0
  155.4946  140.0743  163.0917 C   0  0  2  0  0  0  0  0  0  0  0  0
  156.7189  140.4305  162.4791 O   0  0  0  0  0  0  0  0  0  0  0  0
  155.7897  139.4881  164.4863 C   0  0  0  0  0  0  0  0  0  0  0  0
  156.2974  140.5084  165.4402 N   0  3  2  0  0  0  0  0  0  0  0  0
  156.5468  139.9449  166.7906 C   0  0  0  0  0  0  0  0  0  0  0  0
  157.1555  140.9987  167.7390 C   0  0  0  0  0  0  0  0  0  0  0  0
  156.3410  142.2411  167.8010 N   0  3  2  0  0  0  0  0  0  0  0  0
  155.1163  142.1436  168.6414 C   0  0  0  0  0  0  0  0  0  0  0  0
  155.4432  142.0340  170.1439 C   0  0  2  0  0  0  0  0  0  0  0  0
  155.1856  140.6241  170.6909 C   0  0  0  0  0  0  0  0  0  0  0  0
  154.6309  142.9406  170.8618 O   0  0  0  0  0  0  0  0  0  0  0  0
  156.0880  142.7818  166.4419 C   0  0  0  0  0  0  0  0  0  0  0  0
  155.4519  141.7281  165.5161 C   0  0  0  0  0  0  0  0  0  0  0  0
  153.7322  140.9428  160.7875 C   0  0  0  0  0  0  0  0  0  0  0  0
  153.4167  141.9883  161.6734 C   0  0  0  0  0  0  0  0  0  0  0  0
  152.8442  143.1760  161.1726 C   0  0  0  0  0  0  0  0  0  0  0  0
  152.5045  144.2988  162.1369 C   0  0  0  0  0  0  0  0  0  0  0  0
  151.8663  144.5150  158.1354 H   0  0  0  0  0  0  0  0  0  0  0  0
  152.6108  145.4365  159.4400 H   0  0  0  0  0  0  0  0  0  0  0  0
  150.9938  144.7475  159.6493 H   0  0  0  0  0  0  0  0  0  0  0  0
  152.7190  142.3443  157.8452 H   0  0  0  0  0  0  0  0  0  0  0  0
  154.7257  138.1613  159.5360 H   0  0  0  0  0  0  0  0  0  0  0  0
  153.8750  138.6753  162.7078 H   0  0  0  0  0  0  0  0  0  0  0  0
  155.3856  138.2182  161.9512 H   0  0  0  0  0  0  0  0  0  0  0  0
  154.8861  140.9733  163.1803 H   0  0  0  0  0  0  0  0  0  0  0  0
  156.7257  140.0872  161.5976 H   0  0  0  0  0  0  0  0  0  0  0  0
  154.8963  139.0198  164.9020 H   0  0  0  0  0  0  0  0  0  0  0  0
  156.5270  138.6912  164.3749 H   0  0  0  0  0  0  0  0  0  0  0  0
  155.6147  139.5519  167.1988 H   0  0  0  0  0  0  0  0  0  0  0  0
  157.2325  139.1002  166.7123 H   0  0  0  0  0  0  0  0  0  0  0  0
  157.3017  140.5752  168.7319 H   0  0  0  0  0  0  0  0  0  0  0  0
  158.1500  141.2679  167.3804 H   0  0  0  0  0  0  0  0  0  0  0  0
  154.4944  143.0275  168.4899 H   0  0  0  0  0  0  0  0  0  0  0  0
  154.5113  141.2949  168.3216 H   0  0  0  0  0  0  0  0  0  0  0  0
  156.4858  142.2887  170.3312 H   0  0  0  0  0  0  0  0  0  0  0  0
  155.8051  139.8867  170.1793 H   0  0  0  0  0  0  0  0  0  0  0  0
  154.1434  140.3292  170.5623 H   0  0  0  0  0  0  0  0  0  0  0  0
  155.4193  140.5664  171.7547 H   0  0  0  0  0  0  0  0  0  0  0  0
  153.7969  143.0171  170.4230 H   0  0  0  0  0  0  0  0  0  0  0  0
  155.4647  143.6752  166.4958 H   0  0  0  0  0  0  0  0  0  0  0  0
  157.0407  143.1050  166.0195 H   0  0  0  0  0  0  0  0  0  0  0  0
  155.3233  142.1660  164.5272 H   0  0  0  0  0  0  0  0  0  0  0  0
  154.4553  141.4623  165.8722 H   0  0  0  0  0  0  0  0  0  0  0  0
  153.6126  141.8765  162.7294 H   0  0  0  0  0  0  0  0  0  0  0  0
  152.7682  144.0369  163.1620 H   0  0  0  0  0  0  0  0  0  0  0  0
  151.4359  144.5134  162.1110 H   0  0  0  0  0  0  0  0  0  0  0  0
  153.0471  145.2070  161.8742 H   0  0  0  0  0  0  0  0  0  0  0  0
  156.9116  142.9334  168.2670 H   0  0  0  0  0  0  0  0  0  0  0  0
  157.1987  140.7944  165.0831 H   0  0  0  0  0  0  0  0  0  0  0  0
  1  2  1  0  0  0  0
  1 26  1  0  0  0  0
  1 27  1  0  0  0  0
  1 28  1  0  0  0  0
  2 24  1  0  0  0  0
  2  3  2  0  0  0  0
  3  4  1  0  0  0  0
  3 29  1  0  0  0  0
  4 22  2  0  0  0  0
  4  5  1  0  0  0  0
  5  6  2  0  0  0  0
  6  7  1  0  0  0  0
  6 30  1  0  0  0  0
  7  8  1  0  0  0  0
  7 22  1  0  0  0  0
  8  9  1  0  0  0  0
  8 31  1  0  0  0  0
  8 32  1  0  0  0  0
  9 10  1  0  0  0  0
  9 11  1  0  0  0  0
  9 33  1  0  0  0  0
 10 34  1  0  0  0  0
 11 12  1  0  0  0  0
 11 35  1  0  0  0  0
 11 36  1  0  0  0  0
 12 21  1  0  0  0  0
 12 13  1  0  0  0  0
 12 57  1  0  0  0  0
 13 14  1  0  0  0  0
 13 37  1  0  0  0  0
 13 38  1  0  0  0  0
 14 15  1  0  0  0  0
 14 39  1  0  0  0  0
 14 40  1  0  0  0  0
 15 16  1  0  0  0  0
 15 20  1  0  0  0  0
 15 56  1  0  0  0  0
 16 17  1  0  0  0  0
 16 41  1  0  0  0  0
 16 42  1  0  0  0  0
 17 18  1  0  0  0  0
 17 19  1  0  0  0  0
 17 43  1  0  0  0  0
 18 44  1  0  0  0  0
 18 45  1  0  0  0  0
 18 46  1  0  0  0  0
 19 47  1  0  0  0  0
 20 21  1  0  0  0  0
 20 48  1  0  0  0  0
 20 49  1  0  0  0  0
 21 50  1  0  0  0  0
 21 51  1  0  0  0  0
 22 23  1  0  0  0  0
 23 24  2  0  0  0  0
 23 52  1  0  0  0  0
 24 25  1  0  0  0  0
 25 53  1  0  0  0  0
 25 54  1  0  0  0  0
 25 55  1  0  0  0  0
M  CHG  1  12   1
M  CHG  1  15   1
M  END
> <s_m_source_file>
AV-unprocessed.smi

> <i_m_source_file_index>
1033

> <i_lp_mmshare_version>
43012

> <i_f3d_flags>
0

> <s_epik_input>
W0NIM11jKFtjSF0xKWMoW0NIM10pW2NIXWMoYzEyKW4oW2NIXW4yKVtDSDJdW0NASF0oW09IXSlbQ0gyXU4zW0NIMl1bQ0gyXU4oW0NIMl1bQ0gyXTMpW0NIMl1bQ0BIXShbQ0gzXSlbT0hd

> <s_epik_cmdline>
J2VwaWtfcHl0aG9uJywgJy1waCcsICc3LjAnLCAnLXRuJywgJzgnLCAnLW1hJywgJzIwMCcsICctbWV0YWxfYmluZGluZycsICctaW1hZScsICc8aW5maWxlLm1hZT4nLCAnLW9tYWUnLCAnPG91dGZpbGUubWFlPic=

> <r_epik_Ionization_Penalty>
3.16016

> <r_epik_Ionization_Penalty_Charging>
3.07679

> <r_epik_Ionization_Penalty_Neutral>
0.083365

> <r_epik_State_Penalty>
2.09701

> <r_epik_Charging_Adjusted_Penalty>
5.1738

> <i_epik_Tot_Q>
2

> <i_epik_Tot_abs_Q>
2

> <r_epik_Metal_State_Penalty>
2.02534

> <b_epik_Metal_Only>
0

> <s_lp_Force_Field>
OPLS_2005

> <r_lp_Energy>
28.3009

> <b_lp_Chiralities_Consistent>
1

> <s_lp_Variant>
AV-unprocessed.smi:1033-21

> <Gold.Version>
5.8.1

> <Gold.Id.Protein>
6NUR|6NUR_protein|mol2

> <Gold.PLP.Fitness>
52.8750

> <Gold.PLP.PLP>
-51.9440

> <Gold.PLP.part.hbond>
-4.0000

> <Gold.PLP.part.metal>
0.0000

> <Gold.PLP.part.buried>
-5.6960

> <Gold.PLP.part.nonpolar>
-40.5158

> <Gold.PLP.part.repulsive>
0.0078

> <Gold.PLP.ligand.clash>
0.0000

> <Gold.PLP.ligand.torsion>
1.1337

> <Gold.PLP.Chemscore.Hbond>
1.0000

> <Gold.PLP.Chemscore.CHOScore>
0.0000

> <Gold.PLP.Chemscore.Metal>
0.0000

> <Gold.Chemscore.Hbonds>
donor molecule, donor type, donor heavy atom, donor atom, acceptor molecule, acceptor atom, score
      P1  H  7997  8008       L1     5  1.00

> <Gold.PLP.Chemscore.Internal.Correction>
0.1985

> <Gold.Rescore>
     Score         DG    S(hbond)    S(metal)    S(lipo)     H(rot)  DE(clash)    DE(int)     intcor
     13.71     -16.67       0.82        0.00     140.90       3.14       1.79       1.17       ----

> <Gold.Chemscore.Fitness>
13.7121

> <Gold.Chemscore.DG>
-16.6669

> <Gold.Chemscore.ZeroCoef>
-5.4800

> <Gold.Chemscore.Hbond>
0.8189

> <Gold.Chemscore.Metal>
0.0000

> <Gold.Chemscore.Lipo>
140.8983

> <Gold.Chemscore.Internal_Hbond>
0.0000

> <Gold.Chemscore.DEClash>
1.7889

> <Gold.Chemscore.DEInternal>
1.1660

> <Gold.Chemscore.Rot>
3.1380

> <Gold.Chemscore.Internal.Correction>
   9.000000E+99

> <Gold.Chemscore.Hbonds>
donor molecule, donor type, donor heavy atom, donor atom, acceptor molecule, acceptor atom, score
      P1  H  7997  8008       L1     5  0.91

> <Gold.Chemscore.Hbond.Weighted>
-2.7350

> <Gold.Chemscore.Metal.Weighted>
-0.0000

> <Gold.Chemscore.Lipo.Weighted>
-16.4851

> <Gold.Chemscore.Internal_Hbond.Weighted>
0.0000

> <Gold.Chemscore.DEClash.Weighted>
1.7889

> <Gold.Chemscore.DEInternal.Weighted>
1.1660

> <Gold.Chemscore.Rot.Weighted>
8.0332

> <Gold.Chemscore.Internal.Correction.Weighted>
   9.000000E+99

> <Gold.Protein.RotatedTorsions>
[ 6907 6896 6895 6894 ] final  106.08 input  -60.11 | X-H torsion
[ 7974 7965 7964 7962 ] final    2.46 input  175.53 | X-H torsion
[ 8008 7997 7996 7995 ] final -106.34 input   59.86 | X-H torsion
[ 10167 10162 10161 10158 ] final   35.57 input  -65.29 | X-H torsion
[ 10718 10713 10712 10709 ] final  -26.26 input   66.30 | X-H torsion
[ 10763 10752 10751 10750 ] final  133.44 input  -60.55 | X-H torsion
[ 11005 11000 10999 10996 ] final   26.18 input  -57.11 | X-H torsion

> <Gold.Protein.ActiveResidues>
 VAL166  LYS551  ARG553  GLY616  TRP617  ASP618  TYR619  PRO620  LYS621  CYS622 
 ASP623  PHE694  ASN695  SER759  ASP760  ASP761  ALA762  ILE779  LEU786  VAL792 
 PHE793  MET794  SER795  GLU796  ALA797  LYS798  CYS799  TRP800  GLU811  SER814 

> <Gold.Protein.RotatedAtoms>
  152.5207  133.9433  159.7636 H   0  0  0  0  0  0  0  0  0  0  0  0  # atno 6907 bound_to 6896
  150.9759  133.6287  159.2737 H   0  0  0  0  0  0  0  0  0  0  0  0  # atno 6908 bound_to 6896
  151.3482  135.0884  159.9447 H   0  0  0  0  0  0  0  0  0  0  0  0  # atno 6909 bound_to 6896
  146.2444  140.0832  142.8356 H   0  0  0  0  0  0  0  0  0  0  0  0  # atno 7974 bound_to 7965
  154.9131  140.0409  157.1957 H   0  0  0  0  0  0  0  0  0  0  0  0  # atno 8008 bound_to 7997
  154.8328  140.2902  155.5689 H   0  0  0  0  0  0  0  0  0  0  0  0  # atno 8009 bound_to 7997
  156.2988  140.2497  156.3257 H   0  0  0  0  0  0  0  0  0  0  0  0  # atno 8010 bound_to 7997
  140.4210  144.1460  150.6148 H   0  0  0  0  0  0  0  0  0  0  0  0  # atno 10167 bound_to 10162
  156.4535  130.4489  149.6974 H   0  0  0  0  0  0  0  0  0  0  0  0  # atno 10718 bound_to 10713
  153.8071  135.3134  155.3397 H   0  0  0  0  0  0  0  0  0  0  0  0  # atno 10763 bound_to 10752
  154.8066  135.4694  154.0411 H   0  0  0  0  0  0  0  0  0  0  0  0  # atno 10764 bound_to 10752
  153.1777  135.6888  153.8609 H   0  0  0  0  0  0  0  0  0  0  0  0  # atno 10765 bound_to 10752
  140.3398  134.2346  155.7691 H   0  0  0  0  0  0  0  0  0  0  0  0  # atno 11005 bound_to 11000
  145.0715  140.9158  143.4879 LP  0  0  0  0  0  0  0  0  0  0  0  0  # atno 17320 bound_to 7965
  145.0967  139.2851  143.5707 LP  0  0  0  0  0  0  0  0  0  0  0  0  # atno 17321 bound_to 7965
  140.4534  143.2477  151.9317 LP  0  0  0  0  0  0  0  0  0  0  0  0  # atno 17342 bound_to 10162
  139.4782  144.5540  151.8343 LP  0  0  0  0  0  0  0  0  0  0  0  0  # atno 17343 bound_to 10162
  156.3791  130.7570  151.2561 LP  0  0  0  0  0  0  0  0  0  0  0  0  # atno 17370 bound_to 10713
  157.7501  131.0301  150.4121 LP  0  0  0  0  0  0  0  0  0  0  0  0  # atno 17371 bound_to 10713
  141.2041  133.7894  157.0302 LP  0  0  0  0  0  0  0  0  0  0  0  0  # atno 17394 bound_to 11000
  140.0791  134.9659  157.1594 LP  0  0  0  0  0  0  0  0  0  0  0  0  # atno 17395 bound_to 11000

$$$$
