AV-unprocessed.smi:225|AV-procd|sdf|1724|dock8
  -GOLD-   2262020203D 1   1.00000     0.00000
 Structure written by MMmdl.
 56 59  0  0  0  0  0  0  0  0  1 V2000
  148.2787  142.2488  154.3346 O   0  0  0  0  0  0  0  0  0  0  0  0
  148.7590  140.9471  154.5898 C   0  0  0  0  0  0  0  0  0  0  0  0
  149.9466  141.0208  155.5642 C   0  0  0  0  0  0  0  0  0  0  0  0
  149.5363  140.9335  156.9687 N   0  0  0  0  0  0  0  0  0  0  0  0
  150.5951  140.8852  157.9781 C   0  0  0  0  0  0  0  0  0  0  0  0
  151.3452  142.2238  158.1437 C   0  0  0  0  0  0  0  0  0  0  0  0
  152.3758  142.1291  159.2865 C   0  0  0  0  0  0  0  0  0  0  0  0
  153.1436  143.4484  159.4713 C   0  0  0  0  0  0  0  0  0  0  0  0
  152.1826  144.6227  159.7102 C   0  0  0  0  0  0  0  0  0  0  0  0
  151.1474  144.7274  158.5801 C   0  0  0  0  0  0  0  0  0  0  0  0
  150.3849  143.4049  158.3994 C   0  0  0  0  0  0  0  0  0  0  0  0
  148.4823  140.1306  157.2684 C   0  0  0  0  0  0  0  0  0  0  0  0
  147.2335  140.4538  156.8376 N   0  0  0  0  0  0  0  0  0  0  0  0
  146.1962  139.6599  157.1186 C   0  0  0  0  0  0  0  0  0  0  0  0
  146.1839  138.5134  157.8008 N   0  0  0  0  0  0  0  0  0  0  0  0
  147.4344  138.1796  158.2304 C   0  0  0  0  0  0  0  0  0  0  0  0
  148.6264  138.9267  158.0133 C   0  0  0  0  0  0  0  0  0  0  0  0
  149.7026  138.2848  158.6125 N   0  0  0  0  0  0  0  0  0  0  0  0
  149.1788  137.2163  159.1477 C   0  0  0  0  0  0  0  0  0  0  0  0
  147.8234  137.0669  158.9567 N   0  0  0  0  0  0  0  0  0  0  0  0
  146.9884  135.9761  159.4376 C   0  0  0  0  0  0  0  0  0  0  0  0
  146.2948  136.2710  160.7903 C   0  0  2  0  0  0  0  0  0  0  0  0
  145.7609  137.5818  160.7562 O   0  0  0  0  0  0  0  0  0  0  0  0
  147.2555  136.1553  161.9763 C   0  0  0  0  0  0  0  0  0  0  0  0
  146.8005  134.8851  162.6851 C   0  0  0  0  0  0  0  0  0  0  0  0
  145.3979  134.9096  162.4934 O   0  0  0  0  0  0  0  0  0  0  0  0
  145.1696  135.2765  161.1408 C   0  0  0  0  0  0  0  0  0  0  0  0
  148.7052  142.8477  154.9282 H   0  0  0  0  0  0  0  0  0  0  0  0
  147.9526  140.3492  155.0154 H   0  0  0  0  0  0  0  0  0  0  0  0
  149.0419  140.4872  153.6430 H   0  0  0  0  0  0  0  0  0  0  0  0
  150.6684  140.2340  155.3408 H   0  0  0  0  0  0  0  0  0  0  0  0
  150.4751  141.9590  155.4000 H   0  0  0  0  0  0  0  0  0  0  0  0
  150.2044  140.5714  158.9473 H   0  0  0  0  0  0  0  0  0  0  0  0
  151.3017  140.1100  157.6791 H   0  0  0  0  0  0  0  0  0  0  0  0
  151.8994  142.4325  157.2286 H   0  0  0  0  0  0  0  0  0  0  0  0
  151.8707  141.8693  160.2178 H   0  0  0  0  0  0  0  0  0  0  0  0
  153.0826  141.3235  159.0848 H   0  0  0  0  0  0  0  0  0  0  0  0
  153.8380  143.3606  160.3075 H   0  0  0  0  0  0  0  0  0  0  0  0
  153.7492  143.6458  158.5858 H   0  0  0  0  0  0  0  0  0  0  0  0
  151.6704  144.4879  160.6638 H   0  0  0  0  0  0  0  0  0  0  0  0
  152.7445  145.5538  159.7891 H   0  0  0  0  0  0  0  0  0  0  0  0
  150.4458  145.5346  158.7924 H   0  0  0  0  0  0  0  0  0  0  0  0
  151.6487  144.9902  157.6478 H   0  0  0  0  0  0  0  0  0  0  0  0
  149.6814  143.5060  157.5724 H   0  0  0  0  0  0  0  0  0  0  0  0
  149.7886  143.2079  159.2909 H   0  0  0  0  0  0  0  0  0  0  0  0
  145.2398  139.9889  156.7400 H   0  0  0  0  0  0  0  0  0  0  0  0
  149.7737  136.5023  159.6985 H   0  0  0  0  0  0  0  0  0  0  0  0
  146.2402  135.7607  158.6737 H   0  0  0  0  0  0  0  0  0  0  0  0
  147.6071  135.0812  159.5176 H   0  0  0  0  0  0  0  0  0  0  0  0
  145.1927  137.6930  161.5031 H   0  0  0  0  0  0  0  0  0  0  0  0
  148.3053  136.1120  161.6843 H   0  0  0  0  0  0  0  0  0  0  0  0
  147.1414  137.0002  162.6575 H   0  0  0  0  0  0  0  0  0  0  0  0
  147.2232  133.9976  162.2113 H   0  0  0  0  0  0  0  0  0  0  0  0
  147.0648  134.8736  163.7426 H   0  0  0  0  0  0  0  0  0  0  0  0
  144.1667  135.6823  161.0010 H   0  0  0  0  0  0  0  0  0  0  0  0
  145.2440  134.3693  160.5407 H   0  0  0  0  0  0  0  0  0  0  0  0
  1  2  1  0  0  0  0
  1 28  1  0  0  0  0
  2  3  1  0  0  0  0
  2 29  1  0  0  0  0
  2 30  1  0  0  0  0
  3  4  1  0  0  0  0
  3 31  1  0  0  0  0
  3 32  1  0  0  0  0
  4  5  1  0  0  0  0
  4 12  1  0  0  0  0
  5  6  1  0  0  0  0
  5 33  1  0  0  0  0
  5 34  1  0  0  0  0
  6 11  1  0  0  0  0
  6  7  1  0  0  0  0
  6 35  1  0  0  0  0
  7  8  1  0  0  0  0
  7 36  1  0  0  0  0
  7 37  1  0  0  0  0
  8  9  1  0  0  0  0
  8 38  1  0  0  0  0
  8 39  1  0  0  0  0
  9 10  1  0  0  0  0
  9 40  1  0  0  0  0
  9 41  1  0  0  0  0
 10 11  1  0  0  0  0
 10 42  1  0  0  0  0
 10 43  1  0  0  0  0
 11 44  1  0  0  0  0
 11 45  1  0  0  0  0
 12 17  1  0  0  0  0
 12 13  2  0  0  0  0
 13 14  1  0  0  0  0
 14 15  2  0  0  0  0
 14 46  1  0  0  0  0
 15 16  1  0  0  0  0
 16 20  1  0  0  0  0
 16 17  2  0  0  0  0
 17 18  1  0  0  0  0
 18 19  2  0  0  0  0
 19 20  1  0  0  0  0
 19 47  1  0  0  0  0
 20 21  1  0  0  0  0
 21 22  1  0  0  0  0
 21 48  1  0  0  0  0
 21 49  1  0  0  0  0
 22 27  1  0  0  0  0
 22 23  1  0  0  0  0
 22 24  1  0  0  0  0
 23 50  1  0  0  0  0
 24 25  1  0  0  0  0
 24 51  1  0  0  0  0
 24 52  1  0  0  0  0
 25 26  1  0  0  0  0
 25 53  1  0  0  0  0
 25 54  1  0  0  0  0
 26 27  1  0  0  0  0
 27 55  1  0  0  0  0
 27 56  1  0  0  0  0
M  END
> <s_m_source_file>
AV-unprocessed.smi

> <i_m_source_file_index>
225

> <i_lp_mmshare_version>
43012

> <i_f3d_flags>
0

> <s_epik_input>
W0NIMl0xW0NIMl1bQ0gyXVtDSDJdW0NIMl1bQ0hdMVtDSDJdTihbQ0gyXVtDSDJdW09IXSljKG5bY0hdbjIpYyhjMjMpbltjSF1uM1tDSDJdW0NAQF00KFtPSF0pW0NIMl1bQ0gyXU9bQ0gyXTQ=

> <s_epik_cmdline>
J2VwaWtfcHl0aG9uJywgJy1waCcsICc3LjAnLCAnLXRuJywgJzgnLCAnLW1hJywgJzIwMCcsICctbWV0YWxfYmluZGluZycsICctaW1hZScsICc8aW5maWxlLm1hZT4nLCAnLW9tYWUnLCAnPG91dGZpbGUubWFlPic=

> <r_lp_tautomer_probability>
1

> <r_epik_Ionization_Penalty>
0.00405109

> <r_epik_Ionization_Penalty_Charging>
0

> <r_epik_Ionization_Penalty_Neutral>
0.00405109

> <r_epik_State_Penalty>
0.00270467

> <r_epik_Charging_Adjusted_Penalty>
0.00270467

> <i_epik_Tot_Q>
0

> <i_epik_Tot_abs_Q>
0

> <r_epik_Metal_State_Penalty>
-0

> <b_epik_Metal_Only>
0

> <s_lp_Force_Field>
OPLS_2005

> <r_lp_Energy>
36.6988

> <b_lp_Chiralities_Consistent>
1

> <s_lp_Variant>
AV-unprocessed.smi:225-2

> <Gold.Version>
5.8.1

> <Gold.Id.Protein>
6NUR|6NUR_protein|mol2

> <Gold.PLP.Fitness>
49.9258

> <Gold.PLP.PLP>
-46.0880

> <Gold.PLP.part.hbond>
-2.7025

> <Gold.PLP.part.metal>
0.0000

> <Gold.PLP.part.buried>
-8.2368

> <Gold.PLP.part.nonpolar>
-35.9556

> <Gold.PLP.part.repulsive>
0.0571

> <Gold.PLP.ligand.clash>
0.0000

> <Gold.PLP.ligand.torsion>
1.5442

> <Gold.PLP.Chemscore.Hbond>
1.9600

> <Gold.PLP.Chemscore.CHOScore>
0.0000

> <Gold.PLP.Chemscore.Metal>
0.0000

> <Gold.Chemscore.Hbonds>
donor molecule, donor type, donor heavy atom, donor atom, acceptor molecule, acceptor atom, score
      L1  H     1    28       P1  8028  0.94
      P1  H  6934  6947       L1    23  1.00

> <Gold.PLP.Chemscore.Internal.Correction>
1.0461

> <Gold.Rescore>
     Score         DG    S(hbond)    S(metal)    S(lipo)     H(rot)  DE(clash)    DE(int)     intcor
     11.09     -15.56       1.74        0.00     118.69       3.76       0.02       4.44       ----

> <Gold.Chemscore.Fitness>
11.0947

> <Gold.Chemscore.DG>
-15.5571

> <Gold.Chemscore.ZeroCoef>
-5.4800

> <Gold.Chemscore.Hbond>
1.7447

> <Gold.Chemscore.Metal>
0.0000

> <Gold.Chemscore.Lipo>
118.6897

> <Gold.Chemscore.Internal_Hbond>
0.0000

> <Gold.Chemscore.DEClash>
0.0238

> <Gold.Chemscore.DEInternal>
4.4386

> <Gold.Chemscore.Rot>
3.7644

> <Gold.Chemscore.Internal.Correction>
   9.000000E+99

> <Gold.Chemscore.Hbonds>
donor molecule, donor type, donor heavy atom, donor atom, acceptor molecule, acceptor atom, score
      L1  H     1    28       P1  8028  0.89
      P1  H  6934  6947       L1    23  0.41

> <Gold.Chemscore.Hbond.Weighted>
-5.8273

> <Gold.Chemscore.Metal.Weighted>
-0.0000

> <Gold.Chemscore.Lipo.Weighted>
-13.8867

> <Gold.Chemscore.Internal_Hbond.Weighted>
0.0000

> <Gold.Chemscore.DEClash.Weighted>
0.0238

> <Gold.Chemscore.DEInternal.Weighted>
4.4386

> <Gold.Chemscore.Rot.Weighted>
9.6369

> <Gold.Chemscore.Internal.Correction.Weighted>
   9.000000E+99

> <Gold.Protein.RotatedTorsions>
[ 6907 6896 6895 6894 ] final   70.91 input  -60.11 | X-H torsion
[ 7974 7965 7964 7962 ] final  -93.86 input  175.53 | X-H torsion
[ 8008 7997 7996 7995 ] final -132.69 input   59.86 | X-H torsion
[ 10167 10162 10161 10158 ] final   46.27 input  -65.29 | X-H torsion
[ 10718 10713 10712 10709 ] final  -85.29 input   66.30 | X-H torsion
[ 10763 10752 10751 10750 ] final  168.67 input  -60.55 | X-H torsion
[ 11005 11000 10999 10996 ] final  171.74 input  -57.11 | X-H torsion

> <Gold.Protein.ActiveResidues>
 VAL166  LYS551  ARG553  GLY616  TRP617  ASP618  TYR619  PRO620  LYS621  CYS622 
 ASP623  PHE694  ASN695  SER759  ASP760  ASP761  ALA762  ILE779  LEU786  VAL792 
 PHE793  MET794  SER795  GLU796  ALA797  LYS798  CYS799  TRP800  GLU811  SER814 

> <Gold.Protein.RotatedAtoms>
  152.4778  134.4799  159.9661 H   0  0  0  0  0  0  0  0  0  0  0  0  # atno 6907 bound_to 6896
  151.4811  133.3540  159.2846 H   0  0  0  0  0  0  0  0  0  0  0  0  # atno 6908 bound_to 6896
  150.8829  134.8249  159.7299 H   0  0  0  0  0  0  0  0  0  0  0  0  # atno 6909 bound_to 6896
  145.3809  140.9517  143.2394 H   0  0  0  0  0  0  0  0  0  0  0  0  # atno 7974 bound_to 7965
  155.3331  140.0468  157.3043 H   0  0  0  0  0  0  0  0  0  0  0  0  # atno 8008 bound_to 7997
  154.5317  140.2259  155.8758 H   0  0  0  0  0  0  0  0  0  0  0  0  # atno 8009 bound_to 7997
  156.1795  140.3077  155.9128 H   0  0  0  0  0  0  0  0  0  0  0  0  # atno 8010 bound_to 7997
  140.3156  144.2767  150.6191 H   0  0  0  0  0  0  0  0  0  0  0  0  # atno 10167 bound_to 10162
  155.9998  130.4726  150.4539 H   0  0  0  0  0  0  0  0  0  0  0  0  # atno 10718 bound_to 10713
  154.3719  135.2753  155.2261 H   0  0  0  0  0  0  0  0  0  0  0  0  # atno 10763 bound_to 10752
  154.4405  135.5955  153.6130 H   0  0  0  0  0  0  0  0  0  0  0  0  # atno 10764 bound_to 10752
  152.9838  135.6017  154.3951 H   0  0  0  0  0  0  0  0  0  0  0  0  # atno 10765 bound_to 10752
  140.3223  134.7427  157.4073 H   0  0  0  0  0  0  0  0  0  0  0  0  # atno 11005 bound_to 11000
  144.8508  139.5324  143.6857 LP  0  0  0  0  0  0  0  0  0  0  0  0  # atno 17320 bound_to 7965
  146.2842  139.6960  142.9207 LP  0  0  0  0  0  0  0  0  0  0  0  0  # atno 17321 bound_to 7965
  140.5529  143.2203  151.7896 LP  0  0  0  0  0  0  0  0  0  0  0  0  # atno 17342 bound_to 10162
  139.4884  144.4452  151.9718 LP  0  0  0  0  0  0  0  0  0  0  0  0  # atno 17343 bound_to 10162
  157.2570  131.0558  151.2344 LP  0  0  0  0  0  0  0  0  0  0  0  0  # atno 17370 bound_to 10713
  157.3472  130.7064  149.6418 LP  0  0  0  0  0  0  0  0  0  0  0  0  # atno 17371 bound_to 10713
  140.0932  134.5573  155.8424 LP  0  0  0  0  0  0  0  0  0  0  0  0  # atno 17394 bound_to 11000
  141.2084  133.6673  156.6366 LP  0  0  0  0  0  0  0  0  0  0  0  0  # atno 17395 bound_to 11000

$$$$
