#       Name:                AV-unprocessed.smi:1892
#       Creating user name   scv26
#       Creation time:       Fri Mar 27 09:40:44 2020


#       File generated by GOLD software.
#

@<TRIPOS>MOLECULE
AV-unprocessed.smi:1892
    48    49     1
SMALL
NO_CHARGES


@<TRIPOS>ATOM
      1 ****        -2.5894   1.9243   5.7100 C.3            1 S1                 0.0000
      2 ****        -3.1205   2.1820   4.2982 C.2            1 S1                 0.0000
      3 ****        -4.3389   2.1605   4.1256 O.2            1 S1                 0.0000
      4 ****        -2.2442   2.4200   3.2931 N.am           1 S1                 0.0000
      5 ****        -2.6623   2.6113   1.9019 C.3            1 S1                 0.0000
      6 ****        -2.1627   1.4236   1.0592 C.3            1 S1                 0.0000
      7 ****        -0.6912   1.2402   1.1860 N.4            1 S1                 1.0000
      8 ****        -0.2028   0.0987   0.3720 C.3            1 S1                 0.0000
      9 ****         1.3094   0.1757   0.0844 C.3            1 S1                 0.0000
     10 ****         1.7483  -0.9228  -0.7688 N.am           1 S1                 0.0000
     11 ****         1.5986  -0.9636  -2.1008 C.2            1 S1                 0.0000
     12 ****         1.0578  -0.0647  -2.7457 O.2            1 S1                 0.0000
     13 ****         2.1043  -2.0981  -2.6162 N.am           1 S1                 0.0000
     14 ****         2.1429  -2.5019  -3.9775 C.ar           1 S1                 0.0000
     15 ****         2.7277  -3.7672  -4.2102 C.ar           1 S1                 0.0000
     16 ****         2.8160  -4.2578  -5.5274 C.ar           1 S1                 0.0000
     17 ****         2.3168  -3.4693  -6.5793 C.ar           1 S1                 0.0000
     18 ****         1.7500  -2.2215  -6.2612 C.ar           1 S1                 0.0000
     19 ****         1.6639  -1.7494  -4.9996 N.ar           1 S1                 0.0000
     20 ****        -0.2380   1.1961   2.6046 C.3            1 S1                 0.0000
     21 ****        -0.7835   2.3896   3.4103 C.3            1 S1                 0.0000
     22 ****        -1.9366   1.0512   5.7255 H              1 S1                 0.0000
     23 ****        -3.4119   1.7357   6.4010 H              1 S1                 0.0000
     24 ****        -2.0370   2.7886   6.0796 H              1 S1                 0.0000
     25 ****        -3.7431   2.7104   1.7929 H              1 S1                 0.0000
     26 ****        -2.2395   3.5440   1.5255 H              1 S1                 0.0000
     27 ****        -2.6681   0.5093   1.3748 H              1 S1                 0.0000
     28 ****        -2.4238   1.5856   0.0127 H              1 S1                 0.0000
     29 ****        -0.4547  -0.8412   0.8655 H              1 S1                 0.0000
     30 ****        -0.7355   0.0986  -0.5802 H              1 S1                 0.0000
     31 ****         1.5640   1.1312  -0.3777 H              1 S1                 0.0000
     32 ****         1.8848   0.1132   1.0072 H              1 S1                 0.0000
     33 ****         2.2048  -1.7012  -0.3155 H              1 S1                 0.0000
     34 ****         2.5114  -2.7481  -1.9604 H              1 S1                 0.0000
     35 ****         3.1068  -4.3601  -3.3905 H              1 S1                 0.0000
     36 ****         3.2599  -5.2221  -5.7261 H              1 S1                 0.0000
     37 ****         2.3672  -3.8107  -7.6025 H              1 S1                 0.0000
     38 ****         1.3561  -1.5850  -7.0395 H              1 S1                 0.0000
     39 ****        -0.5686   0.2619   3.0616 H              1 S1                 0.0000
     40 ****         0.8500   1.2062   2.6549 H              1 S1                 0.0000
     41 ****        -0.3781   3.3216   3.0139 H              1 S1                 0.0000
     42 ****        -0.4271   2.3327   4.4378 H              1 S1                 0.0000
     43 ****        -0.2813   2.0708   0.7829 H              1 S1                 0.0000
     44 ****        -4.9499   1.9785   4.8960 LP             1 S1                 0.0000
     45 ****        -4.7179   2.3251   3.2149 LP             1 S1                 0.0000
     46 ****         0.7051   0.7449  -2.2764 LP             1 S1                 0.0000
     47 ****         0.9712  -0.1442  -3.7388 LP             1 S1                 0.0000
     48 ****         1.2520  -0.8559  -4.8206 LP             1 S1                 0.0000
@<TRIPOS>BOND
    1    1    2 1     
    2    1   22 1     
    3    1   23 1     
    4    1   24 1     
    5    2    3 2     
    6    2    4 am    
    7    4   21 1     
    8    4    5 1     
    9    5    6 1     
   10    5   25 1     
   11    5   26 1     
   12    6    7 1     
   13    6   27 1     
   14    6   28 1     
   15    7    8 1     
   16    7   20 1     
   17    7   43 1     
   18    8    9 1     
   19    8   29 1     
   20    8   30 1     
   21    9   10 1     
   22    9   31 1     
   23    9   32 1     
   24   10   11 am    
   25   10   33 1     
   26   11   12 2     
   27   11   13 am    
   28   13   14 1     
   29   13   34 1     
   30   14   19 ar    
   31   14   15 ar    
   32   15   16 ar    
   33   15   35 1     
   34   16   17 ar    
   35   16   36 1     
   36   17   18 ar    
   37   17   37 1     
   38   18   19 ar    
   39   18   38 1     
   40   20   21 1     
   41   20   39 1     
   42   20   40 1     
   43   21   41 1     
   44   21   42 1     
   45    3   44 1     
   46    3   45 1     
   47   12   46 1     
   48   12   47 1     
   49   19   48 1     
@<TRIPOS>SUBSTRUCTURE
      1 S1             1
@<TRIPOS>SET
LONE_PAIRS      STATIC     ATOMS    <user>   **** ""
5 44 45 46 47 48
DONOR_HYDROGENS      STATIC     ATOMS    <user>   **** ""
3 43 33 34
ATOM$BLUE        STATIC     ATOMS    COLORGROUP SYSTEM
5 44 45 46 47 48
ATOM$RED        STATIC     ATOMS    COLORGROUP SYSTEM
3 43 33 34
