AV-unprocessed.smi:1444|AV-procd|sdf|5883|dock6
  -GOLD-   22720 5563D 1   1.00000     0.00000
 Structure written by MMmdl.
 44 45  0  0  0  0  0  0  0  0  2 V2000
  151.8538  138.2688  154.5898 C   0  0  0  0  0  0  0  0  0  0  0  0
  150.4770  138.2131  154.2323 O   0  0  0  0  0  0  0  0  0  0  0  0
  149.7143  139.3586  154.3593 C   0  0  0  0  0  0  0  0  0  0  0  0
  150.2887  140.4560  154.9122 N   0  0  0  0  0  0  0  0  0  0  0  0
  149.5477  141.5755  155.0370 C   0  0  0  0  0  0  0  0  0  0  0  0
  148.2078  141.6611  154.6180 C   0  0  0  0  0  0  0  0  0  0  0  0
  147.6089  140.5245  154.0443 C   0  0  0  0  0  0  0  0  0  0  0  0
  148.3728  139.3385  153.9085 C   0  0  0  0  0  0  0  0  0  0  0  0
  147.8869  138.1228  153.3474 N   0  0  0  0  0  0  0  0  0  0  0  0
  146.6604  137.5764  153.3997 C   0  0  0  0  0  0  0  0  0  0  0  0
  145.6783  138.0612  153.9596 O   0  0  0  0  0  0  0  0  0  0  0  0
  146.6291  136.4103  152.7379 N   0  0  0  0  0  0  0  0  0  0  0  0
  145.4753  135.5187  152.6119 C   0  0  2  0  0  0  0  0  0  0  0  0
  145.9001  134.2628  151.8389 C   0  0  0  0  0  0  0  0  0  0  0  0
  144.2880  136.2265  151.9194 C   0  0  0  0  0  0  0  0  0  0  0  0
  142.9715  135.8596  152.5001 N   0  3  0  0  0  0  0  0  0  0  0  0
  142.8247  134.4038  152.7317 C   0  0  0  0  0  0  0  0  0  0  0  0
  141.4147  134.0891  153.2606 C   0  0  0  0  0  0  0  0  0  0  0  0
  141.1739  134.8300  154.4506 O   0  0  0  0  0  0  0  0  0  0  0  0
  141.2334  136.2336  154.2262 C   0  0  0  0  0  0  0  0  0  0  0  0
  142.6378  136.6163  153.7314 C   0  0  0  0  0  0  0  0  0  0  0  0
  152.3056  137.2893  154.4334 H   0  0  0  0  0  0  0  0  0  0  0  0
  151.9830  138.5282  155.6417 H   0  0  0  0  0  0  0  0  0  0  0  0
  152.3983  138.9856  153.9735 H   0  0  0  0  0  0  0  0  0  0  0  0
  150.0376  142.4281  155.4833 H   0  0  0  0  0  0  0  0  0  0  0  0
  147.6512  142.5791  154.7350 H   0  0  0  0  0  0  0  0  0  0  0  0
  146.5824  140.5977  153.7251 H   0  0  0  0  0  0  0  0  0  0  0  0
  148.5815  137.5872  152.8469 H   0  0  0  0  0  0  0  0  0  0  0  0
  147.4864  136.0958  152.3071 H   0  0  0  0  0  0  0  0  0  0  0  0
  145.1698  135.1868  153.6052 H   0  0  0  0  0  0  0  0  0  0  0  0
  145.0745  133.5553  151.7568 H   0  0  0  0  0  0  0  0  0  0  0  0
  146.7216  133.7507  152.3412 H   0  0  0  0  0  0  0  0  0  0  0  0
  146.2289  134.5083  150.8283 H   0  0  0  0  0  0  0  0  0  0  0  0
  144.4341  137.3036  152.0160 H   0  0  0  0  0  0  0  0  0  0  0  0
  144.2839  136.0175  150.8485 H   0  0  0  0  0  0  0  0  0  0  0  0
  142.9959  133.8597  151.8021 H   0  0  0  0  0  0  0  0  0  0  0  0
  143.5780  134.0674  153.4460 H   0  0  0  0  0  0  0  0  0  0  0  0
  140.6563  134.3241  152.5117 H   0  0  0  0  0  0  0  0  0  0  0  0
  141.3250  133.0253  153.4820 H   0  0  0  0  0  0  0  0  0  0  0  0
  140.4714  136.5331  153.5048 H   0  0  0  0  0  0  0  0  0  0  0  0
  141.0102  136.7510  155.1595 H   0  0  0  0  0  0  0  0  0  0  0  0
  143.3765  136.4040  154.5059 H   0  0  0  0  0  0  0  0  0  0  0  0
  142.6742  137.6885  153.5415 H   0  0  0  0  0  0  0  0  0  0  0  0
  142.2775  136.1060  151.8084 H   0  0  0  0  0  0  0  0  0  0  0  0
  1  2  1  0  0  0  0
  1 22  1  0  0  0  0
  1 23  1  0  0  0  0
  1 24  1  0  0  0  0
  2  3  1  0  0  0  0
  3  8  1  0  0  0  0
  3  4  2  0  0  0  0
  4  5  1  0  0  0  0
  5  6  2  0  0  0  0
  5 25  1  0  0  0  0
  6  7  1  0  0  0  0
  6 26  1  0  0  0  0
  7  8  2  0  0  0  0
  7 27  1  0  0  0  0
  8  9  1  0  0  0  0
  9 10  1  0  0  0  0
  9 28  1  0  0  0  0
 10 11  2  0  0  0  0
 10 12  1  0  0  0  0
 12 13  1  0  0  0  0
 12 29  1  0  0  0  0
 13 14  1  0  0  0  0
 13 15  1  0  0  0  0
 13 30  1  0  0  0  0
 14 31  1  0  0  0  0
 14 32  1  0  0  0  0
 14 33  1  0  0  0  0
 15 16  1  0  0  0  0
 15 34  1  0  0  0  0
 15 35  1  0  0  0  0
 16 21  1  0  0  0  0
 16 17  1  0  0  0  0
 16 44  1  0  0  0  0
 17 18  1  0  0  0  0
 17 36  1  0  0  0  0
 17 37  1  0  0  0  0
 18 19  1  0  0  0  0
 18 38  1  0  0  0  0
 18 39  1  0  0  0  0
 19 20  1  0  0  0  0
 20 21  1  0  0  0  0
 20 40  1  0  0  0  0
 20 41  1  0  0  0  0
 21 42  1  0  0  0  0
 21 43  1  0  0  0  0
M  CHG  1  16   1
M  END
> <s_m_source_file>
AV-unprocessed.smi

> <i_m_source_file_index>
1444

> <i_lp_mmshare_version>
43012

> <i_f3d_flags>
0

> <s_epik_input>
W0NIM11PYzFuW2NIXVtjSF1bY0hdYzFbTkhdQyg9TylbTkhdW0NASF0oW0NIM10pW0NIMl1OMltDSDJdW0NIMl1PW0NIMl1bQ0gyXTI=

> <s_epik_cmdline>
J2VwaWtfcHl0aG9uJywgJy1waCcsICc3LjAnLCAnLXRuJywgJzgnLCAnLW1hJywgJzIwMCcsICctbWV0YWxfYmluZGluZycsICctaW1hZScsICc8aW5maWxlLm1hZT4nLCAnLW9tYWUnLCAnPG91dGZpbGUubWFlPic=

> <r_lp_tautomer_probability>
1

> <r_epik_Ionization_Penalty>
0.602604

> <r_epik_Ionization_Penalty_Charging>
0.602531

> <r_epik_Ionization_Penalty_Neutral>
7.37688e-05

> <r_epik_State_Penalty>
0.617039

> <r_epik_Charging_Adjusted_Penalty>
1.21957

> <i_epik_Tot_Q>
1

> <i_epik_Tot_abs_Q>
1

> <r_epik_Metal_State_Penalty>
0.617045

> <b_epik_Metal_Only>
0

> <s_lp_Force_Field>
OPLS_2005

> <r_lp_Energy>
24.7121

> <b_lp_Chiralities_Consistent>
1

> <s_lp_Variant>
AV-unprocessed.smi:1444-3

> <Gold.Version>
5.8.1

> <Gold.Id.Protein>
6NUR|6NUR_protein|mol2

> <Gold.PLP.Fitness>
45.9814

> <Gold.PLP.PLP>
-33.3505

> <Gold.PLP.part.hbond>
-3.9922

> <Gold.PLP.part.metal>
0.0000

> <Gold.PLP.part.buried>
-1.4932

> <Gold.PLP.part.nonpolar>
-29.0950

> <Gold.PLP.part.repulsive>
0.6890

> <Gold.PLP.ligand.clash>
0.0000

> <Gold.PLP.ligand.torsion>
0.9406

> <Gold.PLP.Chemscore.Hbond>
3.9593

> <Gold.PLP.Chemscore.CHOScore>
0.8648

> <Gold.PLP.Chemscore.Metal>
0.0000

> <Gold.Chemscore.Hbonds>
donor molecule, donor type, donor heavy atom, donor atom, acceptor molecule, acceptor atom, score
      L1  H     9    28       P1  7948  0.99
      L1  H    12    29       P1  7948  0.99
      P1  H  7989  7998       L1     4  0.99
      P1  H 11000 11005       L1    19  0.94
      L1  C     5    25       P1  8028  0.76

> <Gold.PLP.Chemscore.Internal.Correction>
0.0398

> <Gold.Rescore>
     Score         DG    S(hbond)    S(metal)    S(lipo)     H(rot)  DE(clash)    DE(int)     intcor
     18.37     -19.40       3.06        0.00      70.69       1.78       0.21       0.83       ----

> <Gold.Chemscore.Fitness>
18.3668

> <Gold.Chemscore.DG>
-19.4046

> <Gold.Chemscore.ZeroCoef>
-5.4800

> <Gold.Chemscore.Hbond>
3.0573

> <Gold.Chemscore.Metal>
0.0000

> <Gold.Chemscore.Lipo>
70.6866

> <Gold.Chemscore.Internal_Hbond>
0.0000

> <Gold.Chemscore.DEClash>
0.2067

> <Gold.Chemscore.DEInternal>
0.8311

> <Gold.Chemscore.Rot>
1.7801

> <Gold.Chemscore.Internal.Correction>
   9.000000E+99

> <Gold.Chemscore.Hbonds>
donor molecule, donor type, donor heavy atom, donor atom, acceptor molecule, acceptor atom, score
      L1  H     9    28       P1  7948  0.94
      L1  H    12    29       P1  7948  0.91
      P1  H  7989  7998       L1     4  0.12
      P1  H 11000 11005       L1    19  0.86

> <Gold.Chemscore.Hbond.Weighted>
-10.2113

> <Gold.Chemscore.Metal.Weighted>
-0.0000

> <Gold.Chemscore.Lipo.Weighted>
-8.2703

> <Gold.Chemscore.Internal_Hbond.Weighted>
0.0000

> <Gold.Chemscore.DEClash.Weighted>
0.2067

> <Gold.Chemscore.DEInternal.Weighted>
0.8311

> <Gold.Chemscore.Rot.Weighted>
4.5570

> <Gold.Chemscore.Internal.Correction.Weighted>
   9.000000E+99

> <Gold.Protein.RotatedTorsions>
[ 6907 6896 6895 6894 ] final   34.66 input  -60.11 | X-H torsion
[ 7974 7965 7964 7962 ] final  -48.45 input  175.53 | X-H torsion
[ 8008 7997 7996 7995 ] final  149.38 input   59.86 | X-H torsion
[ 10167 10162 10161 10158 ] final    7.55 input  -65.29 | X-H torsion
[ 10718 10713 10712 10709 ] final  174.46 input   66.30 | X-H torsion
[ 10763 10752 10751 10750 ] final -122.82 input  -60.55 | X-H torsion
[ 11005 11000 10999 10996 ] final   27.41 input  -57.11 | X-H torsion

> <Gold.Protein.ActiveResidues>
 VAL166  LYS551  ARG553  GLY616  TRP617  ASP618  TYR619  PRO620  LYS621  CYS622 
 ASP623  PHE694  ASN695  SER759  ASP760  ASP761  ALA762  ILE779  LEU786  VAL792 
 PHE793  MET794  SER795  GLU796  ALA797  LYS798  CYS799  TRP800  GLU811  SER814 

> <Gold.Protein.RotatedAtoms>
  152.1054  134.9312  160.0568 H   0  0  0  0  0  0  0  0  0  0  0  0  # atno 6907 bound_to 6896
  152.0510  133.4014  159.4385 H   0  0  0  0  0  0  0  0  0  0  0  0  # atno 6908 bound_to 6896
  150.6841  134.3228  159.4837 H   0  0  0  0  0  0  0  0  0  0  0  0  # atno 6909 bound_to 6896
  145.9510  140.7572  142.9504 H   0  0  0  0  0  0  0  0  0  0  0  0  # atno 7974 bound_to 7965
  156.2757  140.2103  156.5849 H   0  0  0  0  0  0  0  0  0  0  0  0  # atno 8008 bound_to 7997
  154.7029  140.0519  157.0499 H   0  0  0  0  0  0  0  0  0  0  0  0  # atno 8009 bound_to 7997
  155.0710  140.3176  155.4633 H   0  0  0  0  0  0  0  0  0  0  0  0  # atno 8010 bound_to 7997
  140.6365  143.7873  150.7367 H   0  0  0  0  0  0  0  0  0  0  0  0  # atno 10167 bound_to 10162
  156.9493  131.0026  151.2952 H   0  0  0  0  0  0  0  0  0  0  0  0  # atno 10718 bound_to 10713
  154.8697  135.4119  154.2843 H   0  0  0  0  0  0  0  0  0  0  0  0  # atno 10763 bound_to 10752
  153.3730  135.7008  153.6628 H   0  0  0  0  0  0  0  0  0  0  0  0  # atno 10764 bound_to 10752
  153.5482  135.3634  155.2720 H   0  0  0  0  0  0  0  0  0  0  0  0  # atno 10765 bound_to 10752
  140.3266  134.2484  155.7708 H   0  0  0  0  0  0  0  0  0  0  0  0  # atno 11005 bound_to 11000
  144.6796  140.2435  143.7340 LP  0  0  0  0  0  0  0  0  0  0  0  0  # atno 17320 bound_to 7965
  145.8171  139.2027  143.1960 LP  0  0  0  0  0  0  0  0  0  0  0  0  # atno 17321 bound_to 7965
  140.1495  143.4370  152.2140 LP  0  0  0  0  0  0  0  0  0  0  0  0  # atno 17342 bound_to 10162
  139.5576  144.7383  151.4249 LP  0  0  0  0  0  0  0  0  0  0  0  0  # atno 17343 bound_to 10162
  157.5733  130.8325  149.8421 LP  0  0  0  0  0  0  0  0  0  0  0  0  # atno 17370 bound_to 10713
  156.0370  130.3749  150.1535 LP  0  0  0  0  0  0  0  0  0  0  0  0  # atno 17371 bound_to 10713
  141.2074  133.7808  157.0123 LP  0  0  0  0  0  0  0  0  0  0  0  0  # atno 17394 bound_to 11000
  140.0896  134.9600  157.1755 LP  0  0  0  0  0  0  0  0  0  0  0  0  # atno 17395 bound_to 11000

$$$$
