AV-unprocessed.smi:2446|AV-procd|sdf|9645|dock5
  -GOLD-   2272013283D 1   1.00000     0.00000
 Structure written by MMmdl.
 40 41  0  0  0  0  0  0  0  0  2 V2000
  151.2023  144.3446  157.2493 C   0  0  0  0  0  0  0  0  0  0  0  0
  151.6776  144.0346  158.6586 C   0  0  0  0  0  0  0  0  0  0  0  0
  152.9428  143.4377  158.8492 C   0  0  0  0  0  0  0  0  0  0  0  0
  153.3807  143.1600  160.0951 N   0  3  0  0  0  0  0  0  0  0  0  0
  152.6577  143.4348  161.2005 C   0  0  0  0  0  0  0  0  0  0  0  0
  151.3866  144.0304  161.0792 C   0  0  0  0  0  0  0  0  0  0  0  0
  150.8734  144.3268  159.7902 C   0  0  0  0  0  0  0  0  0  0  0  0
  149.6072  144.9415  159.5795 N   0  0  0  0  0  0  0  0  0  0  0  0
  148.4942  144.8761  160.3362 C   0  0  0  0  0  0  0  0  0  0  0  0
  148.4072  144.2729  161.4033 O   0  0  0  0  0  0  0  0  0  0  0  0
  147.4380  145.5314  159.8207 N   0  0  0  0  0  0  0  0  0  0  0  0
  146.0846  145.6672  160.3707 C   0  0  2  0  0  0  0  0  0  0  0  0
  145.6709  144.3663  161.0848 C   0  0  0  0  0  0  0  0  0  0  0  0
  145.4135  143.2168  160.0958 C   0  0  0  0  0  0  0  0  0  0  0  0
  144.3817  143.6151  159.0291 C   0  0  0  0  0  0  0  0  0  0  0  0
  144.8065  144.8917  158.2740 C   0  0  1  0  0  0  0  0  0  0  0  0
  143.7864  145.2891  157.1873 C   0  0  0  0  0  0  0  0  0  0  0  0
  143.6148  144.2979  156.3120 F   0  0  0  0  0  0  0  0  0  0  0  0
  142.6119  145.5764  157.7489 F   0  0  0  0  0  0  0  0  0  0  0  0
  144.2111  146.3715  156.5356 F   0  0  0  0  0  0  0  0  0  0  0  0
  145.0588  146.0407  159.2765 C   0  0  0  0  0  0  0  0  0  0  0  0
  151.9637  144.0933  156.5104 H   0  0  0  0  0  0  0  0  0  0  0  0
  150.9721  145.4057  157.1474 H   0  0  0  0  0  0  0  0  0  0  0  0
  150.3046  143.7716  157.0161 H   0  0  0  0  0  0  0  0  0  0  0  0
  153.6170  143.1759  158.0465 H   0  0  0  0  0  0  0  0  0  0  0  0
  153.1165  143.1770  162.1440 H   0  0  0  0  0  0  0  0  0  0  0  0
  150.8376  144.2590  161.9795 H   0  0  0  0  0  0  0  0  0  0  0  0
  149.5047  145.4217  158.6974 H   0  0  0  0  0  0  0  0  0  0  0  0
  147.5970  146.0084  158.9446 H   0  0  0  0  0  0  0  0  0  0  0  0
  146.0958  146.4564  161.1243 H   0  0  0  0  0  0  0  0  0  0  0  0
  146.4319  144.0732  161.8093 H   0  0  0  0  0  0  0  0  0  0  0  0
  144.7619  144.5485  161.6597 H   0  0  0  0  0  0  0  0  0  0  0  0
  146.3472  142.9284  159.6115 H   0  0  0  0  0  0  0  0  0  0  0  0
  145.0651  142.3365  160.6367 H   0  0  0  0  0  0  0  0  0  0  0  0
  144.2526  142.7901  158.3280 H   0  0  0  0  0  0  0  0  0  0  0  0
  143.4114  143.7703  159.5028 H   0  0  0  0  0  0  0  0  0  0  0  0
  145.7479  144.6771  157.7658 H   0  0  0  0  0  0  0  0  0  0  0  0
  144.1169  146.3087  159.7565 H   0  0  0  0  0  0  0  0  0  0  0  0
  145.3848  146.9347  158.7451 H   0  0  0  0  0  0  0  0  0  0  0  0
  154.2991  142.7295  160.2062 H   0  0  0  0  0  0  0  0  0  0  0  0
  1  2  1  0  0  0  0
  1 22  1  0  0  0  0
  1 23  1  0  0  0  0
  1 24  1  0  0  0  0
  2  7  1  0  0  0  0
  2  3  2  0  0  0  0
  3  4  1  0  0  0  0
  3 25  1  0  0  0  0
  4  5  2  0  0  0  0
  4 40  1  0  0  0  0
  5  6  1  0  0  0  0
  5 26  1  0  0  0  0
  6  7  2  0  0  0  0
  6 27  1  0  0  0  0
  7  8  1  0  0  0  0
  8  9  1  0  0  0  0
  8 28  1  0  0  0  0
  9 10  2  0  0  0  0
  9 11  1  0  0  0  0
 11 12  1  0  0  0  0
 11 29  1  0  0  0  0
 12 21  1  0  0  0  0
 12 13  1  0  0  0  0
 12 30  1  0  0  0  0
 13 14  1  0  0  0  0
 13 31  1  0  0  0  0
 13 32  1  0  0  0  0
 14 15  1  0  0  0  0
 14 33  1  0  0  0  0
 14 34  1  0  0  0  0
 15 16  1  0  0  0  0
 15 35  1  0  0  0  0
 15 36  1  0  0  0  0
 16 17  1  0  0  0  0
 16 21  1  0  0  0  0
 16 37  1  0  0  0  0
 17 18  1  0  0  0  0
 17 19  1  0  0  0  0
 17 20  1  0  0  0  0
 21 38  1  0  0  0  0
 21 39  1  0  0  0  0
M  CHG  1   4   1
M  END
> <s_m_source_file>
AV-unprocessed.smi

> <i_m_source_file_index>
2446

> <i_lp_mmshare_version>
43012

> <i_f3d_flags>
0

> <s_epik_input>
W0NIM11jMVtjSF1uW2NIXVtjSF1jMVtOSF1DKD1PKVtOSF1bQ0BASF0yW0NIMl1bQ0gyXVtDSDJdW0NAQEhdKEMoRikoRilGKVtDSDJdMg==

> <s_epik_cmdline>
J2VwaWtfcHl0aG9uJywgJy1waCcsICc3LjAnLCAnLXRuJywgJzgnLCAnLW1hJywgJzIwMCcsICctbWV0YWxfYmluZGluZycsICctaW1hZScsICc8aW5maWxlLm1hZT4nLCAnLW9tYWUnLCAnPG91dGZpbGUubWFlPic=

> <r_epik_Ionization_Penalty>
0.736582

> <r_epik_Ionization_Penalty_Charging>
0.736562

> <r_epik_Ionization_Penalty_Neutral>
1.98379e-05

> <r_epik_State_Penalty>
0.762314

> <r_epik_Charging_Adjusted_Penalty>
1.49888

> <i_epik_Tot_Q>
1

> <i_epik_Tot_abs_Q>
1

> <r_epik_Metal_State_Penalty>
0.914579

> <b_epik_Metal_Only>
0

> <s_lp_Force_Field>
OPLS_2005

> <r_lp_Energy>
31.0639

> <b_lp_Chiralities_Consistent>
1

> <s_lp_Variant>
AV-unprocessed.smi:2446-5

> <Gold.Version>
5.8.1

> <Gold.Id.Protein>
6NUR|6NUR_protein|mol2

> <Gold.PLP.Fitness>
42.5480

> <Gold.PLP.PLP>
-36.4794

> <Gold.PLP.part.hbond>
-2.9846

> <Gold.PLP.part.metal>
0.0000

> <Gold.PLP.part.buried>
-4.1716

> <Gold.PLP.part.nonpolar>
-30.4928

> <Gold.PLP.part.repulsive>
0.5590

> <Gold.PLP.ligand.clash>
0.0000

> <Gold.PLP.ligand.torsion>
0.4893

> <Gold.PLP.Chemscore.Hbond>
2.3419

> <Gold.PLP.Chemscore.CHOScore>
0.0000

> <Gold.PLP.Chemscore.Metal>
0.0000

> <Gold.Chemscore.Hbonds>
donor molecule, donor type, donor heavy atom, donor atom, acceptor molecule, acceptor atom, score
      L1  H     8    28       P1  8029  0.45
      L1  H    11    29       P1  8029  1.00
      P1  H  6933  6944       L1    10  0.88

> <Gold.PLP.Chemscore.Internal.Correction>
0.0215

> <Gold.Rescore>
     Score         DG    S(hbond)    S(metal)    S(lipo)     H(rot)  DE(clash)    DE(int)     intcor
     18.30     -22.64       2.84        0.00      87.60       1.00       1.45       2.89       ----

> <Gold.Chemscore.Fitness>
18.3013

> <Gold.Chemscore.DG>
-22.6398

> <Gold.Chemscore.ZeroCoef>
-5.4800

> <Gold.Chemscore.Hbond>
2.8356

> <Gold.Chemscore.Metal>
0.0000

> <Gold.Chemscore.Lipo>
87.5976

> <Gold.Chemscore.Internal_Hbond>
0.0000

> <Gold.Chemscore.DEClash>
1.4465

> <Gold.Chemscore.DEInternal>
2.8919

> <Gold.Chemscore.Rot>
1.0000

> <Gold.Chemscore.Internal.Correction>
   9.000000E+99

> <Gold.Chemscore.Hbonds>
donor molecule, donor type, donor heavy atom, donor atom, acceptor molecule, acceptor atom, score
      L1  H     8    28       P1  8029  0.43
      L1  H    11    29       P1  8029  0.95
      P1  H  6933  6944       L1    10  0.85

> <Gold.Chemscore.Hbond.Weighted>
-9.4708

> <Gold.Chemscore.Metal.Weighted>
-0.0000

> <Gold.Chemscore.Lipo.Weighted>
-10.2489

> <Gold.Chemscore.Internal_Hbond.Weighted>
0.0000

> <Gold.Chemscore.DEClash.Weighted>
1.4465

> <Gold.Chemscore.DEInternal.Weighted>
2.8919

> <Gold.Chemscore.Rot.Weighted>
2.5600

> <Gold.Chemscore.Internal.Correction.Weighted>
   9.000000E+99

> <Gold.Protein.RotatedTorsions>
[ 6907 6896 6895 6894 ] final  129.51 input  -60.11 | X-H torsion
[ 7974 7965 7964 7962 ] final   27.10 input  175.53 | X-H torsion
[ 8008 7997 7996 7995 ] final    4.14 input   59.86 | X-H torsion
[ 10167 10162 10161 10158 ] final  -28.75 input  -65.29 | X-H torsion
[ 10718 10713 10712 10709 ] final   32.28 input   66.30 | X-H torsion
[ 10763 10752 10751 10750 ] final -155.56 input  -60.55 | X-H torsion
[ 11005 11000 10999 10996 ] final -128.18 input  -57.11 | X-H torsion

> <Gold.Protein.ActiveResidues>
 VAL166  LYS551  ARG553  GLY616  TRP617  ASP618  TYR619  PRO620  LYS621  CYS622 
 ASP623  PHE694  ASN695  SER759  ASP760  ASP761  ALA762  ILE779  LEU786  VAL792 
 PHE793  MET794  SER795  GLU796  ALA797  LYS798  CYS799  TRP800  GLU811  SER814 

> <Gold.Protein.RotatedAtoms>
  152.3616  133.6304  159.6019 H   0  0  0  0  0  0  0  0  0  0  0  0  # atno 6907 bound_to 6896
  150.7605  133.9414  159.3466 H   0  0  0  0  0  0  0  0  0  0  0  0  # atno 6908 bound_to 6896
  151.7251  135.0887  160.0342 H   0  0  0  0  0  0  0  0  0  0  0  0  # atno 6909 bound_to 6896
  146.1802  139.7237  142.8905 H   0  0  0  0  0  0  0  0  0  0  0  0  # atno 7974 bound_to 7965
  154.7122  140.2695  155.6618 H   0  0  0  0  0  0  0  0  0  0  0  0  # atno 8008 bound_to 7997
  156.2799  140.2751  156.1692 H   0  0  0  0  0  0  0  0  0  0  0  0  # atno 8009 bound_to 7997
  155.0619  140.0371  157.2569 H   0  0  0  0  0  0  0  0  0  0  0  0  # atno 8010 bound_to 7997
  140.7267  143.3984  151.1307 H   0  0  0  0  0  0  0  0  0  0  0  0  # atno 10167 bound_to 10162
  157.2832  130.7265  149.6568 H   0  0  0  0  0  0  0  0  0  0  0  0  # atno 10718 bound_to 10713
  154.7778  135.3165  154.8055 H   0  0  0  0  0  0  0  0  0  0  0  0  # atno 10763 bound_to 10752
  153.8774  135.6838  153.4774 H   0  0  0  0  0  0  0  0  0  0  0  0  # atno 10764 bound_to 10752
  153.1406  135.4741  154.9426 H   0  0  0  0  0  0  0  0  0  0  0  0  # atno 10765 bound_to 10752
  140.9538  134.1030  157.4036 H   0  0  0  0  0  0  0  0  0  0  0  0  # atno 11005 bound_to 11000
  145.4097  141.0395  143.3024 LP  0  0  0  0  0  0  0  0  0  0  0  0  # atno 17320 bound_to 7965
  144.8303  139.5640  143.6947 LP  0  0  0  0  0  0  0  0  0  0  0  0  # atno 17321 bound_to 7965
  139.7601  143.8649  152.3098 LP  0  0  0  0  0  0  0  0  0  0  0  0  # atno 17342 bound_to 10162
  139.8532  144.7154  150.9189 LP  0  0  0  0  0  0  0  0  0  0  0  0  # atno 17343 bound_to 10162
  155.9665  130.4331  150.4994 LP  0  0  0  0  0  0  0  0  0  0  0  0  # atno 17370 bound_to 10713
  157.2942  131.0632  151.2113 LP  0  0  0  0  0  0  0  0  0  0  0  0  # atno 17371 bound_to 10713
  139.8855  135.0073  156.6442 LP  0  0  0  0  0  0  0  0  0  0  0  0  # atno 17394 bound_to 11000
  140.7565  133.8853  155.8386 LP  0  0  0  0  0  0  0  0  0  0  0  0  # atno 17395 bound_to 11000

$$$$
