AV-unprocessed.smi:2772|AV-procd|sdf|10674|dock1
  -GOLD-   2272015123D 1   1.00000     0.00000
 Structure written by MMmdl.
 56 58  0  0  0  0  0  0  0  0  4 V2000
  154.8887  143.2058  165.2472 C   0  0  0  0  0  0  0  0  0  0  0  0
  154.3840  142.7040  163.9108 C   0  0  0  0  0  0  0  0  0  0  0  0
  153.2618  143.2651  163.2662 C   0  0  0  0  0  0  0  0  0  0  0  0
  152.8485  142.7410  162.0237 C   0  0  0  0  0  0  0  0  0  0  0  0
  153.5540  141.6614  161.4475 C   0  0  0  0  0  0  0  0  0  0  0  0
  153.1043  141.1718  160.1897 N   0  0  0  0  0  0  0  0  0  0  0  0
  152.3191  141.7837  159.2852 C   0  0  0  0  0  0  0  0  0  0  0  0
  151.8623  142.9208  159.3976 O   0  0  0  0  0  0  0  0  0  0  0  0
  152.1020  140.9998  158.2182 N   0  0  0  0  0  0  0  0  0  0  0  0
  151.3032  141.3588  157.0476 C   0  0  2  0  0  0  0  0  0  0  0  0
  149.8671  141.6899  157.4635 C   0  0  0  0  0  0  0  0  0  0  0  0
  148.9929  142.0090  156.2387 C   0  0  0  0  0  0  0  0  0  0  0  0
  148.9819  140.9011  155.2358 N   0  3  1  0  0  0  0  0  0  0  0  0
  148.0875  141.1740  154.0566 C   0  0  2  0  0  0  0  0  0  0  0  0
  146.8714  142.0785  154.3809 C   0  0  0  0  0  0  0  0  0  0  0  0
  145.8592  141.3734  155.3033 C   0  0  0  0  0  0  0  0  0  0  0  0
  145.3767  140.1076  154.6958 N   0  3  2  0  0  0  0  0  0  0  0  0
  144.3442  139.4427  155.5199 C   0  0  0  0  0  0  0  0  0  0  0  0
  146.4898  139.1941  154.3349 C   0  0  0  0  0  0  0  0  0  0  0  0
  147.5004  139.8953  153.4081 C   0  0  0  0  0  0  0  0  0  0  0  0
  150.3756  140.5328  154.8412 C   0  0  0  0  0  0  0  0  0  0  0  0
  151.2646  140.1972  156.0506 C   0  0  0  0  0  0  0  0  0  0  0  0
  154.6821  141.1509  162.1377 C   0  0  0  0  0  0  0  0  0  0  0  0
  155.0457  141.6819  163.3254 N   0  3  0  0  0  0  0  0  0  0  0  0
  154.2622  144.0134  165.6267 H   0  0  0  0  0  0  0  0  0  0  0  0
  155.9081  143.5809  165.1519 H   0  0  0  0  0  0  0  0  0  0  0  0
  154.8857  142.3994  165.9813 H   0  0  0  0  0  0  0  0  0  0  0  0
  152.7217  144.0862  163.7152 H   0  0  0  0  0  0  0  0  0  0  0  0
  151.9900  143.1644  161.5224 H   0  0  0  0  0  0  0  0  0  0  0  0
  153.4616  140.2650  159.9256 H   0  0  0  0  0  0  0  0  0  0  0  0
  152.5228  140.0819  158.2148 H   0  0  0  0  0  0  0  0  0  0  0  0
  151.7268  142.2312  156.5464 H   0  0  0  0  0  0  0  0  0  0  0  0
  149.4337  140.8520  158.0118 H   0  0  0  0  0  0  0  0  0  0  0  0
  149.8639  142.5406  158.1464 H   0  0  0  0  0  0  0  0  0  0  0  0
  147.9927  142.2002  156.6201 H   0  0  0  0  0  0  0  0  0  0  0  0
  149.3365  142.9284  155.7622 H   0  0  0  0  0  0  0  0  0  0  0  0
  148.6969  141.6848  153.3089 H   0  0  0  0  0  0  0  0  0  0  0  0
  147.1613  143.0450  154.7882 H   0  0  0  0  0  0  0  0  0  0  0  0
  146.3655  142.3279  153.4468 H   0  0  0  0  0  0  0  0  0  0  0  0
  146.3092  141.1693  156.2761 H   0  0  0  0  0  0  0  0  0  0  0  0
  145.0090  142.0335  155.4807 H   0  0  0  0  0  0  0  0  0  0  0  0
  144.7473  139.1436  156.4884 H   0  0  0  0  0  0  0  0  0  0  0  0
  143.9644  138.5523  155.0177 H   0  0  0  0  0  0  0  0  0  0  0  0
  143.5002  140.1115  155.6923 H   0  0  0  0  0  0  0  0  0  0  0  0
  146.9858  138.8391  155.2397 H   0  0  0  0  0  0  0  0  0  0  0  0
  146.0848  138.3154  153.8312 H   0  0  0  0  0  0  0  0  0  0  0  0
  146.9831  140.1771  152.4894 H   0  0  0  0  0  0  0  0  0  0  0  0
  148.2676  139.1995  153.0752 H   0  0  0  0  0  0  0  0  0  0  0  0
  150.3822  139.6526  154.2026 H   0  0  0  0  0  0  0  0  0  0  0  0
  150.8187  141.3480  154.2669 H   0  0  0  0  0  0  0  0  0  0  0  0
  152.2746  139.9660  155.7091 H   0  0  0  0  0  0  0  0  0  0  0  0
  150.8900  139.2964  156.5395 H   0  0  0  0  0  0  0  0  0  0  0  0
  155.3167  140.3500  161.7909 H   0  0  0  0  0  0  0  0  0  0  0  0
  148.5996  140.0958  155.7101 H   0  0  0  0  0  0  0  0  0  0  0  0
  144.9245  140.3615  153.8285 H   0  0  0  0  0  0  0  0  0  0  0  0
  155.8603  141.2934  163.8015 H   0  0  0  0  0  0  0  0  0  0  0  0
  1  2  1  0  0  0  0
  1 25  1  0  0  0  0
  1 26  1  0  0  0  0
  1 27  1  0  0  0  0
  2 24  1  0  0  0  0
  2  3  2  0  0  0  0
  3  4  1  0  0  0  0
  3 28  1  0  0  0  0
  4  5  2  0  0  0  0
  4 29  1  0  0  0  0
  5  6  1  0  0  0  0
  5 23  1  0  0  0  0
  6  7  1  0  0  0  0
  6 30  1  0  0  0  0
  7  8  2  0  0  0  0
  7  9  1  0  0  0  0
  9 10  1  0  0  0  0
  9 31  1  0  0  0  0
 10 22  1  0  0  0  0
 10 11  1  0  0  0  0
 10 32  1  0  0  0  0
 11 12  1  0  0  0  0
 11 33  1  0  0  0  0
 11 34  1  0  0  0  0
 12 13  1  0  0  0  0
 12 35  1  0  0  0  0
 12 36  1  0  0  0  0
 13 14  1  0  0  0  0
 13 21  1  0  0  0  0
 13 54  1  0  0  0  0
 14 20  1  0  0  0  0
 14 15  1  0  0  0  0
 14 37  1  0  0  0  0
 15 16  1  0  0  0  0
 15 38  1  0  0  0  0
 15 39  1  0  0  0  0
 16 17  1  0  0  0  0
 16 40  1  0  0  0  0
 16 41  1  0  0  0  0
 17 18  1  0  0  0  0
 17 19  1  0  0  0  0
 17 55  1  0  0  0  0
 18 42  1  0  0  0  0
 18 43  1  0  0  0  0
 18 44  1  0  0  0  0
 19 20  1  0  0  0  0
 19 45  1  0  0  0  0
 19 46  1  0  0  0  0
 20 47  1  0  0  0  0
 20 48  1  0  0  0  0
 21 22  1  0  0  0  0
 21 49  1  0  0  0  0
 21 50  1  0  0  0  0
 22 51  1  0  0  0  0
 22 52  1  0  0  0  0
 23 24  2  0  0  0  0
 23 53  1  0  0  0  0
 24 56  1  0  0  0  0
M  CHG  1  13   1
M  CHG  1  17   1
M  CHG  1  24   1
M  END
> <s_m_source_file>
AV-unprocessed.smi

> <i_m_source_file_index>
2772

> <i_lp_mmshare_version>
43012

> <i_f3d_flags>
0

> <s_epik_input>
W0NIM11jMVtjSF1bY0hdYyhbY0hdbjEpW05IXUMoPU8pW05IXVtDSF0yW0NIMl1bQ0gyXU4oW0NIMl1bQ0gyXTIpW0NIXTNbQ0gyXVtDSDJdTihbQ0gzXSlbQ0gyXVtDSDJdMw==

> <s_epik_cmdline>
J2VwaWtfcHl0aG9uJywgJy1waCcsICc3LjAnLCAnLXRuJywgJzgnLCAnLW1hJywgJzIwMCcsICctbWV0YWxfYmluZGluZycsICctaW1hZScsICc8aW5maWxlLm1hZT4nLCAnLW9tYWUnLCAnPG91dGZpbGUubWFlPic=

> <r_epik_Ionization_Penalty>
2.34117

> <r_epik_Ionization_Penalty_Charging>
2.34115

> <r_epik_Ionization_Penalty_Neutral>
2.22786e-05

> <r_epik_State_Penalty>
2.43944

> <r_epik_Charging_Adjusted_Penalty>
4.78059

> <i_epik_Tot_Q>
3

> <i_epik_Tot_abs_Q>
3

> <r_epik_Metal_State_Penalty>
2.45906

> <b_epik_Metal_Only>
0

> <s_lp_Force_Field>
OPLS_2005

> <r_lp_Energy>
56.0688

> <b_lp_Chiralities_Consistent>
1

> <s_lp_Variant>
AV-unprocessed.smi:2772-11

> <Gold.Version>
5.8.1

> <Gold.Id.Protein>
6NUR|6NUR_protein|mol2

> <Gold.PLP.Fitness>
48.2812

> <Gold.PLP.PLP>
-43.6213

> <Gold.PLP.part.hbond>
-2.0000

> <Gold.PLP.part.metal>
0.0000

> <Gold.PLP.part.buried>
1.7948

> <Gold.PLP.part.nonpolar>
-42.5296

> <Gold.PLP.part.repulsive>
0.3142

> <Gold.PLP.ligand.clash>
0.0000

> <Gold.PLP.ligand.torsion>
0.6872

> <Gold.PLP.Chemscore.Hbond>
2.0000

> <Gold.PLP.Chemscore.CHOScore>
0.0000

> <Gold.PLP.Chemscore.Metal>
0.0000

> <Gold.Chemscore.Hbonds>
donor molecule, donor type, donor heavy atom, donor atom, acceptor molecule, acceptor atom, score
      L1  H    17    55       P1 10175  2.00

> <Gold.PLP.Chemscore.Internal.Correction>
0.0344

> <Gold.Rescore>
     Score         DG    S(hbond)    S(metal)    S(lipo)     H(rot)  DE(clash)    DE(int)     intcor
     15.33     -17.73       1.00        0.00     102.90       1.22       0.69       1.71       ----

> <Gold.Chemscore.Fitness>
15.3329

> <Gold.Chemscore.DG>
-17.7299

> <Gold.Chemscore.ZeroCoef>
-5.4800

> <Gold.Chemscore.Hbond>
1.0000

> <Gold.Chemscore.Metal>
0.0000

> <Gold.Chemscore.Lipo>
102.8960

> <Gold.Chemscore.Internal_Hbond>
0.0000

> <Gold.Chemscore.DEClash>
0.6854

> <Gold.Chemscore.DEInternal>
1.7116

> <Gold.Chemscore.Rot>
1.2222

> <Gold.Chemscore.Internal.Correction>
   9.000000E+99

> <Gold.Chemscore.Hbonds>
donor molecule, donor type, donor heavy atom, donor atom, acceptor molecule, acceptor atom, score
      L1  H    17    55       P1 10175  1.00

> <Gold.Chemscore.Hbond.Weighted>
-3.3400

> <Gold.Chemscore.Metal.Weighted>
-0.0000

> <Gold.Chemscore.Lipo.Weighted>
-12.0388

> <Gold.Chemscore.Internal_Hbond.Weighted>
0.0000

> <Gold.Chemscore.DEClash.Weighted>
0.6854

> <Gold.Chemscore.DEInternal.Weighted>
1.7116

> <Gold.Chemscore.Rot.Weighted>
3.1289

> <Gold.Chemscore.Internal.Correction.Weighted>
   9.000000E+99

> <Gold.Protein.RotatedTorsions>
[ 6907 6896 6895 6894 ] final -117.13 input  -60.11 | X-H torsion
[ 7974 7965 7964 7962 ] final  171.63 input  175.53 | X-H torsion
[ 8008 7997 7996 7995 ] final -151.69 input   59.86 | X-H torsion
[ 10167 10162 10161 10158 ] final -150.99 input  -65.29 | X-H torsion
[ 10718 10713 10712 10709 ] final -144.68 input   66.30 | X-H torsion
[ 10763 10752 10751 10750 ] final  -66.43 input  -60.55 | X-H torsion
[ 11005 11000 10999 10996 ] final -140.28 input  -57.11 | X-H torsion

> <Gold.Protein.ActiveResidues>
 VAL166  LYS551  ARG553  GLY616  TRP617  ASP618  TYR619  PRO620  LYS621  CYS622 
 ASP623  PHE694  ASN695  SER759  ASP760  ASP761  ALA762  ILE779  LEU786  VAL792 
 PHE793  MET794  SER795  GLU796  ALA797  LYS798  CYS799  TRP800  GLU811  SER814 

> <Gold.Protein.RotatedAtoms>
  150.8112  133.8419  159.3181 H   0  0  0  0  0  0  0  0  0  0  0  0  # atno 6907 bound_to 6896
  151.6204  135.1031  160.0110 H   0  0  0  0  0  0  0  0  0  0  0  0  # atno 6908 bound_to 6896
  152.4203  133.7066  159.6511 H   0  0  0  0  0  0  0  0  0  0  0  0  # atno 6909 bound_to 6896
  144.7289  139.9378  143.6427 H   0  0  0  0  0  0  0  0  0  0  0  0  # atno 7974 bound_to 7965
  155.6434  140.0704  157.2611 H   0  0  0  0  0  0  0  0  0  0  0  0  # atno 8008 bound_to 7997
  154.4178  140.1746  156.1647 H   0  0  0  0  0  0  0  0  0  0  0  0  # atno 8009 bound_to 7997
  155.9836  140.3351  155.6690 H   0  0  0  0  0  0  0  0  0  0  0  0  # atno 8010 bound_to 7997
  139.7306  143.8814  152.2533 H   0  0  0  0  0  0  0  0  0  0  0  0  # atno 10167 bound_to 10162
  156.3731  130.7798  151.1981 H   0  0  0  0  0  0  0  0  0  0  0  0  # atno 10718 bound_to 10713
  154.3597  135.6119  153.5684 H   0  0  0  0  0  0  0  0  0  0  0  0  # atno 10763 bound_to 10752
  152.9794  135.5812  154.4648 H   0  0  0  0  0  0  0  0  0  0  0  0  # atno 10764 bound_to 10752
  154.4383  135.2849  155.1842 H   0  0  0  0  0  0  0  0  0  0  0  0  # atno 10765 bound_to 10752
  140.8438  134.2369  157.4796 H   0  0  0  0  0  0  0  0  0  0  0  0  # atno 11005 bound_to 11000
  146.0808  139.3796  143.0466 LP  0  0  0  0  0  0  0  0  0  0  0  0  # atno 17320 bound_to 7965
  145.7844  140.9842  143.1082 LP  0  0  0  0  0  0  0  0  0  0  0  0  # atno 17321 bound_to 7965
  139.8736  144.7055  150.8958 LP  0  0  0  0  0  0  0  0  0  0  0  0  # atno 17342 bound_to 10162
  140.7770  143.3718  151.1636 LP  0  0  0  0  0  0  0  0  0  0  0  0  # atno 17343 bound_to 10162
  157.7486  131.0366  150.4418 LP  0  0  0  0  0  0  0  0  0  0  0  0  # atno 17370 bound_to 10713
  156.4648  130.4040  149.6554 LP  0  0  0  0  0  0  0  0  0  0  0  0  # atno 17371 bound_to 10713
  139.8703  134.9649  156.4510 LP  0  0  0  0  0  0  0  0  0  0  0  0  # atno 17394 bound_to 11000
  140.8866  133.7879  155.9525 LP  0  0  0  0  0  0  0  0  0  0  0  0  # atno 17395 bound_to 11000

$$$$
