AV-unprocessed.smi:1725|AV-procd|sdf|6954|dock1
  -GOLD-   22720 8163D 1   1.00000     0.00000
 Structure written by MMmdl.
 36 37  0  0  0  0  0  0  0  0  1 V2000
  149.3636  135.8747  157.7037 C   0  0  0  0  0  0  0  0  0  0  0  0
  150.5468  136.5578  157.0018 C   0  0  1  0  0  0  0  0  0  0  0  0
  150.2138  136.6762  155.6218 O   0  0  0  0  0  0  0  0  0  0  0  0
  150.5230  135.5433  154.8160 C   0  0  0  0  0  0  0  0  0  0  0  0
  149.4915  134.4451  154.9993 C   0  0  0  0  0  0  0  0  0  0  0  0
  149.9090  133.0455  155.4009 C   0  0  0  0  0  0  0  0  0  0  0  0
  149.3853  133.2995  154.0133 C   0  0  0  0  0  0  0  0  0  0  0  0
  150.8330  137.9441  157.6023 C   0  0  0  0  0  0  0  0  0  0  0  0
  151.1830  138.0326  158.7789 O   0  0  0  0  0  0  0  0  0  0  0  0
  150.6731  138.9828  156.7582 N   0  0  0  0  0  0  0  0  0  0  0  0
  150.8174  140.3609  156.9935 C   0  0  0  0  0  0  0  0  0  0  0  0
  151.5254  140.9086  158.0162 C   0  0  0  0  0  0  0  0  0  0  0  0
  151.6266  142.3464  158.2022 C   0  0  0  0  0  0  0  0  0  0  0  0
  152.3771  142.9434  159.3827 C   0  0  0  0  0  0  0  0  0  0  0  0
  151.5488  143.6845  160.1172 F   0  0  0  0  0  0  0  0  0  0  0  0
  152.8886  141.9921  160.1650 F   0  0  0  0  0  0  0  0  0  0  0  0
  153.3744  143.7248  158.9677 F   0  0  0  0  0  0  0  0  0  0  0  0
  150.9562  143.1141  157.3233 C   0  0  0  0  0  0  0  0  0  0  0  0
  150.2270  142.5600  156.2690 N   0  0  0  0  0  0  0  0  0  0  0  0
  150.1065  141.2326  156.0432 C   0  0  0  0  0  0  0  0  0  0  0  0
  149.4374  140.8224  155.0953 O   0  0  0  0  0  0  0  0  0  0  0  0
  149.7602  143.2031  155.6459 H   0  0  0  0  0  0  0  0  0  0  0  0
  149.5446  135.7696  158.7740 H   0  0  0  0  0  0  0  0  0  0  0  0
  149.1996  134.8761  157.2983 H   0  0  0  0  0  0  0  0  0  0  0  0
  148.4383  136.4371  157.5723 H   0  0  0  0  0  0  0  0  0  0  0  0
  151.4237  135.9161  157.1096 H   0  0  0  0  0  0  0  0  0  0  0  0
  150.5555  135.8091  153.7591 H   0  0  0  0  0  0  0  0  0  0  0  0
  151.5027  135.1482  155.0875 H   0  0  0  0  0  0  0  0  0  0  0  0
  148.5514  134.7977  155.4190 H   0  0  0  0  0  0  0  0  0  0  0  0
  150.9722  132.8375  155.5056 H   0  0  0  0  0  0  0  0  0  0  0  0
  149.2617  132.5082  156.0909 H   0  0  0  0  0  0  0  0  0  0  0  0
  148.3887  132.9314  153.7787 H   0  0  0  0  0  0  0  0  0  0  0  0
  150.0989  133.2601  153.1926 H   0  0  0  0  0  0  0  0  0  0  0  0
  150.4393  138.7451  155.8049 H   0  0  0  0  0  0  0  0  0  0  0  0
  152.0322  140.2902  158.7382 H   0  0  0  0  0  0  0  0  0  0  0  0
  150.9218  144.1930  157.3593 H   0  0  0  0  0  0  0  0  0  0  0  0
  1  2  1  0  0  0  0
  1 23  1  0  0  0  0
  1 24  1  0  0  0  0
  1 25  1  0  0  0  0
  2  3  1  0  0  0  0
  2  8  1  0  0  0  0
  2 26  1  0  0  0  0
  3  4  1  0  0  0  0
  4  5  1  0  0  0  0
  4 27  1  0  0  0  0
  4 28  1  0  0  0  0
  5  7  1  0  0  0  0
  5  6  1  0  0  0  0
  5 29  1  0  0  0  0
  6  7  1  0  0  0  0
  6 30  1  0  0  0  0
  6 31  1  0  0  0  0
  7 32  1  0  0  0  0
  7 33  1  0  0  0  0
  8  9  2  0  0  0  0
  8 10  1  0  0  0  0
 10 11  1  0  0  0  0
 10 34  1  0  0  0  0
 11 20  1  0  0  0  0
 11 12  2  0  0  0  0
 12 13  1  0  0  0  0
 12 35  1  0  0  0  0
 13 14  1  0  0  0  0
 13 18  2  0  0  0  0
 14 15  1  0  0  0  0
 14 16  1  0  0  0  0
 14 17  1  0  0  0  0
 18 19  1  0  0  0  0
 18 36  1  0  0  0  0
 19 22  1  0  0  0  0
 19 20  1  0  0  0  0
 20 21  2  0  0  0  0
M  END
> <s_m_source_file>
AV-unprocessed.smi

> <i_m_source_file_index>
1725

> <i_lp_mmshare_version>
43012

> <i_f3d_flags>
0

> <s_epik_input>
W0NIMl0xW0NIMl1bQ0hdMVtDSDJdT1tDQEBIXShbQ0gzXSlDKD1PKVtOSF1jMltjSF1jKEMoRikoRilGKVtjSF1bbkhdYzI9Tw==

> <s_epik_cmdline>
J2VwaWtfcHl0aG9uJywgJy1waCcsICc3LjAnLCAnLXRuJywgJzgnLCAnLW1hJywgJzIwMCcsICctbWV0YWxfYmluZGluZycsICctaW1hZScsICc8aW5maWxlLm1hZT4nLCAnLW9tYWUnLCAnPG91dGZpbGUubWFlPic=

> <r_lp_tautomer_probability>
0.999

> <r_epik_Ionization_Penalty>
0.00763408

> <r_epik_Ionization_Penalty_Charging>
0.00763398

> <r_epik_Ionization_Penalty_Neutral>
9.25705e-08

> <r_epik_State_Penalty>
0.00571302

> <r_epik_Charging_Adjusted_Penalty>
0.013347

> <i_epik_Tot_Q>
0

> <i_epik_Tot_abs_Q>
0

> <r_epik_Metal_State_Penalty>
0.392814

> <b_epik_Metal_Only>
0

> <s_lp_Force_Field>
OPLS_2005

> <r_lp_Energy>
26.7151

> <b_lp_Chiralities_Consistent>
1

> <s_lp_Variant>
AV-unprocessed.smi:1725-2

> <Gold.Version>
5.8.1

> <Gold.Id.Protein>
6NUR|6NUR_protein|mol2

> <Gold.PLP.Fitness>
37.7734

> <Gold.PLP.PLP>
-35.3785

> <Gold.PLP.part.hbond>
-1.0000

> <Gold.PLP.part.metal>
0.0000

> <Gold.PLP.part.buried>
-4.3297

> <Gold.PLP.part.nonpolar>
-29.9693

> <Gold.PLP.part.repulsive>
0.3050

> <Gold.PLP.ligand.clash>
0.0000

> <Gold.PLP.ligand.torsion>
0.9622

> <Gold.PLP.Chemscore.Hbond>
0.8640

> <Gold.PLP.Chemscore.CHOScore>
0.3138

> <Gold.PLP.Chemscore.Metal>
0.0000

> <Gold.Chemscore.Hbonds>
donor molecule, donor type, donor heavy atom, donor atom, acceptor molecule, acceptor atom, score
      L1  H    19    22       P1  8028  0.83
      L1  C    18    36       P1  8028  0.29

> <Gold.PLP.Chemscore.Internal.Correction>
0.7858

> <Gold.Rescore>
     Score         DG    S(hbond)    S(metal)    S(lipo)     H(rot)  DE(clash)    DE(int)     intcor
     10.21     -12.21       1.00        0.00      68.28       1.79       0.00       1.99       ----

> <Gold.Chemscore.Fitness>
10.2148

> <Gold.Chemscore.DG>
-12.2076

> <Gold.Chemscore.ZeroCoef>
-5.4800

> <Gold.Chemscore.Hbond>
0.9972

> <Gold.Chemscore.Metal>
0.0000

> <Gold.Chemscore.Lipo>
68.2824

> <Gold.Chemscore.Internal_Hbond>
0.0000

> <Gold.Chemscore.DEClash>
0.0011

> <Gold.Chemscore.DEInternal>
1.9917

> <Gold.Chemscore.Rot>
1.7938

> <Gold.Chemscore.Internal.Correction>
   9.000000E+99

> <Gold.Chemscore.Hbonds>
donor molecule, donor type, donor heavy atom, donor atom, acceptor molecule, acceptor atom, score
      L1  H    19    22       P1  8028  0.83

> <Gold.Chemscore.Hbond.Weighted>
-3.3307

> <Gold.Chemscore.Metal.Weighted>
-0.0000

> <Gold.Chemscore.Lipo.Weighted>
-7.9890

> <Gold.Chemscore.Internal_Hbond.Weighted>
0.0000

> <Gold.Chemscore.DEClash.Weighted>
0.0011

> <Gold.Chemscore.DEInternal.Weighted>
1.9917

> <Gold.Chemscore.Rot.Weighted>
4.5922

> <Gold.Chemscore.Internal.Correction.Weighted>
   9.000000E+99

> <Gold.Protein.RotatedTorsions>
[ 6907 6896 6895 6894 ] final  120.90 input  -60.11 | X-H torsion
[ 7974 7965 7964 7962 ] final  -42.69 input  175.53 | X-H torsion
[ 8008 7997 7996 7995 ] final  168.05 input   59.86 | X-H torsion
[ 10167 10162 10161 10158 ] final -170.88 input  -65.29 | X-H torsion
[ 10718 10713 10712 10709 ] final  -24.04 input   66.30 | X-H torsion
[ 10763 10752 10751 10750 ] final -154.41 input  -60.55 | X-H torsion
[ 11005 11000 10999 10996 ] final   47.86 input  -57.11 | X-H torsion

> <Gold.Protein.ActiveResidues>
 VAL166  LYS551  ARG553  GLY616  TRP617  ASP618  TYR619  PRO620  LYS621  CYS622 
 ASP623  PHE694  ASN695  SER759  ASP760  ASP761  ALA762  ILE779  LEU786  VAL792 
 PHE793  MET794  SER795  GLU796  ALA797  LYS798  CYS799  TRP800  GLU811  SER814 

> <Gold.Protein.RotatedAtoms>
  152.4363  133.7366  159.6617 H   0  0  0  0  0  0  0  0  0  0  0  0  # atno 6907 bound_to 6896
  150.8247  133.8182  159.3130 H   0  0  0  0  0  0  0  0  0  0  0  0  # atno 6908 bound_to 6896
  151.5854  135.1058  160.0078 H   0  0  0  0  0  0  0  0  0  0  0  0  # atno 6909 bound_to 6896
  146.0091  140.6985  142.9233 H   0  0  0  0  0  0  0  0  0  0  0  0  # atno 7974 bound_to 7965
  156.1580  140.1600  156.8659 H   0  0  0  0  0  0  0  0  0  0  0  0  # atno 8008 bound_to 7997
  154.5134  140.0795  156.8069 H   0  0  0  0  0  0  0  0  0  0  0  0  # atno 8009 bound_to 7997
  155.3764  140.3403  155.4247 H   0  0  0  0  0  0  0  0  0  0  0  0  # atno 8010 bound_to 7997
  139.5835  144.1370  152.1546 H   0  0  0  0  0  0  0  0  0  0  0  0  # atno 10167 bound_to 10162
  156.4830  130.4549  149.6800 H   0  0  0  0  0  0  0  0  0  0  0  0  # atno 10718 bound_to 10713
  154.7861  135.3191  154.7884 H   0  0  0  0  0  0  0  0  0  0  0  0  # atno 10763 bound_to 10752
  153.8583  135.6856  153.4789 H   0  0  0  0  0  0  0  0  0  0  0  0  # atno 10764 bound_to 10752
  153.1513  135.4698  154.9579 H   0  0  0  0  0  0  0  0  0  0  0  0  # atno 10765 bound_to 10752
  140.1241  134.4790  155.8573 H   0  0  0  0  0  0  0  0  0  0  0  0  # atno 11005 bound_to 11000
  144.6946  140.3367  143.7206 LP  0  0  0  0  0  0  0  0  0  0  0  0  # atno 17320 bound_to 7965
  145.7369  139.1752  143.2398 LP  0  0  0  0  0  0  0  0  0  0  0  0  # atno 17321 bound_to 7965
  140.0928  144.5606  150.7043 LP  0  0  0  0  0  0  0  0  0  0  0  0  # atno 17342 bound_to 10162
  140.7110  143.2505  151.4580 LP  0  0  0  0  0  0  0  0  0  0  0  0  # atno 17343 bound_to 10162
  156.3503  130.7428  151.2387 LP  0  0  0  0  0  0  0  0  0  0  0  0  # atno 17370 bound_to 10713
  157.7481  131.0379  150.4477 LP  0  0  0  0  0  0  0  0  0  0  0  0  # atno 17371 bound_to 10713
  141.2158  133.6771  156.6945 LP  0  0  0  0  0  0  0  0  0  0  0  0  # atno 17394 bound_to 11000
  140.2926  134.8228  157.4030 LP  0  0  0  0  0  0  0  0  0  0  0  0  # atno 17395 bound_to 11000

$$$$
