AV-unprocessed.smi:3124|AV-procd|sdf|11904|dock7
  -GOLD-   2272017283D 1   1.00000     0.00000
 Structure written by MMmdl.
 24 24  0  0  0  0  0  0  0  0  2 V2000
  139.7652  136.7716  154.1825 C   0  0  0  0  0  0  0  0  0  0  0  0
  141.0221  136.0380  153.8167 C   0  0  0  0  0  0  0  0  0  0  0  0
  142.1212  136.5082  153.0400 C   0  0  0  0  0  0  0  0  0  0  0  0
  142.9958  135.4558  153.0136 C   0  0  0  0  0  0  0  0  0  0  0  0
  144.3352  135.2712  152.3684 C   0  0  0  0  0  0  0  0  0  0  0  0
  144.3046  135.1200  150.8346 C   0  0  2  0  0  0  0  0  0  0  0  0
  144.7394  133.7150  150.3954 C   0  0  0  0  0  0  0  0  0  0  0  0
  145.1539  136.1376  150.1874 N   0  3  0  0  0  0  0  0  0  0  0  0
  142.3967  134.4487  153.7356 N   0  0  0  0  0  0  0  0  0  0  0  0
  141.1967  134.7946  154.2362 N   0  0  0  0  0  0  0  0  0  0  0  0
  142.7899  133.5317  153.8946 H   0  0  0  0  0  0  0  0  0  0  0  0
  139.5873  137.6079  153.5063 H   0  0  0  0  0  0  0  0  0  0  0  0
  139.8268  137.1704  155.1951 H   0  0  0  0  0  0  0  0  0  0  0  0
  138.8940  136.1174  154.1337 H   0  0  0  0  0  0  0  0  0  0  0  0
  142.2417  137.4744  152.5731 H   0  0  0  0  0  0  0  0  0  0  0  0
  144.9827  136.1071  152.6373 H   0  0  0  0  0  0  0  0  0  0  0  0
  144.8016  134.3854  152.8014 H   0  0  0  0  0  0  0  0  0  0  0  0
  143.2831  135.2766  150.4859 H   0  0  0  0  0  0  0  0  0  0  0  0
  144.0939  132.9507  150.8299 H   0  0  0  0  0  0  0  0  0  0  0  0
  145.7628  133.4997  150.7046 H   0  0  0  0  0  0  0  0  0  0  0  0
  144.6891  133.6075  149.3113 H   0  0  0  0  0  0  0  0  0  0  0  0
  145.2287  135.9382  149.2001 H   0  0  0  0  0  0  0  0  0  0  0  0
  146.0745  136.1203  150.6035 H   0  0  0  0  0  0  0  0  0  0  0  0
  144.7442  137.0516  150.3160 H   0  0  0  0  0  0  0  0  0  0  0  0
  1  2  1  0  0  0  0
  1 12  1  0  0  0  0
  1 13  1  0  0  0  0
  1 14  1  0  0  0  0
  2 10  2  0  0  0  0
  2  3  1  0  0  0  0
  3  4  2  0  0  0  0
  3 15  1  0  0  0  0
  4  5  1  0  0  0  0
  4  9  1  0  0  0  0
  5  6  1  0  0  0  0
  5 16  1  0  0  0  0
  5 17  1  0  0  0  0
  6  7  1  0  0  0  0
  6  8  1  0  0  0  0
  6 18  1  0  0  0  0
  7 19  1  0  0  0  0
  7 20  1  0  0  0  0
  7 21  1  0  0  0  0
  8 22  1  0  0  0  0
  8 23  1  0  0  0  0
  8 24  1  0  0  0  0
  9 11  1  0  0  0  0
  9 10  1  0  0  0  0
M  CHG  1   8   1
M  END
> <s_m_source_file>
AV-unprocessed.smi

> <i_m_source_file_index>
3124

> <i_lp_mmshare_version>
43012

> <i_f3d_flags>
0

> <s_epik_input>
W0NIM11jMVtjSF1jKFtuSF1uMSlbQ0gyXVtDQEhdKFtDSDNdKVtOSDJd

> <s_epik_cmdline>
J2VwaWtfcHl0aG9uJywgJy1waCcsICc3LjAnLCAnLXRuJywgJzgnLCAnLW1hJywgJzIwMCcsICctbWV0YWxfYmluZGluZycsICctaW1hZScsICc8aW5maWxlLm1hZT4nLCAnLW9tYWUnLCAnPG91dGZpbGUubWFlPic=

> <r_lp_tautomer_probability>
0.5

> <r_epik_Ionization_Penalty>
0.00227197

> <r_epik_Ionization_Penalty_Charging>
0.00223142

> <r_epik_Ionization_Penalty_Neutral>
4.05538e-05

> <r_epik_State_Penalty>
0.446108

> <r_epik_Charging_Adjusted_Penalty>
0.448339

> <i_epik_Tot_Q>
1

> <i_epik_Tot_abs_Q>
1

> <r_epik_Metal_State_Penalty>
0.444886

> <b_epik_Metal_Only>
0

> <s_lp_Force_Field>
OPLS_2005

> <r_lp_Energy>
4.61412

> <b_lp_Chiralities_Consistent>
1

> <s_lp_Variant>
AV-unprocessed.smi:3124-3

> <Gold.Version>
5.8.1

> <Gold.Id.Protein>
6NUR|6NUR_protein|mol2

> <Gold.PLP.Fitness>
32.4999

> <Gold.PLP.PLP>
-22.2581

> <Gold.PLP.part.hbond>
-4.3787

> <Gold.PLP.part.metal>
0.0000

> <Gold.PLP.part.buried>
-5.6364

> <Gold.PLP.part.nonpolar>
-11.8410

> <Gold.PLP.part.repulsive>
0.3282

> <Gold.PLP.ligand.clash>
0.0000

> <Gold.PLP.ligand.torsion>
0.8807

> <Gold.PLP.Chemscore.Hbond>
4.0000

> <Gold.PLP.Chemscore.CHOScore>
0.0000

> <Gold.PLP.Chemscore.Metal>
0.0000

> <Gold.Chemscore.Hbonds>
donor molecule, donor type, donor heavy atom, donor atom, acceptor molecule, acceptor atom, score
      L1  H     8    22       P1  7921  0.79
      L1  H     8    24       P1 10171  1.00
      L1  H     9    11       P1 10957  0.96
      P1  H 11000 11005       L1    10  1.00

> <Gold.PLP.Chemscore.Internal.Correction>
0.0033

> <Gold.Rescore>
     Score         DG    S(hbond)    S(metal)    S(lipo)     H(rot)  DE(clash)    DE(int)     intcor
     18.54     -19.43       3.84        0.00      38.01       1.30       0.00       0.89       ----

> <Gold.Chemscore.Fitness>
18.5351

> <Gold.Chemscore.DG>
-19.4286

> <Gold.Chemscore.ZeroCoef>
-5.4800

> <Gold.Chemscore.Hbond>
3.8402

> <Gold.Chemscore.Metal>
0.0000

> <Gold.Chemscore.Lipo>
38.0088

> <Gold.Chemscore.Internal_Hbond>
0.0000

> <Gold.Chemscore.DEClash>
0.0048

> <Gold.Chemscore.DEInternal>
0.8887

> <Gold.Chemscore.Rot>
1.2987

> <Gold.Chemscore.Internal.Correction>
   9.000000E+99

> <Gold.Chemscore.Hbonds>
donor molecule, donor type, donor heavy atom, donor atom, acceptor molecule, acceptor atom, score
      L1  H     8    22       P1  7921  0.73
      L1  H     8    24       P1 10171  0.98
      L1  H     9    11       P1 10957  0.90
      P1  H 11000 11005       L1    10  0.95

> <Gold.Chemscore.Hbond.Weighted>
-12.8262

> <Gold.Chemscore.Metal.Weighted>
-0.0000

> <Gold.Chemscore.Lipo.Weighted>
-4.4470

> <Gold.Chemscore.Internal_Hbond.Weighted>
0.0000

> <Gold.Chemscore.DEClash.Weighted>
0.0048

> <Gold.Chemscore.DEInternal.Weighted>
0.8887

> <Gold.Chemscore.Rot.Weighted>
3.3246

> <Gold.Chemscore.Internal.Correction.Weighted>
   9.000000E+99

> <Gold.Protein.RotatedTorsions>
[ 6907 6896 6895 6894 ] final   35.80 input  -60.11 | X-H torsion
[ 7974 7965 7964 7962 ] final  138.17 input  175.53 | X-H torsion
[ 8008 7997 7996 7995 ] final   95.62 input   59.86 | X-H torsion
[ 10167 10162 10161 10158 ] final   62.21 input  -65.29 | X-H torsion
[ 10718 10713 10712 10709 ] final  132.72 input   66.30 | X-H torsion
[ 10763 10752 10751 10750 ] final  -81.81 input  -60.55 | X-H torsion
[ 11005 11000 10999 10996 ] final   11.61 input  -57.11 | X-H torsion

> <Gold.Protein.ActiveResidues>
 VAL166  LYS551  ARG553  GLY616  TRP617  ASP618  TYR619  PRO620  LYS621  CYS622 
 ASP623  PHE694  ASN695  SER759  ASP760  ASP761  ALA762  ILE779  LEU786  VAL792 
 PHE793  MET794  SER795  GLU796  ALA797  LYS798  CYS799  TRP800  GLU811  SER814 

> <Gold.Protein.RotatedAtoms>
  152.1211  134.9205  160.0562 H   0  0  0  0  0  0  0  0  0  0  0  0  # atno 6907 bound_to 6896
  152.0346  133.3946  159.4319 H   0  0  0  0  0  0  0  0  0  0  0  0  # atno 6908 bound_to 6896
  150.6849  134.3404  159.4909 H   0  0  0  0  0  0  0  0  0  0  0  0  # atno 6909 bound_to 6896
  144.9398  139.4945  143.5577 H   0  0  0  0  0  0  0  0  0  0  0  0  # atno 7974 bound_to 7965
  156.0709  140.3284  155.7574 H   0  0  0  0  0  0  0  0  0  0  0  0  # atno 8008 bound_to 7997
  155.5307  140.0593  157.2907 H   0  0  0  0  0  0  0  0  0  0  0  0  # atno 8009 bound_to 7997
  154.4529  140.1928  156.0482 H   0  0  0  0  0  0  0  0  0  0  0  0  # atno 8010 bound_to 7997
  140.1464  144.4504  150.6783 H   0  0  0  0  0  0  0  0  0  0  0  0  # atno 10167 bound_to 10162
  157.4844  131.1087  150.9640 H   0  0  0  0  0  0  0  0  0  0  0  0  # atno 10718 bound_to 10713
  154.5681  135.5613  153.7069 H   0  0  0  0  0  0  0  0  0  0  0  0  # atno 10763 bound_to 10752
  153.0039  135.6290  154.2152 H   0  0  0  0  0  0  0  0  0  0  0  0  # atno 10764 bound_to 10752
  154.2091  135.2874  155.2944 H   0  0  0  0  0  0  0  0  0  0  0  0  # atno 10765 bound_to 10752
  140.5013  134.0743  155.7794 H   0  0  0  0  0  0  0  0  0  0  0  0  # atno 11005 bound_to 11000
  146.3281  139.8408  142.8891 LP  0  0  0  0  0  0  0  0  0  0  0  0  # atno 17320 bound_to 7965
  145.3010  141.0194  143.3609 LP  0  0  0  0  0  0  0  0  0  0  0  0  # atno 17321 bound_to 7965
  140.6729  143.2293  151.5580 LP  0  0  0  0  0  0  0  0  0  0  0  0  # atno 17342 bound_to 10162
  139.5447  144.2553  152.1419 LP  0  0  0  0  0  0  0  0  0  0  0  0  # atno 17343 bound_to 10162
  157.0362  130.5731  149.5350 LP  0  0  0  0  0  0  0  0  0  0  0  0  # atno 17370 bound_to 10713
  156.0139  130.5232  150.8073 LP  0  0  0  0  0  0  0  0  0  0  0  0  # atno 17371 bound_to 10713
  141.1434  133.9098  157.2273 LP  0  0  0  0  0  0  0  0  0  0  0  0  # atno 17394 bound_to 11000
  139.9711  135.0128  156.9515 LP  0  0  0  0  0  0  0  0  0  0  0  0  # atno 17395 bound_to 11000

$$$$
