AV-unprocessed.smi:1374|AV-procd|sdf|5588|dock2
  -GOLD-   22720 5193D 1   1.00000     0.00000
 Structure written by MMmdl.
 42 43  0  0  0  0  0  0  0  0  2 V2000
  145.8077  131.9455  150.8946 C   0  0  0  0  0  0  0  0  0  0  0  0
  145.9658  130.9843  152.0775 C   0  0  0  0  0  0  0  0  0  0  0  0
  146.7485  131.6088  153.2445 C   0  0  0  0  0  0  0  0  0  0  0  0
  148.2835  131.4818  153.1278 C   0  0  0  0  0  0  0  0  0  0  0  0
  149.0006  132.0857  154.2742 N   0  0  0  0  0  0  0  0  0  0  0  0
  148.9861  133.4988  154.4226 C   0  0  0  0  0  0  0  0  0  0  0  0
  148.3176  134.2686  153.4812 N   0  0  0  0  0  0  0  0  0  0  0  0
  149.5829  134.0772  155.4992 C   0  0  0  0  0  0  0  0  0  0  0  0
  149.5840  135.4760  155.6935 N   0  0  0  0  0  0  0  0  0  0  0  0
  148.2723  136.1134  155.8537 C   0  0  0  0  0  0  0  0  0  0  0  0
  150.7035  136.2582  155.6856 C   0  0  0  0  0  0  0  0  0  0  0  0
  151.8285  135.7549  155.7383 O   0  0  0  0  0  0  0  0  0  0  0  0
  150.5051  137.7065  155.5688 C   0  0  0  0  0  0  0  0  0  0  0  0
  150.5498  138.2727  154.3412 C   0  0  0  0  0  0  0  0  0  0  0  0
  150.3308  139.6073  154.1054 O   0  0  0  0  0  0  0  0  0  0  0  0
  149.8144  140.3336  155.2149 C   0  0  0  0  0  0  0  0  0  0  0  0
  150.4762  139.8699  156.5202 C   0  0  0  0  0  0  0  0  0  0  0  0
  150.2765  138.4725  156.6901 O   0  0  0  0  0  0  0  0  0  0  0  0
  150.2928  133.2211  156.4596 C   0  0  0  0  0  0  0  0  0  0  0  0
  150.8877  133.7204  157.4150 O   0  0  0  0  0  0  0  0  0  0  0  0
  150.2689  131.8794  156.2486 N   0  5  0  0  0  0  0  0  0  0  0  0
  149.6385  131.2936  155.1915 C   0  0  0  0  0  0  0  0  0  0  0  0
  149.6245  130.0703  155.0492 O   0  0  0  0  0  0  0  0  0  0  0  0
  145.2419  131.4777  150.0888 H   0  0  0  0  0  0  0  0  0  0  0  0
  146.7777  132.2404  150.4938 H   0  0  0  0  0  0  0  0  0  0  0  0
  145.2767  132.8503  151.1917 H   0  0  0  0  0  0  0  0  0  0  0  0
  144.9748  130.6802  152.4148 H   0  0  0  0  0  0  0  0  0  0  0  0
  146.4706  130.0782  151.7416 H   0  0  0  0  0  0  0  0  0  0  0  0
  146.4962  132.6674  153.3128 H   0  0  0  0  0  0  0  0  0  0  0  0
  146.4087  131.1623  154.1790 H   0  0  0  0  0  0  0  0  0  0  0  0
  148.5431  130.4316  152.9887 H   0  0  0  0  0  0  0  0  0  0  0  0
  148.6180  131.9464  152.1998 H   0  0  0  0  0  0  0  0  0  0  0  0
  147.8424  133.8499  152.6950 H   0  0  0  0  0  0  0  0  0  0  0  0
  148.3789  135.2765  153.4831 H   0  0  0  0  0  0  0  0  0  0  0  0
  148.2182  136.6544  156.7994 H   0  0  0  0  0  0  0  0  0  0  0  0
  147.4597  135.3857  155.8437 H   0  0  0  0  0  0  0  0  0  0  0  0
  148.0833  136.8179  155.0424 H   0  0  0  0  0  0  0  0  0  0  0  0
  150.7334  137.7327  153.4232 H   0  0  0  0  0  0  0  0  0  0  0  0
  149.9878  141.3980  155.0564 H   0  0  0  0  0  0  0  0  0  0  0  0
  148.7346  140.1878  155.2649 H   0  0  0  0  0  0  0  0  0  0  0  0
  151.5463  140.0823  156.5080 H   0  0  0  0  0  0  0  0  0  0  0  0
  150.0534  140.3975  157.3752 H   0  0  0  0  0  0  0  0  0  0  0  0
  1  2  1  0  0  0  0
  1 24  1  0  0  0  0
  1 25  1  0  0  0  0
  1 26  1  0  0  0  0
  2  3  1  0  0  0  0
  2 27  1  0  0  0  0
  2 28  1  0  0  0  0
  3  4  1  0  0  0  0
  3 29  1  0  0  0  0
  3 30  1  0  0  0  0
  4  5  1  0  0  0  0
  4 31  1  0  0  0  0
  4 32  1  0  0  0  0
  5 22  1  0  0  0  0
  5  6  1  0  0  0  0
  6  7  1  0  0  0  0
  6  8  2  0  0  0  0
  7 33  1  0  0  0  0
  7 34  1  0  0  0  0
  8  9  1  0  0  0  0
  8 19  1  0  0  0  0
  9 10  1  0  0  0  0
  9 11  1  0  0  0  0
 10 35  1  0  0  0  0
 10 36  1  0  0  0  0
 10 37  1  0  0  0  0
 11 12  2  0  0  0  0
 11 13  1  0  0  0  0
 13 18  1  0  0  0  0
 13 14  2  0  0  0  0
 14 15  1  0  0  0  0
 14 38  1  0  0  0  0
 15 16  1  0  0  0  0
 16 17  1  0  0  0  0
 16 39  1  0  0  0  0
 16 40  1  0  0  0  0
 17 18  1  0  0  0  0
 17 41  1  0  0  0  0
 17 42  1  0  0  0  0
 19 20  2  0  0  0  0
 19 21  1  0  0  0  0
 21 22  1  0  0  0  0
 22 23  2  0  0  0  0
M  CHG  1  21  -1
M  END
> <s_m_source_file>
AV-unprocessed.smi

> <i_m_source_file_index>
1374

> <i_lp_mmshare_version>
43012

> <i_f3d_flags>
0

> <s_epik_input>
W0NIM11bQ0gyXVtDSDJdW0NIMl1uMWMoW05IMl0pYyhjKD1PKVtuSF1jMT1PKU4oW0NIM10pQyg9TylDMj1bQ0hdT1tDSDJdW0NIMl1PMg==

> <s_epik_cmdline>
J2VwaWtfcHl0aG9uJywgJy1waCcsICc3LjAnLCAnLXRuJywgJzgnLCAnLW1hJywgJzIwMCcsICctbWV0YWxfYmluZGluZycsICctaW1hZScsICc8aW5maWxlLm1hZT4nLCAnLW9tYWUnLCAnPG91dGZpbGUubWFlPic=

> <r_lp_tautomer_probability>
1

> <r_epik_Ionization_Penalty>
6.1831

> <r_epik_Ionization_Penalty_Charging>
0.183564

> <r_epik_Ionization_Penalty_Neutral>
5.99954

> <r_epik_State_Penalty>
5.99952

> <r_epik_Charging_Adjusted_Penalty>
6.18308

> <i_epik_Tot_Q>
-1

> <i_epik_Tot_abs_Q>
1

> <r_epik_Metal_State_Penalty>
1.93002

> <b_epik_Metal_Only>
1

> <s_epik_Chemistry_Notes>
This compound has an imine and may undergo hydrolysis.

> <s_lp_Force_Field>
OPLS_2005

> <r_lp_Energy>
38.087

> <b_lp_Chiralities_Consistent>
1

> <s_lp_Variant>
AV-unprocessed.smi:1374-2

> <Gold.Version>
5.8.1

> <Gold.Id.Protein>
6NUR|6NUR_protein|mol2

> <Gold.PLP.Fitness>
40.0313

> <Gold.PLP.PLP>
-30.8692

> <Gold.PLP.part.hbond>
-3.9364

> <Gold.PLP.part.metal>
0.0000

> <Gold.PLP.part.buried>
-2.3277

> <Gold.PLP.part.nonpolar>
-25.6038

> <Gold.PLP.part.repulsive>
0.5700

> <Gold.PLP.ligand.clash>
0.0000

> <Gold.PLP.ligand.torsion>
2.9658

> <Gold.PLP.Chemscore.Hbond>
3.0380

> <Gold.PLP.Chemscore.CHOScore>
0.8345

> <Gold.PLP.Chemscore.Metal>
0.0000

> <Gold.Chemscore.Hbonds>
donor molecule, donor type, donor heavy atom, donor atom, acceptor molecule, acceptor atom, score
      L1  H     7    34       P1  7948  0.38
      P1  H  6896  6907       L1    20  0.67
      P1  H  7989  7998       L1    15  1.00
      P1  H 10752 10765       L1    12  0.99
      L1  C    14    38       P1  7948  0.25
      L1  C    14    38       P1  7949  0.59

> <Gold.PLP.Chemscore.Internal.Correction>
3.4763

> <Gold.Rescore>
     Score         DG    S(hbond)    S(metal)    S(lipo)     H(rot)  DE(clash)    DE(int)     intcor
     12.50     -16.80       2.67        0.00      52.63       1.47       0.18       4.13       ----

> <Gold.Chemscore.Fitness>
12.4965

> <Gold.Chemscore.DG>
-16.8037

> <Gold.Chemscore.ZeroCoef>
-5.4800

> <Gold.Chemscore.Hbond>
2.6747

> <Gold.Chemscore.Metal>
0.0000

> <Gold.Chemscore.Lipo>
52.6271

> <Gold.Chemscore.Internal_Hbond>
0.0000

> <Gold.Chemscore.DEClash>
0.1815

> <Gold.Chemscore.DEInternal>
4.1257

> <Gold.Chemscore.Rot>
1.4715

> <Gold.Chemscore.Internal.Correction>
   9.000000E+99

> <Gold.Chemscore.Hbonds>
donor molecule, donor type, donor heavy atom, donor atom, acceptor molecule, acceptor atom, score
      L1  H     7    34       P1  7948  0.37
      P1  H  6896  6907       L1    20  0.68
      P1  H  7989  7998       L1    15  0.25
      P1  H 10752 10765       L1    12  0.91

> <Gold.Chemscore.Hbond.Weighted>
-8.9335

> <Gold.Chemscore.Metal.Weighted>
-0.0000

> <Gold.Chemscore.Lipo.Weighted>
-6.1574

> <Gold.Chemscore.Internal_Hbond.Weighted>
0.0000

> <Gold.Chemscore.DEClash.Weighted>
0.1815

> <Gold.Chemscore.DEInternal.Weighted>
4.1257

> <Gold.Chemscore.Rot.Weighted>
3.7671

> <Gold.Chemscore.Internal.Correction.Weighted>
   9.000000E+99

> <Gold.Protein.RotatedTorsions>
[ 6907 6896 6895 6894 ] final -134.13 input  -60.11 | X-H torsion
[ 7974 7965 7964 7962 ] final -165.80 input  175.53 | X-H torsion
[ 8008 7997 7996 7995 ] final   30.80 input   59.86 | X-H torsion
[ 10167 10162 10161 10158 ] final   -3.17 input  -65.29 | X-H torsion
[ 10718 10713 10712 10709 ] final   74.20 input   66.30 | X-H torsion
[ 10763 10752 10751 10750 ] final -172.29 input  -60.55 | X-H torsion
[ 11005 11000 10999 10996 ] final -134.37 input  -57.11 | X-H torsion

> <Gold.Protein.ActiveResidues>
 VAL166  LYS551  ARG553  GLY616  TRP617  ASP618  TYR619  PRO620  LYS621  CYS622 
 ASP623  PHE694  ASN695  SER759  ASP760  ASP761  ALA762  ILE779  LEU786  VAL792 
 PHE793  MET794  SER795  GLU796  ALA797  LYS798  CYS799  TRP800  GLU811  SER814 

> <Gold.Protein.RotatedAtoms>
  150.9822  133.6234  159.2720 H   0  0  0  0  0  0  0  0  0  0  0  0  # atno 6907 bound_to 6896
  151.3485  135.0878  159.9405 H   0  0  0  0  0  0  0  0  0  0  0  0  # atno 6908 bound_to 6896
  152.5219  133.9419  159.7685 H   0  0  0  0  0  0  0  0  0  0  0  0  # atno 6909 bound_to 6896
  144.7261  140.2760  143.6243 H   0  0  0  0  0  0  0  0  0  0  0  0  # atno 7974 bound_to 7965
  155.0963  140.3225  155.4559 H   0  0  0  0  0  0  0  0  0  0  0  0  # atno 8008 bound_to 7997
  156.2729  140.2069  156.6036 H   0  0  0  0  0  0  0  0  0  0  0  0  # atno 8009 bound_to 7997
  154.6864  140.0521  157.0306 H   0  0  0  0  0  0  0  0  0  0  0  0  # atno 8010 bound_to 7997
  140.6879  143.6572  150.8298 H   0  0  0  0  0  0  0  0  0  0  0  0  # atno 10167 bound_to 10162
  157.6582  130.9666  150.1177 H   0  0  0  0  0  0  0  0  0  0  0  0  # atno 10718 bound_to 10713
  154.6209  135.2875  155.0327 H   0  0  0  0  0  0  0  0  0  0  0  0  # atno 10763 bound_to 10752
  154.1522  135.6501  153.4970 H   0  0  0  0  0  0  0  0  0  0  0  0  # atno 10764 bound_to 10752
  153.0235  135.5358  154.6999 H   0  0  0  0  0  0  0  0  0  0  0  0  # atno 10765 bound_to 10752
  140.8996  134.1708  157.4470 H   0  0  0  0  0  0  0  0  0  0  0  0  # atno 11005 bound_to 11000
  145.7996  139.1959  143.2056 LP  0  0  0  0  0  0  0  0  0  0  0  0  # atno 17320 bound_to 7965
  146.0688  140.7892  142.9698 LP  0  0  0  0  0  0  0  0  0  0  0  0  # atno 17321 bound_to 7965
  140.0281  143.5472  152.2772 LP  0  0  0  0  0  0  0  0  0  0  0  0  # atno 17342 bound_to 10162
  139.6255  144.7636  151.2648 LP  0  0  0  0  0  0  0  0  0  0  0  0  # atno 17343 bound_to 10162
  156.2057  130.3663  149.8733 LP  0  0  0  0  0  0  0  0  0  0  0  0  # atno 17370 bound_to 10713
  156.6625  130.8788  151.3549 LP  0  0  0  0  0  0  0  0  0  0  0  0  # atno 17371 bound_to 10713
  139.8740  134.9892  156.5448 LP  0  0  0  0  0  0  0  0  0  0  0  0  # atno 17394 bound_to 11000
  140.8246  133.8326  155.8927 LP  0  0  0  0  0  0  0  0  0  0  0  0  # atno 17395 bound_to 11000

$$$$
