AV-unprocessed.smi:3031|AV-procd|sdf|11545|dock9
  -GOLD-   2272016503D 1   1.00000     0.00000
 Structure written by MMmdl.
 47 48  0  0  0  0  0  0  0  0  2 V2000
  151.8335  145.5369  160.1880 C   0  0  0  0  0  0  0  0  0  0  0  0
  151.7387  144.3742  159.2427 C   0  0  0  0  0  0  0  0  0  0  0  0
  151.2021  144.3638  157.9238 C   0  0  0  0  0  0  0  0  0  0  0  0
  151.2722  143.1742  157.3490 N   0  0  0  0  0  0  0  0  0  0  0  0
  151.8534  142.3853  158.2770 N   0  0  0  0  0  0  0  0  0  0  0  0
  152.1009  140.9850  157.9812 C   0  0  0  0  0  0  0  0  0  0  0  0
  150.8073  140.2216  157.6337 C   0  0  2  0  0  0  0  0  0  0  0  0
  150.9163  138.7514  158.0762 C   0  0  0  0  0  0  0  0  0  0  0  0
  150.5292  140.3338  156.1972 N   0  0  0  0  0  0  0  0  0  0  0  0
  151.0561  139.2516  155.3667 C   0  0  0  0  0  0  0  0  0  0  0  0
  149.9251  138.3402  154.8625 C   0  0  2  0  0  0  0  0  0  0  0  0
  150.5071  137.3590  154.0279 O   0  0  0  0  0  0  0  0  0  0  0  0
  148.8632  139.1020  154.0410 C   0  0  0  0  0  0  0  0  0  0  0  0
  147.7686  138.2149  153.5723 N   0  3  0  0  0  0  0  0  0  0  0  0
  147.1073  137.4600  154.6660 C   0  0  0  0  0  0  0  0  0  0  0  0
  146.0190  136.5340  154.0972 C   0  0  0  0  0  0  0  0  0  0  0  0
  145.0779  137.3015  153.3572 O   0  0  0  0  0  0  0  0  0  0  0  0
  145.6824  137.9623  152.2523 C   0  0  0  0  0  0  0  0  0  0  0  0
  146.7600  138.9358  152.7594 C   0  0  0  0  0  0  0  0  0  0  0  0
  152.1436  143.0828  159.4304 C   0  0  0  0  0  0  0  0  0  0  0  0
  150.8778  146.0513  160.2896 H   0  0  0  0  0  0  0  0  0  0  0  0
  152.5608  146.2732  159.8456 H   0  0  0  0  0  0  0  0  0  0  0  0
  152.1376  145.2245  161.1873 H   0  0  0  0  0  0  0  0  0  0  0  0
  150.7677  145.1825  157.3694 H   0  0  0  0  0  0  0  0  0  0  0  0
  152.8197  140.9207  157.1632 H   0  0  0  0  0  0  0  0  0  0  0  0
  152.5820  140.5370  158.8520 H   0  0  0  0  0  0  0  0  0  0  0  0
  149.9888  140.6781  158.1922 H   0  0  0  0  0  0  0  0  0  0  0  0
  151.1856  138.6830  159.1306 H   0  0  0  0  0  0  0  0  0  0  0  0
  151.6790  138.2195  157.5063 H   0  0  0  0  0  0  0  0  0  0  0  0
  149.9735  138.2178  157.9583 H   0  0  0  0  0  0  0  0  0  0  0  0
  150.8729  141.2252  155.8552 H   0  0  0  0  0  0  0  0  0  0  0  0
  151.6096  139.6482  154.5157 H   0  0  0  0  0  0  0  0  0  0  0  0
  151.7617  138.6607  155.9525 H   0  0  0  0  0  0  0  0  0  0  0  0
  149.4752  137.8323  155.7155 H   0  0  0  0  0  0  0  0  0  0  0  0
  149.8341  136.9962  153.4720 H   0  0  0  0  0  0  0  0  0  0  0  0
  148.4303  139.9172  154.6227 H   0  0  0  0  0  0  0  0  0  0  0  0
  149.3539  139.5712  153.1863 H   0  0  0  0  0  0  0  0  0  0  0  0
  147.8348  136.8645  155.2161 H   0  0  0  0  0  0  0  0  0  0  0  0
  146.6636  138.1581  155.3778 H   0  0  0  0  0  0  0  0  0  0  0  0
  146.4564  135.7609  153.4632 H   0  0  0  0  0  0  0  0  0  0  0  0
  145.4983  136.0239  154.9081 H   0  0  0  0  0  0  0  0  0  0  0  0
  146.1096  137.2309  151.5642 H   0  0  0  0  0  0  0  0  0  0  0  0
  144.9142  138.5059  151.7021 H   0  0  0  0  0  0  0  0  0  0  0  0
  146.3011  139.7235  153.3593 H   0  0  0  0  0  0  0  0  0  0  0  0
  147.2442  139.4186  151.9097 H   0  0  0  0  0  0  0  0  0  0  0  0
  152.6144  142.6082  160.2787 H   0  0  0  0  0  0  0  0  0  0  0  0
  148.1958  137.5364  152.9574 H   0  0  0  0  0  0  0  0  0  0  0  0
  1  2  1  0  0  0  0
  1 21  1  0  0  0  0
  1 22  1  0  0  0  0
  1 23  1  0  0  0  0
  2 20  2  0  0  0  0
  2  3  1  0  0  0  0
  3  4  2  0  0  0  0
  3 24  1  0  0  0  0
  4  5  1  0  0  0  0
  5  6  1  0  0  0  0
  5 20  1  0  0  0  0
  6  7  1  0  0  0  0
  6 25  1  0  0  0  0
  6 26  1  0  0  0  0
  7  8  1  0  0  0  0
  7  9  1  0  0  0  0
  7 27  1  0  0  0  0
  8 28  1  0  0  0  0
  8 29  1  0  0  0  0
  8 30  1  0  0  0  0
  9 10  1  0  0  0  0
  9 31  1  0  0  0  0
 10 11  1  0  0  0  0
 10 32  1  0  0  0  0
 10 33  1  0  0  0  0
 11 12  1  0  0  0  0
 11 13  1  0  0  0  0
 11 34  1  0  0  0  0
 12 35  1  0  0  0  0
 13 14  1  0  0  0  0
 13 36  1  0  0  0  0
 13 37  1  0  0  0  0
 14 19  1  0  0  0  0
 14 15  1  0  0  0  0
 14 47  1  0  0  0  0
 15 16  1  0  0  0  0
 15 38  1  0  0  0  0
 15 39  1  0  0  0  0
 16 17  1  0  0  0  0
 16 40  1  0  0  0  0
 16 41  1  0  0  0  0
 17 18  1  0  0  0  0
 18 19  1  0  0  0  0
 18 42  1  0  0  0  0
 18 43  1  0  0  0  0
 19 44  1  0  0  0  0
 19 45  1  0  0  0  0
 20 46  1  0  0  0  0
M  CHG  1  14   1
M  END
> <s_m_source_file>
AV-unprocessed.smi

> <i_m_source_file_index>
3031

> <i_lp_mmshare_version>
43012

> <i_f3d_flags>
0

> <s_epik_input>
W0NIM11jMVtjSF1ubihbY0hdMSlbQ0gyXVtDQEhdKFtDSDNdKVtOSF1bQ0gyXVtDQEhdKFtPSF0pW0NIMl1OMltDSDJdW0NIMl1PW0NIMl1bQ0gyXTI=

> <s_epik_cmdline>
J2VwaWtfcHl0aG9uJywgJy1waCcsICc3LjAnLCAnLXRuJywgJzgnLCAnLW1hJywgJzIwMCcsICctbWV0YWxfYmluZGluZycsICctaW1hZScsICc8aW5maWxlLm1hZT4nLCAnLW9tYWUnLCAnPG91dGZpbGUubWFlPic=

> <r_epik_Ionization_Penalty>
0.467051

> <r_epik_Ionization_Penalty_Charging>
0.202493

> <r_epik_Ionization_Penalty_Neutral>
0.264558

> <r_epik_State_Penalty>
1.34287

> <r_epik_Charging_Adjusted_Penalty>
1.54537

> <i_epik_Tot_Q>
1

> <i_epik_Tot_abs_Q>
1

> <r_epik_Metal_State_Penalty>
1.34281

> <b_epik_Metal_Only>
0

> <s_lp_Force_Field>
OPLS_2005

> <r_lp_Energy>
23.7878

> <b_lp_Chiralities_Consistent>
1

> <s_lp_Variant>
AV-unprocessed.smi:3031-5

> <Gold.Version>
5.8.1

> <Gold.Id.Protein>
6NUR|6NUR_protein|mol2

> <Gold.PLP.Fitness>
47.1176

> <Gold.PLP.PLP>
-37.8842

> <Gold.PLP.part.hbond>
-3.0000

> <Gold.PLP.part.metal>
0.0000

> <Gold.PLP.part.buried>
-4.3124

> <Gold.PLP.part.nonpolar>
-31.8149

> <Gold.PLP.part.repulsive>
0.2963

> <Gold.PLP.ligand.clash>
0.0000

> <Gold.PLP.ligand.torsion>
1.1236

> <Gold.PLP.Chemscore.Hbond>
2.9263

> <Gold.PLP.Chemscore.CHOScore>
0.8413

> <Gold.PLP.Chemscore.Metal>
0.0000

> <Gold.Chemscore.Hbonds>
donor molecule, donor type, donor heavy atom, donor atom, acceptor molecule, acceptor atom, score
      L1  H    12    35       P1  7948  1.00
      L1  H    14    47       P1  7948  2.00
      L1  C     3    24       P1  8028  0.78

> <Gold.PLP.Chemscore.Internal.Correction>
0.1779

> <Gold.Rescore>
     Score         DG    S(hbond)    S(metal)    S(lipo)     H(rot)  DE(clash)    DE(int)     intcor
     13.95     -15.29       1.53        0.00      98.08       2.65       0.17       1.16       ----

> <Gold.Chemscore.Fitness>
13.9532

> <Gold.Chemscore.DG>
-15.2918

> <Gold.Chemscore.ZeroCoef>
-5.4800

> <Gold.Chemscore.Hbond>
1.5347

> <Gold.Chemscore.Metal>
0.0000

> <Gold.Chemscore.Lipo>
98.0780

> <Gold.Chemscore.Internal_Hbond>
0.0000

> <Gold.Chemscore.DEClash>
0.1737

> <Gold.Chemscore.DEInternal>
1.1648

> <Gold.Chemscore.Rot>
2.6521

> <Gold.Chemscore.Internal.Correction>
   9.000000E+99

> <Gold.Chemscore.Hbonds>
donor molecule, donor type, donor heavy atom, donor atom, acceptor molecule, acceptor atom, score
      L1  H    12    35       P1  7948  0.44
      L1  H    14    47       P1  7948  1.00

> <Gold.Chemscore.Hbond.Weighted>
-5.1260

> <Gold.Chemscore.Metal.Weighted>
-0.0000

> <Gold.Chemscore.Lipo.Weighted>
-11.4751

> <Gold.Chemscore.Internal_Hbond.Weighted>
0.0000

> <Gold.Chemscore.DEClash.Weighted>
0.1737

> <Gold.Chemscore.DEInternal.Weighted>
1.1648

> <Gold.Chemscore.Rot.Weighted>
6.7894

> <Gold.Chemscore.Internal.Correction.Weighted>
   9.000000E+99

> <Gold.Protein.RotatedTorsions>
[ 6907 6896 6895 6894 ] final   77.15 input  -60.11 | X-H torsion
[ 7974 7965 7964 7962 ] final   77.74 input  175.53 | X-H torsion
[ 8008 7997 7996 7995 ] final  105.40 input   59.86 | X-H torsion
[ 10167 10162 10161 10158 ] final   48.85 input  -65.29 | X-H torsion
[ 10718 10713 10712 10709 ] final   97.39 input   66.30 | X-H torsion
[ 10763 10752 10751 10750 ] final -125.89 input  -60.55 | X-H torsion
[ 11005 11000 10999 10996 ] final  -89.52 input  -57.11 | X-H torsion

> <Gold.Protein.ActiveResidues>
 VAL166  LYS551  ARG553  GLY616  TRP617  ASP618  TYR619  PRO620  LYS621  CYS622 
 ASP623  PHE694  ASN695  SER759  ASP760  ASP761  ALA762  ILE779  LEU786  VAL792 
 PHE793  MET794  SER795  GLU796  ALA797  LYS798  CYS799  TRP800  GLU811  SER814 

> <Gold.Protein.RotatedAtoms>
  152.5105  134.3860  159.9367 H   0  0  0  0  0  0  0  0  0  0  0  0  # atno 6907 bound_to 6896
  151.3818  133.3812  159.2718 H   0  0  0  0  0  0  0  0  0  0  0  0  # atno 6908 bound_to 6896
  150.9499  134.8920  159.7724 H   0  0  0  0  0  0  0  0  0  0  0  0  # atno 6909 bound_to 6896
  145.6861  139.2538  143.1786 H   0  0  0  0  0  0  0  0  0  0  0  0  # atno 7974 bound_to 7965
  156.1656  140.3131  155.8883 H   0  0  0  0  0  0  0  0  0  0  0  0  # atno 8008 bound_to 7997
  155.3693  140.0481  157.3062 H   0  0  0  0  0  0  0  0  0  0  0  0  # atno 8009 bound_to 7997
  154.5189  140.2191  155.9024 H   0  0  0  0  0  0  0  0  0  0  0  0  # atno 8010 bound_to 7997
  140.2890  144.3068  150.6245 H   0  0  0  0  0  0  0  0  0  0  0  0  # atno 10167 bound_to 10162
  157.6913  131.0608  150.4637 H   0  0  0  0  0  0  0  0  0  0  0  0  # atno 10718 bound_to 10713
  154.8740  135.4014  154.3342 H   0  0  0  0  0  0  0  0  0  0  0  0  # atno 10763 bound_to 10752
  153.4151  135.7021  153.6338 H   0  0  0  0  0  0  0  0  0  0  0  0  # atno 10764 bound_to 10752
  153.5024  135.3725  155.2517 H   0  0  0  0  0  0  0  0  0  0  0  0  # atno 10765 bound_to 10752
  141.1583  133.7635  156.9607 H   0  0  0  0  0  0  0  0  0  0  0  0  # atno 11005 bound_to 11000
  146.0922  140.7642  142.9589 LP  0  0  0  0  0  0  0  0  0  0  0  0  # atno 17320 bound_to 7965
  144.7011  140.3656  143.7155 LP  0  0  0  0  0  0  0  0  0  0  0  0  # atno 17321 bound_to 7965
  140.5748  143.2177  151.7535 LP  0  0  0  0  0  0  0  0  0  0  0  0  # atno 17342 bound_to 10162
  139.4943  144.4165  152.0024 LP  0  0  0  0  0  0  0  0  0  0  0  0  # atno 17343 bound_to 10162
  156.4979  130.4110  149.6369 LP  0  0  0  0  0  0  0  0  0  0  0  0  # atno 17370 bound_to 10713
  156.3355  130.7354  151.2291 LP  0  0  0  0  0  0  0  0  0  0  0  0  # atno 17371 bound_to 10713
  140.1195  134.9426  157.2183 LP  0  0  0  0  0  0  0  0  0  0  0  0  # atno 17394 bound_to 11000
  140.3090  134.3045  155.7271 LP  0  0  0  0  0  0  0  0  0  0  0  0  # atno 17395 bound_to 11000

$$$$
