AV-unprocessed.smi:2990|AV-procd|sdf|11395|dock2
  -GOLD-   2272016323D 1   1.00000     0.00000
 Structure written by MMmdl.
 40 42  0  0  0  0  0  0  0  0  2 V2000
  149.3713  141.0521  154.8289 C   0  0  0  0  0  0  0  0  0  0  0  0
  150.2056  141.4878  155.9863 C   0  0  0  0  0  0  0  0  0  0  0  0
  150.2322  142.7365  156.5316 N   0  3  0  0  0  0  0  0  0  0  0  0
  151.1315  142.7668  157.5984 C   0  0  0  0  0  0  0  0  0  0  0  0
  151.4964  143.8031  158.4525 C   0  0  0  0  0  0  0  0  0  0  0  0
  152.4468  143.4974  159.4488 C   0  0  0  0  0  0  0  0  0  0  0  0
  152.9945  142.2037  159.5681 C   0  0  0  0  0  0  0  0  0  0  0  0
  152.6185  141.1617  158.6946 C   0  0  0  0  0  0  0  0  0  0  0  0
  151.6799  141.4722  157.7107 C   0  0  0  0  0  0  0  0  0  0  0  0
  151.0813  140.7183  156.6935 N   0  0  0  0  0  0  0  0  0  0  0  0
  151.4420  139.3016  156.5220 C   0  0  0  0  0  0  0  0  0  0  0  0
  152.1492  139.0213  155.1810 C   0  0  2  0  0  0  0  0  0  0  0  0
  151.3381  138.2008  154.3643 O   0  0  0  0  0  0  0  0  0  0  0  0
  153.5097  138.3328  155.3630 C   0  0  0  0  0  0  0  0  0  0  0  0
  154.3767  138.7429  154.3139 O   0  0  0  0  0  0  0  0  0  0  0  0
  155.6628  138.2479  154.2982 C   0  0  0  0  0  0  0  0  0  0  0  0
  156.4406  138.5270  153.1554 C   0  0  0  0  0  0  0  0  0  0  0  0
  157.7643  138.0577  153.0516 C   0  0  0  0  0  0  0  0  0  0  0  0
  158.3258  137.2996  154.0953 C   0  0  0  0  0  0  0  0  0  0  0  0
  157.5619  137.0147  155.2422 C   0  0  0  0  0  0  0  0  0  0  0  0
  156.2380  137.4852  155.3467 C   0  0  0  0  0  0  0  0  0  0  0  0
  148.7394  141.8700  154.4820 H   0  0  0  0  0  0  0  0  0  0  0  0
  148.7313  140.2185  155.1185 H   0  0  0  0  0  0  0  0  0  0  0  0
  150.0095  140.7326  154.0049 H   0  0  0  0  0  0  0  0  0  0  0  0
  151.0765  144.7945  158.3641 H   0  0  0  0  0  0  0  0  0  0  0  0
  152.7602  144.2700  160.1360 H   0  0  0  0  0  0  0  0  0  0  0  0
  153.7178  142.0055  160.3459 H   0  0  0  0  0  0  0  0  0  0  0  0
  153.0406  140.1731  158.7995 H   0  0  0  0  0  0  0  0  0  0  0  0
  152.0993  139.0373  157.3510 H   0  0  0  0  0  0  0  0  0  0  0  0
  150.5512  138.6840  156.6380 H   0  0  0  0  0  0  0  0  0  0  0  0
  152.3004  139.9606  154.6475 H   0  0  0  0  0  0  0  0  0  0  0  0
  151.5957  138.3264  153.4637 H   0  0  0  0  0  0  0  0  0  0  0  0
  153.9334  138.5870  156.3363 H   0  0  0  0  0  0  0  0  0  0  0  0
  153.3781  137.2500  155.3217 H   0  0  0  0  0  0  0  0  0  0  0  0
  156.0176  139.1079  152.3491 H   0  0  0  0  0  0  0  0  0  0  0  0
  158.3477  138.2793  152.1704 H   0  0  0  0  0  0  0  0  0  0  0  0
  159.3401  136.9374  154.0161 H   0  0  0  0  0  0  0  0  0  0  0  0
  157.9920  136.4328  156.0440 H   0  0  0  0  0  0  0  0  0  0  0  0
  155.6846  137.2451  156.2416 H   0  0  0  0  0  0  0  0  0  0  0  0
  149.6739  143.5110  156.1964 H   0  0  0  0  0  0  0  0  0  0  0  0
  1  2  1  0  0  0  0
  1 22  1  0  0  0  0
  1 23  1  0  0  0  0
  1 24  1  0  0  0  0
  2 10  1  0  0  0  0
  2  3  2  0  0  0  0
  3  4  1  0  0  0  0
  3 40  1  0  0  0  0
  4  9  2  0  0  0  0
  4  5  1  0  0  0  0
  5  6  2  0  0  0  0
  5 25  1  0  0  0  0
  6  7  1  0  0  0  0
  6 26  1  0  0  0  0
  7  8  2  0  0  0  0
  7 27  1  0  0  0  0
  8  9  1  0  0  0  0
  8 28  1  0  0  0  0
  9 10  1  0  0  0  0
 10 11  1  0  0  0  0
 11 12  1  0  0  0  0
 11 29  1  0  0  0  0
 11 30  1  0  0  0  0
 12 13  1  0  0  0  0
 12 14  1  0  0  0  0
 12 31  1  0  0  0  0
 13 32  1  0  0  0  0
 14 15  1  0  0  0  0
 14 33  1  0  0  0  0
 14 34  1  0  0  0  0
 15 16  1  0  0  0  0
 16 21  1  0  0  0  0
 16 17  2  0  0  0  0
 17 18  1  0  0  0  0
 17 35  1  0  0  0  0
 18 19  2  0  0  0  0
 18 36  1  0  0  0  0
 19 20  1  0  0  0  0
 19 37  1  0  0  0  0
 20 21  2  0  0  0  0
 20 38  1  0  0  0  0
 21 39  1  0  0  0  0
M  CHG  1   3   1
M  END
> <s_m_source_file>
AV-unprocessed.smi

> <i_m_source_file_index>
2990

> <i_lp_mmshare_version>
43012

> <i_f3d_flags>
0

> <s_epik_input>
W2NIXTFbY0hdW2NIXVtjSF1jKGMxMiluKGMobjIpW0NIM10pW0NIMl1bQ0BIXShbT0hdKVtDSDJdT2MzW2NIXVtjSF1bY0hdW2NIXVtjSF0z

> <s_epik_cmdline>
J2VwaWtfcHl0aG9uJywgJy1waCcsICc3LjAnLCAnLXRuJywgJzgnLCAnLW1hJywgJzIwMCcsICctbWV0YWxfYmluZGluZycsICctaW1hZScsICc8aW5maWxlLm1hZT4nLCAnLW9tYWUnLCAnPG91dGZpbGUubWFlPic=

> <r_lp_tautomer_probability>
1

> <r_epik_Ionization_Penalty>
1.00673

> <r_epik_Ionization_Penalty_Charging>
1.00673

> <r_epik_Ionization_Penalty_Neutral>
2.3993e-06

> <r_epik_State_Penalty>
1.05579

> <r_epik_Charging_Adjusted_Penalty>
2.06252

> <i_epik_Tot_Q>
1

> <i_epik_Tot_abs_Q>
1

> <r_epik_Metal_State_Penalty>
5.03947

> <b_epik_Metal_Only>
0

> <s_lp_Force_Field>
OPLS_2005

> <r_lp_Energy>
19.3411

> <b_lp_Chiralities_Consistent>
1

> <s_lp_Variant>
AV-unprocessed.smi:2990-3

> <Gold.Version>
5.8.1

> <Gold.Id.Protein>
6NUR|6NUR_protein|mol2

> <Gold.PLP.Fitness>
51.3684

> <Gold.PLP.PLP>
-46.9618

> <Gold.PLP.part.hbond>
-2.0000

> <Gold.PLP.part.metal>
0.0000

> <Gold.PLP.part.buried>
0.1197

> <Gold.PLP.part.nonpolar>
-45.0915

> <Gold.PLP.part.repulsive>
0.0636

> <Gold.PLP.ligand.clash>
0.0000

> <Gold.PLP.ligand.torsion>
1.2042

> <Gold.PLP.Chemscore.Hbond>
2.2448

> <Gold.PLP.Chemscore.CHOScore>
0.0000

> <Gold.PLP.Chemscore.Metal>
0.0000

> <Gold.Chemscore.Hbonds>
donor molecule, donor type, donor heavy atom, donor atom, acceptor molecule, acceptor atom, score
      L1  H     3    40       P1  8028  2.00
      P1  H  7997  8008       L1    15  0.18

> <Gold.PLP.Chemscore.Internal.Correction>
0.0806

> <Gold.Rescore>
     Score         DG    S(hbond)    S(metal)    S(lipo)     H(rot)  DE(clash)    DE(int)     intcor
     19.52     -20.86       1.00        0.00     149.36       2.12       0.25       1.09       ----

> <Gold.Chemscore.Fitness>
19.5210

> <Gold.Chemscore.DG>
-20.8572

> <Gold.Chemscore.ZeroCoef>
-5.4800

> <Gold.Chemscore.Hbond>
0.9957

> <Gold.Chemscore.Metal>
0.0000

> <Gold.Chemscore.Lipo>
149.3558

> <Gold.Chemscore.Internal_Hbond>
0.0000

> <Gold.Chemscore.DEClash>
0.2474

> <Gold.Chemscore.DEInternal>
1.0888

> <Gold.Chemscore.Rot>
2.1184

> <Gold.Chemscore.Internal.Correction>
   9.000000E+99

> <Gold.Chemscore.Hbonds>
donor molecule, donor type, donor heavy atom, donor atom, acceptor molecule, acceptor atom, score
      L1  H     3    40       P1  8028  0.93

> <Gold.Chemscore.Hbond.Weighted>
-3.3257

> <Gold.Chemscore.Metal.Weighted>
-0.0000

> <Gold.Chemscore.Lipo.Weighted>
-17.4746

> <Gold.Chemscore.Internal_Hbond.Weighted>
0.0000

> <Gold.Chemscore.DEClash.Weighted>
0.2474

> <Gold.Chemscore.DEInternal.Weighted>
1.0888

> <Gold.Chemscore.Rot.Weighted>
5.4231

> <Gold.Chemscore.Internal.Correction.Weighted>
   9.000000E+99

> <Gold.Protein.RotatedTorsions>
[ 6907 6896 6895 6894 ] final -145.34 input  -60.11 | X-H torsion
[ 7974 7965 7964 7962 ] final   90.06 input  175.53 | X-H torsion
[ 8008 7997 7996 7995 ] final   29.51 input   59.86 | X-H torsion
[ 10167 10162 10161 10158 ] final  -90.50 input  -65.29 | X-H torsion
[ 10718 10713 10712 10709 ] final   78.66 input   66.30 | X-H torsion
[ 10763 10752 10751 10750 ] final  -80.05 input  -60.55 | X-H torsion
[ 11005 11000 10999 10996 ] final  -62.95 input  -57.11 | X-H torsion

> <Gold.Protein.ActiveResidues>
 VAL166  LYS551  ARG553  GLY616  TRP617  ASP618  TYR619  PRO620  LYS621  CYS622 
 ASP623  PHE694  ASN695  SER759  ASP760  ASP761  ALA762  ILE779  LEU786  VAL792 
 PHE793  MET794  SER795  GLU796  ALA797  LYS798  CYS799  TRP800  GLU811  SER814 

> <Gold.Protein.RotatedAtoms>
  151.1265  133.5067  159.2600 H   0  0  0  0  0  0  0  0  0  0  0  0  # atno 6907 bound_to 6896
  151.1804  135.0358  159.8800 H   0  0  0  0  0  0  0  0  0  0  0  0  # atno 6908 bound_to 6896
  152.5458  134.1117  159.8415 H   0  0  0  0  0  0  0  0  0  0  0  0  # atno 6909 bound_to 6896
  145.5241  139.2280  143.2655 H   0  0  0  0  0  0  0  0  0  0  0  0  # atno 7974 bound_to 7965
  155.0756  140.3205  155.4617 H   0  0  0  0  0  0  0  0  0  0  0  0  # atno 8008 bound_to 7997
  156.2780  140.2104  156.5829 H   0  0  0  0  0  0  0  0  0  0  0  0  # atno 8009 bound_to 7997
  154.7020  140.0506  157.0454 H   0  0  0  0  0  0  0  0  0  0  0  0  # atno 8010 bound_to 7997
  140.3542  143.2875  151.9690 H   0  0  0  0  0  0  0  0  0  0  0  0  # atno 10167 bound_to 10162
  157.6752  130.9878  150.1818 H   0  0  0  0  0  0  0  0  0  0  0  0  # atno 10718 bound_to 10713
  154.5463  135.5674  153.6883 H   0  0  0  0  0  0  0  0  0  0  0  0  # atno 10763 bound_to 10752
  152.9977  135.6240  154.2434 H   0  0  0  0  0  0  0  0  0  0  0  0  # atno 10764 bound_to 10752
  154.2367  135.2864  155.2849 H   0  0  0  0  0  0  0  0  0  0  0  0  # atno 10765 bound_to 10752
  141.1377  133.6646  156.5606 H   0  0  0  0  0  0  0  0  0  0  0  0  # atno 11005 bound_to 11000
  146.2087  140.6054  142.9069 LP  0  0  0  0  0  0  0  0  0  0  0  0  # atno 17320 bound_to 7965
  144.7660  140.5532  143.6702 LP  0  0  0  0  0  0  0  0  0  0  0  0  # atno 17321 bound_to 7965
  139.4822  144.6049  151.7539 LP  0  0  0  0  0  0  0  0  0  0  0  0  # atno 17342 bound_to 10162
  140.5189  144.0909  150.6017 LP  0  0  0  0  0  0  0  0  0  0  0  0  # atno 17343 bound_to 10162
  156.2549  130.3704  149.8192 LP  0  0  0  0  0  0  0  0  0  0  0  0  # atno 17370 bound_to 10713
  156.5954  130.8524  151.3419 LP  0  0  0  0  0  0  0  0  0  0  0  0  # atno 17371 bound_to 10713
  140.3991  134.7372  157.4769 LP  0  0  0  0  0  0  0  0  0  0  0  0  # atno 17394 bound_to 11000
  140.0509  134.6132  155.8863 LP  0  0  0  0  0  0  0  0  0  0  0  0  # atno 17395 bound_to 11000

$$$$
