AV-unprocessed.smi:1047|AV-procd|sdf|4574|dock4
  -GOLD-   22720 3 33D 1   1.00000     0.00000
 Structure written by MMmdl.
 56 58  0  0  0  0  0  0  0  0  2 V2000
  146.4846  147.3511  159.8631 C   0  0  0  0  0  0  0  0  0  0  0  0
  145.7645  146.0685  160.3016 C   0  0  0  0  0  0  0  0  0  0  0  0
  146.6580  145.1422  161.0465 N   0  3  1  0  0  0  0  0  0  0  0  0
  145.9532  144.1222  161.8643 C   0  0  0  0  0  0  0  0  0  0  0  0
  145.4268  142.9665  160.9928 C   0  0  0  0  0  0  0  0  0  0  0  0
  146.4968  142.4108  160.2384 O   0  0  0  0  0  0  0  0  0  0  0  0
  147.0889  143.3547  159.3507 C   0  0  2  0  0  0  0  0  0  0  0  0
  148.1645  142.6248  158.5330 C   0  0  0  0  0  0  0  0  0  0  0  0
  147.5680  141.9053  157.4128 N   0  0  0  0  0  0  0  0  0  0  0  0
  148.5208  141.0790  156.6776 C   0  0  0  0  0  0  0  0  0  0  0  0
  149.6365  141.9403  156.0538 C   0  0  2  0  0  0  0  0  0  0  0  0
  149.2168  142.3631  154.7725 O   0  0  0  0  0  0  0  0  0  0  0  0
  150.9678  141.1865  155.8676 C   0  0  0  0  0  0  0  0  0  0  0  0
  151.6138  140.8624  157.1264 N   0  0  0  0  0  0  0  0  0  0  0  0
  151.9460  139.6358  157.5730 C   0  0  0  0  0  0  0  0  0  0  0  0
  152.5285  139.5590  158.7659 N   0  0  0  0  0  0  0  0  0  0  0  0
  152.5744  140.8911  159.1398 C   0  0  0  0  0  0  0  0  0  0  0  0
  153.0729  141.4964  160.3142 C   0  0  0  0  0  0  0  0  0  0  0  0
  153.0146  142.8975  160.4884 C   0  0  0  0  0  0  0  0  0  0  0  0
  153.5571  143.5059  161.7698 C   0  0  0  0  0  0  0  0  0  0  0  0
  152.4537  143.7165  159.4758 C   0  0  0  0  0  0  0  0  0  0  0  0
  152.3831  145.2244  159.6393 C   0  0  0  0  0  0  0  0  0  0  0  0
  151.9511  143.1285  158.2964 C   0  0  0  0  0  0  0  0  0  0  0  0
  152.0109  141.7326  158.1362 C   0  0  0  0  0  0  0  0  0  0  0  0
  147.6889  144.4997  160.1939 C   0  0  0  0  0  0  0  0  0  0  0  0
  145.8356  147.9564  159.2299 H   0  0  0  0  0  0  0  0  0  0  0  0
  147.3833  147.1224  159.2895 H   0  0  0  0  0  0  0  0  0  0  0  0
  146.7738  147.9702  160.7117 H   0  0  0  0  0  0  0  0  0  0  0  0
  144.8781  146.3119  160.8873 H   0  0  0  0  0  0  0  0  0  0  0  0
  145.4074  145.5677  159.4008 H   0  0  0  0  0  0  0  0  0  0  0  0
  146.6623  143.7240  162.5912 H   0  0  0  0  0  0  0  0  0  0  0  0
  145.1450  144.5661  162.4439 H   0  0  0  0  0  0  0  0  0  0  0  0
  145.0029  142.1864  161.6251 H   0  0  0  0  0  0  0  0  0  0  0  0
  144.6284  143.2973  160.3275 H   0  0  0  0  0  0  0  0  0  0  0  0
  146.3331  143.7542  158.6717 H   0  0  0  0  0  0  0  0  0  0  0  0
  148.8856  143.3487  158.1514 H   0  0  0  0  0  0  0  0  0  0  0  0
  148.7196  141.9414  159.1771 H   0  0  0  0  0  0  0  0  0  0  0  0
  146.8083  141.3236  157.7516 H   0  0  0  0  0  0  0  0  0  0  0  0
  148.9544  140.3543  157.3669 H   0  0  0  0  0  0  0  0  0  0  0  0
  148.0148  140.5013  155.9027 H   0  0  0  0  0  0  0  0  0  0  0  0
  149.8147  142.8226  156.6706 H   0  0  0  0  0  0  0  0  0  0  0  0
  149.0950  143.2998  154.7907 H   0  0  0  0  0  0  0  0  0  0  0  0
  150.8058  140.2630  155.3103 H   0  0  0  0  0  0  0  0  0  0  0  0
  151.6617  141.7864  155.2771 H   0  0  0  0  0  0  0  0  0  0  0  0
  151.7495  138.7492  156.9877 H   0  0  0  0  0  0  0  0  0  0  0  0
  153.5001  140.8720  161.0851 H   0  0  0  0  0  0  0  0  0  0  0  0
  152.7674  144.0324  162.3067 H   0  0  0  0  0  0  0  0  0  0  0  0
  154.3577  144.2124  161.5491 H   0  0  0  0  0  0  0  0  0  0  0  0
  153.9604  142.7412  162.4343 H   0  0  0  0  0  0  0  0  0  0  0  0
  151.9242  145.6977  158.7708 H   0  0  0  0  0  0  0  0  0  0  0  0
  153.3828  145.6427  159.7588 H   0  0  0  0  0  0  0  0  0  0  0  0
  151.7904  145.4866  160.5157 H   0  0  0  0  0  0  0  0  0  0  0  0
  151.5213  143.7419  157.5184 H   0  0  0  0  0  0  0  0  0  0  0  0
  148.1710  145.2420  159.5563 H   0  0  0  0  0  0  0  0  0  0  0  0
  148.4703  144.1026  160.8434 H   0  0  0  0  0  0  0  0  0  0  0  0
  147.1639  145.7303  161.6936 H   0  0  0  0  0  0  0  0  0  0  0  0
  1  2  1  0  0  0  0
  1 26  1  0  0  0  0
  1 27  1  0  0  0  0
  1 28  1  0  0  0  0
  2  3  1  0  0  0  0
  2 29  1  0  0  0  0
  2 30  1  0  0  0  0
  3 25  1  0  0  0  0
  3  4  1  0  0  0  0
  3 56  1  0  0  0  0
  4  5  1  0  0  0  0
  4 31  1  0  0  0  0
  4 32  1  0  0  0  0
  5  6  1  0  0  0  0
  5 33  1  0  0  0  0
  5 34  1  0  0  0  0
  6  7  1  0  0  0  0
  7  8  1  0  0  0  0
  7 25  1  0  0  0  0
  7 35  1  0  0  0  0
  8  9  1  0  0  0  0
  8 36  1  0  0  0  0
  8 37  1  0  0  0  0
  9 10  1  0  0  0  0
  9 38  1  0  0  0  0
 10 11  1  0  0  0  0
 10 39  1  0  0  0  0
 10 40  1  0  0  0  0
 11 12  1  0  0  0  0
 11 13  1  0  0  0  0
 11 41  1  0  0  0  0
 12 42  1  0  0  0  0
 13 14  1  0  0  0  0
 13 43  1  0  0  0  0
 13 44  1  0  0  0  0
 14 24  1  0  0  0  0
 14 15  1  0  0  0  0
 15 16  2  0  0  0  0
 15 45  1  0  0  0  0
 16 17  1  0  0  0  0
 17 24  2  0  0  0  0
 17 18  1  0  0  0  0
 18 19  2  0  0  0  0
 18 46  1  0  0  0  0
 19 20  1  0  0  0  0
 19 21  1  0  0  0  0
 20 47  1  0  0  0  0
 20 48  1  0  0  0  0
 20 49  1  0  0  0  0
 21 22  1  0  0  0  0
 21 23  2  0  0  0  0
 22 50  1  0  0  0  0
 22 51  1  0  0  0  0
 22 52  1  0  0  0  0
 23 24  1  0  0  0  0
 23 53  1  0  0  0  0
 25 54  1  0  0  0  0
 25 55  1  0  0  0  0
M  CHG  1   3   1
M  END
> <s_m_source_file>
AV-unprocessed.smi

> <i_m_source_file_index>
1047

> <i_lp_mmshare_version>
43012

> <i_f3d_flags>
0

> <s_epik_input>
W0NIM11bQ0gyXU4xW0NIMl1bQ0gyXU9bQ0BIXShbQ0gyXTEpW0NIMl1bTkhdW0NIMl1bQ0BIXShbT0hdKVtDSDJdbihbY0hdbjIpYyhjMjMpW2NIXWMoW0NIM10pYyhbY0hdMylbQ0gzXQ==

> <s_epik_cmdline>
J2VwaWtfcHl0aG9uJywgJy1waCcsICc3LjAnLCAnLXRuJywgJzgnLCAnLW1hJywgJzIwMCcsICctbWV0YWxfYmluZGluZycsICctaW1hZScsICc8aW5maWxlLm1hZT4nLCAnLW9tYWUnLCAnPG91dGZpbGUubWFlPic=

> <r_epik_Ionization_Penalty>
1.19246

> <r_epik_Ionization_Penalty_Charging>
0.210041

> <r_epik_Ionization_Penalty_Neutral>
0.982415

> <r_epik_State_Penalty>
1.57595

> <r_epik_Charging_Adjusted_Penalty>
1.78599

> <i_epik_Tot_Q>
1

> <i_epik_Tot_abs_Q>
1

> <r_epik_Metal_State_Penalty>
1.46172

> <b_epik_Metal_Only>
0

> <s_lp_Force_Field>
OPLS_2005

> <r_lp_Energy>
32.9743

> <b_lp_Chiralities_Consistent>
1

> <s_lp_Variant>
AV-unprocessed.smi:1047-15

> <Gold.Version>
5.8.1

> <Gold.Id.Protein>
6NUR|6NUR_protein|mol2

> <Gold.PLP.Fitness>
53.4592

> <Gold.PLP.PLP>
-48.8444

> <Gold.PLP.part.hbond>
-3.0000

> <Gold.PLP.part.metal>
0.0000

> <Gold.PLP.part.buried>
-6.1964

> <Gold.PLP.part.nonpolar>
-38.7564

> <Gold.PLP.part.repulsive>
0.0678

> <Gold.PLP.ligand.clash>
0.0000

> <Gold.PLP.ligand.torsion>
0.7101

> <Gold.PLP.Chemscore.Hbond>
1.9950

> <Gold.PLP.Chemscore.CHOScore>
0.0000

> <Gold.PLP.Chemscore.Metal>
0.0000

> <Gold.Chemscore.Hbonds>
donor molecule, donor type, donor heavy atom, donor atom, acceptor molecule, acceptor atom, score
      L1  H    12    42       P1  8028  1.00
      P1  H  6933  6944       L1     6  0.09
      P1  H  6934  6946       L1     6  1.00

> <Gold.PLP.Chemscore.Internal.Correction>
0.0498

> <Gold.Rescore>
     Score         DG    S(hbond)    S(metal)    S(lipo)     H(rot)  DE(clash)    DE(int)     intcor
     17.75     -18.85       1.95        0.00     115.88       2.62       0.13       0.98       ----

> <Gold.Chemscore.Fitness>
17.7464

> <Gold.Chemscore.DG>
-18.8546

> <Gold.Chemscore.ZeroCoef>
-5.4800

> <Gold.Chemscore.Hbond>
1.9538

> <Gold.Chemscore.Metal>
0.0000

> <Gold.Chemscore.Lipo>
115.8836

> <Gold.Chemscore.Internal_Hbond>
0.0000

> <Gold.Chemscore.DEClash>
0.1255

> <Gold.Chemscore.DEInternal>
0.9827

> <Gold.Chemscore.Rot>
2.6209

> <Gold.Chemscore.Internal.Correction>
   9.000000E+99

> <Gold.Chemscore.Hbonds>
donor molecule, donor type, donor heavy atom, donor atom, acceptor molecule, acceptor atom, score
      L1  H    12    42       P1  8028  0.96
      P1  H  6934  6946       L1     6  0.85

> <Gold.Chemscore.Hbond.Weighted>
-6.5258

> <Gold.Chemscore.Metal.Weighted>
-0.0000

> <Gold.Chemscore.Lipo.Weighted>
-13.5584

> <Gold.Chemscore.Internal_Hbond.Weighted>
0.0000

> <Gold.Chemscore.DEClash.Weighted>
0.1255

> <Gold.Chemscore.DEInternal.Weighted>
0.9827

> <Gold.Chemscore.Rot.Weighted>
6.7096

> <Gold.Chemscore.Internal.Correction.Weighted>
   9.000000E+99

> <Gold.Protein.RotatedTorsions>
[ 6907 6896 6895 6894 ] final    9.80 input  -60.11 | X-H torsion
[ 7974 7965 7964 7962 ] final    0.66 input  175.53 | X-H torsion
[ 8008 7997 7996 7995 ] final   21.96 input   59.86 | X-H torsion
[ 10167 10162 10161 10158 ] final -116.61 input  -65.29 | X-H torsion
[ 10718 10713 10712 10709 ] final  -95.10 input   66.30 | X-H torsion
[ 10763 10752 10751 10750 ] final   45.42 input  -60.55 | X-H torsion
[ 11005 11000 10999 10996 ] final  -43.17 input  -57.11 | X-H torsion

> <Gold.Protein.ActiveResidues>
 VAL166  LYS551  ARG553  GLY616  TRP617  ASP618  TYR619  PRO620  LYS621  CYS622 
 ASP623  PHE694  ASN695  SER759  ASP760  ASP761  ALA762  ILE779  LEU786  VAL792 
 PHE793  MET794  SER795  GLU796  ALA797  LYS798  CYS799  TRP800  GLU811  SER814 

> <Gold.Protein.RotatedAtoms>
  151.7280  135.0881  160.0295 H   0  0  0  0  0  0  0  0  0  0  0  0  # atno 6907 bound_to 6896
  152.3559  133.6233  159.5988 H   0  0  0  0  0  0  0  0  0  0  0  0  # atno 6908 bound_to 6896
  150.7571  133.9416  159.3499 H   0  0  0  0  0  0  0  0  0  0  0  0  # atno 6909 bound_to 6896
  146.2436  140.1104  142.8344 H   0  0  0  0  0  0  0  0  0  0  0  0  # atno 7974 bound_to 7965
  154.9585  140.3075  155.5042 H   0  0  0  0  0  0  0  0  0  0  0  0  # atno 8008 bound_to 7997
  156.2979  140.2306  156.4606 H   0  0  0  0  0  0  0  0  0  0  0  0  # atno 8009 bound_to 7997
  154.7988  140.0435  157.1245 H   0  0  0  0  0  0  0  0  0  0  0  0  # atno 8010 bound_to 7997
  140.0773  143.4821  152.1946 H   0  0  0  0  0  0  0  0  0  0  0  0  # atno 10167 bound_to 10162
  156.0037  130.5095  150.6026 H   0  0  0  0  0  0  0  0  0  0  0  0  # atno 10718 bound_to 10713
  152.9825  135.6040  154.3434 H   0  0  0  0  0  0  0  0  0  0  0  0  # atno 10763 bound_to 10752
  154.3129  135.2771  155.2559 H   0  0  0  0  0  0  0  0  0  0  0  0  # atno 10764 bound_to 10752
  154.4760  135.5929  153.6411 H   0  0  0  0  0  0  0  0  0  0  0  0  # atno 10765 bound_to 10752
  141.0365  133.6797  156.2695 H   0  0  0  0  0  0  0  0  0  0  0  0  # atno 11005 bound_to 11000
  145.0492  140.9004  143.5006 LP  0  0  0  0  0  0  0  0  0  0  0  0  # atno 17320 bound_to 7965
  145.1199  139.2700  143.5594 LP  0  0  0  0  0  0  0  0  0  0  0  0  # atno 17321 bound_to 7965
  139.5800  144.7506  151.3664 LP  0  0  0  0  0  0  0  0  0  0  0  0  # atno 17342 bound_to 10162
  140.7095  143.7426  150.7542 LP  0  0  0  0  0  0  0  0  0  0  0  0  # atno 17343 bound_to 10162
  157.3872  131.0790  151.1425 LP  0  0  0  0  0  0  0  0  0  0  0  0  # atno 17370 bound_to 10713
  157.2129  130.6446  149.5781 LP  0  0  0  0  0  0  0  0  0  0  0  0  # atno 17371 bound_to 10713
  140.6312  134.5262  157.5559 LP  0  0  0  0  0  0  0  0  0  0  0  0  # atno 17394 bound_to 11000
  139.9245  134.8084  156.1111 LP  0  0  0  0  0  0  0  0  0  0  0  0  # atno 17395 bound_to 11000

$$$$
