#       Name:                AV-unprocessed.smi:840
#       Creating user name   scv26
#       Creation time:       Fri Mar 27 01:37:44 2020


#       File generated by GOLD software.
#

@<TRIPOS>MOLECULE
AV-unprocessed.smi:840
    42    43     1
SMALL
NO_CHARGES


@<TRIPOS>ATOM
      1 ****        -1.1049  -2.1139  -2.7909 C.3            1 S1                 0.0000
      2 ****        -0.5298  -1.5227  -1.4927 C.3            1 S1                 0.0000
      3 ****         0.9094  -1.7818  -1.4738 N.am           1 S1                 0.0000
      4 ****         1.6994  -1.7576  -0.3893 C.2            1 S1                 0.0000
      5 ****         1.2156  -1.5103   0.7182 O.2            1 S1                 0.0000
      6 ****         2.9993  -2.0203  -0.6551 N.pl3          1 S1                -1.0000
      7 ****         3.8995  -2.0325   0.3413 C.2            1 S1                 0.0000
      8 ****         4.3644  -3.1613   0.8885 N.2            1 S1                 0.0000
      9 ****         5.2965  -2.9434   1.9045 C.2            1 S1                 0.0000
     10 ****         5.5540  -1.6175   2.1308 C.2            1 S1                 0.0000
     11 ****         4.6289  -0.5968   1.0666 S.3            1 S1                 0.0000
     12 ****        -0.7985  -0.0096  -1.4898 C.2            1 S1                 0.0000
     13 ****        -0.2162   0.7336  -2.2817 O.2            1 S1                 0.0000
     14 ****        -1.6956   0.4296  -0.5945 N.am           1 S1                 0.0000
     15 ****        -2.0894   1.8241  -0.4156 C.3            1 S1                 0.0000
     16 ****        -1.0502   2.6047   0.4151 C.3            1 S1                 0.0000
     17 ****        -1.7113   2.8843   1.7651 C.3            1 S1                 0.0000
     18 ****        -3.1983   2.9819   1.4404 C.3            1 S1                 0.0000
     19 ****        -3.4183   1.9244   0.3575 C.3            1 S1                 0.0000
     20 ****        -2.1814  -1.9518  -2.8566 H              1 S1                 0.0000
     21 ****        -0.9361  -3.1903  -2.8348 H              1 S1                 0.0000
     22 ****        -0.6466  -1.6735  -3.6778 H              1 S1                 0.0000
     23 ****        -1.0074  -1.9987  -0.6339 H              1 S1                 0.0000
     24 ****         1.3473  -1.9826  -2.3606 H              1 S1                 0.0000
     25 ****         5.7273  -3.7925   2.4139 H              1 S1                 0.0000
     26 ****         6.2280  -1.1809   2.8520 H              1 S1                 0.0000
     27 ****        -2.1211  -0.2495   0.0197 H              1 S1                 0.0000
     28 ****        -2.2030   2.2982  -1.3923 H              1 S1                 0.0000
     29 ****        -0.1001   2.0804   0.5295 H              1 S1                 0.0000
     30 ****        -0.8330   3.5508  -0.0822 H              1 S1                 0.0000
     31 ****        -1.5366   2.0456   2.4402 H              1 S1                 0.0000
     32 ****        -1.3245   3.7845   2.2436 H              1 S1                 0.0000
     33 ****        -3.8311   2.8261   2.3145 H              1 S1                 0.0000
     34 ****        -3.4209   3.9712   1.0385 H              1 S1                 0.0000
     35 ****        -4.2558   2.1763  -0.2938 H              1 S1                 0.0000
     36 ****        -3.6581   0.9734   0.8360 H              1 S1                 0.0000
     37 ****         0.2363  -1.3283   0.8067 LP             1 S1                 0.0000
     38 ****         1.8027  -1.4919   1.5275 LP             1 S1                 0.0000
     39 ****         3.2900  -2.2055  -1.5938 LP             1 S1                 0.0000
     40 ****         4.0725  -4.0726   0.5979 LP             1 S1                 0.0000
     41 ****         0.4387   0.3535  -2.9349 LP             1 S1                 0.0000
     42 ****        -0.3986   1.7167  -2.2712 LP             1 S1                 0.0000
@<TRIPOS>BOND
    1    1    2 1     
    2    1   20 1     
    3    1   21 1     
    4    1   22 1     
    5    2    3 1     
    6    2   12 1     
    7    2   23 1     
    8    3    4 am    
    9    3   24 1     
   10    4    5 2     
   11    4    6 1     
   12    6    7 1     
   13    7   11 1     
   14    7    8 2     
   15    8    9 1     
   16    9   10 2     
   17    9   25 1     
   18   10   11 1     
   19   10   26 1     
   20   12   13 2     
   21   12   14 am    
   22   14   15 1     
   23   14   27 1     
   24   15   19 1     
   25   15   16 1     
   26   15   28 1     
   27   16   17 1     
   28   16   29 1     
   29   16   30 1     
   30   17   18 1     
   31   17   31 1     
   32   17   32 1     
   33   18   19 1     
   34   18   33 1     
   35   18   34 1     
   36   19   35 1     
   37   19   36 1     
   38    5   37 1     
   39    5   38 1     
   40    6   39 1     
   41    8   40 1     
   42   13   41 1     
   43   13   42 1     
@<TRIPOS>SUBSTRUCTURE
      1 S1             1
@<TRIPOS>SET
LONE_PAIRS      STATIC     ATOMS    <user>   **** ""
6 37 38 39 40 41 42
DONOR_HYDROGENS      STATIC     ATOMS    <user>   **** ""
2 24 27
ATOM$BLUE        STATIC     ATOMS    COLORGROUP SYSTEM
6 37 38 39 40 41 42
ATOM$RED        STATIC     ATOMS    COLORGROUP SYSTEM
2 24 27
