AV-unprocessed.smi:722|AV-procd|sdf|3504|dock1
  -GOLD-   22720 0503D 1   1.00000     0.00000
 Structure written by MMmdl.
 38 39  0  0  0  0  0  0  0  0  1 V2000
  150.2238  135.3443  155.4622 C   0  0  0  0  0  0  0  0  0  0  0  0
  151.1012  136.4264  156.0032 C   0  0  0  0  0  0  0  0  0  0  0  0
  152.3670  136.2298  156.3795 N   0  0  0  0  0  0  0  0  0  0  0  0
  152.8132  137.4575  156.8169 N   0  0  0  0  0  0  0  0  0  0  0  0
  151.7790  138.2875  156.6647 C   0  0  0  0  0  0  0  0  0  0  0  0
  151.8313  139.9922  157.0998 S   0  0  0  0  0  0  0  0  0  0  0  0
  152.1288  139.7644  158.8733 C   0  0  0  0  0  0  0  0  0  0  0  0
  152.9109  140.9426  159.4679 C   0  0  0  0  0  0  0  0  0  0  0  0
  152.0594  142.2143  159.6241 C   0  0  0  0  0  0  0  0  0  0  0  0
  151.4893  142.7614  158.3104 C   0  0  0  0  0  0  0  0  0  0  0  0
  151.1808  144.2390  158.5826 C   0  0  0  0  0  0  0  0  0  0  0  0
  151.9935  144.6301  159.8261 C   0  0  0  0  0  0  0  0  0  0  0  0
  152.8405  143.4054  160.1830 C   0  0  0  0  0  0  0  0  0  0  0  0
  150.6773  137.6979  156.1565 N   0  0  0  0  0  0  0  0  0  0  0  0
  149.3728  138.2799  155.8665 C   0  0  0  0  0  0  0  0  0  0  0  0
  149.4476  139.2504  154.6851 C   0  0  0  0  0  0  0  0  0  0  0  0
  148.9341  138.8376  153.5235 N   0  0  0  0  0  0  0  0  0  0  0  0
  149.9690  140.3557  154.8162 O   0  0  0  0  0  0  0  0  0  0  0  0
  150.7373  134.3831  155.4980 H   0  0  0  0  0  0  0  0  0  0  0  0
  149.9606  135.5574  154.4260 H   0  0  0  0  0  0  0  0  0  0  0  0
  149.3096  135.2682  156.0511 H   0  0  0  0  0  0  0  0  0  0  0  0
  151.1666  139.6600  159.3745 H   0  0  0  0  0  0  0  0  0  0  0  0
  152.6705  138.8302  159.0243 H   0  0  0  0  0  0  0  0  0  0  0  0
  153.3006  140.6513  160.4439 H   0  0  0  0  0  0  0  0  0  0  0  0
  153.7795  141.1568  158.8438 H   0  0  0  0  0  0  0  0  0  0  0  0
  151.2298  142.0077  160.3026 H   0  0  0  0  0  0  0  0  0  0  0  0
  152.2391  142.6891  157.5213 H   0  0  0  0  0  0  0  0  0  0  0  0
  150.6085  142.2120  157.9764 H   0  0  0  0  0  0  0  0  0  0  0  0
  151.4380  144.8569  157.7215 H   0  0  0  0  0  0  0  0  0  0  0  0
  150.1162  144.3772  158.7761 H   0  0  0  0  0  0  0  0  0  0  0  0
  152.6115  145.5118  159.6541 H   0  0  0  0  0  0  0  0  0  0  0  0
  151.3147  144.8626  160.6474 H   0  0  0  0  0  0  0  0  0  0  0  0
  153.0208  143.3220  161.2552 H   0  0  0  0  0  0  0  0  0  0  0  0
  153.8108  143.4785  159.6894 H   0  0  0  0  0  0  0  0  0  0  0  0
  148.6610  137.4776  155.6675 H   0  0  0  0  0  0  0  0  0  0  0  0
  149.0053  138.8086  156.7460 H   0  0  0  0  0  0  0  0  0  0  0  0
  148.9568  139.4445  152.7165 H   0  0  0  0  0  0  0  0  0  0  0  0
  148.5204  137.9188  153.4573 H   0  0  0  0  0  0  0  0  0  0  0  0
  1  2  1  0  0  0  0
  1 19  1  0  0  0  0
  1 20  1  0  0  0  0
  1 21  1  0  0  0  0
  2 14  1  0  0  0  0
  2  3  2  0  0  0  0
  3  4  1  0  0  0  0
  4  5  2  0  0  0  0
  5  6  1  0  0  0  0
  5 14  1  0  0  0  0
  6  7  1  0  0  0  0
  7  8  1  0  0  0  0
  7 22  1  0  0  0  0
  7 23  1  0  0  0  0
  8  9  1  0  0  0  0
  8 24  1  0  0  0  0
  8 25  1  0  0  0  0
  9 13  1  0  0  0  0
  9 10  1  0  0  0  0
  9 26  1  0  0  0  0
 10 11  1  0  0  0  0
 10 27  1  0  0  0  0
 10 28  1  0  0  0  0
 11 12  1  0  0  0  0
 11 29  1  0  0  0  0
 11 30  1  0  0  0  0
 12 13  1  0  0  0  0
 12 31  1  0  0  0  0
 12 32  1  0  0  0  0
 13 33  1  0  0  0  0
 13 34  1  0  0  0  0
 14 15  1  0  0  0  0
 15 16  1  0  0  0  0
 15 35  1  0  0  0  0
 15 36  1  0  0  0  0
 16 17  1  0  0  0  0
 16 18  2  0  0  0  0
 17 37  1  0  0  0  0
 17 38  1  0  0  0  0
M  END
> <s_m_source_file>
AV-unprocessed.smi

> <i_m_source_file_index>
722

> <i_lp_mmshare_version>
43012

> <i_f3d_flags>
0

> <s_epik_input>
W0NIM11jMW5uYyhuMVtDSDJdQyg9TylbTkgyXSlTW0NIMl1bQ0gyXVtDSF0yW0NIMl1bQ0gyXVtDSDJdW0NIMl0y

> <s_epik_cmdline>
J2VwaWtfcHl0aG9uJywgJy1waCcsICc3LjAnLCAnLXRuJywgJzgnLCAnLW1hJywgJzIwMCcsICctbWV0YWxfYmluZGluZycsICctaW1hZScsICc8aW5maWxlLm1hZT4nLCAnLW9tYWUnLCAnPG91dGZpbGUubWFlPic=

> <r_lp_tautomer_probability>
1

> <r_epik_Ionization_Penalty>
8.38536e-06

> <r_epik_Ionization_Penalty_Charging>
0

> <r_epik_Ionization_Penalty_Neutral>
8.38536e-06

> <r_epik_State_Penalty>
-0

> <r_epik_Charging_Adjusted_Penalty>
0

> <i_epik_Tot_Q>
0

> <i_epik_Tot_abs_Q>
0

> <r_epik_Metal_State_Penalty>
-0

> <b_epik_Metal_Only>
0

> <s_lp_Force_Field>
OPLS_2005

> <r_lp_Energy>
19.4661

> <b_lp_Chiralities_Consistent>
1

> <s_lp_Variant>
AV-unprocessed.smi:722-1

> <Gold.Version>
5.8.1

> <Gold.Id.Protein>
6NUR|6NUR_protein|mol2

> <Gold.PLP.Fitness>
44.9851

> <Gold.PLP.PLP>
-35.1878

> <Gold.PLP.part.hbond>
-4.0607

> <Gold.PLP.part.metal>
0.0000

> <Gold.PLP.part.buried>
-5.8432

> <Gold.PLP.part.nonpolar>
-26.7719

> <Gold.PLP.part.repulsive>
0.1896

> <Gold.PLP.ligand.clash>
0.0000

> <Gold.PLP.ligand.torsion>
0.4701

> <Gold.PLP.Chemscore.Hbond>
3.5440

> <Gold.PLP.Chemscore.CHOScore>
0.0000

> <Gold.PLP.Chemscore.Metal>
0.0000

> <Gold.Chemscore.Hbonds>
donor molecule, donor type, donor heavy atom, donor atom, acceptor molecule, acceptor atom, score
      L1  H    17    37       P1  7957  1.00
      L1  H    17    38       P1  7948  0.11
      P1  H  7989  7998       L1    18  0.62
      P1  H 10752 10765       L1     3  1.00

> <Gold.PLP.Chemscore.Internal.Correction>
0.1056

> <Gold.Rescore>
     Score         DG    S(hbond)    S(metal)    S(lipo)     H(rot)  DE(clash)    DE(int)     intcor
     14.96     -16.68       2.33        0.00      87.35       2.66       0.10       1.61       ----

> <Gold.Chemscore.Fitness>
14.9645

> <Gold.Chemscore.DG>
-16.6756

> <Gold.Chemscore.ZeroCoef>
-5.4800

> <Gold.Chemscore.Hbond>
2.3297

> <Gold.Chemscore.Metal>
0.0000

> <Gold.Chemscore.Lipo>
87.3458

> <Gold.Chemscore.Internal_Hbond>
0.0000

> <Gold.Chemscore.DEClash>
0.1049

> <Gold.Chemscore.DEInternal>
1.6062

> <Gold.Chemscore.Rot>
2.6583

> <Gold.Chemscore.Internal.Correction>
   9.000000E+99

> <Gold.Chemscore.Hbonds>
donor molecule, donor type, donor heavy atom, donor atom, acceptor molecule, acceptor atom, score
      L1  H    17    37       P1  7957  0.98
      L1  H    17    38       P1  7948  0.11
      P1  H  7989  7998       L1    18  0.56
      P1  H 10752 10765       L1     3  0.32

> <Gold.Chemscore.Hbond.Weighted>
-7.7813

> <Gold.Chemscore.Metal.Weighted>
-0.0000

> <Gold.Chemscore.Lipo.Weighted>
-10.2195

> <Gold.Chemscore.Internal_Hbond.Weighted>
0.0000

> <Gold.Chemscore.DEClash.Weighted>
0.1049

> <Gold.Chemscore.DEInternal.Weighted>
1.6062

> <Gold.Chemscore.Rot.Weighted>
6.8052

> <Gold.Chemscore.Internal.Correction.Weighted>
   9.000000E+99

> <Gold.Protein.RotatedTorsions>
[ 6907 6896 6895 6894 ] final   14.13 input  -60.11 | X-H torsion
[ 7974 7965 7964 7962 ] final   59.30 input  175.53 | X-H torsion
[ 8008 7997 7996 7995 ] final   67.47 input   59.86 | X-H torsion
[ 10167 10162 10161 10158 ] final  174.85 input  -65.29 | X-H torsion
[ 10718 10713 10712 10709 ] final -159.40 input   66.30 | X-H torsion
[ 10763 10752 10751 10750 ] final -160.24 input  -60.55 | X-H torsion
[ 11005 11000 10999 10996 ] final   -6.34 input  -57.11 | X-H torsion

> <Gold.Protein.ActiveResidues>
 VAL166  LYS551  ARG553  GLY616  TRP617  ASP618  TYR619  PRO620  LYS621  CYS622 
 ASP623  PHE694  ASN695  SER759  ASP760  ASP761  ALA762  ILE779  LEU786  VAL792 
 PHE793  MET794  SER795  GLU796  ALA797  LYS798  CYS799  TRP800  GLU811  SER814 

> <Gold.Protein.RotatedAtoms>
  151.7974  135.0718  160.0395 H   0  0  0  0  0  0  0  0  0  0  0  0  # atno 6907 bound_to 6896
  152.3113  133.5751  159.5691 H   0  0  0  0  0  0  0  0  0  0  0  0  # atno 6908 bound_to 6896
  150.7321  134.0064  159.3697 H   0  0  0  0  0  0  0  0  0  0  0  0  # atno 6909 bound_to 6896
  145.9087  139.3637  143.0549 H   0  0  0  0  0  0  0  0  0  0  0  0  # atno 7974 bound_to 7965
  155.6935  140.3496  155.4903 H   0  0  0  0  0  0  0  0  0  0  0  0  # atno 8008 bound_to 7997
  155.9504  140.1118  157.1004 H   0  0  0  0  0  0  0  0  0  0  0  0  # atno 8009 bound_to 7997
  154.4120  140.1195  156.5031 H   0  0  0  0  0  0  0  0  0  0  0  0  # atno 8010 bound_to 7997
  139.5156  144.3099  152.0301 H   0  0  0  0  0  0  0  0  0  0  0  0  # atno 10167 bound_to 10162
  156.5676  130.8674  151.2828 H   0  0  0  0  0  0  0  0  0  0  0  0  # atno 10718 bound_to 10713
  154.7407  135.3068  154.8734 H   0  0  0  0  0  0  0  0  0  0  0  0  # atno 10763 bound_to 10752
  153.9549  135.6759  153.4748 H   0  0  0  0  0  0  0  0  0  0  0  0  # atno 10764 bound_to 10752
  153.1006  135.4914  154.8784 H   0  0  0  0  0  0  0  0  0  0  0  0  # atno 10765 bound_to 10752
  140.7009  133.8990  155.8683 H   0  0  0  0  0  0  0  0  0  0  0  0  # atno 11005 bound_to 11000
  145.8700  140.9426  143.0656 LP  0  0  0  0  0  0  0  0  0  0  0  0  # atno 17320 bound_to 7965
  144.6741  140.0642  143.7475 LP  0  0  0  0  0  0  0  0  0  0  0  0  # atno 17321 bound_to 7965
  140.2544  144.4134  150.6209 LP  0  0  0  0  0  0  0  0  0  0  0  0  # atno 17342 bound_to 10162
  140.6202  143.2175  151.6710 LP  0  0  0  0  0  0  0  0  0  0  0  0  # atno 17343 bound_to 10162
  157.7355  130.9763  150.2085 LP  0  0  0  0  0  0  0  0  0  0  0  0  # atno 17370 bound_to 10713
  156.2743  130.3725  149.8000 LP  0  0  0  0  0  0  0  0  0  0  0  0  # atno 17371 bound_to 10713
  141.0164  134.0949  157.4167 LP  0  0  0  0  0  0  0  0  0  0  0  0  # atno 17394 bound_to 11000
  139.8897  135.0107  156.6694 LP  0  0  0  0  0  0  0  0  0  0  0  0  # atno 17395 bound_to 11000

$$$$
