AV-unprocessed.smi:2485|AV-procd|sdf|9789|dock3
  -GOLD-   2272013423D 1   1.00000     0.00000
 Structure written by MMmdl.
 39 40  0  0  0  0  0  0  0  0  1 V2000
  144.1123  132.9415  149.6451 C   0  0  0  0  0  0  0  0  0  0  0  0
  144.9654  133.0115  150.9232 C   0  0  0  0  0  0  0  0  0  0  0  0
  145.4957  131.6224  151.3094 C   0  0  0  0  0  0  0  0  0  0  0  0
  146.0879  134.0494  150.8072 C   0  0  0  0  0  0  0  0  0  0  0  0
  145.4365  135.3199  151.3163 C   0  0  2  0  0  0  0  0  0  0  0  0
  146.4307  136.2732  151.8048 N   0  0  0  0  0  0  0  0  0  0  0  0
  146.1541  137.4214  152.4386 C   0  0  0  0  0  0  0  0  0  0  0  0
  145.0097  137.8182  152.6590 O   0  0  0  0  0  0  0  0  0  0  0  0
  147.2809  138.0617  152.7950 N   0  0  0  0  0  0  0  0  0  0  0  0
  147.4051  139.2869  153.5013 C   0  0  0  0  0  0  0  0  0  0  0  0
  148.7263  139.7483  153.6822 C   0  0  0  0  0  0  0  0  0  0  0  0
  148.9222  140.9546  154.3763 C   0  0  0  0  0  0  0  0  0  0  0  0
  147.7770  141.6209  154.8444 C   0  0  0  0  0  0  0  0  0  0  0  0
  146.5295  141.1421  154.6484 N   0  0  0  0  0  0  0  0  0  0  0  0
  146.3506  139.9932  153.9869 N   0  0  0  0  0  0  0  0  0  0  0  0
  144.4846  134.7897  152.4115 C   0  0  0  0  0  0  0  0  0  0  0  0
  145.1422  134.6158  153.7969 C   0  0  0  0  0  0  0  0  0  0  0  0
  143.1991  135.6248  152.5220 C   0  0  0  0  0  0  0  0  0  0  0  0
  144.1198  133.4819  151.9718 O   0  0  0  0  0  0  0  0  0  0  0  0
  144.7033  132.6030  148.7936 H   0  0  0  0  0  0  0  0  0  0  0  0
  143.6916  133.9146  149.3907 H   0  0  0  0  0  0  0  0  0  0  0  0
  143.2792  132.2487  149.7666 H   0  0  0  0  0  0  0  0  0  0  0  0
  146.1661  131.2292  150.5446 H   0  0  0  0  0  0  0  0  0  0  0  0
  144.6796  130.9103  151.4351 H   0  0  0  0  0  0  0  0  0  0  0  0
  146.0467  131.6566  152.2498 H   0  0  0  0  0  0  0  0  0  0  0  0
  146.9246  133.7754  151.4522 H   0  0  0  0  0  0  0  0  0  0  0  0
  146.4773  134.1487  149.7934 H   0  0  0  0  0  0  0  0  0  0  0  0
  144.8616  135.7563  150.4970 H   0  0  0  0  0  0  0  0  0  0  0  0
  147.3997  136.0275  151.6652 H   0  0  0  0  0  0  0  0  0  0  0  0
  148.1498  137.6163  152.5409 H   0  0  0  0  0  0  0  0  0  0  0  0
  149.5710  139.1931  153.3006 H   0  0  0  0  0  0  0  0  0  0  0  0
  149.9117  141.3531  154.5439 H   0  0  0  0  0  0  0  0  0  0  0  0
  147.8611  142.5520  155.3850 H   0  0  0  0  0  0  0  0  0  0  0  0
  145.4131  135.5760  154.2367 H   0  0  0  0  0  0  0  0  0  0  0  0
  146.0450  134.0075  153.7405 H   0  0  0  0  0  0  0  0  0  0  0  0
  144.4615  134.1226  154.4915 H   0  0  0  0  0  0  0  0  0  0  0  0
  143.4133  136.6389  152.8595 H   0  0  0  0  0  0  0  0  0  0  0  0
  142.5007  135.1815  153.2323 H   0  0  0  0  0  0  0  0  0  0  0  0
  142.6884  135.6949  151.5613 H   0  0  0  0  0  0  0  0  0  0  0  0
  1  2  1  0  0  0  0
  1 20  1  0  0  0  0
  1 21  1  0  0  0  0
  1 22  1  0  0  0  0
  2 19  1  0  0  0  0
  2  3  1  0  0  0  0
  2  4  1  0  0  0  0
  3 23  1  0  0  0  0
  3 24  1  0  0  0  0
  3 25  1  0  0  0  0
  4  5  1  0  0  0  0
  4 26  1  0  0  0  0
  4 27  1  0  0  0  0
  5  6  1  0  0  0  0
  5 16  1  0  0  0  0
  5 28  1  0  0  0  0
  6  7  1  0  0  0  0
  6 29  1  0  0  0  0
  7  8  2  0  0  0  0
  7  9  1  0  0  0  0
  9 10  1  0  0  0  0
  9 30  1  0  0  0  0
 10 15  1  0  0  0  0
 10 11  2  0  0  0  0
 11 12  1  0  0  0  0
 11 31  1  0  0  0  0
 12 13  2  0  0  0  0
 12 32  1  0  0  0  0
 13 14  1  0  0  0  0
 13 33  1  0  0  0  0
 14 15  2  0  0  0  0
 16 17  1  0  0  0  0
 16 18  1  0  0  0  0
 16 19  1  0  0  0  0
 17 34  1  0  0  0  0
 17 35  1  0  0  0  0
 17 36  1  0  0  0  0
 18 37  1  0  0  0  0
 18 38  1  0  0  0  0
 18 39  1  0  0  0  0
M  END
> <s_m_source_file>
AV-unprocessed.smi

> <i_m_source_file_index>
2485

> <i_lp_mmshare_version>
43012

> <i_f3d_flags>
0

> <s_epik_input>
W0NIM11DMShbQ0gzXSlbQ0gyXVtDQEhdKEMoTzEpKFtDSDNdKVtDSDNdKVtOSF1DKD1PKVtOSF1jMltjSF1bY0hdW2NIXW5uMg==

> <s_epik_cmdline>
J2VwaWtfcHl0aG9uJywgJy1waCcsICc3LjAnLCAnLXRuJywgJzgnLCAnLW1hJywgJzIwMCcsICctbWV0YWxfYmluZGluZycsICctaW1hZScsICc8aW5maWxlLm1hZT4nLCAnLW9tYWUnLCAnPG91dGZpbGUubWFlPic=

> <r_lp_tautomer_probability>
1

> <r_epik_Ionization_Penalty>
0.00480341

> <r_epik_Ionization_Penalty_Charging>
0

> <r_epik_Ionization_Penalty_Neutral>
0.00480341

> <r_epik_State_Penalty>
-0

> <r_epik_Charging_Adjusted_Penalty>
0

> <i_epik_Tot_Q>
0

> <i_epik_Tot_abs_Q>
0

> <r_epik_Metal_State_Penalty>
-0

> <b_epik_Metal_Only>
0

> <s_lp_Force_Field>
OPLS_2005

> <r_lp_Energy>
24.1207

> <b_lp_Chiralities_Consistent>
1

> <s_lp_Variant>
AV-unprocessed.smi:2485-2

> <Gold.Version>
5.8.1

> <Gold.Id.Protein>
6NUR|6NUR_protein|mol2

> <Gold.PLP.Fitness>
36.9102

> <Gold.PLP.PLP>
-28.0313

> <Gold.PLP.part.hbond>
-1.8926

> <Gold.PLP.part.metal>
0.0000

> <Gold.PLP.part.buried>
-2.5096

> <Gold.PLP.part.nonpolar>
-25.3863

> <Gold.PLP.part.repulsive>
1.6803

> <Gold.PLP.ligand.clash>
0.0000

> <Gold.PLP.ligand.torsion>
0.0301

> <Gold.PLP.Chemscore.Hbond>
1.9760

> <Gold.PLP.Chemscore.CHOScore>
1.0000

> <Gold.PLP.Chemscore.Metal>
0.0000

> <Gold.Chemscore.Hbonds>
donor molecule, donor type, donor heavy atom, donor atom, acceptor molecule, acceptor atom, score
      L1  H     6    29       P1  7948  1.00
      L1  H     9    30       P1  7948  0.98
      L1  C    13    33       P1  8028  1.00

> <Gold.PLP.Chemscore.Internal.Correction>
0.0111

> <Gold.Rescore>
     Score         DG    S(hbond)    S(metal)    S(lipo)     H(rot)  DE(clash)    DE(int)     intcor
     13.48     -17.38       1.94        0.00      68.05       1.00       1.31       2.58       ----

> <Gold.Chemscore.Fitness>
13.4848

> <Gold.Chemscore.DG>
-17.3756

> <Gold.Chemscore.ZeroCoef>
-5.4800

> <Gold.Chemscore.Hbond>
1.9441

> <Gold.Chemscore.Metal>
0.0000

> <Gold.Chemscore.Lipo>
68.0528

> <Gold.Chemscore.Internal_Hbond>
0.0000

> <Gold.Chemscore.DEClash>
1.3078

> <Gold.Chemscore.DEInternal>
2.5830

> <Gold.Chemscore.Rot>
1.0000

> <Gold.Chemscore.Internal.Correction>
   9.000000E+99

> <Gold.Chemscore.Hbonds>
donor molecule, donor type, donor heavy atom, donor atom, acceptor molecule, acceptor atom, score
      L1  H     6    29       P1  7948  0.93
      L1  H     9    30       P1  7948  0.93

> <Gold.Chemscore.Hbond.Weighted>
-6.4934

> <Gold.Chemscore.Metal.Weighted>
-0.0000

> <Gold.Chemscore.Lipo.Weighted>
-7.9622

> <Gold.Chemscore.Internal_Hbond.Weighted>
0.0000

> <Gold.Chemscore.DEClash.Weighted>
1.3078

> <Gold.Chemscore.DEInternal.Weighted>
2.5830

> <Gold.Chemscore.Rot.Weighted>
2.5600

> <Gold.Chemscore.Internal.Correction.Weighted>
   9.000000E+99

> <Gold.Protein.RotatedTorsions>
[ 6907 6896 6895 6894 ] final  119.17 input  -60.11 | X-H torsion
[ 7974 7965 7964 7962 ] final  -83.04 input  175.53 | X-H torsion
[ 8008 7997 7996 7995 ] final  174.62 input   59.86 | X-H torsion
[ 10167 10162 10161 10158 ] final   64.94 input  -65.29 | X-H torsion
[ 10718 10713 10712 10709 ] final -172.93 input   66.30 | X-H torsion
[ 10763 10752 10751 10750 ] final  100.37 input  -60.55 | X-H torsion
[ 11005 11000 10999 10996 ] final  151.92 input  -57.11 | X-H torsion

> <Gold.Protein.ActiveResidues>
 VAL166  LYS551  ARG553  GLY616  TRP617  ASP618  TYR619  PRO620  LYS621  CYS622 
 ASP623  PHE694  ASN695  SER759  ASP760  ASP761  ALA762  ILE779  LEU786  VAL792 
 PHE793  MET794  SER795  GLU796  ALA797  LYS798  CYS799  TRP800  GLU811  SER814 

> <Gold.Protein.RotatedAtoms>
  152.4491  133.7594  159.6738 H   0  0  0  0  0  0  0  0  0  0  0  0  # atno 6907 bound_to 6896
  150.8398  133.7943  159.3071 H   0  0  0  0  0  0  0  0  0  0  0  0  # atno 6908 bound_to 6896
  151.5572  135.1069  160.0015 H   0  0  0  0  0  0  0  0  0  0  0  0  # atno 6909 bound_to 6896
  145.5253  140.9527  143.1633 H   0  0  0  0  0  0  0  0  0  0  0  0  # atno 7974 bound_to 7965
  156.0955  140.1430  156.9536 H   0  0  0  0  0  0  0  0  0  0  0  0  # atno 8008 bound_to 7997
  154.4669  140.0923  156.7089 H   0  0  0  0  0  0  0  0  0  0  0  0  # atno 8009 bound_to 7997
  155.4848  140.3446  155.4347 H   0  0  0  0  0  0  0  0  0  0  0  0  # atno 8010 bound_to 7997
  140.1167  144.4768  150.6945 H   0  0  0  0  0  0  0  0  0  0  0  0  # atno 10167 bound_to 10162
  156.7628  130.9420  151.3118 H   0  0  0  0  0  0  0  0  0  0  0  0  # atno 10718 bound_to 10713
  153.3131  135.4081  155.1353 H   0  0  0  0  0  0  0  0  0  0  0  0  # atno 10763 bound_to 10752
  154.8581  135.3569  154.5697 H   0  0  0  0  0  0  0  0  0  0  0  0  # atno 10764 bound_to 10752
  153.6127  135.7067  153.5399 H   0  0  0  0  0  0  0  0  0  0  0  0  # atno 10765 bound_to 10752
  140.1262  134.8832  157.2140 H   0  0  0  0  0  0  0  0  0  0  0  0  # atno 11005 bound_to 11000
  144.7654  139.6857  143.7217 LP  0  0  0  0  0  0  0  0  0  0  0  0  # atno 17320 bound_to 7965
  146.2080  139.5416  142.9700 LP  0  0  0  0  0  0  0  0  0  0  0  0  # atno 17321 bound_to 7965
  140.6895  143.2368  151.5170 LP  0  0  0  0  0  0  0  0  0  0  0  0  # atno 17342 bound_to 10162
  139.5590  144.2203  152.1660 LP  0  0  0  0  0  0  0  0  0  0  0  0  # atno 17343 bound_to 10162
  157.6726  130.9065  150.0077 LP  0  0  0  0  0  0  0  0  0  0  0  0  # atno 17370 bound_to 10713
  156.1328  130.3643  149.9705 LP  0  0  0  0  0  0  0  0  0  0  0  0  # atno 17371 bound_to 10713
  140.2901  134.3250  155.7317 LP  0  0  0  0  0  0  0  0  0  0  0  0  # atno 17394 bound_to 11000
  141.2161  133.7529  156.9491 LP  0  0  0  0  0  0  0  0  0  0  0  0  # atno 17395 bound_to 11000

$$$$
