AV-unprocessed.smi:844|AV-procd|sdf|3924|dock3
  -GOLD-   22720 1383D 1   1.00000     0.00000
 Structure written by MMmdl.
 32 34  0  0  0  0  0  0  0  0  1 V2000
  152.4067  140.0311  155.5802 O   0  0  0  0  0  0  0  0  0  0  0  0
  151.1851  140.2715  156.2493 C   0  0  1  0  0  0  0  0  0  0  0  0
  151.2907  141.6328  156.9654 C   0  0  0  0  0  0  0  0  0  0  0  0
  151.9408  141.5241  158.2593 N   0  0  0  0  0  0  0  0  0  0  0  0
  152.6409  140.4734  158.7280 C   0  0  0  0  0  0  0  0  0  0  0  0
  153.1458  140.5750  159.9543 N   0  0  0  0  0  0  0  0  0  0  0  0
  152.7236  141.8400  160.3259 C   0  0  0  0  0  0  0  0  0  0  0  0
  152.9228  142.5573  161.5271 C   0  0  0  0  0  0  0  0  0  0  0  0
  152.3854  143.8521  161.6837 C   0  0  0  0  0  0  0  0  0  0  0  0
  151.6438  144.4494  160.6438 C   0  0  0  0  0  0  0  0  0  0  0  0
  151.4339  143.7551  159.4371 C   0  0  0  0  0  0  0  0  0  0  0  0
  151.9698  142.4625  159.2855 C   0  0  0  0  0  0  0  0  0  0  0  0
  149.9873  140.2029  155.3077 C   0  0  0  0  0  0  0  0  0  0  0  0
  149.2007  141.3526  155.0708 C   0  0  0  0  0  0  0  0  0  0  0  0
  148.0793  141.2865  154.2220 C   0  0  0  0  0  0  0  0  0  0  0  0
  147.7345  140.0700  153.6042 C   0  0  0  0  0  0  0  0  0  0  0  0
  146.6551  140.0061  152.7892 F   0  0  0  0  0  0  0  0  0  0  0  0
  148.5118  138.9195  153.8363 C   0  0  0  0  0  0  0  0  0  0  0  0
  149.6338  138.9830  154.6855 C   0  0  0  0  0  0  0  0  0  0  0  0
  150.3619  137.8623  154.9081 F   0  0  0  0  0  0  0  0  0  0  0  0
  152.2459  139.4269  154.8715 H   0  0  0  0  0  0  0  0  0  0  0  0
  151.0943  139.4849  156.9992 H   0  0  0  0  0  0  0  0  0  0  0  0
  151.8697  142.3314  156.3595 H   0  0  0  0  0  0  0  0  0  0  0  0
  150.3053  142.0809  157.0998 H   0  0  0  0  0  0  0  0  0  0  0  0
  152.7841  139.5807  158.1367 H   0  0  0  0  0  0  0  0  0  0  0  0
  153.4886  142.1094  162.3307 H   0  0  0  0  0  0  0  0  0  0  0  0
  152.5428  144.3898  162.6072 H   0  0  0  0  0  0  0  0  0  0  0  0
  151.2356  145.4410  160.7733 H   0  0  0  0  0  0  0  0  0  0  0  0
  150.8636  144.2083  158.6401 H   0  0  0  0  0  0  0  0  0  0  0  0
  149.4497  142.2898  155.5468 H   0  0  0  0  0  0  0  0  0  0  0  0
  147.4818  142.1692  154.0473 H   0  0  0  0  0  0  0  0  0  0  0  0
  148.2451  137.9853  153.3650 H   0  0  0  0  0  0  0  0  0  0  0  0
  1  2  1  0  0  0  0
  1 21  1  0  0  0  0
  2  3  1  0  0  0  0
  2 13  1  0  0  0  0
  2 22  1  0  0  0  0
  3  4  1  0  0  0  0
  3 23  1  0  0  0  0
  3 24  1  0  0  0  0
  4 12  1  0  0  0  0
  4  5  1  0  0  0  0
  5  6  2  0  0  0  0
  5 25  1  0  0  0  0
  6  7  1  0  0  0  0
  7 12  2  0  0  0  0
  7  8  1  0  0  0  0
  8  9  2  0  0  0  0
  8 26  1  0  0  0  0
  9 10  1  0  0  0  0
  9 27  1  0  0  0  0
 10 11  2  0  0  0  0
 10 28  1  0  0  0  0
 11 12  1  0  0  0  0
 11 29  1  0  0  0  0
 13 19  1  0  0  0  0
 13 14  2  0  0  0  0
 14 15  1  0  0  0  0
 14 30  1  0  0  0  0
 15 16  2  0  0  0  0
 15 31  1  0  0  0  0
 16 17  1  0  0  0  0
 16 18  1  0  0  0  0
 18 19  2  0  0  0  0
 18 32  1  0  0  0  0
 19 20  1  0  0  0  0
M  END
> <s_m_source_file>
AV-unprocessed.smi

> <i_m_source_file_index>
844

> <i_lp_mmshare_version>
43012

> <i_f3d_flags>
0

> <s_epik_input>
RmMxW2NIXWMoRilbY0hdW2NIXWMxW0NASF0oW09IXSlbQ0gyXW4oW2NIXW4yKWMoYzIzKVtjSF1bY0hdW2NIXVtjSF0z

> <s_epik_cmdline>
J2VwaWtfcHl0aG9uJywgJy1waCcsICc3LjAnLCAnLXRuJywgJzgnLCAnLW1hJywgJzIwMCcsICctbWV0YWxfYmluZGluZycsICctaW1hZScsICc8aW5maWxlLm1hZT4nLCAnLW9tYWUnLCAnPG91dGZpbGUubWFlPic=

> <r_epik_Ionization_Penalty>
0.0696514

> <r_epik_Ionization_Penalty_Charging>
0

> <r_epik_Ionization_Penalty_Neutral>
0.0696514

> <r_epik_State_Penalty>
0.0610247

> <r_epik_Charging_Adjusted_Penalty>
0.0610247

> <i_epik_Tot_Q>
0

> <i_epik_Tot_abs_Q>
0

> <r_epik_Metal_State_Penalty>
6.42746e-05

> <b_epik_Metal_Only>
0

> <s_lp_Force_Field>
OPLS_2005

> <r_lp_Energy>
12.0275

> <b_lp_Chiralities_Consistent>
1

> <s_lp_Variant>
AV-unprocessed.smi:844-2

> <Gold.Version>
5.8.1

> <Gold.Id.Protein>
6NUR|6NUR_protein|mol2

> <Gold.PLP.Fitness>
48.3771

> <Gold.PLP.PLP>
-46.4248

> <Gold.PLP.part.hbond>
-1.6976

> <Gold.PLP.part.metal>
0.0000

> <Gold.PLP.part.buried>
0.0851

> <Gold.PLP.part.nonpolar>
-44.5270

> <Gold.PLP.part.repulsive>
0.0000

> <Gold.PLP.ligand.clash>
0.0000

> <Gold.PLP.ligand.torsion>
0.5329

> <Gold.PLP.Chemscore.Hbond>
1.0000

> <Gold.PLP.Chemscore.CHOScore>
0.0000

> <Gold.PLP.Chemscore.Metal>
0.0000

> <Gold.Chemscore.Hbonds>
donor molecule, donor type, donor heavy atom, donor atom, acceptor molecule, acceptor atom, score
      P1  H  7997  8008       L1     1  0.93

> <Gold.PLP.Chemscore.Internal.Correction>
0.0181

> <Gold.Rescore>
     Score         DG    S(hbond)    S(metal)    S(lipo)     H(rot)  DE(clash)    DE(int)     intcor
     16.51     -17.51       0.96        0.00     119.21       2.00       0.23       0.77       ----

> <Gold.Chemscore.Fitness>
16.5100

> <Gold.Chemscore.DG>
-17.5123

> <Gold.Chemscore.ZeroCoef>
-5.4800

> <Gold.Chemscore.Hbond>
0.9626

> <Gold.Chemscore.Metal>
0.0000

> <Gold.Chemscore.Lipo>
119.2112

> <Gold.Chemscore.Internal_Hbond>
0.0000

> <Gold.Chemscore.DEClash>
0.2284

> <Gold.Chemscore.DEInternal>
0.7739

> <Gold.Chemscore.Rot>
2.0040

> <Gold.Chemscore.Internal.Correction>
   9.000000E+99

> <Gold.Chemscore.Hbonds>
donor molecule, donor type, donor heavy atom, donor atom, acceptor molecule, acceptor atom, score
      P1  H  7997  8008       L1     1  0.69

> <Gold.Chemscore.Hbond.Weighted>
-3.2149

> <Gold.Chemscore.Metal.Weighted>
-0.0000

> <Gold.Chemscore.Lipo.Weighted>
-13.9477

> <Gold.Chemscore.Internal_Hbond.Weighted>
0.0000

> <Gold.Chemscore.DEClash.Weighted>
0.2284

> <Gold.Chemscore.DEInternal.Weighted>
0.7739

> <Gold.Chemscore.Rot.Weighted>
5.1303

> <Gold.Chemscore.Internal.Correction.Weighted>
   9.000000E+99

> <Gold.Protein.RotatedTorsions>
[ 6907 6896 6895 6894 ] final   70.03 input  -60.11 | X-H torsion
[ 7974 7965 7964 7962 ] final   61.92 input  175.53 | X-H torsion
[ 8008 7997 7996 7995 ] final  -17.82 input   59.86 | X-H torsion
[ 10167 10162 10161 10158 ] final  133.26 input  -65.29 | X-H torsion
[ 10718 10713 10712 10709 ] final    4.81 input   66.30 | X-H torsion
[ 10763 10752 10751 10750 ] final   14.36 input  -60.55 | X-H torsion
[ 11005 11000 10999 10996 ] final -117.26 input  -57.11 | X-H torsion

> <Gold.Protein.ActiveResidues>
 VAL166  LYS551  ARG553  GLY616  TRP617  ASP618  TYR619  PRO620  LYS621  CYS622 
 ASP623  PHE694  ASN695  SER759  ASP760  ASP761  ALA762  ILE779  LEU786  VAL792 
 PHE793  MET794  SER795  GLU796  ALA797  LYS798  CYS799  TRP800  GLU811  SER814 

> <Gold.Protein.RotatedAtoms>
  152.4724  134.4928  159.9700 H   0  0  0  0  0  0  0  0  0  0  0  0  # atno 6907 bound_to 6896
  151.4951  133.3510  159.2867 H   0  0  0  0  0  0  0  0  0  0  0  0  # atno 6908 bound_to 6896
  150.8742  134.8149  159.7239 H   0  0  0  0  0  0  0  0  0  0  0  0  # atno 6909 bound_to 6896
  145.8793  139.3432  143.0716 H   0  0  0  0  0  0  0  0  0  0  0  0  # atno 7974 bound_to 7965
  154.4951  140.2132  155.9465 H   0  0  0  0  0  0  0  0  0  0  0  0  # atno 8008 bound_to 7997
  156.1359  140.3188  155.8387 H   0  0  0  0  0  0  0  0  0  0  0  0  # atno 8009 bound_to 7997
  155.4211  140.0497  157.3016 H   0  0  0  0  0  0  0  0  0  0  0  0  # atno 8010 bound_to 7997
  139.5304  144.6624  151.4971 H   0  0  0  0  0  0  0  0  0  0  0  0  # atno 10167 bound_to 10162
  156.8982  130.5712  149.5648 H   0  0  0  0  0  0  0  0  0  0  0  0  # atno 10718 bound_to 10713
  153.1630  135.6799  153.8716 H   0  0  0  0  0  0  0  0  0  0  0  0  # atno 10763 bound_to 10752
  153.8105  135.3143  155.3401 H   0  0  0  0  0  0  0  0  0  0  0  0  # atno 10764 bound_to 10752
  154.7945  135.4815  154.0219 H   0  0  0  0  0  0  0  0  0  0  0  0  # atno 10765 bound_to 10752
  141.0367  133.9899  157.3060 H   0  0  0  0  0  0  0  0  0  0  0  0  # atno 11005 bound_to 11000
  145.9043  140.9222  143.0486 LP  0  0  0  0  0  0  0  0  0  0  0  0  # atno 17320 bound_to 7965
  144.6727  140.1075  143.7457 LP  0  0  0  0  0  0  0  0  0  0  0  0  # atno 17321 bound_to 7965
  140.6478  143.8758  150.6755 LP  0  0  0  0  0  0  0  0  0  0  0  0  # atno 17342 bound_to 10162
  140.2113  143.3881  152.1716 LP  0  0  0  0  0  0  0  0  0  0  0  0  # atno 17343 bound_to 10162
  156.0595  130.5650  150.9163 LP  0  0  0  0  0  0  0  0  0  0  0  0  # atno 17370 bound_to 10713
  157.6042  131.0940  150.8907 LP  0  0  0  0  0  0  0  0  0  0  0  0  # atno 17371 bound_to 10713
  139.9245  135.0201  156.8186 LP  0  0  0  0  0  0  0  0  0  0  0  0  # atno 17394 bound_to 11000
  140.6310  133.9906  155.7662 LP  0  0  0  0  0  0  0  0  0  0  0  0  # atno 17395 bound_to 11000

$$$$
