AV-unprocessed.smi:3316|AV-procd|sdf|12755|dock9
  -GOLD-   2272019 93D 1   1.00000     0.00000
 Structure written by MMmdl.
 41 43  0  0  0  0  0  0  0  0  2 V2000
  147.8976  140.3291  153.7789 C   0  0  0  0  0  0  0  0  0  0  0  0
  148.8853  140.3327  154.9559 C   0  0  2  0  0  0  0  0  0  0  0  0
  149.6649  141.6602  155.0337 C   0  0  0  0  0  0  0  0  0  0  0  0
  149.6243  142.2358  156.3939 N   0  3  0  0  0  0  0  0  0  0  0  0
  150.8959  142.1255  157.1353 C   0  0  0  0  0  0  0  0  0  0  0  0
  150.8659  142.9669  158.4332 C   0  0  1  0  0  0  0  0  0  0  0  0
  151.8915  142.5015  159.5192 C   0  0  0  0  0  0  0  0  0  0  0  0
  152.7201  143.7769  159.7940 C   0  0  2  0  0  0  0  0  0  0  0  0
  151.8046  144.8048  160.4234 C   0  0  0  0  0  0  0  0  0  0  0  0
  150.9525  145.2071  159.4794 C   0  0  0  0  0  0  0  0  0  0  0  0
  151.2885  144.4444  158.2144 C   0  0  1  0  0  0  0  0  0  0  0  0
  152.8103  144.3325  158.3702 C   0  0  0  0  0  0  0  0  0  0  0  0
  149.8141  139.1253  154.8991 C   0  0  0  0  0  0  0  0  0  0  0  0
  149.2890  137.8156  154.9038 C   0  0  0  0  0  0  0  0  0  0  0  0
  150.1853  136.7286  154.8604 C   0  0  0  0  0  0  0  0  0  0  0  0
  151.5266  136.8753  154.8184 N   0  0  0  0  0  0  0  0  0  0  0  0
  152.0250  138.1297  154.8119 C   0  0  0  0  0  0  0  0  0  0  0  0
  151.2165  139.2832  154.8516 C   0  0  0  0  0  0  0  0  0  0  0  0
  147.3100  139.4105  153.7643 H   0  0  0  0  0  0  0  0  0  0  0  0
  148.4124  140.4096  152.8210 H   0  0  0  0  0  0  0  0  0  0  0  0
  147.1991  141.1634  153.8495 H   0  0  0  0  0  0  0  0  0  0  0  0
  148.2915  140.2499  155.8675 H   0  0  0  0  0  0  0  0  0  0  0  0
  150.7033  141.5085  154.7362 H   0  0  0  0  0  0  0  0  0  0  0  0
  149.2390  142.3824  154.3359 H   0  0  0  0  0  0  0  0  0  0  0  0
  149.3735  143.2119  156.3255 H   0  0  0  0  0  0  0  0  0  0  0  0
  151.0792  141.0726  157.3502 H   0  0  0  0  0  0  0  0  0  0  0  0
  151.7091  142.4504  156.4848 H   0  0  0  0  0  0  0  0  0  0  0  0
  149.8591  142.9459  158.8560 H   0  0  0  0  0  0  0  0  0  0  0  0
  151.3956  142.1384  160.4204 H   0  0  0  0  0  0  0  0  0  0  0  0
  152.5428  141.7029  159.1628 H   0  0  0  0  0  0  0  0  0  0  0  0
  153.6727  143.6355  160.3049 H   0  0  0  0  0  0  0  0  0  0  0  0
  151.8400  145.1115  161.4584 H   0  0  0  0  0  0  0  0  0  0  0  0
  150.1402  145.9120  159.5782 H   0  0  0  0  0  0  0  0  0  0  0  0
  150.9425  144.9222  157.2974 H   0  0  0  0  0  0  0  0  0  0  0  0
  153.3164  145.2992  158.3219 H   0  0  0  0  0  0  0  0  0  0  0  0
  153.2836  143.6528  157.6589 H   0  0  0  0  0  0  0  0  0  0  0  0
  148.2237  137.6397  154.9382 H   0  0  0  0  0  0  0  0  0  0  0  0
  149.8145  135.7144  154.8622 H   0  0  0  0  0  0  0  0  0  0  0  0
  153.1008  138.2179  154.7767 H   0  0  0  0  0  0  0  0  0  0  0  0
  151.6696  140.2637  154.8444 H   0  0  0  0  0  0  0  0  0  0  0  0
  148.9079  141.7553  156.9199 H   0  0  0  0  0  0  0  0  0  0  0  0
  1  2  1  0  0  0  0
  1 19  1  0  0  0  0
  1 20  1  0  0  0  0
  1 21  1  0  0  0  0
  2  3  1  0  0  0  0
  2 13  1  0  0  0  0
  2 22  1  0  0  0  0
  3  4  1  0  0  0  0
  3 23  1  0  0  0  0
  3 24  1  0  0  0  0
  4  5  1  0  0  0  0
  4 25  1  0  0  0  0
  4 41  1  0  0  0  0
  5  6  1  0  0  0  0
  5 26  1  0  0  0  0
  5 27  1  0  0  0  0
  6 11  1  0  0  0  0
  6  7  1  0  0  0  0
  6 28  1  0  0  0  0
  7  8  1  0  0  0  0
  7 29  1  0  0  0  0
  7 30  1  0  0  0  0
  8 12  1  0  0  0  0
  8  9  1  0  0  0  0
  8 31  1  0  0  0  0
  9 10  2  0  0  0  0
  9 32  1  0  0  0  0
 10 11  1  0  0  0  0
 10 33  1  0  0  0  0
 11 12  1  0  0  0  0
 11 34  1  0  0  0  0
 12 35  1  0  0  0  0
 12 36  1  0  0  0  0
 13 18  1  0  0  0  0
 13 14  2  0  0  0  0
 14 15  1  0  0  0  0
 14 37  1  0  0  0  0
 15 16  2  0  0  0  0
 15 38  1  0  0  0  0
 16 17  1  0  0  0  0
 17 18  2  0  0  0  0
 17 39  1  0  0  0  0
 18 40  1  0  0  0  0
M  CHG  1   4   1
M  END
> <s_m_source_file>
AV-unprocessed.smi

> <i_m_source_file_index>
3316

> <i_lp_mmshare_version>
43012

> <i_f3d_flags>
0

> <s_epik_input>
W2NIXTFbY0hdbltjSF1bY0hdYzFbQ0BIXShbQ0gzXSlbQ0gyXVtOSF1bQ0gyXVtDQEhdKFtDSDJdW0NASF0yMylbQ0BIXShbQ0gyXTMpW0NIXT1bQ0hdMg==

> <s_epik_cmdline>
J2VwaWtfcHl0aG9uJywgJy1waCcsICc3LjAnLCAnLXRuJywgJzgnLCAnLW1hJywgJzIwMCcsICctbWV0YWxfYmluZGluZycsICctaW1hZScsICc8aW5maWxlLm1hZT4nLCAnLW9tYWUnLCAnPG91dGZpbGUubWFlPic=

> <r_lp_tautomer_probability>
1

> <r_epik_Ionization_Penalty>
0.00280406

> <r_epik_Ionization_Penalty_Charging>
0.000446589

> <r_epik_Ionization_Penalty_Neutral>
0.00235747

> <r_epik_State_Penalty>
-0

> <r_epik_Charging_Adjusted_Penalty>
0.000446589

> <i_epik_Tot_Q>
1

> <i_epik_Tot_abs_Q>
1

> <r_epik_Metal_State_Penalty>
-0

> <b_epik_Metal_Only>
0

> <s_lp_Force_Field>
OPLS_2005

> <r_lp_Energy>
68.7939

> <b_lp_Chiralities_Consistent>
1

> <s_lp_Variant>
AV-unprocessed.smi:3316-3

> <Gold.Version>
5.8.1

> <Gold.Id.Protein>
6NUR|6NUR_protein|mol2

> <Gold.PLP.Fitness>
53.0892

> <Gold.PLP.PLP>
-46.6837

> <Gold.PLP.part.hbond>
-2.0000

> <Gold.PLP.part.metal>
0.0000

> <Gold.PLP.part.buried>
-2.8484

> <Gold.PLP.part.nonpolar>
-42.7854

> <Gold.PLP.part.repulsive>
0.1952

> <Gold.PLP.ligand.clash>
0.0000

> <Gold.PLP.ligand.torsion>
1.3158

> <Gold.PLP.Chemscore.Hbond>
2.9920

> <Gold.PLP.Chemscore.CHOScore>
0.0000

> <Gold.PLP.Chemscore.Metal>
0.0000

> <Gold.Chemscore.Hbonds>
donor molecule, donor type, donor heavy atom, donor atom, acceptor molecule, acceptor atom, score
      L1  H     4    25       P1  8028  2.00
      P1  H 10752 10763       L1    16  1.00

> <Gold.PLP.Chemscore.Internal.Correction>
0.0612

> <Gold.Rescore>
     Score         DG    S(hbond)    S(metal)    S(lipo)     H(rot)  DE(clash)    DE(int)     intcor
     23.91     -25.27       1.94        0.00     143.59       1.36       0.04       1.32       ----

> <Gold.Chemscore.Fitness>
23.9119

> <Gold.Chemscore.DG>
-25.2695

> <Gold.Chemscore.ZeroCoef>
-5.4800

> <Gold.Chemscore.Hbond>
1.9406

> <Gold.Chemscore.Metal>
0.0000

> <Gold.Chemscore.Lipo>
143.5873

> <Gold.Chemscore.Internal_Hbond>
0.0000

> <Gold.Chemscore.DEClash>
0.0412

> <Gold.Chemscore.DEInternal>
1.3165

> <Gold.Chemscore.Rot>
1.3640

> <Gold.Chemscore.Internal.Correction>
   9.000000E+99

> <Gold.Chemscore.Hbonds>
donor molecule, donor type, donor heavy atom, donor atom, acceptor molecule, acceptor atom, score
      L1  H     4    25       P1  8028  1.00
      P1  H 10752 10763       L1    16  0.74

> <Gold.Chemscore.Hbond.Weighted>
-6.4818

> <Gold.Chemscore.Metal.Weighted>
-0.0000

> <Gold.Chemscore.Lipo.Weighted>
-16.7997

> <Gold.Chemscore.Internal_Hbond.Weighted>
0.0000

> <Gold.Chemscore.DEClash.Weighted>
0.0412

> <Gold.Chemscore.DEInternal.Weighted>
1.3165

> <Gold.Chemscore.Rot.Weighted>
3.4919

> <Gold.Chemscore.Internal.Correction.Weighted>
   9.000000E+99

> <Gold.Protein.RotatedTorsions>
[ 6907 6896 6895 6894 ] final -156.61 input  -60.11 | X-H torsion
[ 7974 7965 7964 7962 ] final  128.90 input  175.53 | X-H torsion
[ 8008 7997 7996 7995 ] final   68.53 input   59.86 | X-H torsion
[ 10167 10162 10161 10158 ] final -102.07 input  -65.29 | X-H torsion
[ 10718 10713 10712 10709 ] final  -20.91 input   66.30 | X-H torsion
[ 10763 10752 10751 10750 ] final   61.87 input  -60.55 | X-H torsion
[ 11005 11000 10999 10996 ] final  -98.44 input  -57.11 | X-H torsion

> <Gold.Protein.ActiveResidues>
 VAL166  LYS551  ARG553  GLY616  TRP617  ASP618  TYR619  PRO620  LYS621  CYS622 
 ASP623  PHE694  ASN695  SER759  ASP760  ASP761  ALA762  ILE779  LEU786  VAL792 
 PHE793  MET794  SER795  GLU796  ALA797  LYS798  CYS799  TRP800  GLU811  SER814 

> <Gold.Protein.RotatedAtoms>
  151.2902  133.4169  159.2632 H   0  0  0  0  0  0  0  0  0  0  0  0  # atno 6907 bound_to 6896
  151.0284  134.9521  159.8108 H   0  0  0  0  0  0  0  0  0  0  0  0  # atno 6908 bound_to 6896
  152.5340  134.2864  159.9079 H   0  0  0  0  0  0  0  0  0  0  0  0  # atno 6909 bound_to 6896
  145.0345  139.4017  143.5133 H   0  0  0  0  0  0  0  0  0  0  0  0  # atno 7974 bound_to 7965
  155.7097  140.3494  155.4969 H   0  0  0  0  0  0  0  0  0  0  0  0  # atno 8008 bound_to 7997
  155.9366  140.1094  157.1111 H   0  0  0  0  0  0  0  0  0  0  0  0  # atno 8009 bound_to 7997
  154.4095  140.1221  156.4859 H   0  0  0  0  0  0  0  0  0  0  0  0  # atno 8010 bound_to 7997
  140.2345  143.3582  152.0857 H   0  0  0  0  0  0  0  0  0  0  0  0  # atno 10167 bound_to 10162
  156.5254  130.4642  149.6575 H   0  0  0  0  0  0  0  0  0  0  0  0  # atno 10718 bound_to 10713
  152.9964  135.5485  154.6103 H   0  0  0  0  0  0  0  0  0  0  0  0  # atno 10763 bound_to 10752
  154.5425  135.2821  155.1085 H   0  0  0  0  0  0  0  0  0  0  0  0  # atno 10764 bound_to 10752
  154.2357  135.6425  153.5242 H   0  0  0  0  0  0  0  0  0  0  0  0  # atno 10765 bound_to 10752
  141.1344  133.8245  157.0840 H   0  0  0  0  0  0  0  0  0  0  0  0  # atno 11005 bound_to 11000
  146.3502  139.9913  142.8685 LP  0  0  0  0  0  0  0  0  0  0  0  0  # atno 17320 bound_to 7965
  145.1727  140.9729  143.4312 LP  0  0  0  0  0  0  0  0  0  0  0  0  # atno 17321 bound_to 7965
  139.5098  144.6874  151.5852 LP  0  0  0  0  0  0  0  0  0  0  0  0  # atno 17342 bound_to 10162
  140.6160  143.9348  150.6489 LP  0  0  0  0  0  0  0  0  0  0  0  0  # atno 17343 bound_to 10162
  156.3110  130.7229  151.2121 LP  0  0  0  0  0  0  0  0  0  0  0  0  # atno 17370 bound_to 10713
  157.7430  131.0481  150.4979 LP  0  0  0  0  0  0  0  0  0  0  0  0  # atno 17371 bound_to 10713
  140.0434  134.9843  157.1004 LP  0  0  0  0  0  0  0  0  0  0  0  0  # atno 17394 bound_to 11000
  140.4100  134.1991  155.7163 LP  0  0  0  0  0  0  0  0  0  0  0  0  # atno 17395 bound_to 11000

$$$$
