AV-unprocessed.smi:72|AV-procd|sdf|743|dock3
  -GOLD-   2262017 73D 1   1.00000     0.00000
 Structure written by MMmdl.
 29 30  0  0  0  0  0  0  0  0  1 V2000
  150.0396  134.2956  155.8779 N   0  0  0  0  0  0  0  0  0  0  0  0
  150.0938  135.6204  155.4984 C   0  0  0  0  0  0  0  0  0  0  0  0
  148.8799  136.3214  155.5087 N   0  0  0  0  0  0  0  0  0  0  0  0
  148.9291  137.5699  155.1673 C   0  0  0  0  0  0  0  0  0  0  0  0
  150.1830  138.2034  154.8019 N   0  0  0  0  0  0  0  0  0  0  0  0
  150.2342  139.6608  154.4022 C   0  0  2  0  0  0  0  0  0  0  0  0
  150.9978  140.3593  155.3412 O   0  0  0  0  0  0  0  0  0  0  0  0
  150.3384  141.5697  155.6974 C   0  0  2  0  0  0  0  0  0  0  0  0
  150.7766  141.9998  157.1054 C   0  0  0  0  0  0  0  0  0  0  0  0
  150.1437  143.2108  157.4585 O   0  0  0  0  0  0  0  0  0  0  0  0
  148.8619  141.1800  155.6071 C   0  0  1  0  0  0  0  0  0  0  0  0
  147.9979  142.2966  155.5060 O   0  0  0  0  0  0  0  0  0  0  0  0
  148.8233  140.2705  154.3825 C   0  0  1  0  0  0  0  0  0  0  0  0
  148.5996  140.9838  153.1802 O   0  0  0  0  0  0  0  0  0  0  0  0
  151.3728  137.4252  154.7834 C   0  0  0  0  0  0  0  0  0  0  0  0
  152.4403  137.9281  154.4332 O   0  0  0  0  0  0  0  0  0  0  0  0
  151.2657  136.0831  155.1686 N   0  0  0  0  0  0  0  0  0  0  0  0
  150.7480  139.7089  153.4411 H   0  0  0  0  0  0  0  0  0  0  0  0
  150.5634  142.3384  154.9554 H   0  0  0  0  0  0  0  0  0  0  0  0
  148.5841  140.6000  156.4882 H   0  0  0  0  0  0  0  0  0  0  0  0
  148.0569  139.4996  154.4757 H   0  0  0  0  0  0  0  0  0  0  0  0
  150.8494  133.6936  155.9077 H   0  0  0  0  0  0  0  0  0  0  0  0
  149.1863  133.8270  156.1464 H   0  0  0  0  0  0  0  0  0  0  0  0
  148.0496  138.2142  155.1293 H   0  0  0  0  0  0  0  0  0  0  0  0
  150.4789  141.2489  157.8378 H   0  0  0  0  0  0  0  0  0  0  0  0
  151.8602  142.1042  157.1694 H   0  0  0  0  0  0  0  0  0  0  0  0
  149.6851  143.5400  156.7005 H   0  0  0  0  0  0  0  0  0  0  0  0
  148.5065  143.0821  155.6372 H   0  0  0  0  0  0  0  0  0  0  0  0
  148.6889  140.3855  152.4543 H   0  0  0  0  0  0  0  0  0  0  0  0
  1  2  1  0  0  0  0
  1 22  1  0  0  0  0
  1 23  1  0  0  0  0
  2 17  2  0  0  0  0
  2  3  1  0  0  0  0
  3  4  2  0  0  0  0
  4  5  1  0  0  0  0
  4 24  1  0  0  0  0
  5  6  1  0  0  0  0
  5 15  1  0  0  0  0
  6 18  1  0  0  0  0
  6 13  1  0  0  0  0
  6  7  1  0  0  0  0
  7  8  1  0  0  0  0
  8 19  1  0  0  0  0
  8  9  1  0  0  0  0
  8 11  1  0  0  0  0
  9 10  1  0  0  0  0
  9 25  1  0  0  0  0
  9 26  1  0  0  0  0
 10 27  1  0  0  0  0
 11 20  1  0  0  0  0
 11 12  1  0  0  0  0
 11 13  1  0  0  0  0
 12 28  1  0  0  0  0
 13 21  1  0  0  0  0
 13 14  1  0  0  0  0
 14 29  1  0  0  0  0
 15 16  2  0  0  0  0
 15 17  1  0  0  0  0
M  END
> <s_m_source_file>
AV-unprocessed.smi

> <i_m_source_file_index>
72

> <i_lp_mmshare_version>
43012

> <i_f3d_flags>
0

> <s_epik_input>
W05IMl1jMW5bY0hdbihjKD1PKW4xKVtDQEBIXTJPW0NASF0oW0NIMl1bT0hdKVtDQEBIXShbT0hdKVtDQEhdMltPSF0=

> <s_epik_cmdline>
J2VwaWtfcHl0aG9uJywgJy1waCcsICc3LjAnLCAnLXRuJywgJzgnLCAnLW1hJywgJzIwMCcsICctbWV0YWxfYmluZGluZycsICctaW1hZScsICc8aW5maWxlLm1hZT4nLCAnLW9tYWUnLCAnPG91dGZpbGUubWFlPic=

> <r_lp_tautomer_probability>
4.77166e-05

> <r_epik_Ionization_Penalty>
1.3546

> <r_epik_Ionization_Penalty_Charging>
1.46833e-10

> <r_epik_Ionization_Penalty_Neutral>
1.3546

> <r_epik_State_Penalty>
3.51908

> <r_epik_Charging_Adjusted_Penalty>
3.51908

> <i_epik_Tot_Q>
0

> <i_epik_Tot_abs_Q>
0

> <r_epik_Metal_State_Penalty>
3.44088

> <b_epik_Metal_Only>
1

> <s_epik_Chemistry_Notes>
This compound contains an acetal/aminal-like group ( X-CH(R)-Y where X, Y are N, S, or O) that may be acid/base labile, releasing an aldehyde.

> <s_lp_Force_Field>
OPLS_2005

> <r_lp_Energy>
30.18

> <b_lp_Chiralities_Consistent>
1

> <s_lp_Variant>
AV-unprocessed.smi:72-81

> <Gold.Version>
5.8.1

> <Gold.Id.Protein>
6NUR|6NUR_protein|mol2

> <Gold.PLP.Fitness>
40.8117

> <Gold.PLP.PLP>
-27.2646

> <Gold.PLP.part.hbond>
-6.6198

> <Gold.PLP.part.metal>
0.0000

> <Gold.PLP.part.buried>
-4.6487

> <Gold.PLP.part.nonpolar>
-17.3548

> <Gold.PLP.part.repulsive>
0.4160

> <Gold.PLP.ligand.clash>
0.0000

> <Gold.PLP.ligand.torsion>
0.0536

> <Gold.PLP.Chemscore.Hbond>
4.5465

> <Gold.PLP.Chemscore.CHOScore>
0.0000

> <Gold.PLP.Chemscore.Metal>
0.0000

> <Gold.Chemscore.Hbonds>
donor molecule, donor type, donor heavy atom, donor atom, acceptor molecule, acceptor atom, score
      L1  H    10    27       P1  8028  1.00
      L1  H    12    28       P1  8028  1.00
      L1  H    14    29       P1  7957  0.86
      P1  H  8011  8017       L1    14  0.68
      P1  H 10752 10764       L1    17  1.00

> <Gold.PLP.Chemscore.Internal.Correction>
0.0148

> <Gold.Rescore>
     Score         DG    S(hbond)    S(metal)    S(lipo)     H(rot)  DE(clash)    DE(int)     intcor
      9.01      -9.99       3.61        0.00      24.37       4.06       0.08       0.90       ----

> <Gold.Chemscore.Fitness>
9.0077

> <Gold.Chemscore.DG>
-9.9872

> <Gold.Chemscore.ZeroCoef>
-5.4800

> <Gold.Chemscore.Hbond>
3.6078

> <Gold.Chemscore.Metal>
0.0000

> <Gold.Chemscore.Lipo>
24.3661

> <Gold.Chemscore.Internal_Hbond>
0.0000

> <Gold.Chemscore.DEClash>
0.0765

> <Gold.Chemscore.DEInternal>
0.9030

> <Gold.Chemscore.Rot>
4.0600

> <Gold.Chemscore.Internal.Correction>
   9.000000E+99

> <Gold.Chemscore.Hbonds>
donor molecule, donor type, donor heavy atom, donor atom, acceptor molecule, acceptor atom, score
      L1  H    10    27       P1  8028  0.99
      L1  H    12    28       P1  8028  0.99
      L1  H    14    29       P1  7957  0.84
      P1  H  8011  8017       L1    14  0.06
      P1  H 10752 10764       L1    17  0.26

> <Gold.Chemscore.Hbond.Weighted>
-12.0499

> <Gold.Chemscore.Metal.Weighted>
-0.0000

> <Gold.Chemscore.Lipo.Weighted>
-2.8508

> <Gold.Chemscore.Internal_Hbond.Weighted>
0.0000

> <Gold.Chemscore.DEClash.Weighted>
0.0765

> <Gold.Chemscore.DEInternal.Weighted>
0.9030

> <Gold.Chemscore.Rot.Weighted>
10.3936

> <Gold.Chemscore.Internal.Correction.Weighted>
   9.000000E+99

> <Gold.Protein.RotatedTorsions>
[ 6907 6896 6895 6894 ] final  -26.03 input  -60.11 | X-H torsion
[ 7974 7965 7964 7962 ] final   62.97 input  175.53 | X-H torsion
[ 8008 7997 7996 7995 ] final  -32.44 input   59.86 | X-H torsion
[ 10167 10162 10161 10158 ] final  161.16 input  -65.29 | X-H torsion
[ 10718 10713 10712 10709 ] final   54.67 input   66.30 | X-H torsion
[ 10763 10752 10751 10750 ] final  -42.81 input  -60.55 | X-H torsion
[ 11005 11000 10999 10996 ] final   62.25 input  -57.11 | X-H torsion

> <Gold.Protein.ActiveResidues>
 VAL166  LYS551  ARG553  GLY616  TRP617  ASP618  TYR619  PRO620  LYS621  CYS622 
 ASP623  PHE694  ASN695  SER759  ASP760  ASP761  ALA762  ILE779  LEU786  VAL792 
 PHE793  MET794  SER795  GLU796  ALA797  LYS798  CYS799  TRP800  GLU811  SER814 

> <Gold.Protein.RotatedAtoms>
  151.1668  135.0299  159.8733 H   0  0  0  0  0  0  0  0  0  0  0  0  # atno 6907 bound_to 6896
  152.5450  134.1216  159.8411 H   0  0  0  0  0  0  0  0  0  0  0  0  # atno 6908 bound_to 6896
  151.1318  133.4985  159.2631 H   0  0  0  0  0  0  0  0  0  0  0  0  # atno 6909 bound_to 6896
  145.8672  139.3353  143.0784 H   0  0  0  0  0  0  0  0  0  0  0  0  # atno 7974 bound_to 7965
  154.4180  140.1737  156.1727 H   0  0  0  0  0  0  0  0  0  0  0  0  # atno 8008 bound_to 7997
  155.9747  140.3382  155.6583 H   0  0  0  0  0  0  0  0  0  0  0  0  # atno 8009 bound_to 7997
  155.6580  140.0697  157.2555 H   0  0  0  0  0  0  0  0  0  0  0  0  # atno 8010 bound_to 7997
  139.4846  144.4564  151.8763 H   0  0  0  0  0  0  0  0  0  0  0  0  # atno 10167 bound_to 10162
  157.5277  130.8609  149.8644 H   0  0  0  0  0  0  0  0  0  0  0  0  # atno 10718 bound_to 10713
  153.9852  135.6712  153.4751 H   0  0  0  0  0  0  0  0  0  0  0  0  # atno 10763 bound_to 10752
  153.0730  135.4964  154.8342 H   0  0  0  0  0  0  0  0  0  0  0  0  # atno 10764 bound_to 10752
  154.7141  135.3103  154.9112 H   0  0  0  0  0  0  0  0  0  0  0  0  # atno 10765 bound_to 10752
  140.0105  134.6303  155.9788 H   0  0  0  0  0  0  0  0  0  0  0  0  # atno 11005 bound_to 11000
  145.9179  140.9135  143.0420 LP  0  0  0  0  0  0  0  0  0  0  0  0  # atno 17320 bound_to 7965
  144.6726  140.1249  143.7447 LP  0  0  0  0  0  0  0  0  0  0  0  0  # atno 17321 bound_to 7965
  140.4023  144.2477  150.5892 LP  0  0  0  0  0  0  0  0  0  0  0  0  # atno 17342 bound_to 10162
  140.5045  143.2308  151.8629 LP  0  0  0  0  0  0  0  0  0  0  0  0  # atno 17343 bound_to 10162
  156.0399  130.3741  150.1462 LP  0  0  0  0  0  0  0  0  0  0  0  0  # atno 17370 bound_to 10713
  156.9648  130.9816  151.3471 LP  0  0  0  0  0  0  0  0  0  0  0  0  # atno 17371 bound_to 10713
  141.1707  133.6537  156.4643 LP  0  0  0  0  0  0  0  0  0  0  0  0  # atno 17394 bound_to 11000
  140.4563  134.6882  157.5064 LP  0  0  0  0  0  0  0  0  0  0  0  0  # atno 17395 bound_to 11000

$$$$
