AV-unprocessed.smi:3185|AV-procd|sdf|12166|dock8
  -GOLD-   2272018 03D 1   1.00000     0.00000
 Structure written by MMmdl.
 38 39  0  0  0  0  0  0  0  0  2 V2000
  153.2931  141.2020  159.9336 N   0  0  0  0  0  0  0  0  0  0  0  0
  153.0875  142.3310  160.0759 C   0  0  0  0  0  0  0  0  0  0  0  0
  152.8272  143.7670  160.2564 C   0  0  0  0  0  0  0  0  0  0  0  0
  151.4641  144.1930  159.6996 C   0  0  0  0  0  0  0  0  0  0  0  0
  151.4680  144.3002  158.1700 C   0  0  0  0  0  0  0  0  0  0  0  0
  150.6112  143.2578  157.5675 N   0  3  0  0  0  0  0  0  0  0  0  0
  151.2694  141.9562  157.3042 C   0  0  1  0  0  0  0  0  0  0  0  0
  150.9995  140.9247  158.4287 C   0  0  0  0  0  0  0  0  0  0  0  0
  151.6216  139.5551  158.1125 C   0  0  0  0  0  0  0  0  0  0  0  0
  151.1757  139.0309  156.7402 C   0  0  0  0  0  0  0  0  0  0  0  0
  151.5193  140.0394  155.6327 C   0  0  0  0  0  0  0  0  0  0  0  0
  150.9004  141.4301  155.8858 C   0  0  1  0  0  0  0  0  0  0  0  0
  149.4717  141.4445  155.5612 N   0  0  0  0  0  0  0  0  0  0  0  0
  148.8944  141.1592  154.3397 C   0  0  0  0  0  0  0  0  0  0  0  0
  147.5404  141.2535  154.4866 C   0  0  0  0  0  0  0  0  0  0  0  0
  147.3741  141.5870  155.8582 C   0  0  0  0  0  0  0  0  0  0  0  0
  148.5271  141.6931  156.4970 N   0  0  0  0  0  0  0  0  0  0  0  0
  152.8900  143.9860  161.3227 H   0  0  0  0  0  0  0  0  0  0  0  0
  153.6307  144.3156  159.7640 H   0  0  0  0  0  0  0  0  0  0  0  0
  150.7059  143.4746  160.0144 H   0  0  0  0  0  0  0  0  0  0  0  0
  151.1815  145.1529  160.1345 H   0  0  0  0  0  0  0  0  0  0  0  0
  151.1085  145.2848  157.8682 H   0  0  0  0  0  0  0  0  0  0  0  0
  152.4890  144.2003  157.8023 H   0  0  0  0  0  0  0  0  0  0  0  0
  149.8113  143.0977  158.1640 H   0  0  0  0  0  0  0  0  0  0  0  0
  152.3448  142.1413  157.2902 H   0  0  0  0  0  0  0  0  0  0  0  0
  151.4144  141.2782  159.3723 H   0  0  0  0  0  0  0  0  0  0  0  0
  149.9312  140.8069  158.6047 H   0  0  0  0  0  0  0  0  0  0  0  0
  152.7090  139.6362  158.1332 H   0  0  0  0  0  0  0  0  0  0  0  0
  151.3523  138.8384  158.8890 H   0  0  0  0  0  0  0  0  0  0  0  0
  151.6642  138.0780  156.5347 H   0  0  0  0  0  0  0  0  0  0  0  0
  150.1043  138.8289  156.7484 H   0  0  0  0  0  0  0  0  0  0  0  0
  152.6039  140.1377  155.5707 H   0  0  0  0  0  0  0  0  0  0  0  0
  151.1983  139.6533  154.6645 H   0  0  0  0  0  0  0  0  0  0  0  0
  151.3635  142.1130  155.1716 H   0  0  0  0  0  0  0  0  0  0  0  0
  149.4901  140.9144  153.4724 H   0  0  0  0  0  0  0  0  0  0  0  0
  146.7840  141.0982  153.7316 H   0  0  0  0  0  0  0  0  0  0  0  0
  146.4573  141.7502  156.4056 H   0  0  0  0  0  0  0  0  0  0  0  0
  150.2803  143.6145  156.6825 H   0  0  0  0  0  0  0  0  0  0  0  0
  1  2  3  0  0  0  0
  2  3  1  0  0  0  0
  3  4  1  0  0  0  0
  3 18  1  0  0  0  0
  3 19  1  0  0  0  0
  4  5  1  0  0  0  0
  4 20  1  0  0  0  0
  4 21  1  0  0  0  0
  5  6  1  0  0  0  0
  5 22  1  0  0  0  0
  5 23  1  0  0  0  0
  6  7  1  0  0  0  0
  6 24  1  0  0  0  0
  6 38  1  0  0  0  0
  7 12  1  0  0  0  0
  7  8  1  0  0  0  0
  7 25  1  0  0  0  0
  8  9  1  0  0  0  0
  8 26  1  0  0  0  0
  8 27  1  0  0  0  0
  9 10  1  0  0  0  0
  9 28  1  0  0  0  0
  9 29  1  0  0  0  0
 10 11  1  0  0  0  0
 10 30  1  0  0  0  0
 10 31  1  0  0  0  0
 11 12  1  0  0  0  0
 11 32  1  0  0  0  0
 11 33  1  0  0  0  0
 12 13  1  0  0  0  0
 12 34  1  0  0  0  0
 13 17  1  0  0  0  0
 13 14  1  0  0  0  0
 14 15  2  0  0  0  0
 14 35  1  0  0  0  0
 15 16  1  0  0  0  0
 15 36  1  0  0  0  0
 16 17  2  0  0  0  0
 16 37  1  0  0  0  0
M  CHG  1   6   1
M  END
> <s_m_source_file>
AV-unprocessed.smi

> <i_m_source_file_index>
3185

> <i_lp_mmshare_version>
43012

> <i_f3d_flags>
0

> <s_epik_input>
TiNDW0NIMl1bQ0gyXVtDSDJdW05IXVtDQEBIXTFbQ0gyXVtDSDJdW0NIMl1bQ0gyXVtDQEhdMW4yW2NIXVtjSF1bY0hdbjI=

> <s_epik_cmdline>
J2VwaWtfcHl0aG9uJywgJy1waCcsICc3LjAnLCAnLXRuJywgJzgnLCAnLW1hJywgJzIwMCcsICctbWV0YWxfYmluZGluZycsICctaW1hZScsICc8aW5maWxlLm1hZT4nLCAnLW9tYWUnLCAnPG91dGZpbGUubWFlPic=

> <r_lp_tautomer_probability>
1

> <r_epik_Ionization_Penalty>
0.0143465

> <r_epik_Ionization_Penalty_Charging>
0.0143338

> <r_epik_Ionization_Penalty_Neutral>
1.27047e-05

> <r_epik_State_Penalty>
0.0112058

> <r_epik_Charging_Adjusted_Penalty>
0.0255397

> <i_epik_Tot_Q>
1

> <i_epik_Tot_abs_Q>
1

> <r_epik_Metal_State_Penalty>
0.0112253

> <b_epik_Metal_Only>
0

> <s_lp_Force_Field>
OPLS_2005

> <r_lp_Energy>
18.1439

> <b_lp_Chiralities_Consistent>
1

> <s_lp_Variant>
AV-unprocessed.smi:3185-2

> <Gold.Version>
5.8.1

> <Gold.Id.Protein>
6NUR|6NUR_protein|mol2

> <Gold.PLP.Fitness>
43.2718

> <Gold.PLP.PLP>
-36.8756

> <Gold.PLP.part.hbond>
-1.0000

> <Gold.PLP.part.metal>
0.0000

> <Gold.PLP.part.buried>
-5.2612

> <Gold.PLP.part.nonpolar>
-30.8954

> <Gold.PLP.part.repulsive>
0.1432

> <Gold.PLP.ligand.clash>
0.0000

> <Gold.PLP.ligand.torsion>
1.2459

> <Gold.PLP.Chemscore.Hbond>
1.9200

> <Gold.PLP.Chemscore.CHOScore>
1.0000

> <Gold.PLP.Chemscore.Metal>
0.0000

> <Gold.Chemscore.Hbonds>
donor molecule, donor type, donor heavy atom, donor atom, acceptor molecule, acceptor atom, score
      L1  H     6    38       P1  8028  1.87
      L1  C    14    35       P1  7957  1.00

> <Gold.PLP.Chemscore.Internal.Correction>
0.1280

> <Gold.Rescore>
     Score         DG    S(hbond)    S(metal)    S(lipo)     H(rot)  DE(clash)    DE(int)     intcor
     11.63     -14.30       0.94        0.00      89.62       1.88       0.08       2.59       ----

> <Gold.Chemscore.Fitness>
11.6331

> <Gold.Chemscore.DG>
-14.2993

> <Gold.Chemscore.ZeroCoef>
-5.4800

> <Gold.Chemscore.Hbond>
0.9399

> <Gold.Chemscore.Metal>
0.0000

> <Gold.Chemscore.Lipo>
89.6153

> <Gold.Chemscore.Internal_Hbond>
0.0000

> <Gold.Chemscore.DEClash>
0.0801

> <Gold.Chemscore.DEInternal>
2.5862

> <Gold.Chemscore.Rot>
1.8769

> <Gold.Chemscore.Internal.Correction>
   9.000000E+99

> <Gold.Chemscore.Hbonds>
donor molecule, donor type, donor heavy atom, donor atom, acceptor molecule, acceptor atom, score
      L1  H     6    38       P1  8028  0.84

> <Gold.Chemscore.Hbond.Weighted>
-3.1393

> <Gold.Chemscore.Metal.Weighted>
-0.0000

> <Gold.Chemscore.Lipo.Weighted>
-10.4850

> <Gold.Chemscore.Internal_Hbond.Weighted>
0.0000

> <Gold.Chemscore.DEClash.Weighted>
0.0801

> <Gold.Chemscore.DEInternal.Weighted>
2.5862

> <Gold.Chemscore.Rot.Weighted>
4.8049

> <Gold.Chemscore.Internal.Correction.Weighted>
   9.000000E+99

> <Gold.Protein.RotatedTorsions>
[ 6907 6896 6895 6894 ] final  -74.22 input  -60.11 | X-H torsion
[ 7974 7965 7964 7962 ] final   12.87 input  175.53 | X-H torsion
[ 8008 7997 7996 7995 ] final  105.40 input   59.86 | X-H torsion
[ 10167 10162 10161 10158 ] final -147.23 input  -65.29 | X-H torsion
[ 10718 10713 10712 10709 ] final   34.08 input   66.30 | X-H torsion
[ 10763 10752 10751 10750 ] final   91.81 input  -60.55 | X-H torsion
[ 11005 11000 10999 10996 ] final   24.08 input  -57.11 | X-H torsion

> <Gold.Protein.ActiveResidues>
 VAL166  LYS551  ARG553  GLY616  TRP617  ASP618  TYR619  PRO620  LYS621  CYS622 
 ASP623  PHE694  ASN695  SER759  ASP760  ASP761  ALA762  ILE779  LEU786  VAL792 
 PHE793  MET794  SER795  GLU796  ALA797  LYS798  CYS799  TRP800  GLU811  SER814 

> <Gold.Protein.RotatedAtoms>
  150.7101  134.4901  159.5511 H   0  0  0  0  0  0  0  0  0  0  0  0  # atno 6907 bound_to 6896
  152.2520  134.8120  160.0453 H   0  0  0  0  0  0  0  0  0  0  0  0  # atno 6908 bound_to 6896
  151.8864  133.3471  159.3820 H   0  0  0  0  0  0  0  0  0  0  0  0  # atno 6909 bound_to 6896
  146.2342  139.9272  142.8501 H   0  0  0  0  0  0  0  0  0  0  0  0  # atno 7974 bound_to 7965
  156.1656  140.3131  155.8883 H   0  0  0  0  0  0  0  0  0  0  0  0  # atno 8008 bound_to 7997
  155.3693  140.0481  157.3062 H   0  0  0  0  0  0  0  0  0  0  0  0  # atno 8009 bound_to 7997
  154.5189  140.2191  155.9024 H   0  0  0  0  0  0  0  0  0  0  0  0  # atno 8010 bound_to 7997
  139.7640  143.8334  152.2612 H   0  0  0  0  0  0  0  0  0  0  0  0  # atno 10167 bound_to 10162
  157.3059  130.7374  149.6695 H   0  0  0  0  0  0  0  0  0  0  0  0  # atno 10718 bound_to 10713
  153.2122  135.4384  155.0393 H   0  0  0  0  0  0  0  0  0  0  0  0  # atno 10763 bound_to 10752
  154.8206  135.3336  154.7051 H   0  0  0  0  0  0  0  0  0  0  0  0  # atno 10764 bound_to 10752
  153.7488  135.6999  153.5006 H   0  0  0  0  0  0  0  0  0  0  0  0  # atno 10765 bound_to 10752
  140.3626  134.2109  155.7671 H   0  0  0  0  0  0  0  0  0  0  0  0  # atno 11005 bound_to 11000
  145.2079  140.9883  143.4117 LP  0  0  0  0  0  0  0  0  0  0  0  0  # atno 17320 bound_to 7965
  144.9716  139.3874  143.6306 LP  0  0  0  0  0  0  0  0  0  0  0  0  # atno 17321 bound_to 7965
  139.8349  144.7237  150.9404 LP  0  0  0  0  0  0  0  0  0  0  0  0  # atno 17342 bound_to 10162
  140.7809  143.4036  151.1108 LP  0  0  0  0  0  0  0  0  0  0  0  0  # atno 17343 bound_to 10162
  155.9674  130.4266  150.4705 LP  0  0  0  0  0  0  0  0  0  0  0  0  # atno 17370 bound_to 10713
  157.2695  131.0584  151.2269 LP  0  0  0  0  0  0  0  0  0  0  0  0  # atno 17371 bound_to 10713
  141.1979  133.8047  157.0605 LP  0  0  0  0  0  0  0  0  0  0  0  0  # atno 17394 bound_to 11000
  140.0615  134.9752  157.1312 LP  0  0  0  0  0  0  0  0  0  0  0  0  # atno 17395 bound_to 11000

$$$$
