AV-unprocessed.smi:67|AV-procd|sdf|629|dock5
  -GOLD-   2262016523D 1   1.00000     0.00000
 Structure written by MMmdl.
 49 51  0  0  0  0  0  0  0  0  3 V2000
  148.9209  138.4646  153.8198 O   0  0  0  0  0  0  0  0  0  0  0  0
  148.0327  138.1904  154.8903 C   0  0  1  0  0  0  0  0  0  0  0  0
  148.8150  137.4442  155.9950 C   0  0  0  0  0  0  0  0  0  0  0  0
  149.9161  138.2702  156.5609 N   0  3  2  0  0  0  0  0  0  0  0  0
  151.2111  138.0683  155.8592 C   0  0  0  0  0  0  0  0  0  0  0  0
  152.2642  139.0859  156.3289 C   0  0  0  0  0  0  0  0  0  0  0  0
  152.4136  139.0471  157.8635 C   0  0  1  0  0  0  0  0  0  0  0  0
  153.4464  139.8855  158.3873 O   0  0  0  0  0  0  0  0  0  0  0  0
  153.3293  140.5914  159.5699 C   0  0  0  0  0  0  0  0  0  0  0  0
  154.0490  140.3412  160.7651 C   0  0  0  0  0  0  0  0  0  0  0  0
  153.8412  141.1403  161.9055 C   0  0  0  0  0  0  0  0  0  0  0  0
  152.9122  142.1956  161.8734 C   0  0  0  0  0  0  0  0  0  0  0  0
  152.1799  142.4557  160.6969 C   0  0  0  0  0  0  0  0  0  0  0  0
  151.1770  143.5989  160.6449 C   0  0  0  0  0  0  0  0  0  0  0  0
  151.4511  144.3747  159.5970 F   0  0  0  0  0  0  0  0  0  0  0  0
  149.9353  143.1295  160.5189 F   0  0  0  0  0  0  0  0  0  0  0  0
  151.2316  144.3393  161.7528 F   0  0  0  0  0  0  0  0  0  0  0  0
  152.4013  141.6541  159.5566 C   0  0  0  0  0  0  0  0  0  0  0  0
  151.0608  139.1472  158.5982 C   0  0  0  0  0  0  0  0  0  0  0  0
  150.0618  138.1238  158.0336 C   0  0  0  0  0  0  0  0  0  0  0  0
  147.3475  139.4851  155.3401 C   0  0  0  0  0  0  0  0  0  0  0  0
  146.2369  139.6934  154.3086 C   0  0  0  0  0  0  0  0  0  0  0  0
  145.8528  138.3470  153.8434 N   0  3  0  0  0  0  0  0  0  0  0  0
  146.8537  137.3753  154.3314 C   0  0  0  0  0  0  0  0  0  0  0  0
  148.9999  137.6922  153.2797 H   0  0  0  0  0  0  0  0  0  0  0  0
  148.1405  137.1221  156.7905 H   0  0  0  0  0  0  0  0  0  0  0  0
  149.2166  136.5228  155.5695 H   0  0  0  0  0  0  0  0  0  0  0  0
  151.5643  137.0506  156.0325 H   0  0  0  0  0  0  0  0  0  0  0  0
  151.0694  138.1776  154.7831 H   0  0  0  0  0  0  0  0  0  0  0  0
  153.2236  138.8598  155.8622 H   0  0  0  0  0  0  0  0  0  0  0  0
  151.9826  140.0710  155.9660 H   0  0  0  0  0  0  0  0  0  0  0  0
  152.7858  138.0464  158.0880 H   0  0  0  0  0  0  0  0  0  0  0  0
  154.7712  139.5486  160.8501 H   0  0  0  0  0  0  0  0  0  0  0  0
  154.3985  140.9434  162.8095 H   0  0  0  0  0  0  0  0  0  0  0  0
  152.7676  142.8032  162.7545 H   0  0  0  0  0  0  0  0  0  0  0  0
  151.8504  141.8570  158.6496 H   0  0  0  0  0  0  0  0  0  0  0  0
  151.2085  138.9640  159.6630 H   0  0  0  0  0  0  0  0  0  0  0  0
  150.6218  140.1388  158.5255 H   0  0  0  0  0  0  0  0  0  0  0  0
  149.0977  138.2593  158.5227 H   0  0  0  0  0  0  0  0  0  0  0  0
  150.3916  137.1101  158.2667 H   0  0  0  0  0  0  0  0  0  0  0  0
  146.8934  139.3424  156.3218 H   0  0  0  0  0  0  0  0  0  0  0  0
  148.0268  140.3358  155.4092 H   0  0  0  0  0  0  0  0  0  0  0  0
  145.3832  140.2358  154.7159 H   0  0  0  0  0  0  0  0  0  0  0  0
  146.6171  140.2561  153.4551 H   0  0  0  0  0  0  0  0  0  0  0  0
  144.9415  138.1012  154.2038 H   0  0  0  0  0  0  0  0  0  0  0  0
  147.1462  136.6713  153.5509 H   0  0  0  0  0  0  0  0  0  0  0  0
  146.3823  136.7991  155.1289 H   0  0  0  0  0  0  0  0  0  0  0  0
  145.8286  138.3413  152.8333 H   0  0  0  0  0  0  0  0  0  0  0  0
  149.6547  139.2308  156.3870 H   0  0  0  0  0  0  0  0  0  0  0  0
  1  2  1  0  0  0  0
  1 25  1  0  0  0  0
  2 24  1  0  0  0  0
  2  3  1  0  0  0  0
  2 21  1  0  0  0  0
  3  4  1  0  0  0  0
  3 26  1  0  0  0  0
  3 27  1  0  0  0  0
  4 20  1  0  0  0  0
  4  5  1  0  0  0  0
  4 49  1  0  0  0  0
  5  6  1  0  0  0  0
  5 28  1  0  0  0  0
  5 29  1  0  0  0  0
  6  7  1  0  0  0  0
  6 30  1  0  0  0  0
  6 31  1  0  0  0  0
  7  8  1  0  0  0  0
  7 19  1  0  0  0  0
  7 32  1  0  0  0  0
  8  9  1  0  0  0  0
  9 18  1  0  0  0  0
  9 10  2  0  0  0  0
 10 11  1  0  0  0  0
 10 33  1  0  0  0  0
 11 12  2  0  0  0  0
 11 34  1  0  0  0  0
 12 13  1  0  0  0  0
 12 35  1  0  0  0  0
 13 14  1  0  0  0  0
 13 18  2  0  0  0  0
 14 15  1  0  0  0  0
 14 16  1  0  0  0  0
 14 17  1  0  0  0  0
 18 36  1  0  0  0  0
 19 20  1  0  0  0  0
 19 37  1  0  0  0  0
 19 38  1  0  0  0  0
 20 39  1  0  0  0  0
 20 40  1  0  0  0  0
 21 22  1  0  0  0  0
 21 41  1  0  0  0  0
 21 42  1  0  0  0  0
 22 23  1  0  0  0  0
 22 43  1  0  0  0  0
 22 44  1  0  0  0  0
 23 24  1  0  0  0  0
 23 45  1  0  0  0  0
 23 48  1  0  0  0  0
 24 46  1  0  0  0  0
 24 47  1  0  0  0  0
M  CHG  1   4   1
M  CHG  1  23   1
M  END
> <s_m_source_file>
AV-unprocessed.smi

> <i_m_source_file_index>
67

> <i_lp_mmshare_version>
43012

> <i_f3d_flags>
0

> <s_epik_input>
W0NIMl0xW05IXVtDSDJdW0NIMl1bQ0BAXTEoW09IXSlbQ0gyXU4yW0NIMl1bQ0gyXVtDSF0oW0NIMl1bQ0gyXTIpT2MzW2NIXVtjSF1bY0hdYyhDKEYpKEYpRilbY0hdMw==

> <s_epik_cmdline>
J2VwaWtfcHl0aG9uJywgJy1waCcsICc3LjAnLCAnLXRuJywgJzgnLCAnLW1hJywgJzIwMCcsICctbWV0YWxfYmluZGluZycsICctaW1hZScsICc8aW5maWxlLm1hZT4nLCAnLW9tYWUnLCAnPG91dGZpbGUubWFlPic=

> <r_lp_tautomer_probability>
1

> <r_epik_Ionization_Penalty>
0.0989853

> <r_epik_Ionization_Penalty_Charging>
0.0989662

> <r_epik_Ionization_Penalty_Neutral>
1.91014e-05

> <r_epik_State_Penalty>
0.0852826

> <r_epik_Charging_Adjusted_Penalty>
0.184249

> <i_epik_Tot_Q>
2

> <i_epik_Tot_abs_Q>
2

> <r_epik_Metal_State_Penalty>
0.0849414

> <b_epik_Metal_Only>
0

> <s_lp_Force_Field>
OPLS_2005

> <r_lp_Energy>
60.8706

> <b_lp_Chiralities_Consistent>
1

> <s_lp_Variant>
AV-unprocessed.smi:67-1

> <Gold.Version>
5.8.1

> <Gold.Id.Protein>
6NUR|6NUR_protein|mol2

> <Gold.PLP.Fitness>
62.6385

> <Gold.PLP.PLP>
-52.7844

> <Gold.PLP.part.hbond>
-3.8241

> <Gold.PLP.part.metal>
0.0000

> <Gold.PLP.part.buried>
-6.3792

> <Gold.PLP.part.nonpolar>
-42.1088

> <Gold.PLP.part.repulsive>
0.0384

> <Gold.PLP.ligand.clash>
0.8495

> <Gold.PLP.ligand.torsion>
1.3279

> <Gold.PLP.Chemscore.Hbond>
4.0000

> <Gold.PLP.Chemscore.CHOScore>
0.0000

> <Gold.PLP.Chemscore.Metal>
0.0000

> <Gold.Chemscore.Hbonds>
donor molecule, donor type, donor heavy atom, donor atom, acceptor molecule, acceptor atom, score
      L1  H     1    25       P1  7948  1.00
      P1  H  7997  8010       L1     8  1.00

> <Gold.PLP.Chemscore.Internal.Correction>
1.3594

> <Gold.Rescore>
     Score         DG    S(hbond)    S(metal)    S(lipo)     H(rot)  DE(clash)    DE(int)     intcor
     20.38     -23.37       2.69        0.00     124.89       2.24       0.94       2.05       ----

> <Gold.Chemscore.Fitness>
20.3829

> <Gold.Chemscore.DG>
-23.3716

> <Gold.Chemscore.ZeroCoef>
-5.4800

> <Gold.Chemscore.Hbond>
2.6949

> <Gold.Chemscore.Metal>
0.0000

> <Gold.Chemscore.Lipo>
124.8948

> <Gold.Chemscore.Internal_Hbond>
0.0000

> <Gold.Chemscore.DEClash>
0.9365

> <Gold.Chemscore.DEInternal>
2.0521

> <Gold.Chemscore.Rot>
2.2352

> <Gold.Chemscore.Internal.Correction>
   9.000000E+99

> <Gold.Chemscore.Hbonds>
donor molecule, donor type, donor heavy atom, donor atom, acceptor molecule, acceptor atom, score
      L1  H     1    25       P1  7948  0.94
      P1  H  7997  8010       L1     8  0.64

> <Gold.Chemscore.Hbond.Weighted>
-9.0010

> <Gold.Chemscore.Metal.Weighted>
-0.0000

> <Gold.Chemscore.Lipo.Weighted>
-14.6127

> <Gold.Chemscore.Internal_Hbond.Weighted>
0.0000

> <Gold.Chemscore.DEClash.Weighted>
0.9365

> <Gold.Chemscore.DEInternal.Weighted>
2.0521

> <Gold.Chemscore.Rot.Weighted>
5.7221

> <Gold.Chemscore.Internal.Correction.Weighted>
   9.000000E+99

> <Gold.Protein.RotatedTorsions>
[ 6907 6896 6895 6894 ] final   74.91 input  -60.11 | X-H torsion
[ 7974 7965 7964 7962 ] final    3.25 input  175.53 | X-H torsion
[ 8008 7997 7996 7995 ] final   25.89 input   59.86 | X-H torsion
[ 10167 10162 10161 10158 ] final  -20.82 input  -65.29 | X-H torsion
[ 10718 10713 10712 10709 ] final   23.78 input   66.30 | X-H torsion
[ 10763 10752 10751 10750 ] final   57.03 input  -60.55 | X-H torsion
[ 11005 11000 10999 10996 ] final -163.51 input  -57.11 | X-H torsion

> <Gold.Protein.ActiveResidues>
 VAL166  LYS551  ARG553  GLY616  TRP617  ASP618  TYR619  PRO620  LYS621  CYS622 
 ASP623  PHE694  ASN695  SER759  ASP760  ASP761  ALA762  ILE779  LEU786  VAL792 
 PHE793  MET794  SER795  GLU796  ALA797  LYS798  CYS799  TRP800  GLU811  SER814 

> <Gold.Protein.RotatedAtoms>
  152.5000  134.4200  159.9477 H   0  0  0  0  0  0  0  0  0  0  0  0  # atno 6907 bound_to 6896
  151.4172  133.3703  159.2759 H   0  0  0  0  0  0  0  0  0  0  0  0  # atno 6908 bound_to 6896
  150.9248  134.8688  159.7572 H   0  0  0  0  0  0  0  0  0  0  0  0  # atno 6909 bound_to 6896
  146.2445  140.0713  142.8362 H   0  0  0  0  0  0  0  0  0  0  0  0  # atno 7974 bound_to 7965
  155.0188  140.3145  155.4801 H   0  0  0  0  0  0  0  0  0  0  0  0  # atno 8008 bound_to 7997
  156.2896  140.2201  156.5247 H   0  0  0  0  0  0  0  0  0  0  0  0  # atno 8009 bound_to 7997
  154.7470  140.0469  157.0849 H   0  0  0  0  0  0  0  0  0  0  0  0  # atno 8010 bound_to 7997
  140.7278  143.4686  151.0279 H   0  0  0  0  0  0  0  0  0  0  0  0  # atno 10167 bound_to 10162
  157.1708  130.6759  149.6077 H   0  0  0  0  0  0  0  0  0  0  0  0  # atno 10718 bound_to 10713
  152.9842  135.5656  154.5324 H   0  0  0  0  0  0  0  0  0  0  0  0  # atno 10763 bound_to 10752
  154.4793  135.2788  155.1585 H   0  0  0  0  0  0  0  0  0  0  0  0  # atno 10764 bound_to 10752
  154.3100  135.6290  153.5514 H   0  0  0  0  0  0  0  0  0  0  0  0  # atno 10765 bound_to 10752
  140.5972  134.4984  157.5201 H   0  0  0  0  0  0  0  0  0  0  0  0  # atno 11005 bound_to 11000
  145.0813  140.9223  143.4823 LP  0  0  0  0  0  0  0  0  0  0  0  0  # atno 17320 bound_to 7965
  145.0867  139.2920  143.5756 LP  0  0  0  0  0  0  0  0  0  0  0  0  # atno 17321 bound_to 7965
  139.8376  143.7607  152.3180 LP  0  0  0  0  0  0  0  0  0  0  0  0  # atno 17342 bound_to 10162
  139.7744  144.7466  151.0177 LP  0  0  0  0  0  0  0  0  0  0  0  0  # atno 17343 bound_to 10162
  155.9739  130.4679  150.6343 LP  0  0  0  0  0  0  0  0  0  0  0  0  # atno 17370 bound_to 10713
  157.4045  131.0815  151.1278 LP  0  0  0  0  0  0  0  0  0  0  0  0  # atno 17371 bound_to 10713
  139.9248  134.8078  156.1102 LP  0  0  0  0  0  0  0  0  0  0  0  0  # atno 17394 bound_to 11000
  141.0896  133.6720  156.2511 LP  0  0  0  0  0  0  0  0  0  0  0  0  # atno 17395 bound_to 11000

$$$$
