AV-unprocessed.smi:37|AV-procd|sdf|321|dock7
  -GOLD-   2262016143D 1   1.00000     0.00000
 Structure written by MMmdl.
 43 44  0  0  0  0  0  0  0  0  2 V2000
  147.6442  136.4345  163.0410 C   0  0  0  0  0  0  0  0  0  0  0  0
  147.4542  135.4432  161.8847 C   0  0  0  0  0  0  0  0  0  0  0  0
  147.8316  136.0432  160.5317 C   0  0  0  0  0  0  0  0  0  0  0  0
  148.1660  137.2230  160.4233 O   0  0  0  0  0  0  0  0  0  0  0  0
  147.7313  135.1585  159.5287 O   0  0  0  0  0  0  0  0  0  0  0  0
  147.9270  135.5803  158.1900 C   0  0  0  0  0  0  0  0  0  0  0  0
  149.0492  134.7467  157.5573 C   0  0  2  0  0  0  0  0  0  0  0  0
  150.3306  135.2814  157.8959 O   0  0  0  0  0  0  0  0  0  0  0  0
  151.1768  135.2869  156.7797 C   0  0  2  0  0  0  0  0  0  0  0  0
  151.3784  136.7105  156.2934 N   0  0  0  0  0  0  0  0  0  0  0  0
  150.3382  137.4507  155.7540 C   0  0  0  0  0  0  0  0  0  0  0  0
  150.5280  138.7130  155.3189 C   0  0  0  0  0  0  0  0  0  0  0  0
  149.4982  139.4031  154.7996 F   0  0  0  0  0  0  0  0  0  0  0  0
  151.8529  139.3211  155.4181 C   0  0  0  0  0  0  0  0  0  0  0  0
  152.0220  140.4696  155.0117 O   0  0  0  0  0  0  0  0  0  0  0  0
  152.8560  138.5764  155.9659 N   0  5  0  0  0  0  0  0  0  0  0  0
  152.6684  137.2989  156.4091 C   0  0  0  0  0  0  0  0  0  0  0  0
  153.5684  136.6210  156.9051 O   0  0  0  0  0  0  0  0  0  0  0  0
  150.4836  134.4496  155.7001 C   0  0  1  0  0  0  0  0  0  0  0  0
  150.9726  132.5314  155.9581 Br  0  0  0  0  0  0  0  0  0  0  0  0
  149.0209  134.6888  156.0261 C   0  0  1  0  0  0  0  0  0  0  0  0
  148.2060  133.6404  155.5144 O   0  0  0  0  0  0  0  0  0  0  0  0
  148.3000  133.2648  154.2269 C   0  0  0  0  0  0  0  0  0  0  0  0
  149.1452  133.6582  153.4209 O   0  0  0  0  0  0  0  0  0  0  0  0
  147.2041  132.2695  153.8420 C   0  0  0  0  0  0  0  0  0  0  0  0
  146.4279  132.6698  152.5786 C   0  0  0  0  0  0  0  0  0  0  0  0
  147.3125  135.9937  163.9811 H   0  0  0  0  0  0  0  0  0  0  0  0
  147.0676  137.3462  162.8816 H   0  0  0  0  0  0  0  0  0  0  0  0
  148.6916  136.7132  163.1614 H   0  0  0  0  0  0  0  0  0  0  0  0
  148.0581  134.5514  162.0540 H   0  0  0  0  0  0  0  0  0  0  0  0
  146.4144  135.1175  161.8460 H   0  0  0  0  0  0  0  0  0  0  0  0
  147.0039  135.4824  157.6175 H   0  0  0  0  0  0  0  0  0  0  0  0
  148.2044  136.6351  158.1919 H   0  0  0  0  0  0  0  0  0  0  0  0
  149.0275  133.7346  157.9649 H   0  0  0  0  0  0  0  0  0  0  0  0
  152.1734  134.9357  157.0525 H   0  0  0  0  0  0  0  0  0  0  0  0
  149.3493  137.0293  155.6738 H   0  0  0  0  0  0  0  0  0  0  0  0
  150.7634  134.7404  154.6874 H   0  0  0  0  0  0  0  0  0  0  0  0
  148.7366  135.6633  155.6253 H   0  0  0  0  0  0  0  0  0  0  0  0
  147.6627  131.2912  153.6975 H   0  0  0  0  0  0  0  0  0  0  0  0
  146.5138  132.1738  154.6804 H   0  0  0  0  0  0  0  0  0  0  0  0
  145.6666  131.9259  152.3444 H   0  0  0  0  0  0  0  0  0  0  0  0
  147.0866  132.7499  151.7132 H   0  0  0  0  0  0  0  0  0  0  0  0
  145.9230  133.6275  152.7104 H   0  0  0  0  0  0  0  0  0  0  0  0
  1  2  1  0  0  0  0
  1 27  1  0  0  0  0
  1 28  1  0  0  0  0
  1 29  1  0  0  0  0
  2  3  1  0  0  0  0
  2 30  1  0  0  0  0
  2 31  1  0  0  0  0
  3  4  2  0  0  0  0
  3  5  1  0  0  0  0
  5  6  1  0  0  0  0
  6  7  1  0  0  0  0
  6 32  1  0  0  0  0
  6 33  1  0  0  0  0
  7 21  1  0  0  0  0
  7  8  1  0  0  0  0
  7 34  1  0  0  0  0
  8  9  1  0  0  0  0
  9 10  1  0  0  0  0
  9 19  1  0  0  0  0
  9 35  1  0  0  0  0
 10 17  1  0  0  0  0
 10 11  1  0  0  0  0
 11 12  2  0  0  0  0
 11 36  1  0  0  0  0
 12 13  1  0  0  0  0
 12 14  1  0  0  0  0
 14 15  2  0  0  0  0
 14 16  1  0  0  0  0
 16 17  1  0  0  0  0
 17 18  2  0  0  0  0
 19 20  1  0  0  0  0
 19 21  1  0  0  0  0
 19 37  1  0  0  0  0
 21 22  1  0  0  0  0
 21 38  1  0  0  0  0
 22 23  1  0  0  0  0
 23 24  2  0  0  0  0
 23 25  1  0  0  0  0
 25 26  1  0  0  0  0
 25 39  1  0  0  0  0
 25 40  1  0  0  0  0
 26 41  1  0  0  0  0
 26 42  1  0  0  0  0
 26 43  1  0  0  0  0
M  CHG  1  16  -1
M  END
> <s_m_source_file>
AV-unprocessed.smi

> <i_m_source_file_index>
37

> <i_lp_mmshare_version>
43012

> <i_f3d_flags>
0

> <s_epik_input>
W0NIM11bQ0gyXUMoPU8pT1tDSDJdW0NAQEhdMU9bQ0BASF0objJbY0hdYyhGKWMoPU8pW25IXWMyPU8pW0NAQEhdKEJyKVtDQEhdMU9DKD1PKVtDSDJdW0NIM10=

> <s_epik_cmdline>
J2VwaWtfcHl0aG9uJywgJy1waCcsICc3LjAnLCAnLXRuJywgJzgnLCAnLW1hJywgJzIwMCcsICctbWV0YWxfYmluZGluZycsICctaW1hZScsICc8aW5maWxlLm1hZT4nLCAnLW9tYWUnLCAnPG91dGZpbGUubWFlPic=

> <r_epik_Ionization_Penalty>
1.08158

> <r_epik_Ionization_Penalty_Charging>
9.05154e-09

> <r_epik_Ionization_Penalty_Neutral>
1.08158

> <r_epik_State_Penalty>
1.13706

> <r_epik_Charging_Adjusted_Penalty>
1.13706

> <i_epik_Tot_Q>
-1

> <i_epik_Tot_abs_Q>
1

> <r_epik_Metal_State_Penalty>
0.00343535

> <b_epik_Metal_Only>
0

> <s_epik_Chemistry_Notes>
This compound has an ester and may undergo hydrolysis at high or low pH. This compound contains an acetal/aminal-like group ( X-CH(R)-Y where X, Y are N, S, or O) that may be acid/base labile, releasing an aldehyde.

> <s_lp_Force_Field>
OPLS_2005

> <r_lp_Energy>
31.9514

> <b_lp_Chiralities_Consistent>
1

> <s_lp_Variant>
AV-unprocessed.smi:37-19

> <Gold.Version>
5.8.1

> <Gold.Id.Protein>
6NUR|6NUR_protein|mol2

> <Gold.PLP.Fitness>
45.5070

> <Gold.PLP.PLP>
-33.4831

> <Gold.PLP.part.hbond>
-5.3583

> <Gold.PLP.part.metal>
0.0000

> <Gold.PLP.part.buried>
-1.7970

> <Gold.PLP.part.nonpolar>
-27.1592

> <Gold.PLP.part.repulsive>
0.9504

> <Gold.PLP.ligand.clash>
0.0000

> <Gold.PLP.ligand.torsion>
0.9857

> <Gold.PLP.Chemscore.Hbond>
4.6286

> <Gold.PLP.Chemscore.CHOScore>
0.0000

> <Gold.PLP.Chemscore.Metal>
0.0000

> <Gold.Chemscore.Hbonds>
donor molecule, donor type, donor heavy atom, donor atom, acceptor molecule, acceptor atom, score
      P1  H  6896  6909       L1     8  0.50
      P1  H  6931  6943       L1     4  0.72
      P1  H  6934  6947       L1     4  0.55
      P1  H  7989  7998       L1    15  0.66
      P1  H  7997  8010       L1    16  1.33
      P1  H 10752 10763       L1    18  0.90

> <Gold.PLP.Chemscore.Internal.Correction>
0.1098

> <Gold.Rescore>
     Score         DG    S(hbond)    S(metal)    S(lipo)     H(rot)  DE(clash)    DE(int)     intcor
     13.52     -15.86       3.89        0.00      48.98       3.27       0.09       2.24       ----

> <Gold.Chemscore.Fitness>
13.5237

> <Gold.Chemscore.DG>
-15.8560

> <Gold.Chemscore.ZeroCoef>
-5.4800

> <Gold.Chemscore.Hbond>
3.8949

> <Gold.Chemscore.Metal>
0.0000

> <Gold.Chemscore.Lipo>
48.9775

> <Gold.Chemscore.Internal_Hbond>
0.0000

> <Gold.Chemscore.DEClash>
0.0947

> <Gold.Chemscore.DEInternal>
2.2376

> <Gold.Chemscore.Rot>
3.2669

> <Gold.Chemscore.Internal.Correction>
   9.000000E+99

> <Gold.Chemscore.Hbonds>
donor molecule, donor type, donor heavy atom, donor atom, acceptor molecule, acceptor atom, score
      P1  H  6896  6909       L1     8  0.10
      P1  H  6931  6943       L1     4  0.69
      P1  H  6934  6947       L1     4  0.55
      P1  H  7989  7998       L1    15  0.64
      P1  H  7997  8010       L1    16  0.17
      P1  H 10752 10763       L1    18  0.25

> <Gold.Chemscore.Hbond.Weighted>
-13.0090

> <Gold.Chemscore.Metal.Weighted>
-0.0000

> <Gold.Chemscore.Lipo.Weighted>
-5.7304

> <Gold.Chemscore.Internal_Hbond.Weighted>
0.0000

> <Gold.Chemscore.DEClash.Weighted>
0.0947

> <Gold.Chemscore.DEInternal.Weighted>
2.2376

> <Gold.Chemscore.Rot.Weighted>
8.3634

> <Gold.Chemscore.Internal.Correction.Weighted>
   9.000000E+99

> <Gold.Protein.RotatedTorsions>
[ 6907 6896 6895 6894 ] final   23.28 input  -60.11 | X-H torsion
[ 7974 7965 7964 7962 ] final  128.42 input  175.53 | X-H torsion
[ 8008 7997 7996 7995 ] final   84.78 input   59.86 | X-H torsion
[ 10167 10162 10161 10158 ] final -109.91 input  -65.29 | X-H torsion
[ 10718 10713 10712 10709 ] final  -36.30 input   66.30 | X-H torsion
[ 10763 10752 10751 10750 ] final  142.18 input  -60.55 | X-H torsion
[ 11005 11000 10999 10996 ] final   71.42 input  -57.11 | X-H torsion

> <Gold.Protein.ActiveResidues>
 VAL166  LYS551  ARG553  GLY616  TRP617  ASP618  TYR619  PRO620  LYS621  CYS622 
 ASP623  PHE694  ASN695  SER759  ASP760  ASP761  ALA762  ILE779  LEU786  VAL792 
 PHE793  MET794  SER795  GLU796  ALA797  LYS798  CYS799  TRP800  GLU811  SER814 

> <Gold.Protein.RotatedAtoms>
  151.9400  135.0218  160.0534 H   0  0  0  0  0  0  0  0  0  0  0  0  # atno 6907 bound_to 6896
  152.2044  133.4860  159.5084 H   0  0  0  0  0  0  0  0  0  0  0  0  # atno 6908 bound_to 6896
  150.6962  134.1465  159.4167 H   0  0  0  0  0  0  0  0  0  0  0  0  # atno 6909 bound_to 6896
  145.0397  139.3974  143.5108 H   0  0  0  0  0  0  0  0  0  0  0  0  # atno 7974 bound_to 7965
  155.9414  140.3407  155.6331 H   0  0  0  0  0  0  0  0  0  0  0  0  # atno 8008 bound_to 7997
  155.7034  140.0763  157.2419 H   0  0  0  0  0  0  0  0  0  0  0  0  # atno 8009 bound_to 7997
  154.4103  140.1636  156.2204 H   0  0  0  0  0  0  0  0  0  0  0  0  # atno 8010 bound_to 7997
  140.1502  143.4206  152.1500 H   0  0  0  0  0  0  0  0  0  0  0  0  # atno 10167 bound_to 10162
  156.3285  130.4276  149.7894 H   0  0  0  0  0  0  0  0  0  0  0  0  # atno 10718 bound_to 10713
  153.9515  135.2969  155.3438 H   0  0  0  0  0  0  0  0  0  0  0  0  # atno 10763 bound_to 10752
  154.7424  135.5019  153.9148 H   0  0  0  0  0  0  0  0  0  0  0  0  # atno 10764 bound_to 10752
  153.0992  135.6729  153.9814 H   0  0  0  0  0  0  0  0  0  0  0  0  # atno 10765 bound_to 10752
  139.9544  134.7170  156.0787 H   0  0  0  0  0  0  0  0  0  0  0  0  # atno 11005 bound_to 11000
  146.3508  139.9991  142.8678 LP  0  0  0  0  0  0  0  0  0  0  0  0  # atno 17320 bound_to 7965
  145.1663  140.9698  143.4347 LP  0  0  0  0  0  0  0  0  0  0  0  0  # atno 17321 bound_to 7965
  139.5430  144.7273  151.4674 LP  0  0  0  0  0  0  0  0  0  0  0  0  # atno 17342 bound_to 10162
  140.6707  143.8299  150.6996 LP  0  0  0  0  0  0  0  0  0  0  0  0  # atno 17343 bound_to 10162
  156.5175  130.8200  151.3191 LP  0  0  0  0  0  0  0  0  0  0  0  0  # atno 17370 bound_to 10713
  157.7426  130.9893  150.2528 LP  0  0  0  0  0  0  0  0  0  0  0  0  # atno 17371 bound_to 10713
  141.1213  133.6612  156.3222 LP  0  0  0  0  0  0  0  0  0  0  0  0  # atno 17394 bound_to 11000
  140.5643  134.5903  157.5441 LP  0  0  0  0  0  0  0  0  0  0  0  0  # atno 17395 bound_to 11000

$$$$
