AV-unprocessed.smi:1578|AV-procd|sdf|6353|dock2
  -GOLD-   22720 6573D 1   1.00000     0.00000
 Structure written by MMmdl.
 45 46  0  0  0  0  0  0  0  0  2 V2000
  150.2018  135.2319  155.0696 C   0  0  0  0  0  0  0  0  0  0  0  0
  148.7238  135.6102  155.2336 C   0  0  1  0  0  0  0  0  0  0  0  0
  147.7950  134.4194  154.8972 C   0  0  0  0  0  0  0  0  0  0  0  0
  147.2255  134.4876  153.5264 N   0  3  0  0  0  0  0  0  0  0  0  0
  146.9717  133.1568  152.9237 C   0  0  0  0  0  0  0  0  0  0  0  0
  146.4681  133.3191  151.4805 C   0  0  0  0  0  0  0  0  0  0  0  0
  145.2833  134.1061  151.4811 O   0  0  0  0  0  0  0  0  0  0  0  0
  145.5127  135.4149  151.9885 C   0  0  0  0  0  0  0  0  0  0  0  0
  146.0112  135.3329  153.4426 C   0  0  0  0  0  0  0  0  0  0  0  0
  148.4946  136.0779  156.6005 N   0  0  0  0  0  0  0  0  0  0  0  0
  149.0562  135.5731  157.7103 C   0  0  0  0  0  0  0  0  0  0  0  0
  149.7933  134.5873  157.7108 O   0  0  0  0  0  0  0  0  0  0  0  0
  148.7557  136.3129  159.0193 C   0  0  0  0  0  0  0  0  0  0  0  0
  148.0437  135.4613  159.9874 N   0  0  0  0  0  0  0  0  0  0  0  0
  147.9748  134.0824  159.7082 C   0  0  0  0  0  0  0  0  0  0  0  0
  147.3525  133.2020  160.5147 C   0  0  0  0  0  0  0  0  0  0  0  0
  147.3174  131.7192  160.1807 C   0  0  0  0  0  0  0  0  0  0  0  0
  146.7372  131.4954  159.0017 F   0  0  0  0  0  0  0  0  0  0  0  0
  148.5563  131.2306  160.1379 F   0  0  0  0  0  0  0  0  0  0  0  0
  146.6429  131.0492  161.1151 F   0  0  0  0  0  0  0  0  0  0  0  0
  146.7499  133.7411  161.7189 C   0  0  0  0  0  0  0  0  0  0  0  0
  146.8111  135.0566  162.0033 C   0  0  0  0  0  0  0  0  0  0  0  0
  147.4846  136.0029  161.1119 C   0  0  0  0  0  0  0  0  0  0  0  0
  147.5494  137.2072  161.3626 O   0  0  0  0  0  0  0  0  0  0  0  0
  150.4102  134.9015  154.0516 H   0  0  0  0  0  0  0  0  0  0  0  0
  150.4844  134.4241  155.7457 H   0  0  0  0  0  0  0  0  0  0  0  0
  150.8511  136.0829  155.2780 H   0  0  0  0  0  0  0  0  0  0  0  0
  148.5273  136.4229  154.5332 H   0  0  0  0  0  0  0  0  0  0  0  0
  148.3168  133.4707  155.0331 H   0  0  0  0  0  0  0  0  0  0  0  0
  146.9744  134.4196  155.6164 H   0  0  0  0  0  0  0  0  0  0  0  0
  147.8802  132.5557  152.9254 H   0  0  0  0  0  0  0  0  0  0  0  0
  146.2331  132.6177  153.5189 H   0  0  0  0  0  0  0  0  0  0  0  0
  147.2304  133.7816  150.8510 H   0  0  0  0  0  0  0  0  0  0  0  0
  146.2447  132.3437  151.0482 H   0  0  0  0  0  0  0  0  0  0  0  0
  146.2311  135.9372  151.3558 H   0  0  0  0  0  0  0  0  0  0  0  0
  144.5814  135.9798  151.9427 H   0  0  0  0  0  0  0  0  0  0  0  0
  145.2317  134.9186  154.0838 H   0  0  0  0  0  0  0  0  0  0  0  0
  146.2312  136.3364  153.8088 H   0  0  0  0  0  0  0  0  0  0  0  0
  147.8917  136.8813  156.7064 H   0  0  0  0  0  0  0  0  0  0  0  0
  149.6822  136.6787  159.4669 H   0  0  0  0  0  0  0  0  0  0  0  0
  148.1783  137.2063  158.7786 H   0  0  0  0  0  0  0  0  0  0  0  0
  148.4657  133.7786  158.7949 H   0  0  0  0  0  0  0  0  0  0  0  0
  146.2397  133.0826  162.4061 H   0  0  0  0  0  0  0  0  0  0  0  0
  146.3514  135.4237  162.9092 H   0  0  0  0  0  0  0  0  0  0  0  0
  147.9222  134.9421  152.9528 H   0  0  0  0  0  0  0  0  0  0  0  0
  1  2  1  0  0  0  0
  1 25  1  0  0  0  0
  1 26  1  0  0  0  0
  1 27  1  0  0  0  0
  2  3  1  0  0  0  0
  2 10  1  0  0  0  0
  2 28  1  0  0  0  0
  3  4  1  0  0  0  0
  3 29  1  0  0  0  0
  3 30  1  0  0  0  0
  4  9  1  0  0  0  0
  4  5  1  0  0  0  0
  4 45  1  0  0  0  0
  5  6  1  0  0  0  0
  5 31  1  0  0  0  0
  5 32  1  0  0  0  0
  6  7  1  0  0  0  0
  6 33  1  0  0  0  0
  6 34  1  0  0  0  0
  7  8  1  0  0  0  0
  8  9  1  0  0  0  0
  8 35  1  0  0  0  0
  8 36  1  0  0  0  0
  9 37  1  0  0  0  0
  9 38  1  0  0  0  0
 10 11  1  0  0  0  0
 10 39  1  0  0  0  0
 11 12  2  0  0  0  0
 11 13  1  0  0  0  0
 13 14  1  0  0  0  0
 13 40  1  0  0  0  0
 13 41  1  0  0  0  0
 14 23  1  0  0  0  0
 14 15  1  0  0  0  0
 15 16  2  0  0  0  0
 15 42  1  0  0  0  0
 16 17  1  0  0  0  0
 16 21  1  0  0  0  0
 17 18  1  0  0  0  0
 17 19  1  0  0  0  0
 17 20  1  0  0  0  0
 21 22  2  0  0  0  0
 21 43  1  0  0  0  0
 22 23  1  0  0  0  0
 22 44  1  0  0  0  0
 23 24  2  0  0  0  0
M  CHG  1   4   1
M  END
> <s_m_source_file>
AV-unprocessed.smi

> <i_m_source_file_index>
1578

> <i_lp_mmshare_version>
43012

> <i_f3d_flags>
0

> <s_epik_input>
W0NIMl0xW0NIMl1PW0NIMl1bQ0gyXU4xW0NIMl1bQ0BASF0oW0NIM10pW05IXUMoPU8pW0NIMl1uMltjSF1jKEMoRikoRilGKVtjSF1bY0hdYzI9Tw==

> <s_epik_cmdline>
J2VwaWtfcHl0aG9uJywgJy1waCcsICc3LjAnLCAnLXRuJywgJzgnLCAnLW1hJywgJzIwMCcsICctbWV0YWxfYmluZGluZycsICctaW1hZScsICc8aW5maWxlLm1hZT4nLCAnLW9tYWUnLCAnPG91dGZpbGUubWFlPic=

> <r_lp_tautomer_probability>
1

> <r_epik_Ionization_Penalty>
0.656654

> <r_epik_Ionization_Penalty_Charging>
0.656653

> <r_epik_Ionization_Penalty_Neutral>
9.12373e-08

> <r_epik_State_Penalty>
0.675641

> <r_epik_Charging_Adjusted_Penalty>
1.33229

> <i_epik_Tot_Q>
1

> <i_epik_Tot_abs_Q>
1

> <r_epik_Metal_State_Penalty>
0.675695

> <b_epik_Metal_Only>
0

> <s_lp_Force_Field>
OPLS_2005

> <r_lp_Energy>
32.4409

> <b_lp_Chiralities_Consistent>
1

> <s_lp_Variant>
AV-unprocessed.smi:1578-4

> <Gold.Version>
5.8.1

> <Gold.Id.Protein>
6NUR|6NUR_protein|mol2

> <Gold.PLP.Fitness>
43.5884

> <Gold.PLP.PLP>
-33.0926

> <Gold.PLP.part.hbond>
-4.0000

> <Gold.PLP.part.metal>
0.0000

> <Gold.PLP.part.buried>
-3.9458

> <Gold.PLP.part.nonpolar>
-25.5144

> <Gold.PLP.part.repulsive>
0.1235

> <Gold.PLP.ligand.clash>
1.2861

> <Gold.PLP.ligand.torsion>
1.3548

> <Gold.PLP.Chemscore.Hbond>
4.7680

> <Gold.PLP.Chemscore.CHOScore>
0.0000

> <Gold.PLP.Chemscore.Metal>
0.0000

> <Gold.Chemscore.Hbonds>
donor molecule, donor type, donor heavy atom, donor atom, acceptor molecule, acceptor atom, score
      L1  H     4    45       P1  7948  2.00
      P1  H  6896  6907       L1    12  0.99
      P1  H  6931  6943       L1    24  0.93
      P1  H  6934  6947       L1    24  0.88

> <Gold.PLP.Chemscore.Internal.Correction>
0.1875

> <Gold.Rescore>
     Score         DG    S(hbond)    S(metal)    S(lipo)     H(rot)  DE(clash)    DE(int)     intcor
     14.93     -19.13       3.62        0.00      60.71       2.17       0.00       4.20       ----

> <Gold.Chemscore.Fitness>
14.9330

> <Gold.Chemscore.DG>
-19.1295

> <Gold.Chemscore.ZeroCoef>
-5.4800

> <Gold.Chemscore.Hbond>
3.6244

> <Gold.Chemscore.Metal>
0.0000

> <Gold.Chemscore.Lipo>
60.7099

> <Gold.Chemscore.Internal_Hbond>
0.0000

> <Gold.Chemscore.DEClash>
0.0009

> <Gold.Chemscore.DEInternal>
4.1956

> <Gold.Chemscore.Rot>
2.1716

> <Gold.Chemscore.Internal.Correction>
   9.000000E+99

> <Gold.Chemscore.Hbonds>
donor molecule, donor type, donor heavy atom, donor atom, acceptor molecule, acceptor atom, score
      L1  H     4    45       P1  7948  0.95
      P1  H  6896  6907       L1    12  0.87
      P1  H  6931  6943       L1    24  0.91
      P1  H  6934  6947       L1    24  0.86

> <Gold.Chemscore.Hbond.Weighted>
-12.1056

> <Gold.Chemscore.Metal.Weighted>
-0.0000

> <Gold.Chemscore.Lipo.Weighted>
-7.1031

> <Gold.Chemscore.Internal_Hbond.Weighted>
0.0000

> <Gold.Chemscore.DEClash.Weighted>
0.0009

> <Gold.Chemscore.DEInternal.Weighted>
4.1956

> <Gold.Chemscore.Rot.Weighted>
5.5592

> <Gold.Chemscore.Internal.Correction.Weighted>
   9.000000E+99

> <Gold.Protein.RotatedTorsions>
[ 6907 6896 6895 6894 ] final  -94.82 input  -60.11 | X-H torsion
[ 7974 7965 7964 7962 ] final -175.36 input  175.53 | X-H torsion
[ 8008 7997 7996 7995 ] final   36.46 input   59.86 | X-H torsion
[ 10167 10162 10161 10158 ] final -115.82 input  -65.29 | X-H torsion
[ 10718 10713 10712 10709 ] final  -52.19 input   66.30 | X-H torsion
[ 10763 10752 10751 10750 ] final  -81.17 input  -60.55 | X-H torsion
[ 11005 11000 10999 10996 ] final  171.74 input  -57.11 | X-H torsion

> <Gold.Protein.ActiveResidues>
 VAL166  LYS551  ARG553  GLY616  TRP617  ASP618  TYR619  PRO620  LYS621  CYS622 
 ASP623  PHE694  ASN695  SER759  ASP760  ASP761  ALA762  ILE779  LEU786  VAL792 
 PHE793  MET794  SER795  GLU796  ALA797  LYS798  CYS799  TRP800  GLU811  SER814 

> <Gold.Protein.RotatedAtoms>
  150.6950  134.1753  159.4227 H   0  0  0  0  0  0  0  0  0  0  0  0  # atno 6907 bound_to 6896
  151.9729  135.0065  160.0563 H   0  0  0  0  0  0  0  0  0  0  0  0  # atno 6908 bound_to 6896
  152.1825  133.4682  159.5002 H   0  0  0  0  0  0  0  0  0  0  0  0  # atno 6909 bound_to 6896
  144.7128  140.1333  143.6397 H   0  0  0  0  0  0  0  0  0  0  0  0  # atno 7974 bound_to 7965
  155.1877  140.3305  155.4364 H   0  0  0  0  0  0  0  0  0  0  0  0  # atno 8008 bound_to 7997
  156.2453  140.1915  156.6922 H   0  0  0  0  0  0  0  0  0  0  0  0  # atno 8009 bound_to 7997
  154.6227  140.0593  156.9621 H   0  0  0  0  0  0  0  0  0  0  0  0  # atno 8010 bound_to 7997
  140.0859  143.4744  152.1898 H   0  0  0  0  0  0  0  0  0  0  0  0  # atno 10167 bound_to 10162
  156.1643  130.4149  149.9745 H   0  0  0  0  0  0  0  0  0  0  0  0  # atno 10718 bound_to 10713
  154.5603  135.5635  153.7001 H   0  0  0  0  0  0  0  0  0  0  0  0  # atno 10763 bound_to 10752
  153.0016  135.6272  154.2254 H   0  0  0  0  0  0  0  0  0  0  0  0  # atno 10764 bound_to 10752
  154.2192  135.2870  155.2911 H   0  0  0  0  0  0  0  0  0  0  0  0  # atno 10765 bound_to 10752
  140.3222  134.7427  157.4073 H   0  0  0  0  0  0  0  0  0  0  0  0  # atno 11005 bound_to 11000
  145.9267  139.2580  143.1349 LP  0  0  0  0  0  0  0  0  0  0  0  0  # atno 17320 bound_to 7965
  145.9564  140.8869  143.0233 LP  0  0  0  0  0  0  0  0  0  0  0  0  # atno 17321 bound_to 7965
  139.5753  144.7484  151.3783 LP  0  0  0  0  0  0  0  0  0  0  0  0  # atno 17342 bound_to 10162
  140.7054  143.7527  150.7473 LP  0  0  0  0  0  0  0  0  0  0  0  0  # atno 17343 bound_to 10162
  156.7564  130.9135  151.3639 LP  0  0  0  0  0  0  0  0  0  0  0  0  # atno 17370 bound_to 10713
  157.6756  130.9091  150.0142 LP  0  0  0  0  0  0  0  0  0  0  0  0  # atno 17371 bound_to 10713
  140.0932  134.5573  155.8424 LP  0  0  0  0  0  0  0  0  0  0  0  0  # atno 17394 bound_to 11000
  141.2084  133.6673  156.6366 LP  0  0  0  0  0  0  0  0  0  0  0  0  # atno 17395 bound_to 11000

$$$$
