AV-unprocessed.smi:3158|AV-procd|sdf|12047|dock2
  -GOLD-   2272017473D 1   1.00000     0.00000
 Structure written by MMmdl.
 39 39  0  0  0  0  0  0  0  0  1 V2000
  146.5179  141.9858  154.5091 C   0  0  0  0  0  0  0  0  0  0  0  0
  147.9856  141.9603  154.0575 C   0  0  0  0  0  0  0  0  0  0  0  0
  148.6341  140.5654  154.1381 C   0  0  2  0  0  0  0  0  0  0  0  0
  147.6612  139.4616  153.6943 C   0  0  0  0  0  0  0  0  0  0  0  0
  149.1003  140.3096  155.4982 N   0  0  0  0  0  0  0  0  0  0  0  0
  150.3798  140.1582  155.8761 C   0  0  0  0  0  0  0  0  0  0  0  0
  151.3239  140.1892  155.0857 O   0  0  0  0  0  0  0  0  0  0  0  0
  150.6095  139.9564  157.3808 C   0  0  1  0  0  0  0  0  0  0  0  0
  151.3256  138.6253  157.6894 C   0  0  0  0  0  0  0  0  0  0  0  0
  151.3512  141.1060  157.9192 N   0  0  0  0  0  0  0  0  0  0  0  0
  151.7973  140.9142  159.2933 C   0  0  0  0  0  0  0  0  0  0  0  0
  152.8947  141.9365  159.6357 C   0  0  0  0  0  0  0  0  0  0  0  0
  152.3979  143.3018  159.6434 N   0  0  0  0  0  0  0  0  0  0  0  0
  152.7304  144.3396  158.7983 C   0  0  0  0  0  0  0  0  0  0  0  0
  152.0050  145.4291  159.1874 C   0  0  0  0  0  0  0  0  0  0  0  0
  151.2491  144.9532  160.2949 C   0  0  0  0  0  0  0  0  0  0  0  0
  151.4884  143.6806  160.5673 N   0  0  0  0  0  0  0  0  0  0  0  0
  146.1170  142.9986  154.4671 H   0  0  0  0  0  0  0  0  0  0  0  0
  146.4160  141.6294  155.5343 H   0  0  0  0  0  0  0  0  0  0  0  0
  145.8925  141.3590  153.8734 H   0  0  0  0  0  0  0  0  0  0  0  0
  148.0534  142.3407  153.0373 H   0  0  0  0  0  0  0  0  0  0  0  0
  148.5526  142.6554  154.6781 H   0  0  0  0  0  0  0  0  0  0  0  0
  149.4914  140.5575  153.4621 H   0  0  0  0  0  0  0  0  0  0  0  0
  147.3126  139.6337  152.6758 H   0  0  0  0  0  0  0  0  0  0  0  0
  146.7857  139.4188  154.3430 H   0  0  0  0  0  0  0  0  0  0  0  0
  148.1391  138.4815  153.7145 H   0  0  0  0  0  0  0  0  0  0  0  0
  148.3941  140.2729  156.2194 H   0  0  0  0  0  0  0  0  0  0  0  0
  149.6176  139.9268  157.8354 H   0  0  0  0  0  0  0  0  0  0  0  0
  150.8085  137.7821  157.2291 H   0  0  0  0  0  0  0  0  0  0  0  0
  151.3579  138.4265  158.7603 H   0  0  0  0  0  0  0  0  0  0  0  0
  152.3527  138.6269  157.3218 H   0  0  0  0  0  0  0  0  0  0  0  0
  152.1327  141.3570  157.3307 H   0  0  0  0  0  0  0  0  0  0  0  0
  150.9604  141.0213  159.9849 H   0  0  0  0  0  0  0  0  0  0  0  0
  152.1915  139.9055  159.4158 H   0  0  0  0  0  0  0  0  0  0  0  0
  153.3103  141.7190  160.6205 H   0  0  0  0  0  0  0  0  0  0  0  0
  153.7213  141.8654  158.9272 H   0  0  0  0  0  0  0  0  0  0  0  0
  153.4431  144.2165  157.9961 H   0  0  0  0  0  0  0  0  0  0  0  0
  152.0112  146.4148  158.7464 H   0  0  0  0  0  0  0  0  0  0  0  0
  150.5390  145.4914  160.9054 H   0  0  0  0  0  0  0  0  0  0  0  0
  1  2  1  0  0  0  0
  1 18  1  0  0  0  0
  1 19  1  0  0  0  0
  1 20  1  0  0  0  0
  2  3  1  0  0  0  0
  2 21  1  0  0  0  0
  2 22  1  0  0  0  0
  3  4  1  0  0  0  0
  3  5  1  0  0  0  0
  3 23  1  0  0  0  0
  4 24  1  0  0  0  0
  4 25  1  0  0  0  0
  4 26  1  0  0  0  0
  5  6  1  0  0  0  0
  5 27  1  0  0  0  0
  6  7  2  0  0  0  0
  6  8  1  0  0  0  0
  8  9  1  0  0  0  0
  8 10  1  0  0  0  0
  8 28  1  0  0  0  0
  9 29  1  0  0  0  0
  9 30  1  0  0  0  0
  9 31  1  0  0  0  0
 10 11  1  0  0  0  0
 10 32  1  0  0  0  0
 11 12  1  0  0  0  0
 11 33  1  0  0  0  0
 11 34  1  0  0  0  0
 12 13  1  0  0  0  0
 12 35  1  0  0  0  0
 12 36  1  0  0  0  0
 13 17  1  0  0  0  0
 13 14  1  0  0  0  0
 14 15  2  0  0  0  0
 14 37  1  0  0  0  0
 15 16  1  0  0  0  0
 15 38  1  0  0  0  0
 16 17  2  0  0  0  0
 16 39  1  0  0  0  0
M  END
> <s_m_source_file>
AV-unprocessed.smi

> <i_m_source_file_index>
3158

> <i_lp_mmshare_version>
43012

> <i_f3d_flags>
0

> <s_epik_input>
W0NIM11bQ0gyXVtDQEhdKFtDSDNdKVtOSF1DKD1PKVtDQEhdKFtDSDNdKVtOSF1bQ0gyXVtDSDJdbjFbY0hdW2NIXVtjSF1uMQ==

> <s_epik_cmdline>
J2VwaWtfcHl0aG9uJywgJy1waCcsICc3LjAnLCAnLXRuJywgJzgnLCAnLW1hJywgJzIwMCcsICctbWV0YWxfYmluZGluZycsICctaW1hZScsICc8aW5maWxlLm1hZT4nLCAnLW9tYWUnLCAnPG91dGZpbGUubWFlPic=

> <r_lp_tautomer_probability>
1

> <r_epik_Ionization_Penalty>
0.724013

> <r_epik_Ionization_Penalty_Charging>
0

> <r_epik_Ionization_Penalty_Neutral>
0.724013

> <r_epik_State_Penalty>
0.74758

> <r_epik_Charging_Adjusted_Penalty>
0.74758

> <i_epik_Tot_Q>
0

> <i_epik_Tot_abs_Q>
0

> <r_epik_Metal_State_Penalty>
0.746846

> <b_epik_Metal_Only>
0

> <s_lp_Force_Field>
OPLS_2005

> <r_lp_Energy>
5.95419

> <b_lp_Chiralities_Consistent>
1

> <s_lp_Variant>
AV-unprocessed.smi:3158-7

> <Gold.Version>
5.8.1

> <Gold.Id.Protein>
6NUR|6NUR_protein|mol2

> <Gold.PLP.Fitness>
41.3843

> <Gold.PLP.PLP>
-38.9916

> <Gold.PLP.part.hbond>
-1.0000

> <Gold.PLP.part.metal>
0.0000

> <Gold.PLP.part.buried>
-4.0926

> <Gold.PLP.part.nonpolar>
-33.5576

> <Gold.PLP.part.repulsive>
0.1988

> <Gold.PLP.ligand.clash>
0.0000

> <Gold.PLP.ligand.torsion>
0.4370

> <Gold.PLP.Chemscore.Hbond>
1.0000

> <Gold.PLP.Chemscore.CHOScore>
0.0000

> <Gold.PLP.Chemscore.Metal>
0.0000

> <Gold.Chemscore.Hbonds>
donor molecule, donor type, donor heavy atom, donor atom, acceptor molecule, acceptor atom, score
      P1  H  7989  7998       L1     7  1.00

> <Gold.PLP.Chemscore.Internal.Correction>
0.2666

> <Gold.Rescore>
     Score         DG    S(hbond)    S(metal)    S(lipo)     H(rot)  DE(clash)    DE(int)     intcor
     13.66     -13.96       1.00        0.00      90.45       2.12       0.07       0.24       ----

> <Gold.Chemscore.Fitness>
13.6554

> <Gold.Chemscore.DG>
-13.9643

> <Gold.Chemscore.ZeroCoef>
-5.4800

> <Gold.Chemscore.Hbond>
0.9992

> <Gold.Chemscore.Metal>
0.0000

> <Gold.Chemscore.Lipo>
90.4529

> <Gold.Chemscore.Internal_Hbond>
0.0000

> <Gold.Chemscore.DEClash>
0.0658

> <Gold.Chemscore.DEInternal>
0.2432

> <Gold.Chemscore.Rot>
2.1234

> <Gold.Chemscore.Internal.Correction>
   9.000000E+99

> <Gold.Chemscore.Hbonds>
donor molecule, donor type, donor heavy atom, donor atom, acceptor molecule, acceptor atom, score
      P1  H  7989  7998       L1     7  0.98

> <Gold.Chemscore.Hbond.Weighted>
-3.3372

> <Gold.Chemscore.Metal.Weighted>
-0.0000

> <Gold.Chemscore.Lipo.Weighted>
-10.5830

> <Gold.Chemscore.Internal_Hbond.Weighted>
0.0000

> <Gold.Chemscore.DEClash.Weighted>
0.0658

> <Gold.Chemscore.DEInternal.Weighted>
0.2432

> <Gold.Chemscore.Rot.Weighted>
5.4359

> <Gold.Chemscore.Internal.Correction.Weighted>
   9.000000E+99

> <Gold.Protein.RotatedTorsions>
[ 6907 6896 6895 6894 ] final   76.48 input  -60.11 | X-H torsion
[ 7974 7965 7964 7962 ] final  174.25 input  175.53 | X-H torsion
[ 8008 7997 7996 7995 ] final -154.56 input   59.86 | X-H torsion
[ 10167 10162 10161 10158 ] final   22.94 input  -65.29 | X-H torsion
[ 10718 10713 10712 10709 ] final  -33.26 input   66.30 | X-H torsion
[ 10763 10752 10751 10750 ] final  -49.27 input  -60.55 | X-H torsion
[ 11005 11000 10999 10996 ] final   35.44 input  -57.11 | X-H torsion

> <Gold.Protein.ActiveResidues>
 VAL166  LYS551  ARG553  GLY616  TRP617  ASP618  TYR619  PRO620  LYS621  CYS622 
 ASP623  PHE694  ASN695  SER759  ASP760  ASP761  ALA762  ILE779  LEU786  VAL792 
 PHE793  MET794  SER795  GLU796  ALA797  LYS798  CYS799  TRP800  GLU811  SER814 

> <Gold.Protein.RotatedAtoms>
  152.5075  134.3962  159.9400 H   0  0  0  0  0  0  0  0  0  0  0  0  # atno 6907 bound_to 6896
  151.3924  133.3778  159.2730 H   0  0  0  0  0  0  0  0  0  0  0  0  # atno 6908 bound_to 6896
  150.9422  134.8851  159.7678 H   0  0  0  0  0  0  0  0  0  0  0  0  # atno 6909 bound_to 6896
  144.7225  139.9769  143.6438 H   0  0  0  0  0  0  0  0  0  0  0  0  # atno 7974 bound_to 7965
  155.6882  140.0752  157.2458 H   0  0  0  0  0  0  0  0  0  0  0  0  # atno 8008 bound_to 7997
  154.4093  140.1669  156.2110 H   0  0  0  0  0  0  0  0  0  0  0  0  # atno 8009 bound_to 7997
  155.9475  140.3380  155.6382 H   0  0  0  0  0  0  0  0  0  0  0  0  # atno 8010 bound_to 7997
  140.5309  143.9843  150.6465 H   0  0  0  0  0  0  0  0  0  0  0  0  # atno 10167 bound_to 10162
  156.3648  130.4330  149.7593 H   0  0  0  0  0  0  0  0  0  0  0  0  # atno 10718 bound_to 10713
  154.0914  135.6577  153.4853 H   0  0  0  0  0  0  0  0  0  0  0  0  # atno 10763 bound_to 10752
  153.0320  135.5203  154.7377 H   0  0  0  0  0  0  0  0  0  0  0  0  # atno 10764 bound_to 10752
  154.6502  135.3000  154.9965 H   0  0  0  0  0  0  0  0  0  0  0  0  # atno 10765 bound_to 10752
  140.2426  134.3396  155.7920 H   0  0  0  0  0  0  0  0  0  0  0  0  # atno 11005 bound_to 11000
  146.0519  139.3519  143.0634 LP  0  0  0  0  0  0  0  0  0  0  0  0  # atno 17320 bound_to 7965
  145.8204  140.9682  143.0902 LP  0  0  0  0  0  0  0  0  0  0  0  0  # atno 17321 bound_to 7965
  140.3218  143.3132  152.0776 LP  0  0  0  0  0  0  0  0  0  0  0  0  # atno 17342 bound_to 10162
  139.4954  144.6568  151.6553 LP  0  0  0  0  0  0  0  0  0  0  0  0  # atno 17343 bound_to 10162
  156.4743  130.8011  151.3028 LP  0  0  0  0  0  0  0  0  0  0  0  0  # atno 17370 bound_to 10713
  157.7477  131.0026  150.3006 LP  0  0  0  0  0  0  0  0  0  0  0  0  # atno 17371 bound_to 10713
  141.2209  133.7308  156.8910 LP  0  0  0  0  0  0  0  0  0  0  0  0  # atno 17394 bound_to 11000
  140.1637  134.9147  157.2747 LP  0  0  0  0  0  0  0  0  0  0  0  0  # atno 17395 bound_to 11000

$$$$
