#       Name:                AV-unprocessed.smi:415
#       Creating user name   scv26
#       Creation time:       Thu Mar 26 22:47:39 2020


#       File generated by GOLD software.
#

@<TRIPOS>MOLECULE
AV-unprocessed.smi:415
    61    62     1
SMALL
NO_CHARGES


@<TRIPOS>ATOM
      1 ****        -1.2258  -2.3276   5.6601 C.3            1 S1                 0.0000
      2 ****        -0.8284  -2.0632   4.3265 O.3            1 S1                 0.0000
      3 ****        -1.7839  -2.5011   3.3747 C.3            1 S1                 0.0000
      4 ****        -1.2994  -2.1740   1.9524 C.3            1 S1                 0.0000
      5 ****        -1.3534  -0.7567   1.6453 N.am           1 S1                 0.0000
      6 ****        -2.4944  -0.1315   1.1502 C.2            1 S1                 0.0000
      7 ****        -3.6474  -0.8703   0.9532 N.pl3          1 S1                 0.0000
      8 ****        -2.5072   1.1893   0.8648 C.2            1 S1                 0.0000
      9 ****        -1.3340   2.0291   1.0591 C.2            1 S1                 0.0000
     10 ****        -1.3133   3.2254   0.7687 O.2            1 S1                 0.0000
     11 ****        -0.1953   1.3806   1.5901 N.am           1 S1                 0.0000
     12 ****         1.0490   2.1676   1.7699 C.3            1 S1                 0.0000
     13 ****         1.9870   2.1568   0.5488 C.2            1 S1                 0.0000
     14 ****         3.0262   2.8143   0.5762 O.2            1 S1                 0.0000
     15 ****         1.6156   1.4181  -0.5087 N.am           1 S1                 0.0000
     16 ****         2.3363   1.2553  -1.7671 C.3            1 S1                 0.0000
     17 ****         1.9986   2.4064  -2.7345 C.3            1 S1                 0.0000
     18 ****         0.5373   2.3431  -3.2030 C.3            1 S1                 0.0000
     19 ****         0.2227   0.9810  -3.8364 C.3            1 S1                 0.0000
     20 ****         0.5363  -0.1928  -2.8850 C.3            1 S1                 0.0000
     21 ****         0.1926  -1.5263  -3.5721 C.3            1 S1                 0.0000
     22 ****         2.0113  -0.1251  -2.3950 C.3            1 S1                 0.0000
     23 ****         2.3767  -1.2740  -1.4320 C.3            1 S1                 0.0000
     24 ****        -0.1798  -0.0001   1.8956 C.2            1 S1                 0.0000
     25 ****         0.8414  -0.5226   2.3504 O.2            1 S1                 0.0000
     26 ****        -0.4552  -1.9783   6.3474 H              1 S1                 0.0000
     27 ****        -1.3657  -3.3965   5.8261 H              1 S1                 0.0000
     28 ****        -2.1544  -1.8102   5.9045 H              1 S1                 0.0000
     29 ****        -1.9177  -3.5796   3.4705 H              1 S1                 0.0000
     30 ****        -2.7531  -2.0365   3.5632 H              1 S1                 0.0000
     31 ****        -0.2915  -2.5441   1.7585 H              1 S1                 0.0000
     32 ****        -1.9236  -2.6692   1.2090 H              1 S1                 0.0000
     33 ****        -3.6899  -1.8584   1.1586 H              1 S1                 0.0000
     34 ****        -4.4940  -0.4516   0.5954 H              1 S1                 0.0000
     35 ****        -3.4076   1.6442   0.4772 H              1 S1                 0.0000
     36 ****         0.8237   3.2066   2.0153 H              1 S1                 0.0000
     37 ****         1.6119   1.8130   2.6346 H              1 S1                 0.0000
     38 ****         0.7441   0.9141  -0.4317 H              1 S1                 0.0000
     39 ****         3.4068   1.2884  -1.5565 H              1 S1                 0.0000
     40 ****         2.1983   3.3703  -2.2646 H              1 S1                 0.0000
     41 ****         2.6567   2.3514  -3.6024 H              1 S1                 0.0000
     42 ****        -0.1328   2.5216  -2.3611 H              1 S1                 0.0000
     43 ****         0.3446   3.1397  -3.9219 H              1 S1                 0.0000
     44 ****        -0.8281   0.9547  -4.1271 H              1 S1                 0.0000
     45 ****         0.7977   0.8709  -4.7572 H              1 S1                 0.0000
     46 ****        -0.1192  -0.1005  -2.0174 H              1 S1                 0.0000
     47 ****         0.8595  -1.7238  -4.4119 H              1 S1                 0.0000
     48 ****        -0.8282  -1.5167  -3.9554 H              1 S1                 0.0000
     49 ****         0.2617  -2.3665  -2.8818 H              1 S1                 0.0000
     50 ****         2.6532  -0.2327  -3.2709 H              1 S1                 0.0000
     51 ****         1.6911  -1.3255  -0.5852 H              1 S1                 0.0000
     52 ****         3.3839  -1.1457  -1.0350 H              1 S1                 0.0000
     53 ****         2.3569  -2.2408  -1.9340 H              1 S1                 0.0000
     54 ****         0.0367  -2.5332   4.1511 LP             1 S1                 0.0000
     55 ****        -0.6995  -1.0772   4.2204 LP             1 S1                 0.0000
     56 ****        -2.1263   3.6600   0.3812 LP             1 S1                 0.0000
     57 ****        -0.4834   3.7624   0.9203 LP             1 S1                 0.0000
     58 ****         3.2571   3.3510   1.3878 LP             1 S1                 0.0000
     59 ****         3.6403   2.8121  -0.2131 LP             1 S1                 0.0000
     60 ****         0.8549  -1.5021   2.5516 LP             1 S1                 0.0000
     61 ****         1.6556   0.0334   2.5178 LP             1 S1                 0.0000
@<TRIPOS>BOND
    1    1    2 1     
    2    1   26 1     
    3    1   27 1     
    4    1   28 1     
    5    2    3 1     
    6    3    4 1     
    7    3   29 1     
    8    3   30 1     
    9    4    5 1     
   10    4   31 1     
   11    4   32 1     
   12    5   24 am    
   13    5    6 1     
   14    6    7 1     
   15    6    8 2     
   16    7   33 1     
   17    7   34 1     
   18    8    9 1     
   19    8   35 1     
   20    9   10 2     
   21    9   11 am    
   22   11   12 1     
   23   11   24 am    
   24   12   13 1     
   25   12   36 1     
   26   12   37 1     
   27   13   14 2     
   28   13   15 am    
   29   15   16 1     
   30   15   38 1     
   31   16   22 1     
   32   16   17 1     
   33   16   39 1     
   34   17   18 1     
   35   17   40 1     
   36   17   41 1     
   37   18   19 1     
   38   18   42 1     
   39   18   43 1     
   40   19   20 1     
   41   19   44 1     
   42   19   45 1     
   43   20   21 1     
   44   20   22 1     
   45   20   46 1     
   46   21   47 1     
   47   21   48 1     
   48   21   49 1     
   49   22   23 1     
   50   22   50 1     
   51   23   51 1     
   52   23   52 1     
   53   23   53 1     
   54   24   25 2     
   55    2   54 1     
   56    2   55 1     
   57   10   56 1     
   58   10   57 1     
   59   14   58 1     
   60   14   59 1     
   61   25   60 1     
   62   25   61 1     
@<TRIPOS>SUBSTRUCTURE
      1 S1             1
@<TRIPOS>SET
LONE_PAIRS      STATIC     ATOMS    <user>   **** ""
8 54 55 56 57 58 59 60 61
DONOR_HYDROGENS      STATIC     ATOMS    <user>   **** ""
3 33 34 38
ATOM$BLUE        STATIC     ATOMS    COLORGROUP SYSTEM
8 54 55 56 57 58 59 60 61
ATOM$RED        STATIC     ATOMS    COLORGROUP SYSTEM
3 33 34 38
