AV-unprocessed.smi:3232|AV-procd|sdf|12341|dock3
  -GOLD-   2272018203D 1   1.00000     0.00000
 Structure written by MMmdl.
 40 41  0  0  0  0  0  0  0  0  2 V2000
  153.4565  142.8743  163.2091 C   0  0  0  0  0  0  0  0  0  0  0  0
  152.8705  142.4109  161.8680 C   0  0  0  0  0  0  0  0  0  0  0  0
  152.8194  143.5054  160.8670 N   0  3  2  0  0  0  0  0  0  0  0  0
  151.7838  144.5314  161.1243 C   0  0  0  0  0  0  0  0  0  0  0  0
  151.4258  145.1413  159.7616 C   0  0  0  0  0  0  0  0  0  0  0  0
  152.3914  144.4877  158.7736 C   0  0  0  0  0  0  0  0  0  0  0  0
  152.7386  143.1446  159.4288 C   0  0  2  0  0  0  0  0  0  0  0  0
  151.7042  142.0255  159.1336 C   0  0  0  0  0  0  0  0  0  0  0  0
  151.5610  141.7637  157.7045 N   0  0  0  0  0  0  0  0  0  0  0  0
  150.7425  140.8496  157.1586 C   0  0  0  0  0  0  0  0  0  0  0  0
  149.9962  140.1318  157.8252 O   0  0  0  0  0  0  0  0  0  0  0  0
  150.7713  140.7356  155.6275 C   0  0  2  0  0  0  0  0  0  0  0  0
  149.4246  141.1315  154.9893 C   0  0  0  0  0  0  0  0  0  0  0  0
  151.2035  139.4003  155.2332 N   0  0  0  0  0  0  0  0  0  0  0  0
  152.2938  138.7147  155.5845 C   0  0  0  0  0  0  0  0  0  0  0  0
  152.3502  137.4923  155.0747 N   0  0  0  0  0  0  0  0  0  0  0  0
  151.1747  137.4815  154.3790 C   0  0  0  0  0  0  0  0  0  0  0  0
  150.4442  138.5941  154.4497 N   0  0  0  0  0  0  0  0  0  0  0  0
  153.4094  142.0726  163.9464 H   0  0  0  0  0  0  0  0  0  0  0  0
  152.9012  143.7231  163.6094 H   0  0  0  0  0  0  0  0  0  0  0  0
  154.5011  143.1709  163.1149 H   0  0  0  0  0  0  0  0  0  0  0  0
  153.4161  141.5499  161.4808 H   0  0  0  0  0  0  0  0  0  0  0  0
  151.8501  142.0664  162.0411 H   0  0  0  0  0  0  0  0  0  0  0  0
  150.8972  144.0825  161.5751 H   0  0  0  0  0  0  0  0  0  0  0  0
  152.1686  145.2801  161.8172 H   0  0  0  0  0  0  0  0  0  0  0  0
  150.3971  144.8879  159.5007 H   0  0  0  0  0  0  0  0  0  0  0  0
  151.5096  146.2284  159.7564 H   0  0  0  0  0  0  0  0  0  0  0  0
  151.9820  144.4116  157.7672 H   0  0  0  0  0  0  0  0  0  0  0  0
  153.2945  145.0959  158.7024 H   0  0  0  0  0  0  0  0  0  0  0  0
  153.7199  142.8117  159.0882 H   0  0  0  0  0  0  0  0  0  0  0  0
  152.0273  141.0845  159.5773 H   0  0  0  0  0  0  0  0  0  0  0  0
  150.7397  142.2568  159.5891 H   0  0  0  0  0  0  0  0  0  0  0  0
  152.1380  142.3106  157.0817 H   0  0  0  0  0  0  0  0  0  0  0  0
  151.5209  141.4354  155.2535 H   0  0  0  0  0  0  0  0  0  0  0  0
  149.1499  142.1524  155.2569 H   0  0  0  0  0  0  0  0  0  0  0  0
  148.6101  140.4785  155.3052 H   0  0  0  0  0  0  0  0  0  0  0  0
  149.4816  141.0844  153.9016 H   0  0  0  0  0  0  0  0  0  0  0  0
  153.0607  139.1172  156.2298 H   0  0  0  0  0  0  0  0  0  0  0  0
  150.8435  136.6256  153.8096 H   0  0  0  0  0  0  0  0  0  0  0  0
  153.6948  144.0013  160.9567 H   0  0  0  0  0  0  0  0  0  0  0  0
  1  2  1  0  0  0  0
  1 19  1  0  0  0  0
  1 20  1  0  0  0  0
  1 21  1  0  0  0  0
  2  3  1  0  0  0  0
  2 22  1  0  0  0  0
  2 23  1  0  0  0  0
  3  7  1  0  0  0  0
  3  4  1  0  0  0  0
  3 40  1  0  0  0  0
  4  5  1  0  0  0  0
  4 24  1  0  0  0  0
  4 25  1  0  0  0  0
  5  6  1  0  0  0  0
  5 26  1  0  0  0  0
  5 27  1  0  0  0  0
  6  7  1  0  0  0  0
  6 28  1  0  0  0  0
  6 29  1  0  0  0  0
  7  8  1  0  0  0  0
  7 30  1  0  0  0  0
  8  9  1  0  0  0  0
  8 31  1  0  0  0  0
  8 32  1  0  0  0  0
  9 10  1  0  0  0  0
  9 33  1  0  0  0  0
 10 11  2  0  0  0  0
 10 12  1  0  0  0  0
 12 13  1  0  0  0  0
 12 14  1  0  0  0  0
 12 34  1  0  0  0  0
 13 35  1  0  0  0  0
 13 36  1  0  0  0  0
 13 37  1  0  0  0  0
 14 18  1  0  0  0  0
 14 15  1  0  0  0  0
 15 16  2  0  0  0  0
 15 38  1  0  0  0  0
 16 17  1  0  0  0  0
 17 18  2  0  0  0  0
 17 39  1  0  0  0  0
M  CHG  1   3   1
M  END
> <s_m_source_file>
AV-unprocessed.smi

> <i_m_source_file_index>
3232

> <i_lp_mmshare_version>
43012

> <i_f3d_flags>
0

> <s_epik_input>
W0NIM11bQ0gyXU4xW0NIMl1bQ0gyXVtDSDJdW0NASF0xW0NIMl1bTkhdQyg9TylbQ0BIXShbQ0gzXSluMltjSF1uW2NIXW4y

> <s_epik_cmdline>
J2VwaWtfcHl0aG9uJywgJy1waCcsICc3LjAnLCAnLXRuJywgJzgnLCAnLW1hJywgJzIwMCcsICctbWV0YWxfYmluZGluZycsICctaW1hZScsICc8aW5maWxlLm1hZT4nLCAnLW9tYWUnLCAnPG91dGZpbGUubWFlPic=

> <r_lp_tautomer_probability>
1

> <r_epik_Ionization_Penalty>
0.00177695

> <r_epik_Ionization_Penalty_Charging>
0.00176881

> <r_epik_Ionization_Penalty_Neutral>
8.13528e-06

> <r_epik_State_Penalty>
0.00119827

> <r_epik_Charging_Adjusted_Penalty>
0.00296709

> <i_epik_Tot_Q>
1

> <i_epik_Tot_abs_Q>
1

> <r_epik_Metal_State_Penalty>
-0

> <b_epik_Metal_Only>
0

> <s_lp_Force_Field>
OPLS_2005

> <r_lp_Energy>
38.6691

> <b_lp_Chiralities_Consistent>
1

> <s_lp_Variant>
AV-unprocessed.smi:3232-3

> <Gold.Version>
5.8.1

> <Gold.Id.Protein>
6NUR|6NUR_protein|mol2

> <Gold.PLP.Fitness>
49.9832

> <Gold.PLP.PLP>
-45.3785

> <Gold.PLP.part.hbond>
-1.0000

> <Gold.PLP.part.metal>
0.0000

> <Gold.PLP.part.buried>
-3.1982

> <Gold.PLP.part.nonpolar>
-41.1178

> <Gold.PLP.part.repulsive>
0.3393

> <Gold.PLP.ligand.clash>
0.0000

> <Gold.PLP.ligand.torsion>
0.1975

> <Gold.PLP.Chemscore.Hbond>
0.5760

> <Gold.PLP.Chemscore.CHOScore>
1.0459

> <Gold.PLP.Chemscore.Metal>
0.0000

> <Gold.Chemscore.Hbonds>
donor molecule, donor type, donor heavy atom, donor atom, acceptor molecule, acceptor atom, score
      P1  H 10752 10763       L1    16  0.56
      L1  C    17    39       P1  7948  0.15
      L1  C    17    39       P1  7949  0.85

> <Gold.PLP.Chemscore.Internal.Correction>
0.1340

> <Gold.Rescore>
     Score         DG    S(hbond)    S(metal)    S(lipo)     H(rot)  DE(clash)    DE(int)     intcor
     12.95     -13.51       0.89        0.00      97.65       2.49       0.17       0.40       ----

> <Gold.Chemscore.Fitness>
12.9483

> <Gold.Chemscore.DG>
-13.5140

> <Gold.Chemscore.ZeroCoef>
-5.4800

> <Gold.Chemscore.Hbond>
0.8917

> <Gold.Chemscore.Metal>
0.0000

> <Gold.Chemscore.Lipo>
97.6526

> <Gold.Chemscore.Internal_Hbond>
0.0000

> <Gold.Chemscore.DEClash>
0.1688

> <Gold.Chemscore.DEInternal>
0.3969

> <Gold.Chemscore.Rot>
2.4882

> <Gold.Chemscore.Internal.Correction>
   9.000000E+99

> <Gold.Chemscore.Hbonds>
donor molecule, donor type, donor heavy atom, donor atom, acceptor molecule, acceptor atom, score
      P1  H 10752 10763       L1    16  0.18

> <Gold.Chemscore.Hbond.Weighted>
-2.9784

> <Gold.Chemscore.Metal.Weighted>
-0.0000

> <Gold.Chemscore.Lipo.Weighted>
-11.4254

> <Gold.Chemscore.Internal_Hbond.Weighted>
0.0000

> <Gold.Chemscore.DEClash.Weighted>
0.1688

> <Gold.Chemscore.DEInternal.Weighted>
0.3969

> <Gold.Chemscore.Rot.Weighted>
6.3697

> <Gold.Chemscore.Internal.Correction.Weighted>
   9.000000E+99

> <Gold.Protein.RotatedTorsions>
[ 6907 6896 6895 6894 ] final  141.32 input  -60.11 | X-H torsion
[ 7974 7965 7964 7962 ] final  -81.36 input  175.53 | X-H torsion
[ 8008 7997 7996 7995 ] final -104.41 input   59.86 | X-H torsion
[ 10167 10162 10161 10158 ] final   48.81 input  -65.29 | X-H torsion
[ 10718 10713 10712 10709 ] final   78.60 input   66.30 | X-H torsion
[ 10763 10752 10751 10750 ] final   74.22 input  -60.55 | X-H torsion
[ 11005 11000 10999 10996 ] final  -93.66 input  -57.11 | X-H torsion

> <Gold.Protein.ActiveResidues>
 VAL166  LYS551  ARG553  GLY616  TRP617  ASP618  TYR619  PRO620  LYS621  CYS622 
 ASP623  PHE694  ASN695  SER759  ASP760  ASP761  ALA762  ILE779  LEU786  VAL792 
 PHE793  MET794  SER795  GLU796  ALA797  LYS798  CYS799  TRP800  GLU811  SER814 

> <Gold.Protein.RotatedAtoms>
  152.2324  133.5069  159.5223 H   0  0  0  0  0  0  0  0  0  0  0  0  # atno 6907 bound_to 6896
  150.7041  134.1198  159.4039 H   0  0  0  0  0  0  0  0  0  0  0  0  # atno 6908 bound_to 6896
  151.9119  135.0335  160.0566 H   0  0  0  0  0  0  0  0  0  0  0  0  # atno 6909 bound_to 6896
  145.5477  140.9501  143.1516 H   0  0  0  0  0  0  0  0  0  0  0  0  # atno 7974 bound_to 7965
  154.8849  140.0418  157.1804 H   0  0  0  0  0  0  0  0  0  0  0  0  # atno 8008 bound_to 7997
  154.8601  140.2942  155.5523 H   0  0  0  0  0  0  0  0  0  0  0  0  # atno 8009 bound_to 7997
  156.2998  140.2448  156.3574 H   0  0  0  0  0  0  0  0  0  0  0  0  # atno 8010 bound_to 7997
  140.2894  144.3063  150.6244 H   0  0  0  0  0  0  0  0  0  0  0  0  # atno 10167 bound_to 10162
  157.6750  130.9876  150.1810 H   0  0  0  0  0  0  0  0  0  0  0  0  # atno 10718 bound_to 10713
  153.0572  135.5034  154.8010 H   0  0  0  0  0  0  0  0  0  0  0  0  # atno 10763 bound_to 10752
  154.6827  135.2971  154.9593 H   0  0  0  0  0  0  0  0  0  0  0  0  # atno 10764 bound_to 10752
  154.0374  135.6721  153.4839 H   0  0  0  0  0  0  0  0  0  0  0  0  # atno 10765 bound_to 10752
  141.1491  133.7903  157.0191 H   0  0  0  0  0  0  0  0  0  0  0  0  # atno 11005 bound_to 11000
  144.7545  139.7110  143.7260 LP  0  0  0  0  0  0  0  0  0  0  0  0  # atno 17320 bound_to 7965
  146.1938  139.5193  142.9788 LP  0  0  0  0  0  0  0  0  0  0  0  0  # atno 17321 bound_to 7965
  140.5745  143.2178  151.7540 LP  0  0  0  0  0  0  0  0  0  0  0  0  # atno 17342 bound_to 10162
  139.4942  144.4170  152.0019 LP  0  0  0  0  0  0  0  0  0  0  0  0  # atno 17343 bound_to 10162
  156.2543  130.3704  149.8199 LP  0  0  0  0  0  0  0  0  0  0  0  0  # atno 17370 bound_to 10713
  156.5962  130.8527  151.3420 LP  0  0  0  0  0  0  0  0  0  0  0  0  # atno 17371 bound_to 10713
  140.0827  134.9638  157.1651 LP  0  0  0  0  0  0  0  0  0  0  0  0  # atno 17394 bound_to 11000
  140.3554  134.2553  155.7193 LP  0  0  0  0  0  0  0  0  0  0  0  0  # atno 17395 bound_to 11000

$$$$
