#       Name:                AV-unprocessed.smi:1978
#       Creating user name   scv26
#       Creation time:       Fri Mar 27 10:20:26 2020


#       File generated by GOLD software.
#

@<TRIPOS>MOLECULE
AV-unprocessed.smi:1978
    50    51     1
SMALL
NO_CHARGES


@<TRIPOS>ATOM
      1 ****        -3.0156   6.7823  -3.2341 C.3            1 S1                 0.0000
      2 ****        -2.5917   5.4788  -2.6495 C.2            1 S1                 0.0000
      3 ****        -2.3387   5.0711  -1.3702 C.2            1 S1                 0.0000
      4 ****        -1.9877   3.7043  -1.5321 C.2            1 S1                 0.0000
      5 ****        -1.6500   2.9058  -0.4076 N.am           1 S1                 0.0000
      6 ****        -1.3281   1.6002  -0.3686 C.2            1 S1                 0.0000
      7 ****        -1.3069   0.9302  -1.4080 O.2            1 S1                 0.0000
      8 ****        -1.0489   1.1751   0.8947 N.pl3          1 S1                -1.0000
      9 ****        -0.6817  -0.1958   1.2535 C.3            1 S1                 0.0000
     10 ****         0.8343  -0.4676   0.9676 C.3            1 S1                 0.0000
     11 ****         1.7797   0.3883   1.8462 C.3            1 S1                 0.0000
     12 ****         1.2511  -1.9185   1.0017 N.4            1 S1                 1.0000
     13 ****         1.1338  -2.5889   2.3359 C.3            1 S1                 0.0000
     14 ****         1.9106  -3.9118   2.3697 C.3            1 S1                 0.0000
     15 ****         1.4132  -4.8520   1.2704 C.3            1 S1                 0.0000
     16 ****         1.5212  -4.1547  -0.0891 C.3            1 S1                 0.0000
     17 ****         0.7682  -2.8062  -0.1151 C.3            1 S1                 0.0000
     18 ****         0.9238  -2.1854  -1.5192 C.3            1 S1                 0.0000
     19 ****        -2.0174   3.3158  -2.7984 N.2            1 S1                 0.0000
     20 ****        -2.4047   4.4506  -3.5205 O.3            1 S1                 0.0000
     21 ****        -3.2561   7.5013  -2.4507 H              1 S1                 0.0000
     22 ****        -3.8994   6.6556  -3.8594 H              1 S1                 0.0000
     23 ****        -2.2220   7.2050  -3.8501 H              1 S1                 0.0000
     24 ****        -2.3992   5.6560  -0.4645 H              1 S1                 0.0000
     25 ****        -1.6554   3.3821   0.4821 H              1 S1                 0.0000
     26 ****        -0.8840  -0.3969   2.3057 H              1 S1                 0.0000
     27 ****        -1.2838  -0.9221   0.7067 H              1 S1                 0.0000
     28 ****         1.0429  -0.1165  -0.0409 H              1 S1                 0.0000
     29 ****         1.6705   1.4545   1.6385 H              1 S1                 0.0000
     30 ****         2.8221   0.1400   1.6445 H              1 S1                 0.0000
     31 ****         1.6135   0.2539   2.9159 H              1 S1                 0.0000
     32 ****         1.5190  -1.9507   3.1292 H              1 S1                 0.0000
     33 ****         0.0860  -2.7822   2.5704 H              1 S1                 0.0000
     34 ****         2.9766  -3.7189   2.2406 H              1 S1                 0.0000
     35 ****         1.7962  -4.3869   3.3446 H              1 S1                 0.0000
     36 ****         1.9962  -5.7735   1.2693 H              1 S1                 0.0000
     37 ****         0.3772  -5.1349   1.4621 H              1 S1                 0.0000
     38 ****         2.5732  -3.9919  -0.3283 H              1 S1                 0.0000
     39 ****         1.1300  -4.8168  -0.8627 H              1 S1                 0.0000
     40 ****        -0.2909  -3.0152   0.0433 H              1 S1                 0.0000
     41 ****         0.6934  -2.9156  -2.2953 H              1 S1                 0.0000
     42 ****         1.9418  -1.8344  -1.6908 H              1 S1                 0.0000
     43 ****         0.2423  -1.3506  -1.6784 H              1 S1                 0.0000
     44 ****         2.2464  -1.8637   0.8418 H              1 S1                 0.0000
     45 ****        -1.5298   1.3586  -2.2837 LP             1 S1                 0.0000
     46 ****        -1.0669  -0.0399  -1.3727 LP             1 S1                 0.0000
     47 ****        -1.0984   1.8492   1.6316 LP             1 S1                 0.0000
     48 ****        -1.8082   2.4074  -3.1604 LP             1 S1                 0.0000
     49 ****        -1.6902   4.6917  -4.1773 LP             1 S1                 0.0000
     50 ****        -3.2572   4.2640  -4.0089 LP             1 S1                 0.0000
@<TRIPOS>BOND
    1    1    2 1     
    2    1   21 1     
    3    1   22 1     
    4    1   23 1     
    5    2   20 1     
    6    2    3 2     
    7    3    4 1     
    8    3   24 1     
    9    4    5 1     
   10    4   19 2     
   11    5    6 am    
   12    5   25 1     
   13    6    7 2     
   14    6    8 1     
   15    8    9 1     
   16    9   10 1     
   17    9   26 1     
   18    9   27 1     
   19   10   11 1     
   20   10   12 1     
   21   10   28 1     
   22   11   29 1     
   23   11   30 1     
   24   11   31 1     
   25   12   17 1     
   26   12   13 1     
   27   12   44 1     
   28   13   14 1     
   29   13   32 1     
   30   13   33 1     
   31   14   15 1     
   32   14   34 1     
   33   14   35 1     
   34   15   16 1     
   35   15   36 1     
   36   15   37 1     
   37   16   17 1     
   38   16   38 1     
   39   16   39 1     
   40   17   18 1     
   41   17   40 1     
   42   18   41 1     
   43   18   42 1     
   44   18   43 1     
   45   19   20 1     
   46    7   45 1     
   47    7   46 1     
   48    8   47 1     
   49   19   48 1     
   50   20   49 1     
   51   20   50 1     
@<TRIPOS>SUBSTRUCTURE
      1 S1             1
@<TRIPOS>SET
LONE_PAIRS      STATIC     ATOMS    <user>   **** ""
6 45 46 47 48 49 50
DONOR_HYDROGENS      STATIC     ATOMS    <user>   **** ""
2 25 44
ATOM$BLUE        STATIC     ATOMS    COLORGROUP SYSTEM
6 45 46 47 48 49 50
ATOM$RED        STATIC     ATOMS    COLORGROUP SYSTEM
2 25 44
