AV-unprocessed.smi:2545|AV-procd|sdf|9996|dock2
  -GOLD-   2272014 43D 1   1.00000     0.00000
 Structure written by MMmdl.
 26 27  0  0  0  0  0  0  0  0  1 V2000
  149.4414  143.7657  158.1651 N   0  0  0  0  0  0  0  0  0  0  0  0
  150.5553  143.6603  159.0003 C   0  0  0  0  0  0  0  0  0  0  0  0
  150.8793  144.7231  159.8665 C   0  0  0  0  0  0  0  0  0  0  0  0
  152.0079  144.5933  160.6994 C   0  0  0  0  0  0  0  0  0  0  0  0
  152.7984  143.5000  160.7112 N   0  0  0  0  0  0  0  0  0  0  0  0
  152.4834  142.4848  159.8793 C   0  0  0  0  0  0  0  0  0  0  0  0
  151.3742  142.5054  159.0000 C   0  0  0  0  0  0  0  0  0  0  0  0
  151.0906  141.4219  158.1518 N   0  0  0  0  0  0  0  0  0  0  0  0
  151.1817  141.7529  156.7356 C   0  0  0  0  0  0  0  0  0  0  0  0
  150.7283  140.5527  155.8860 C   0  0  0  0  0  0  0  0  0  0  0  0
  151.5016  139.4056  156.2282 O   0  0  0  0  0  0  0  0  0  0  0  0
  151.3469  139.0453  157.5984 C   0  0  0  0  0  0  0  0  0  0  0  0
  151.8173  140.2056  158.4930 C   0  0  0  0  0  0  0  0  0  0  0  0
  149.1791  143.0245  157.5316 H   0  0  0  0  0  0  0  0  0  0  0  0
  148.8578  144.5901  158.1774 H   0  0  0  0  0  0  0  0  0  0  0  0
  150.2793  145.6209  159.8961 H   0  0  0  0  0  0  0  0  0  0  0  0
  152.2829  145.3904  161.3743 H   0  0  0  0  0  0  0  0  0  0  0  0
  153.1410  141.6286  159.9178 H   0  0  0  0  0  0  0  0  0  0  0  0
  150.5598  142.6223  156.5180 H   0  0  0  0  0  0  0  0  0  0  0  0
  152.2090  142.0172  156.4810 H   0  0  0  0  0  0  0  0  0  0  0  0
  149.6673  140.3477  156.0378 H   0  0  0  0  0  0  0  0  0  0  0  0
  150.8623  140.7698  154.8262 H   0  0  0  0  0  0  0  0  0  0  0  0
  150.3050  138.7937  157.8039 H   0  0  0  0  0  0  0  0  0  0  0  0
  151.9363  138.1509  157.8006 H   0  0  0  0  0  0  0  0  0  0  0  0
  152.8886  140.3617  158.3594 H   0  0  0  0  0  0  0  0  0  0  0  0
  151.6541  139.9591  159.5430 H   0  0  0  0  0  0  0  0  0  0  0  0
  1  2  1  0  0  0  0
  1 14  1  0  0  0  0
  1 15  1  0  0  0  0
  2  7  1  0  0  0  0
  2  3  2  0  0  0  0
  3  4  1  0  0  0  0
  3 16  1  0  0  0  0
  4  5  2  0  0  0  0
  4 17  1  0  0  0  0
  5  6  1  0  0  0  0
  6  7  2  0  0  0  0
  6 18  1  0  0  0  0
  7  8  1  0  0  0  0
  8 13  1  0  0  0  0
  8  9  1  0  0  0  0
  9 10  1  0  0  0  0
  9 19  1  0  0  0  0
  9 20  1  0  0  0  0
 10 11  1  0  0  0  0
 10 21  1  0  0  0  0
 10 22  1  0  0  0  0
 11 12  1  0  0  0  0
 12 13  1  0  0  0  0
 12 23  1  0  0  0  0
 12 24  1  0  0  0  0
 13 25  1  0  0  0  0
 13 26  1  0  0  0  0
M  END
> <s_m_source_file>
AV-unprocessed.smi

> <i_m_source_file_index>
2545

> <i_lp_mmshare_version>
43012

> <i_f3d_flags>
0

> <s_epik_input>
W05IMl1jMVtjSF1bY0hdbltjSF1jMU4yW0NIMl1bQ0gyXU9bQ0gyXVtDSDJdMg==

> <s_epik_cmdline>
J2VwaWtfcHl0aG9uJywgJy1waCcsICc3LjAnLCAnLXRuJywgJzgnLCAnLW1hJywgJzIwMCcsICctbWV0YWxfYmluZGluZycsICctaW1hZScsICc8aW5maWxlLm1hZT4nLCAnLW9tYWUnLCAnPG91dGZpbGUubWFlPic=

> <r_lp_tautomer_probability>
0.999999

> <r_epik_Ionization_Penalty>
2.28846

> <r_epik_Ionization_Penalty_Charging>
0

> <r_epik_Ionization_Penalty_Neutral>
2.28846

> <r_epik_State_Penalty>
2.43827

> <r_epik_Charging_Adjusted_Penalty>
2.43827

> <i_epik_Tot_Q>
0

> <i_epik_Tot_abs_Q>
0

> <r_epik_Metal_State_Penalty>
0.0346758

> <b_epik_Metal_Only>
0

> <s_lp_Force_Field>
OPLS_2005

> <r_lp_Energy>
24.1362

> <b_lp_Chiralities_Consistent>
1

> <s_lp_Variant>
AV-unprocessed.smi:2545-2

> <Gold.Version>
5.8.1

> <Gold.Id.Protein>
6NUR|6NUR_protein|mol2

> <Gold.PLP.Fitness>
27.5397

> <Gold.PLP.PLP>
-24.8007

> <Gold.PLP.part.hbond>
-2.0000

> <Gold.PLP.part.metal>
0.0000

> <Gold.PLP.part.buried>
-3.7565

> <Gold.PLP.part.nonpolar>
-19.0322

> <Gold.PLP.part.repulsive>
0.0979

> <Gold.PLP.ligand.clash>
0.0125

> <Gold.PLP.ligand.torsion>
0.1802

> <Gold.PLP.Chemscore.Hbond>
1.0000

> <Gold.PLP.Chemscore.CHOScore>
0.0000

> <Gold.PLP.Chemscore.Metal>
0.0000

> <Gold.Chemscore.Hbonds>
donor molecule, donor type, donor heavy atom, donor atom, acceptor molecule, acceptor atom, score
      L1  H     1    15       P1  8029  1.00

> <Gold.PLP.Chemscore.Internal.Correction>
0.1119

> <Gold.Rescore>
     Score         DG    S(hbond)    S(metal)    S(lipo)     H(rot)  DE(clash)    DE(int)     intcor
     12.29     -13.50       0.57        0.00      74.05       1.00       0.02       1.19       ----

> <Gold.Chemscore.Fitness>
12.2891

> <Gold.Chemscore.DG>
-13.5023

> <Gold.Chemscore.ZeroCoef>
-5.4800

> <Gold.Chemscore.Hbond>
0.5745

> <Gold.Chemscore.Metal>
0.0000

> <Gold.Chemscore.Lipo>
74.0463

> <Gold.Chemscore.Internal_Hbond>
0.0000

> <Gold.Chemscore.DEClash>
0.0239

> <Gold.Chemscore.DEInternal>
1.1894

> <Gold.Chemscore.Rot>
1.0000

> <Gold.Chemscore.Internal.Correction>
   9.000000E+99

> <Gold.Chemscore.Hbonds>
donor molecule, donor type, donor heavy atom, donor atom, acceptor molecule, acceptor atom, score
      L1  H     1    15       P1  8029  0.33

> <Gold.Chemscore.Hbond.Weighted>
-1.9189

> <Gold.Chemscore.Metal.Weighted>
-0.0000

> <Gold.Chemscore.Lipo.Weighted>
-8.6634

> <Gold.Chemscore.Internal_Hbond.Weighted>
0.0000

> <Gold.Chemscore.DEClash.Weighted>
0.0239

> <Gold.Chemscore.DEInternal.Weighted>
1.1894

> <Gold.Chemscore.Rot.Weighted>
2.5600

> <Gold.Chemscore.Internal.Correction.Weighted>
   9.000000E+99

> <Gold.Protein.RotatedTorsions>
[ 6907 6896 6895 6894 ] final   12.02 input  -60.11 | X-H torsion
[ 7974 7965 7964 7962 ] final   97.53 input  175.53 | X-H torsion
[ 8008 7997 7996 7995 ] final  -12.12 input   59.86 | X-H torsion
[ 10167 10162 10161 10158 ] final  -22.47 input  -65.29 | X-H torsion
[ 10718 10713 10712 10709 ] final -134.05 input   66.30 | X-H torsion
[ 10763 10752 10751 10750 ] final  140.28 input  -60.55 | X-H torsion
[ 11005 11000 10999 10996 ] final -166.34 input  -57.11 | X-H torsion

> <Gold.Protein.ActiveResidues>
 VAL166  LYS551  ARG553  GLY616  TRP617  ASP618  TYR619  PRO620  LYS621  CYS622 
 ASP623  PHE694  ASN695  SER759  ASP760  ASP761  ALA762  ILE779  LEU786  VAL792 
 PHE793  MET794  SER795  GLU796  ALA797  LYS798  CYS799  TRP800  GLU811  SER814 

> <Gold.Protein.RotatedAtoms>
  151.7637  135.0804  160.0349 H   0  0  0  0  0  0  0  0  0  0  0  0  # atno 6907 bound_to 6896
  152.3336  133.5982  159.5835 H   0  0  0  0  0  0  0  0  0  0  0  0  # atno 6908 bound_to 6896
  150.7437  133.9746  159.3598 H   0  0  0  0  0  0  0  0  0  0  0  0  # atno 6909 bound_to 6896
  145.4243  139.2318  143.3179 H   0  0  0  0  0  0  0  0  0  0  0  0  # atno 7974 bound_to 7965
  154.5405  140.2284  155.8650 H   0  0  0  0  0  0  0  0  0  0  0  0  # atno 8008 bound_to 7997
  156.1853  140.3090  155.9189 H   0  0  0  0  0  0  0  0  0  0  0  0  # atno 8009 bound_to 7997
  155.3268  140.0443  157.3032 H   0  0  0  0  0  0  0  0  0  0  0  0  # atno 8010 bound_to 7997
  140.7286  143.4532  151.0486 H   0  0  0  0  0  0  0  0  0  0  0  0  # atno 10167 bound_to 10162
  156.2513  130.7155  151.1055 H   0  0  0  0  0  0  0  0  0  0  0  0  # atno 10718 bound_to 10713
  153.9200  135.3001  155.3448 H   0  0  0  0  0  0  0  0  0  0  0  0  # atno 10763 bound_to 10752
  154.7580  135.4948  153.9414 H   0  0  0  0  0  0  0  0  0  0  0  0  # atno 10764 bound_to 10752
  153.1147  135.6767  153.9542 H   0  0  0  0  0  0  0  0  0  0  0  0  # atno 10765 bound_to 10752
  140.5655  134.5290  157.5152 H   0  0  0  0  0  0  0  0  0  0  0  0  # atno 11005 bound_to 11000
  146.2640  140.4971  142.8841 LP  0  0  0  0  0  0  0  0  0  0  0  0  # atno 17320 bound_to 7965
  144.8224  140.6573  143.6344 LP  0  0  0  0  0  0  0  0  0  0  0  0  # atno 17321 bound_to 7965
  139.8210  143.7820  152.3177 LP  0  0  0  0  0  0  0  0  0  0  0  0  # atno 17342 bound_to 10162
  139.7903  144.7413  150.9964 LP  0  0  0  0  0  0  0  0  0  0  0  0  # atno 17343 bound_to 10162
  157.7215  131.0678  150.6113 LP  0  0  0  0  0  0  0  0  0  0  0  0  # atno 17370 bound_to 10713
  156.6194  130.4401  149.5828 LP  0  0  0  0  0  0  0  0  0  0  0  0  # atno 17371 bound_to 10713
  139.9387  134.7828  156.0735 LP  0  0  0  0  0  0  0  0  0  0  0  0  # atno 17394 bound_to 11000
  141.1088  133.6650  156.2928 LP  0  0  0  0  0  0  0  0  0  0  0  0  # atno 17395 bound_to 11000

$$$$
