AV-unprocessed.smi:1006|AV-procd|sdf|4393|dock7
  -GOLD-   22720 2323D 1   1.00000     0.00000
 Structure written by MMmdl.
 46 48  0  0  0  0  0  0  0  0  2 V2000
  142.6867  138.1986  154.6212 C   0  0  0  0  0  0  0  0  0  0  0  0
  144.1603  138.2942  154.9553 C   0  0  0  0  0  0  0  0  0  0  0  0
  144.7044  137.6809  156.1026 C   0  0  0  0  0  0  0  0  0  0  0  0
  146.0855  137.8390  156.3114 C   0  0  0  0  0  0  0  0  0  0  0  0
  146.7165  137.2675  157.4133 N   0  0  0  0  0  0  0  0  0  0  0  0
  146.8483  138.5458  155.4562 N   0  0  0  0  0  0  0  0  0  0  0  0
  146.2691  139.1052  154.3852 C   0  0  0  0  0  0  0  0  0  0  0  0
  147.2640  140.0435  153.2361 S   0  0  0  0  0  0  0  0  0  0  0  0
  148.1008  141.2223  154.3397 C   0  0  0  0  0  0  0  0  0  0  0  0
  149.3571  140.6380  155.0117 C   0  0  1  0  0  0  0  0  0  0  0  0
  150.0956  139.8990  154.0604 O   0  0  0  0  0  0  0  0  0  0  0  0
  150.2919  141.7146  155.6021 C   0  0  0  0  0  0  0  0  0  0  0  0
  151.1980  141.1849  156.6062 N   0  0  0  0  0  0  0  0  0  0  0  0
  151.8662  140.0166  156.5574 C   0  0  0  0  0  0  0  0  0  0  0  0
  152.6354  139.7111  157.5984 N   0  0  0  0  0  0  0  0  0  0  0  0
  152.4453  140.8099  158.4187 C   0  0  0  0  0  0  0  0  0  0  0  0
  152.9725  141.1043  159.6952 C   0  0  0  0  0  0  0  0  0  0  0  0
  152.6262  142.2995  160.3652 C   0  0  0  0  0  0  0  0  0  0  0  0
  153.2117  142.5718  161.7396 C   0  0  0  0  0  0  0  0  0  0  0  0
  151.7417  143.2250  159.7556 C   0  0  0  0  0  0  0  0  0  0  0  0
  151.3497  144.5127  160.4581 C   0  0  0  0  0  0  0  0  0  0  0  0
  151.2127  142.9507  158.4774 C   0  0  0  0  0  0  0  0  0  0  0  0
  151.5585  141.7542  157.8240 C   0  0  0  0  0  0  0  0  0  0  0  0
  144.9603  138.9989  154.1154 N   0  3  0  0  0  0  0  0  0  0  0  0
  142.2636  137.2690  155.0030 H   0  0  0  0  0  0  0  0  0  0  0  0
  142.5275  138.2244  153.5424 H   0  0  0  0  0  0  0  0  0  0  0  0
  142.1447  139.0320  155.0688 H   0  0  0  0  0  0  0  0  0  0  0  0
  144.0881  137.1155  156.7872 H   0  0  0  0  0  0  0  0  0  0  0  0
  146.2065  136.7239  158.0948 H   0  0  0  0  0  0  0  0  0  0  0  0
  147.7147  137.3470  157.5468 H   0  0  0  0  0  0  0  0  0  0  0  0
  148.3618  142.1175  153.7740 H   0  0  0  0  0  0  0  0  0  0  0  0
  147.3787  141.5153  155.1011 H   0  0  0  0  0  0  0  0  0  0  0  0
  149.0540  139.9546  155.8058 H   0  0  0  0  0  0  0  0  0  0  0  0
  149.8107  138.9983  154.0927 H   0  0  0  0  0  0  0  0  0  0  0  0
  150.8863  142.1737  154.8109 H   0  0  0  0  0  0  0  0  0  0  0  0
  149.7090  142.5170  156.0565 H   0  0  0  0  0  0  0  0  0  0  0  0
  151.7773  139.3495  155.7122 H   0  0  0  0  0  0  0  0  0  0  0  0
  153.6445  140.3980  160.1601 H   0  0  0  0  0  0  0  0  0  0  0  0
  153.7585  143.5149  161.7433 H   0  0  0  0  0  0  0  0  0  0  0  0
  153.9035  141.7846  162.0413 H   0  0  0  0  0  0  0  0  0  0  0  0
  152.4200  142.6263  162.4871 H   0  0  0  0  0  0  0  0  0  0  0  0
  150.6195  145.0767  159.8767 H   0  0  0  0  0  0  0  0  0  0  0  0
  152.2240  145.1470  160.6057 H   0  0  0  0  0  0  0  0  0  0  0  0
  150.9076  144.2998  161.4316 H   0  0  0  0  0  0  0  0  0  0  0  0
  150.5377  143.6470  158.0022 H   0  0  0  0  0  0  0  0  0  0  0  0
  144.5623  139.4413  153.2867 H   0  0  0  0  0  0  0  0  0  0  0  0
  1  2  1  0  0  0  0
  1 25  1  0  0  0  0
  1 26  1  0  0  0  0
  1 27  1  0  0  0  0
  2 24  1  0  0  0  0
  2  3  2  0  0  0  0
  3  4  1  0  0  0  0
  3 28  1  0  0  0  0
  4  5  1  0  0  0  0
  4  6  2  0  0  0  0
  5 29  1  0  0  0  0
  5 30  1  0  0  0  0
  6  7  1  0  0  0  0
  7  8  1  0  0  0  0
  7 24  2  0  0  0  0
  8  9  1  0  0  0  0
  9 10  1  0  0  0  0
  9 31  1  0  0  0  0
  9 32  1  0  0  0  0
 10 11  1  0  0  0  0
 10 12  1  0  0  0  0
 10 33  1  0  0  0  0
 11 34  1  0  0  0  0
 12 13  1  0  0  0  0
 12 35  1  0  0  0  0
 12 36  1  0  0  0  0
 13 23  1  0  0  0  0
 13 14  1  0  0  0  0
 14 15  2  0  0  0  0
 14 37  1  0  0  0  0
 15 16  1  0  0  0  0
 16 23  2  0  0  0  0
 16 17  1  0  0  0  0
 17 18  2  0  0  0  0
 17 38  1  0  0  0  0
 18 19  1  0  0  0  0
 18 20  1  0  0  0  0
 19 39  1  0  0  0  0
 19 40  1  0  0  0  0
 19 41  1  0  0  0  0
 20 21  1  0  0  0  0
 20 22  2  0  0  0  0
 21 42  1  0  0  0  0
 21 43  1  0  0  0  0
 21 44  1  0  0  0  0
 22 23  1  0  0  0  0
 22 45  1  0  0  0  0
 24 46  1  0  0  0  0
M  CHG  1  24   1
M  END
> <s_m_source_file>
AV-unprocessed.smi

> <i_m_source_file_index>
1006

> <i_lp_mmshare_version>
43012

> <i_f3d_flags>
0

> <s_epik_input>
W0NIM11jMVtjSF1jKFtOSDJdKW5jKG4xKVNbQ0gyXVtDQEhdKFtPSF0pW0NIMl1uKFtjSF1uMiljKGMyMylbY0hdYyhbQ0gzXSljKFtjSF0zKVtDSDNd

> <s_epik_cmdline>
J2VwaWtfcHl0aG9uJywgJy1waCcsICc3LjAnLCAnLXRuJywgJzgnLCAnLW1hJywgJzIwMCcsICctbWV0YWxfYmluZGluZycsICctaW1hZScsICc8aW5maWxlLm1hZT4nLCAnLW9tYWUnLCAnPG91dGZpbGUubWFlPic=

> <r_lp_tautomer_probability>
0.999762

> <r_epik_Ionization_Penalty>
0.549885

> <r_epik_Ionization_Penalty_Charging>
0.440405

> <r_epik_Ionization_Penalty_Neutral>
0.10948

> <r_epik_State_Penalty>
0.546419

> <r_epik_Charging_Adjusted_Penalty>
0.986823

> <i_epik_Tot_Q>
1

> <i_epik_Tot_abs_Q>
1

> <r_epik_Metal_State_Penalty>
0.699827

> <b_epik_Metal_Only>
0

> <s_lp_Force_Field>
OPLS_2005

> <r_lp_Energy>
7.78967

> <b_lp_Chiralities_Consistent>
1

> <s_lp_Variant>
AV-unprocessed.smi:1006-4

> <Gold.Version>
5.8.1

> <Gold.Id.Protein>
6NUR|6NUR_protein|mol2

> <Gold.PLP.Fitness>
53.0693

> <Gold.PLP.PLP>
-42.5305

> <Gold.PLP.part.hbond>
-4.0000

> <Gold.PLP.part.metal>
0.0000

> <Gold.PLP.part.buried>
-4.9506

> <Gold.PLP.part.nonpolar>
-33.2321

> <Gold.PLP.part.repulsive>
0.0372

> <Gold.PLP.ligand.clash>
0.0000

> <Gold.PLP.ligand.torsion>
0.7430

> <Gold.PLP.Chemscore.Hbond>
3.9920

> <Gold.PLP.Chemscore.CHOScore>
0.0000

> <Gold.PLP.Chemscore.Metal>
0.0000

> <Gold.Chemscore.Hbonds>
donor molecule, donor type, donor heavy atom, donor atom, acceptor molecule, acceptor atom, score
      L1  H    24    46       P1 10175  2.00
      P1  H  7989  7998       L1    11  0.99
      P1  H  7997  8008       L1    15  1.00

> <Gold.PLP.Chemscore.Internal.Correction>
0.0488

> <Gold.Rescore>
     Score         DG    S(hbond)    S(metal)    S(lipo)     H(rot)  DE(clash)    DE(int)     intcor
     18.13     -19.26       2.40        0.00     112.52       2.89       0.38       0.74       ----

> <Gold.Chemscore.Fitness>
18.1327

> <Gold.Chemscore.DG>
-19.2561

> <Gold.Chemscore.ZeroCoef>
-5.4800

> <Gold.Chemscore.Hbond>
2.3980

> <Gold.Chemscore.Metal>
0.0000

> <Gold.Chemscore.Lipo>
112.5246

> <Gold.Chemscore.Internal_Hbond>
0.0000

> <Gold.Chemscore.DEClash>
0.3808

> <Gold.Chemscore.DEInternal>
0.7426

> <Gold.Chemscore.Rot>
2.8901

> <Gold.Chemscore.Internal.Correction>
   9.000000E+99

> <Gold.Chemscore.Hbonds>
donor molecule, donor type, donor heavy atom, donor atom, acceptor molecule, acceptor atom, score
      L1  H    24    46       P1 10175  0.96
      P1  H  7989  7998       L1    11  0.73
      P1  H  7997  8008       L1    15  0.12

> <Gold.Chemscore.Hbond.Weighted>
-8.0093

> <Gold.Chemscore.Metal.Weighted>
-0.0000

> <Gold.Chemscore.Lipo.Weighted>
-13.1654

> <Gold.Chemscore.Internal_Hbond.Weighted>
0.0000

> <Gold.Chemscore.DEClash.Weighted>
0.3808

> <Gold.Chemscore.DEInternal.Weighted>
0.7426

> <Gold.Chemscore.Rot.Weighted>
7.3986

> <Gold.Chemscore.Internal.Correction.Weighted>
   9.000000E+99

> <Gold.Protein.RotatedTorsions>
[ 6907 6896 6895 6894 ] final  123.89 input  -60.11 | X-H torsion
[ 7974 7965 7964 7962 ] final -107.85 input  175.53 | X-H torsion
[ 8008 7997 7996 7995 ] final  -80.27 input   59.86 | X-H torsion
[ 10167 10162 10161 10158 ] final   38.43 input  -65.29 | X-H torsion
[ 10718 10713 10712 10709 ] final  -35.86 input   66.30 | X-H torsion
[ 10763 10752 10751 10750 ] final -125.75 input  -60.55 | X-H torsion
[ 11005 11000 10999 10996 ] final   27.80 input  -57.11 | X-H torsion

> <Gold.Protein.ActiveResidues>
 VAL166  LYS551  ARG553  GLY616  TRP617  ASP618  TYR619  PRO620  LYS621  CYS622 
 ASP623  PHE694  ASN695  SER759  ASP760  ASP761  ALA762  ILE779  LEU786  VAL792 
 PHE793  MET794  SER795  GLU796  ALA797  LYS798  CYS799  TRP800  GLU811  SER814 

> <Gold.Protein.RotatedAtoms>
  152.4124  133.6984  159.6408 H   0  0  0  0  0  0  0  0  0  0  0  0  # atno 6907 bound_to 6896
  150.8003  133.8601  159.3238 H   0  0  0  0  0  0  0  0  0  0  0  0  # atno 6908 bound_to 6896
  151.6340  135.1022  160.0179 H   0  0  0  0  0  0  0  0  0  0  0  0  # atno 6909 bound_to 6896
  145.2002  140.9053  143.3374 H   0  0  0  0  0  0  0  0  0  0  0  0  # atno 7974 bound_to 7965
  154.5867  140.0665  156.9181 H   0  0  0  0  0  0  0  0  0  0  0  0  # atno 8008 bound_to 7997
  155.2367  140.3341  155.4279 H   0  0  0  0  0  0  0  0  0  0  0  0  # atno 8009 bound_to 7997
  156.2227  140.1806  156.7421 H   0  0  0  0  0  0  0  0  0  0  0  0  # atno 8010 bound_to 7997
  140.3937  144.1818  150.6131 H   0  0  0  0  0  0  0  0  0  0  0  0  # atno 10167 bound_to 10162
  156.3336  130.4283  149.7850 H   0  0  0  0  0  0  0  0  0  0  0  0  # atno 10718 bound_to 10713
  154.8739  135.4019  154.3318 H   0  0  0  0  0  0  0  0  0  0  0  0  # atno 10763 bound_to 10752
  153.4131  135.7021  153.6351 H   0  0  0  0  0  0  0  0  0  0  0  0  # atno 10764 bound_to 10752
  153.5045  135.3720  155.2527 H   0  0  0  0  0  0  0  0  0  0  0  0  # atno 10765 bound_to 10752
  140.3224  134.2529  155.7715 H   0  0  0  0  0  0  0  0  0  0  0  0  # atno 11005 bound_to 11000
  144.9955  139.3648  143.6193 LP  0  0  0  0  0  0  0  0  0  0  0  0  # atno 17320 bound_to 7965
  146.3419  139.9156  142.8774 LP  0  0  0  0  0  0  0  0  0  0  0  0  # atno 17321 bound_to 7965
  140.4813  143.2378  151.8951 LP  0  0  0  0  0  0  0  0  0  0  0  0  # atno 17342 bound_to 10162
  139.4788  144.5266  151.8726 LP  0  0  0  0  0  0  0  0  0  0  0  0  # atno 17343 bound_to 10162
  156.5113  130.8173  151.3170 LP  0  0  0  0  0  0  0  0  0  0  0  0  # atno 17370 bound_to 10713
  157.7435  130.9913  150.2596 LP  0  0  0  0  0  0  0  0  0  0  0  0  # atno 17371 bound_to 10713
  141.2083  133.7780  157.0065 LP  0  0  0  0  0  0  0  0  0  0  0  0  # atno 17394 bound_to 11000
  140.0931  134.9581  157.1807 LP  0  0  0  0  0  0  0  0  0  0  0  0  # atno 17395 bound_to 11000

$$$$
