AV-unprocessed.smi:383|AV-procd|sdf|2464|dock4
  -GOLD-   2262022403D 1   1.00000     0.00000
 Structure written by MMmdl.
 40 41  0  0  0  0  0  0  0  0  1 V2000
  155.1362  136.4530  161.0737 C   0  0  0  0  0  0  0  0  0  0  0  0
  154.1618  137.5593  161.5105 C   0  0  0  0  0  0  0  0  0  0  0  0
  153.4465  137.1885  162.8200 C   0  0  0  0  0  0  0  0  0  0  0  0
  153.1404  137.8539  160.4046 C   0  0  0  0  0  0  0  0  0  0  0  0
  152.4165  136.9549  159.9751 O   0  0  0  0  0  0  0  0  0  0  0  0
  153.0910  139.1179  159.9560 N   0  0  0  0  0  0  0  0  0  0  0  0
  152.1715  139.6089  158.9371 C   0  0  0  0  0  0  0  0  0  0  0  0
  152.1840  141.1301  158.8246 C   0  0  0  0  0  0  0  0  0  0  0  0
  152.8451  141.8812  159.8197 C   0  0  0  0  0  0  0  0  0  0  0  0
  152.8370  143.2853  159.7442 C   0  0  0  0  0  0  0  0  0  0  0  0
  152.1600  143.8894  158.6698 C   0  0  0  0  0  0  0  0  0  0  0  0
  151.5204  143.1874  157.7120 N   0  0  0  0  0  0  0  0  0  0  0  0
  151.5246  141.8334  157.7803 C   0  0  0  0  0  0  0  0  0  0  0  0
  150.8508  141.1372  156.7623 N   0  0  0  0  0  0  0  0  0  0  0  0
  151.6978  140.2020  156.0350 C   0  0  0  0  0  0  0  0  0  0  0  0
  150.8296  139.3095  155.1313 C   0  0  0  0  0  0  0  0  0  0  0  0
  150.0399  140.1231  154.2678 O   0  0  0  0  0  0  0  0  0  0  0  0
  149.1640  140.9835  154.9921 C   0  0  0  0  0  0  0  0  0  0  0  0
  149.9895  141.9235  155.8866 C   0  0  0  0  0  0  0  0  0  0  0  0
  155.6451  136.7161  160.1455 H   0  0  0  0  0  0  0  0  0  0  0  0
  154.6227  135.5037  160.9152 H   0  0  0  0  0  0  0  0  0  0  0  0
  155.9034  136.2894  161.8310 H   0  0  0  0  0  0  0  0  0  0  0  0
  154.7436  138.4648  161.6909 H   0  0  0  0  0  0  0  0  0  0  0  0
  152.7503  137.9706  163.1263 H   0  0  0  0  0  0  0  0  0  0  0  0
  154.1631  137.0539  163.6306 H   0  0  0  0  0  0  0  0  0  0  0  0
  152.8820  136.2602  162.7209 H   0  0  0  0  0  0  0  0  0  0  0  0
  153.7260  139.7905  160.3607 H   0  0  0  0  0  0  0  0  0  0  0  0
  152.4830  139.1938  157.9783 H   0  0  0  0  0  0  0  0  0  0  0  0
  151.1728  139.2111  159.1160 H   0  0  0  0  0  0  0  0  0  0  0  0
  153.3497  141.3861  160.6365 H   0  0  0  0  0  0  0  0  0  0  0  0
  153.3344  143.8842  160.4925 H   0  0  0  0  0  0  0  0  0  0  0  0
  152.1294  144.9649  158.5771 H   0  0  0  0  0  0  0  0  0  0  0  0
  152.4150  140.7612  155.4326 H   0  0  0  0  0  0  0  0  0  0  0  0
  152.2726  139.5865  156.7278 H   0  0  0  0  0  0  0  0  0  0  0  0
  151.4609  138.6578  154.5272 H   0  0  0  0  0  0  0  0  0  0  0  0
  150.1842  138.6640  155.7294 H   0  0  0  0  0  0  0  0  0  0  0  0
  148.5692  141.5625  154.2858 H   0  0  0  0  0  0  0  0  0  0  0  0
  148.4669  140.3928  155.5888 H   0  0  0  0  0  0  0  0  0  0  0  0
  149.3277  142.5518  156.4842 H   0  0  0  0  0  0  0  0  0  0  0  0
  150.5958  142.5843  155.2653 H   0  0  0  0  0  0  0  0  0  0  0  0
  1  2  1  0  0  0  0
  1 20  1  0  0  0  0
  1 21  1  0  0  0  0
  1 22  1  0  0  0  0
  2  3  1  0  0  0  0
  2  4  1  0  0  0  0
  2 23  1  0  0  0  0
  3 24  1  0  0  0  0
  3 25  1  0  0  0  0
  3 26  1  0  0  0  0
  4  5  2  0  0  0  0
  4  6  1  0  0  0  0
  6  7  1  0  0  0  0
  6 27  1  0  0  0  0
  7  8  1  0  0  0  0
  7 28  1  0  0  0  0
  7 29  1  0  0  0  0
  8 13  1  0  0  0  0
  8  9  2  0  0  0  0
  9 10  1  0  0  0  0
  9 30  1  0  0  0  0
 10 11  2  0  0  0  0
 10 31  1  0  0  0  0
 11 12  1  0  0  0  0
 11 32  1  0  0  0  0
 12 13  2  0  0  0  0
 13 14  1  0  0  0  0
 14 19  1  0  0  0  0
 14 15  1  0  0  0  0
 15 16  1  0  0  0  0
 15 33  1  0  0  0  0
 15 34  1  0  0  0  0
 16 17  1  0  0  0  0
 16 35  1  0  0  0  0
 16 36  1  0  0  0  0
 17 18  1  0  0  0  0
 18 19  1  0  0  0  0
 18 37  1  0  0  0  0
 18 38  1  0  0  0  0
 19 39  1  0  0  0  0
 19 40  1  0  0  0  0
M  END
> <s_m_source_file>
AV-unprocessed.smi

> <i_m_source_file_index>
383

> <i_lp_mmshare_version>
43012

> <i_f3d_flags>
0

> <s_epik_input>
W0NIM11bQ0hdKFtDSDNdKUMoPU8pW05IXVtDSDJdYzFbY0hdW2NIXVtjSF1uYzFOMltDSDJdW0NIMl1PW0NIMl1bQ0gyXTI=

> <s_epik_cmdline>
J2VwaWtfcHl0aG9uJywgJy1waCcsICc3LjAnLCAnLXRuJywgJzgnLCAnLW1hJywgJzIwMCcsICctbWV0YWxfYmluZGluZycsICctaW1hZScsICc8aW5maWxlLm1hZT4nLCAnLW9tYWUnLCAnPG91dGZpbGUubWFlPic=

> <r_lp_tautomer_probability>
1

> <r_epik_Ionization_Penalty>
0.00505534

> <r_epik_Ionization_Penalty_Charging>
0

> <r_epik_Ionization_Penalty_Neutral>
0.00505534

> <r_epik_State_Penalty>
0.00367784

> <r_epik_Charging_Adjusted_Penalty>
0.00367784

> <i_epik_Tot_Q>
0

> <i_epik_Tot_abs_Q>
0

> <r_epik_Metal_State_Penalty>
-0

> <b_epik_Metal_Only>
0

> <s_lp_Force_Field>
OPLS_2005

> <r_lp_Energy>
19.0793

> <b_lp_Chiralities_Consistent>
1

> <s_lp_Variant>
AV-unprocessed.smi:383-1

> <Gold.Version>
5.8.1

> <Gold.Id.Protein>
6NUR|6NUR_protein|mol2

> <Gold.PLP.Fitness>
44.5981

> <Gold.PLP.PLP>
-39.0221

> <Gold.PLP.part.hbond>
-2.0000

> <Gold.PLP.part.metal>
0.0000

> <Gold.PLP.part.buried>
-5.3069

> <Gold.PLP.part.nonpolar>
-32.0763

> <Gold.PLP.part.repulsive>
0.3175

> <Gold.PLP.ligand.clash>
0.0097

> <Gold.PLP.ligand.torsion>
0.3235

> <Gold.PLP.Chemscore.Hbond>
2.0000

> <Gold.PLP.Chemscore.CHOScore>
0.0000

> <Gold.PLP.Chemscore.Metal>
0.0000

> <Gold.Chemscore.Hbonds>
donor molecule, donor type, donor heavy atom, donor atom, acceptor molecule, acceptor atom, score
      P1  H  6896  6909       L1     5  1.00
      P1  H  7989  7998       L1    17  0.54

> <Gold.PLP.Chemscore.Internal.Correction>
0.2328

> <Gold.Rescore>
     Score         DG    S(hbond)    S(metal)    S(lipo)     H(rot)  DE(clash)    DE(int)     intcor
     17.14     -18.28       1.60        0.00      97.78       1.56       0.14       1.00       ----

> <Gold.Chemscore.Fitness>
17.1388

> <Gold.Chemscore.DG>
-18.2794

> <Gold.Chemscore.ZeroCoef>
-5.4800

> <Gold.Chemscore.Hbond>
1.6015

> <Gold.Chemscore.Metal>
0.0000

> <Gold.Chemscore.Lipo>
97.7767

> <Gold.Chemscore.Internal_Hbond>
0.0000

> <Gold.Chemscore.DEClash>
0.1403

> <Gold.Chemscore.DEInternal>
1.0004

> <Gold.Chemscore.Rot>
1.5584

> <Gold.Chemscore.Internal.Correction>
   9.000000E+99

> <Gold.Chemscore.Hbonds>
donor molecule, donor type, donor heavy atom, donor atom, acceptor molecule, acceptor atom, score
      P1  H  6896  6909       L1     5  1.00
      P1  H  7989  7998       L1    17  0.03

> <Gold.Chemscore.Hbond.Weighted>
-5.3490

> <Gold.Chemscore.Metal.Weighted>
-0.0000

> <Gold.Chemscore.Lipo.Weighted>
-11.4399

> <Gold.Chemscore.Internal_Hbond.Weighted>
0.0000

> <Gold.Chemscore.DEClash.Weighted>
0.1403

> <Gold.Chemscore.DEInternal.Weighted>
1.0004

> <Gold.Chemscore.Rot.Weighted>
3.9895

> <Gold.Chemscore.Internal.Correction.Weighted>
   9.000000E+99

> <Gold.Protein.RotatedTorsions>
[ 6907 6896 6895 6894 ] final  140.80 input  -60.11 | X-H torsion
[ 7974 7965 7964 7962 ] final  168.42 input  175.53 | X-H torsion
[ 8008 7997 7996 7995 ] final  -98.20 input   59.86 | X-H torsion
[ 10167 10162 10161 10158 ] final   28.16 input  -65.29 | X-H torsion
[ 10718 10713 10712 10709 ] final  -34.66 input   66.30 | X-H torsion
[ 10763 10752 10751 10750 ] final -129.23 input  -60.55 | X-H torsion
[ 11005 11000 10999 10996 ] final  -23.21 input  -57.11 | X-H torsion

> <Gold.Protein.ActiveResidues>
 VAL166  LYS551  ARG553  GLY616  TRP617  ASP618  TYR619  PRO620  LYS621  CYS622 
 ASP623  PHE694  ASN695  SER759  ASP760  ASP761  ALA762  ILE779  LEU786  VAL792 
 PHE793  MET794  SER795  GLU796  ALA797  LYS798  CYS799  TRP800  GLU811  SER814 

> <Gold.Protein.RotatedAtoms>
  152.2386  133.5117  159.5256 H   0  0  0  0  0  0  0  0  0  0  0  0  # atno 6907 bound_to 6896
  150.7058  134.1119  159.4012 H   0  0  0  0  0  0  0  0  0  0  0  0  # atno 6908 bound_to 6896
  151.9040  135.0366  160.0559 H   0  0  0  0  0  0  0  0  0  0  0  0  # atno 6909 bound_to 6896
  144.7389  139.8905  143.6403 H   0  0  0  0  0  0  0  0  0  0  0  0  # atno 7974 bound_to 7965
  154.7980  140.0457  157.1251 H   0  0  0  0  0  0  0  0  0  0  0  0  # atno 8008 bound_to 7997
  154.9512  140.3065  155.5054 H   0  0  0  0  0  0  0  0  0  0  0  0  # atno 8009 bound_to 7997
  156.2958  140.2288  156.4590 H   0  0  0  0  0  0  0  0  0  0  0  0  # atno 8010 bound_to 7997
  140.4877  144.0517  150.6286 H   0  0  0  0  0  0  0  0  0  0  0  0  # atno 10167 bound_to 10162
  156.3479  130.4303  149.7730 H   0  0  0  0  0  0  0  0  0  0  0  0  # atno 10718 bound_to 10713
  154.8757  135.3902  154.3886 H   0  0  0  0  0  0  0  0  0  0  0  0  # atno 10763 bound_to 10752
  153.4625  135.7029  153.6047 H   0  0  0  0  0  0  0  0  0  0  0  0  # atno 10764 bound_to 10752
  153.4539  135.3827  155.2268 H   0  0  0  0  0  0  0  0  0  0  0  0  # atno 10765 bound_to 10752
  140.8730  133.7707  156.0210 H   0  0  0  0  0  0  0  0  0  0  0  0  # atno 11005 bound_to 11000
  146.1145  139.4154  143.0267 LP  0  0  0  0  0  0  0  0  0  0  0  0  # atno 17320 bound_to 7965
  145.7394  141.0013  143.1309 LP  0  0  0  0  0  0  0  0  0  0  0  0  # atno 17321 bound_to 7965
  140.3777  143.2820  152.0206 LP  0  0  0  0  0  0  0  0  0  0  0  0  # atno 17342 bound_to 10162
  139.4845  144.6180  151.7310 LP  0  0  0  0  0  0  0  0  0  0  0  0  # atno 17343 bound_to 10162
  156.4942  130.8099  151.3107 LP  0  0  0  0  0  0  0  0  0  0  0  0  # atno 17370 bound_to 10713
  157.7457  130.9965  150.2784 LP  0  0  0  0  0  0  0  0  0  0  0  0  # atno 17371 bound_to 10713
  140.8550  134.2908  157.5259 LP  0  0  0  0  0  0  0  0  0  0  0  0  # atno 17394 bound_to 11000
  139.8713  134.9488  156.4007 LP  0  0  0  0  0  0  0  0  0  0  0  0  # atno 17395 bound_to 11000

$$$$
