#       Name:                AV-unprocessed.smi:72
#       Creating user name   scv26
#       Creation time:       Thu Mar 26 17:05:29 2020


#       File generated by GOLD software.
#

@<TRIPOS>MOLECULE
AV-unprocessed.smi:72
    41    42     1
SMALL
NO_CHARGES


@<TRIPOS>ATOM
      1 ****        -2.2283   4.5591  -1.0031 N.2            1 S1                 0.0000
      2 ****        -1.8685   3.4172  -0.6073 C.2            1 S1                 0.0000
      3 ****        -0.4628   3.0786  -0.5586 N.2            1 S1                 0.0000
      4 ****        -0.1396   1.8992  -0.1244 C.2            1 S1                 0.0000
      5 ****        -1.1439   0.9408   0.3163 N.am           1 S1                 0.0000
      6 ****        -0.7576  -0.4379   0.8085 C.3            1 S1                 0.0000
      7 ****         0.5309  -0.3944   1.3554 O.3            1 S1                 0.0000
      8 ****         1.3305  -1.4174   0.7752 C.3            1 S1                 0.0000
      9 ****         2.8264  -1.0619   0.8568 C.3            1 S1                 0.0000
     10 ****         3.1912  -0.0588  -0.0691 O.3            1 S1                 0.0000
     11 ****         0.7363  -1.6301  -0.6182 C.3            1 S1                 0.0000
     12 ****         1.0537  -2.8926  -1.1737 O.3            1 S1                 0.0000
     13 ****        -0.7551  -1.4401  -0.3614 C.3            1 S1                 0.0000
     14 ****        -1.4114  -2.6403   0.0039 O.3            1 S1                 0.0000
     15 ****        -2.5180   1.2864   0.2229 C.2            1 S1                 0.0000
     16 ****        -3.3533   0.4433   0.5512 O.2            1 S1                 0.0000
     17 ****        -2.8506   2.5258  -0.2347 N.pl3          1 S1                -1.0000
     18 ****        -1.4626  -0.6834   1.6044 H              1 S1                 0.0000
     19 ****         1.1551  -2.3125   1.3749 H              1 S1                 0.0000
     20 ****         1.0705  -0.8485  -1.3011 H              1 S1                 0.0000
     21 ****        -1.2629  -1.0291  -1.2352 H              1 S1                 0.0000
     22 ****        -3.2307   4.6770  -0.9954 H              1 S1                 0.0000
     23 ****         0.8929   1.5548  -0.0672 H              1 S1                 0.0000
     24 ****         3.0891  -0.7407   1.8649 H              1 S1                 0.0000
     25 ****         3.4243  -1.9470   0.6388 H              1 S1                 0.0000
     26 ****         4.1147   0.1167   0.0266 H              1 S1                 0.0000
     27 ****         0.5635  -2.9962  -1.9748 H              1 S1                 0.0000
     28 ****        -2.3167  -2.4388   0.1862 H              1 S1                 0.0000
     29 ****        -1.5892   5.2713  -1.2935 LP             1 S1                 0.0000
     30 ****         0.2364   3.7315  -0.8498 LP             1 S1                 0.0000
     31 ****         0.4776  -0.5342   2.3441 LP             1 S1                 0.0000
     32 ****         0.9427   0.4971   1.1665 LP             1 S1                 0.0000
     33 ****         2.6690   0.7743   0.1131 LP             1 S1                 0.0000
     34 ****         3.0025  -0.3737  -0.9993 LP             1 S1                 0.0000
     35 ****         0.8066  -3.6170  -0.5301 LP             1 S1                 0.0000
     36 ****         2.0335  -2.9397  -1.3684 LP             1 S1                 0.0000
     37 ****        -0.9801  -3.0273   0.8189 LP             1 S1                 0.0000
     38 ****        -1.3558  -3.2984  -0.7470 LP             1 S1                 0.0000
     39 ****        -3.0564  -0.4558   0.8728 LP             1 S1                 0.0000
     40 ****        -4.3285   0.6577   0.4961 LP             1 S1                 0.0000
     41 ****        -3.8128   2.7899  -0.3005 LP             1 S1                 0.0000
@<TRIPOS>BOND
    1    1    2 2     
    2    1   22 1     
    3    2   17 1     
    4    2    3 1     
    5    3    4 2     
    6    4    5 1     
    7    4   23 1     
    8    5    6 1     
    9    5   15 am    
   10    6   18 1     
   11    6   13 1     
   12    6    7 1     
   13    7    8 1     
   14    8   19 1     
   15    8    9 1     
   16    8   11 1     
   17    9   10 1     
   18    9   24 1     
   19    9   25 1     
   20   10   26 1     
   21   11   20 1     
   22   11   12 1     
   23   11   13 1     
   24   12   27 1     
   25   13   21 1     
   26   13   14 1     
   27   14   28 1     
   28   15   16 2     
   29   15   17 1     
   30    1   29 1     
   31    3   30 1     
   32    7   31 1     
   33    7   32 1     
   34   10   33 1     
   35   10   34 1     
   36   12   35 1     
   37   12   36 1     
   38   14   37 1     
   39   14   38 1     
   40   16   39 1     
   41   16   40 1     
   42   17   41 1     
@<TRIPOS>SUBSTRUCTURE
      1 S1             1
@<TRIPOS>SET
LONE_PAIRS      STATIC     ATOMS    <user>   **** ""
13 29 30 31 32 33 34 35 36 37 38 39 40 41
DONOR_HYDROGENS      STATIC     ATOMS    <user>   **** ""
4 22 26 27 28
ATOM$BLUE        STATIC     ATOMS    COLORGROUP SYSTEM
13 29 30 31 32 33 34 35 36 37 38 39 40 41
ATOM$RED        STATIC     ATOMS    COLORGROUP SYSTEM
4 22 26 27 28
