#       Name:                AV-unprocessed.smi:1470
#       Creating user name   scv26
#       Creation time:       Fri Mar 27 06:04:54 2020


#       File generated by GOLD software.
#

@<TRIPOS>MOLECULE
AV-unprocessed.smi:1470
    48    49     1
SMALL
NO_CHARGES


@<TRIPOS>ATOM
      1 ****        -4.5062   1.5062  -5.4281 C.3            1 S1                 0.0000
      2 ****        -3.0901   1.5371  -5.4385 O.3            1 S1                 0.0000
      3 ****        -2.5196   0.2421  -5.5328 C.3            1 S1                 0.0000
      4 ****        -0.9888   0.3635  -5.5286 C.3            1 S1                 0.0000
      5 ****        -0.4923   0.8833  -4.2591 N.am           1 S1                 0.0000
      6 ****        -0.3388   0.1622  -3.1403 C.2            1 S1                 0.0000
      7 ****        -0.5888  -1.0408  -3.0684 O.2            1 S1                 0.0000
      8 ****         0.1315   0.9194  -2.1345 N.am           1 S1                 0.0000
      9 ****         0.4200   0.5349  -0.7976 C.ar           1 S1                 0.0000
     10 ****        -0.1448  -0.5965  -0.1564 C.ar           1 S1                 0.0000
     11 ****         0.1991  -0.8792   1.1816 C.ar           1 S1                 0.0000
     12 ****         1.0935  -0.0242   1.8650 C.ar           1 S1                 0.0000
     13 ****         1.4912  -0.2268   3.1929 N.3            1 S1                 0.0000
     14 ****         0.3819  -0.1707   4.1417 C.3            1 S1                 0.0000
     15 ****         0.9002  -0.2027   5.5897 C.3            1 S1                 0.0000
     16 ****         1.8029  -1.4252   5.8210 C.3            1 S1                 0.0000
     17 ****         2.9320  -1.4569   4.7782 C.3            1 S1                 0.0000
     18 ****         2.3652  -1.3868   3.3494 C.3            1 S1                 0.0000
     19 ****         1.6001   1.0500   1.2214 N.pl3          1 S1                 1.0000
     20 ****         1.2963   1.3565  -0.0582 C.ar           1 S1                 0.0000
     21 ****        -4.8939   2.5230  -5.3680 H              1 S1                 0.0000
     22 ****        -4.8814   0.9512  -4.5673 H              1 S1                 0.0000
     23 ****        -4.8980   1.0492  -6.3378 H              1 S1                 0.0000
     24 ****        -2.8588  -0.3871  -4.7081 H              1 S1                 0.0000
     25 ****        -2.8448  -0.2343  -6.4588 H              1 S1                 0.0000
     26 ****        -0.5340  -0.6069  -5.7338 H              1 S1                 0.0000
     27 ****        -0.6660   1.0310  -6.3279 H              1 S1                 0.0000
     28 ****        -0.2620   1.8657  -4.2314 H              1 S1                 0.0000
     29 ****         0.3627   1.8733  -2.3709 H              1 S1                 0.0000
     30 ****        -0.8449  -1.2470  -0.6569 H              1 S1                 0.0000
     31 ****        -0.2247  -1.7424   1.6738 H              1 S1                 0.0000
     32 ****        -0.1988   0.7378   3.9755 H              1 S1                 0.0000
     33 ****        -0.2882  -1.0148   3.9730 H              1 S1                 0.0000
     34 ****         1.4609   0.7097   5.7972 H              1 S1                 0.0000
     35 ****         0.0623  -0.2175   6.2872 H              1 S1                 0.0000
     36 ****         2.2198  -1.4014   6.8283 H              1 S1                 0.0000
     37 ****         1.2104  -2.3382   5.7490 H              1 S1                 0.0000
     38 ****         3.6052  -0.6149   4.9448 H              1 S1                 0.0000
     39 ****         3.5299  -2.3606   4.9000 H              1 S1                 0.0000
     40 ****         1.8050  -2.2965   3.1291 H              1 S1                 0.0000
     41 ****         3.1828  -1.3327   2.6291 H              1 S1                 0.0000
     42 ****         1.7684   2.2456  -0.4510 H              1 S1                 0.0000
     43 ****         2.2417   1.6613   1.7269 H              1 S1                 0.0000
     44 ****        -2.7724   1.9668  -4.5932 LP             1 S1                 0.0000
     45 ****        -2.7868   2.0791  -6.2223 LP             1 S1                 0.0000
     46 ****        -0.9256  -1.5304  -3.8727 LP             1 S1                 0.0000
     47 ****        -0.4551  -1.5286  -2.2057 LP             1 S1                 0.0000
     48 ****         2.0619   0.5569   3.4382 LP             1 S1                 0.0000
@<TRIPOS>BOND
    1    1    2 1     
    2    1   21 1     
    3    1   22 1     
    4    1   23 1     
    5    2    3 1     
    6    3    4 1     
    7    3   24 1     
    8    3   25 1     
    9    4    5 1     
   10    4   26 1     
   11    4   27 1     
   12    5    6 am    
   13    5   28 1     
   14    6    7 2     
   15    6    8 am    
   16    8    9 1     
   17    8   29 1     
   18    9   20 ar    
   19    9   10 ar    
   20   10   11 ar    
   21   10   30 1     
   22   11   12 ar    
   23   11   31 1     
   24   12   13 1     
   25   12   19 ar    
   26   13   18 1     
   27   13   14 1     
   28   14   15 1     
   29   14   32 1     
   30   14   33 1     
   31   15   16 1     
   32   15   34 1     
   33   15   35 1     
   34   16   17 1     
   35   16   36 1     
   36   16   37 1     
   37   17   18 1     
   38   17   38 1     
   39   17   39 1     
   40   18   40 1     
   41   18   41 1     
   42   19   20 ar    
   43   19   43 1     
   44   20   42 1     
   45    2   44 1     
   46    2   45 1     
   47    7   46 1     
   48    7   47 1     
   49   13   48 1     
@<TRIPOS>SUBSTRUCTURE
      1 S1             1
@<TRIPOS>SET
LONE_PAIRS      STATIC     ATOMS    <user>   **** ""
5 44 45 46 47 48
DONOR_HYDROGENS      STATIC     ATOMS    <user>   **** ""
3 28 29 43
ATOM$BLUE        STATIC     ATOMS    COLORGROUP SYSTEM
5 44 45 46 47 48
ATOM$RED        STATIC     ATOMS    COLORGROUP SYSTEM
3 28 29 43
