AV-unprocessed.smi:1086|AV-procd|sdf|4724|dock8
  -GOLD-   22720 3253D 1   1.00000     0.00000
 Structure written by MMmdl.
 41 42  0  0  0  0  0  0  0  0  1 V2000
  150.5544  142.5200  157.5973 C   0  0  0  0  0  0  0  0  0  0  0  0
  151.0137  142.0064  156.3516 O   0  0  0  0  0  0  0  0  0  0  0  0
  150.3985  140.8819  155.8407 C   0  0  0  0  0  0  0  0  0  0  0  0
  149.1501  140.4972  156.3688 C   0  0  0  0  0  0  0  0  0  0  0  0
  148.5182  139.3474  155.8572 C   0  0  0  0  0  0  0  0  0  0  0  0
  149.1625  138.6113  154.8343 C   0  0  0  0  0  0  0  0  0  0  0  0
  148.6281  137.4419  154.2288 N   0  0  0  0  0  0  0  0  0  0  0  0
  147.6902  136.6058  154.7058 C   0  0  0  0  0  0  0  0  0  0  0  0
  147.1054  136.7287  155.7820 O   0  0  0  0  0  0  0  0  0  0  0  0
  147.4727  135.5882  153.8594 N   0  0  0  0  0  0  0  0  0  0  0  0
  146.5141  134.5055  154.0761 C   0  0  0  0  0  0  0  0  0  0  0  0
  146.7288  133.3007  153.1401 C   0  0  0  0  0  0  0  0  0  0  0  0
  147.3881  132.3402  153.5434 O   0  0  0  0  0  0  0  0  0  0  0  0
  146.1827  133.3298  151.8998 N   0  0  0  0  0  0  0  0  0  0  0  0
  146.2623  132.2514  150.9048 C   0  0  0  0  0  0  0  0  0  0  0  0
  144.8737  131.6002  150.7738 C   0  0  0  0  0  0  0  0  0  0  0  0
  143.8093  132.6505  150.4012 C   0  0  0  0  0  0  0  0  0  0  0  0
  143.8702  133.8804  151.3281 C   0  0  0  0  0  0  0  0  0  0  0  0
  145.3090  134.4184  151.4430 C   0  0  0  0  0  0  0  0  0  0  0  0
  150.4018  139.0909  154.3625 C   0  0  0  0  0  0  0  0  0  0  0  0
  151.0133  140.1912  154.8491 N   0  0  0  0  0  0  0  0  0  0  0  0
  151.1351  143.4043  157.8594 H   0  0  0  0  0  0  0  0  0  0  0  0
  150.6804  141.7919  158.4000 H   0  0  0  0  0  0  0  0  0  0  0  0
  149.5060  142.8172  157.5439 H   0  0  0  0  0  0  0  0  0  0  0  0
  148.6833  141.0761  157.1520 H   0  0  0  0  0  0  0  0  0  0  0  0
  147.5540  139.0645  156.2498 H   0  0  0  0  0  0  0  0  0  0  0  0
  149.0626  137.1692  153.3593 H   0  0  0  0  0  0  0  0  0  0  0  0
  147.9947  135.5666  152.9957 H   0  0  0  0  0  0  0  0  0  0  0  0
  146.6119  134.1719  155.1093 H   0  0  0  0  0  0  0  0  0  0  0  0
  145.5011  134.8940  153.9582 H   0  0  0  0  0  0  0  0  0  0  0  0
  146.5652  132.6730  149.9453 H   0  0  0  0  0  0  0  0  0  0  0  0
  147.0122  131.4956  151.1327 H   0  0  0  0  0  0  0  0  0  0  0  0
  144.8977  130.8102  150.0227 H   0  0  0  0  0  0  0  0  0  0  0  0
  144.6046  131.1237  151.7176 H   0  0  0  0  0  0  0  0  0  0  0  0
  143.9732  132.9727  149.3721 H   0  0  0  0  0  0  0  0  0  0  0  0
  142.8141  132.2057  150.4297 H   0  0  0  0  0  0  0  0  0  0  0  0
  143.2053  134.6610  150.9571 H   0  0  0  0  0  0  0  0  0  0  0  0
  143.5053  133.6078  152.3194 H   0  0  0  0  0  0  0  0  0  0  0  0
  145.3279  135.2850  152.1051 H   0  0  0  0  0  0  0  0  0  0  0  0
  145.6553  134.7795  150.4736 H   0  0  0  0  0  0  0  0  0  0  0  0
  150.9258  138.5719  153.5731 H   0  0  0  0  0  0  0  0  0  0  0  0
  1  2  1  0  0  0  0
  1 22  1  0  0  0  0
  1 23  1  0  0  0  0
  1 24  1  0  0  0  0
  2  3  1  0  0  0  0
  3 21  1  0  0  0  0
  3  4  2  0  0  0  0
  4  5  1  0  0  0  0
  4 25  1  0  0  0  0
  5  6  2  0  0  0  0
  5 26  1  0  0  0  0
  6  7  1  0  0  0  0
  6 20  1  0  0  0  0
  7  8  1  0  0  0  0
  7 27  1  0  0  0  0
  8  9  2  0  0  0  0
  8 10  1  0  0  0  0
 10 11  1  0  0  0  0
 10 28  1  0  0  0  0
 11 12  1  0  0  0  0
 11 29  1  0  0  0  0
 11 30  1  0  0  0  0
 12 13  2  0  0  0  0
 12 14  1  0  0  0  0
 14 19  1  0  0  0  0
 14 15  1  0  0  0  0
 15 16  1  0  0  0  0
 15 31  1  0  0  0  0
 15 32  1  0  0  0  0
 16 17  1  0  0  0  0
 16 33  1  0  0  0  0
 16 34  1  0  0  0  0
 17 18  1  0  0  0  0
 17 35  1  0  0  0  0
 17 36  1  0  0  0  0
 18 19  1  0  0  0  0
 18 37  1  0  0  0  0
 18 38  1  0  0  0  0
 19 39  1  0  0  0  0
 19 40  1  0  0  0  0
 20 21  2  0  0  0  0
 20 41  1  0  0  0  0
M  END
> <s_m_source_file>
AV-unprocessed.smi

> <i_m_source_file_index>
1086

> <i_lp_mmshare_version>
43012

> <i_f3d_flags>
0

> <s_epik_input>
W0NIM11PYzFbY0hdW2NIXWMoW2NIXW4xKVtOSF1DKD1PKVtOSF1bQ0gyXUMoPU8pTjJbQ0gyXVtDSDJdW0NIMl1bQ0gyXVtDSDJdMg==

> <s_epik_cmdline>
J2VwaWtfcHl0aG9uJywgJy1waCcsICc3LjAnLCAnLXRuJywgJzgnLCAnLW1hJywgJzIwMCcsICctbWV0YWxfYmluZGluZycsICctaW1hZScsICc8aW5maWxlLm1hZT4nLCAnLW9tYWUnLCAnPG91dGZpbGUubWFlPic=

> <r_lp_tautomer_probability>
1

> <r_epik_Ionization_Penalty>
0.0001417

> <r_epik_Ionization_Penalty_Charging>
0

> <r_epik_Ionization_Penalty_Neutral>
0.0001417

> <r_epik_State_Penalty>
-0

> <r_epik_Charging_Adjusted_Penalty>
0

> <i_epik_Tot_Q>
0

> <i_epik_Tot_abs_Q>
0

> <r_epik_Metal_State_Penalty>
-0

> <b_epik_Metal_Only>
0

> <s_lp_Force_Field>
OPLS_2005

> <r_lp_Energy>
23.1479

> <b_lp_Chiralities_Consistent>
1

> <s_lp_Variant>
AV-unprocessed.smi:1086-1

> <Gold.Version>
5.8.1

> <Gold.Id.Protein>
6NUR|6NUR_protein|mol2

> <Gold.PLP.Fitness>
38.3766

> <Gold.PLP.PLP>
-30.8403

> <Gold.PLP.part.hbond>
-3.0000

> <Gold.PLP.part.metal>
0.0000

> <Gold.PLP.part.buried>
-4.5027

> <Gold.PLP.part.nonpolar>
-23.7434

> <Gold.PLP.part.repulsive>
0.2603

> <Gold.PLP.ligand.clash>
0.0000

> <Gold.PLP.ligand.torsion>
0.7405

> <Gold.PLP.Chemscore.Hbond>
3.0000

> <Gold.PLP.Chemscore.CHOScore>
0.0000

> <Gold.PLP.Chemscore.Metal>
0.0000

> <Gold.Chemscore.Hbonds>
donor molecule, donor type, donor heavy atom, donor atom, acceptor molecule, acceptor atom, score
      L1  H     7    27       P1  7948  0.98
      L1  H    10    28       P1  7948  1.00
      P1  H  7989  7998       L1    21  1.00

> <Gold.PLP.Chemscore.Internal.Correction>
0.0172

> <Gold.Rescore>
     Score         DG    S(hbond)    S(metal)    S(lipo)     H(rot)  DE(clash)    DE(int)     intcor
     16.34     -18.27       2.76        0.00      64.59       1.55       0.00       1.93       ----

> <Gold.Chemscore.Fitness>
16.3399

> <Gold.Chemscore.DG>
-18.2735

> <Gold.Chemscore.ZeroCoef>
-5.4800

> <Gold.Chemscore.Hbond>
2.7574

> <Gold.Chemscore.Metal>
0.0000

> <Gold.Chemscore.Lipo>
64.5902

> <Gold.Chemscore.Internal_Hbond>
0.0000

> <Gold.Chemscore.DEClash>
0.0000

> <Gold.Chemscore.DEInternal>
1.9336

> <Gold.Chemscore.Rot>
1.5521

> <Gold.Chemscore.Internal.Correction>
   9.000000E+99

> <Gold.Chemscore.Hbonds>
donor molecule, donor type, donor heavy atom, donor atom, acceptor molecule, acceptor atom, score
      L1  H     7    27       P1  7948  0.93
      L1  H    10    28       P1  7948  0.97
      P1  H  7989  7998       L1    21  0.39

> <Gold.Chemscore.Hbond.Weighted>
-9.2099

> <Gold.Chemscore.Metal.Weighted>
-0.0000

> <Gold.Chemscore.Lipo.Weighted>
-7.5571

> <Gold.Chemscore.Internal_Hbond.Weighted>
0.0000

> <Gold.Chemscore.DEClash.Weighted>
0.0000

> <Gold.Chemscore.DEInternal.Weighted>
1.9336

> <Gold.Chemscore.Rot.Weighted>
3.9734

> <Gold.Chemscore.Internal.Correction.Weighted>
   9.000000E+99

> <Gold.Protein.RotatedTorsions>
[ 6907 6896 6895 6894 ] final   61.64 input  -60.11 | X-H torsion
[ 7974 7965 7964 7962 ] final  101.35 input  175.53 | X-H torsion
[ 8008 7997 7996 7995 ] final  163.99 input   59.86 | X-H torsion
[ 10167 10162 10161 10158 ] final  160.89 input  -65.29 | X-H torsion
[ 10718 10713 10712 10709 ] final  -12.17 input   66.30 | X-H torsion
[ 10763 10752 10751 10750 ] final  147.84 input  -60.55 | X-H torsion
[ 11005 11000 10999 10996 ] final -102.52 input  -57.11 | X-H torsion

> <Gold.Protein.ActiveResidues>
 VAL166  LYS551  ARG553  GLY616  TRP617  ASP618  TYR619  PRO620  LYS621  CYS622 
 ASP623  PHE694  ASN695  SER759  ASP760  ASP761  ALA762  ILE779  LEU786  VAL792 
 PHE793  MET794  SER795  GLU796  ALA797  LYS798  CYS799  TRP800  GLU811  SER814 

> <Gold.Protein.RotatedAtoms>
  152.4106  134.6131  160.0030 H   0  0  0  0  0  0  0  0  0  0  0  0  # atno 6907 bound_to 6896
  151.6309  133.3326  159.3117 H   0  0  0  0  0  0  0  0  0  0  0  0  # atno 6908 bound_to 6896
  150.7997  134.7123  159.6655 H   0  0  0  0  0  0  0  0  0  0  0  0  # atno 6909 bound_to 6896
  145.3735  139.2393  143.3442 H   0  0  0  0  0  0  0  0  0  0  0  0  # atno 7974 bound_to 7965
  156.1915  140.1709  156.8083 H   0  0  0  0  0  0  0  0  0  0  0  0  # atno 8008 bound_to 7997
  154.5477  140.0724  156.8648 H   0  0  0  0  0  0  0  0  0  0  0  0  # atno 8009 bound_to 7997
  155.3090  140.3366  155.4247 H   0  0  0  0  0  0  0  0  0  0  0  0  # atno 8010 bound_to 7997
  139.4844  144.4590  151.8730 H   0  0  0  0  0  0  0  0  0  0  0  0  # atno 10167 bound_to 10162
  156.6485  130.4948  149.6070 H   0  0  0  0  0  0  0  0  0  0  0  0  # atno 10718 bound_to 10713
  154.0449  135.2886  155.3349 H   0  0  0  0  0  0  0  0  0  0  0  0  # atno 10763 bound_to 10752
  154.6906  135.5228  153.8390 H   0  0  0  0  0  0  0  0  0  0  0  0  # atno 10764 bound_to 10752
  153.0584  135.6604  154.0650 H   0  0  0  0  0  0  0  0  0  0  0  0  # atno 10765 bound_to 10752
  141.1185  133.8565  157.1370 H   0  0  0  0  0  0  0  0  0  0  0  0  # atno 11005 bound_to 11000
  146.2875  140.4390  142.8752 LP  0  0  0  0  0  0  0  0  0  0  0  0  # atno 17320 bound_to 7965
  144.8559  140.7070  143.6138 LP  0  0  0  0  0  0  0  0  0  0  0  0  # atno 17321 bound_to 7965
  140.4051  144.2442  150.5891 LP  0  0  0  0  0  0  0  0  0  0  0  0  # atno 17342 bound_to 10162
  140.5020  143.2315  151.8665 LP  0  0  0  0  0  0  0  0  0  0  0  0  # atno 17343 bound_to 10162
  156.2103  130.6675  151.1262 LP  0  0  0  0  0  0  0  0  0  0  0  0  # atno 17370 bound_to 10713
  157.7148  131.0715  150.6366 LP  0  0  0  0  0  0  0  0  0  0  0  0  # atno 17371 bound_to 10713
  140.0125  134.9982  157.0425 LP  0  0  0  0  0  0  0  0  0  0  0  0  # atno 17394 bound_to 11000
  140.4575  134.1518  155.7188 LP  0  0  0  0  0  0  0  0  0  0  0  0  # atno 17395 bound_to 11000

$$$$
