AV-unprocessed.smi:1285|AV-procd|sdf|5369|dock10
  -GOLD-   22720 4513D 1   1.00000     0.00000
 Structure written by MMmdl.
 46 47  0  0  0  0  0  0  0  0  1 V2000
  152.1240  144.8708  157.2387 C   0  0  0  0  0  0  0  0  0  0  0  0
  152.5938  144.3405  158.6056 C   0  0  0  0  0  0  0  0  0  0  0  0
  151.4881  143.6898  159.4968 C   0  0  1  0  0  0  0  0  0  0  0  0
  150.5430  144.8430  159.9307 C   0  0  0  0  0  0  0  0  0  0  0  0
  150.6642  142.6878  158.6241 C   0  0  0  0  0  0  0  0  0  0  0  0
  151.4841  141.6900  157.9364 N   0  0  0  0  0  0  0  0  0  0  0  0
  151.1309  140.4183  157.6873 C   0  0  0  0  0  0  0  0  0  0  0  0
  150.0427  139.9440  158.0148 O   0  0  0  0  0  0  0  0  0  0  0  0
  152.1753  139.5522  156.9671 C   0  0  1  0  0  0  0  0  0  0  0  0
  152.8846  138.5717  157.9233 C   0  0  0  0  0  0  0  0  0  0  0  0
  151.5682  138.8766  155.8269 N   0  0  0  0  0  0  0  0  0  0  0  0
  151.4904  137.5739  155.5453 C   0  0  0  0  0  0  0  0  0  0  0  0
  150.9035  137.3064  154.3872 N   0  0  0  0  0  0  0  0  0  0  0  0
  150.6363  138.5788  153.9682 C   0  0  0  0  0  0  0  0  0  0  0  0
  151.0233  139.5566  154.7871 N   0  0  0  0  0  0  0  0  0  0  0  0
  152.0887  143.0287  160.6900 N   0  0  0  0  0  0  0  0  0  0  0  0
  153.1912  142.1021  160.4075 C   0  0  0  0  0  0  0  0  0  0  0  0
  153.6509  141.3530  161.6702 C   0  0  0  0  0  0  0  0  0  0  0  0
  154.0275  142.2888  162.6735 O   0  0  0  0  0  0  0  0  0  0  0  0
  152.9674  143.1734  163.0164 C   0  0  0  0  0  0  0  0  0  0  0  0
  152.5073  143.9381  161.7639 C   0  0  0  0  0  0  0  0  0  0  0  0
  152.9589  145.3159  156.6972 H   0  0  0  0  0  0  0  0  0  0  0  0
  151.3584  145.6396  157.3408 H   0  0  0  0  0  0  0  0  0  0  0  0
  151.7205  144.0753  156.6129 H   0  0  0  0  0  0  0  0  0  0  0  0
  153.3885  143.6199  158.4125 H   0  0  0  0  0  0  0  0  0  0  0  0
  153.0867  145.1486  159.1460 H   0  0  0  0  0  0  0  0  0  0  0  0
  150.2721  145.4881  159.0940 H   0  0  0  0  0  0  0  0  0  0  0  0
  151.0036  145.4779  160.6880 H   0  0  0  0  0  0  0  0  0  0  0  0
  149.6064  144.4700  160.3454 H   0  0  0  0  0  0  0  0  0  0  0  0
  149.9002  142.1880  159.2199 H   0  0  0  0  0  0  0  0  0  0  0  0
  150.1239  143.2194  157.8417 H   0  0  0  0  0  0  0  0  0  0  0  0
  152.3997  141.9910  157.6362 H   0  0  0  0  0  0  0  0  0  0  0  0
  152.9412  140.2208  156.5699 H   0  0  0  0  0  0  0  0  0  0  0  0
  153.3744  139.1055  158.7384 H   0  0  0  0  0  0  0  0  0  0  0  0
  153.6525  138.0032  157.3979 H   0  0  0  0  0  0  0  0  0  0  0  0
  152.1916  137.8567  158.3689 H   0  0  0  0  0  0  0  0  0  0  0  0
  151.8740  136.8049  156.1997 H   0  0  0  0  0  0  0  0  0  0  0  0
  150.1470  138.7910  153.0291 H   0  0  0  0  0  0  0  0  0  0  0  0
  152.8965  141.3576  159.6700 H   0  0  0  0  0  0  0  0  0  0  0  0
  154.0426  142.6413  159.9927 H   0  0  0  0  0  0  0  0  0  0  0  0
  152.8565  140.7059  162.0457 H   0  0  0  0  0  0  0  0  0  0  0  0
  154.5038  140.7136  161.4421 H   0  0  0  0  0  0  0  0  0  0  0  0
  152.1393  142.6117  163.4515 H   0  0  0  0  0  0  0  0  0  0  0  0
  153.3174  143.8701  163.7783 H   0  0  0  0  0  0  0  0  0  0  0  0
  153.3256  144.5730  161.4247 H   0  0  0  0  0  0  0  0  0  0  0  0
  151.6947  144.5997  162.0574 H   0  0  0  0  0  0  0  0  0  0  0  0
  1  2  1  0  0  0  0
  1 22  1  0  0  0  0
  1 23  1  0  0  0  0
  1 24  1  0  0  0  0
  2  3  1  0  0  0  0
  2 25  1  0  0  0  0
  2 26  1  0  0  0  0
  3  4  1  0  0  0  0
  3  5  1  0  0  0  0
  3 16  1  0  0  0  0
  4 27  1  0  0  0  0
  4 28  1  0  0  0  0
  4 29  1  0  0  0  0
  5  6  1  0  0  0  0
  5 30  1  0  0  0  0
  5 31  1  0  0  0  0
  6  7  1  0  0  0  0
  6 32  1  0  0  0  0
  7  8  2  0  0  0  0
  7  9  1  0  0  0  0
  9 10  1  0  0  0  0
  9 11  1  0  0  0  0
  9 33  1  0  0  0  0
 10 34  1  0  0  0  0
 10 35  1  0  0  0  0
 10 36  1  0  0  0  0
 11 15  1  0  0  0  0
 11 12  1  0  0  0  0
 12 13  2  0  0  0  0
 12 37  1  0  0  0  0
 13 14  1  0  0  0  0
 14 15  2  0  0  0  0
 14 38  1  0  0  0  0
 16 21  1  0  0  0  0
 16 17  1  0  0  0  0
 17 18  1  0  0  0  0
 17 39  1  0  0  0  0
 17 40  1  0  0  0  0
 18 19  1  0  0  0  0
 18 41  1  0  0  0  0
 18 42  1  0  0  0  0
 19 20  1  0  0  0  0
 20 21  1  0  0  0  0
 20 43  1  0  0  0  0
 20 44  1  0  0  0  0
 21 45  1  0  0  0  0
 21 46  1  0  0  0  0
M  END
> <s_m_source_file>
AV-unprocessed.smi

> <i_m_source_file_index>
1285

> <i_lp_mmshare_version>
43012

> <i_f3d_flags>
0

> <s_epik_input>
W0NIMl0xW0NIMl1PW0NIMl1bQ0gyXU4xW0NAQF0oW0NIM10pKFtDSDJdW0NIM10pW0NIMl1bTkhdQyg9TylbQ0BIXShbQ0gzXSluMltjSF1uW2NIXW4y

> <s_epik_cmdline>
J2VwaWtfcHl0aG9uJywgJy1waCcsICc3LjAnLCAnLXRuJywgJzgnLCAnLW1hJywgJzIwMCcsICctbWV0YWxfYmluZGluZycsICctaW1hZScsICc8aW5maWxlLm1hZT4nLCAnLW9tYWUnLCAnPG91dGZpbGUubWFlPic=

> <r_lp_tautomer_probability>
1

> <r_epik_Ionization_Penalty>
0.285697

> <r_epik_Ionization_Penalty_Charging>
0

> <r_epik_Ionization_Penalty_Neutral>
0.285697

> <r_epik_State_Penalty>
0.278478

> <r_epik_Charging_Adjusted_Penalty>
0.278478

> <i_epik_Tot_Q>
0

> <i_epik_Tot_abs_Q>
0

> <r_epik_Metal_State_Penalty>
0.278477

> <b_epik_Metal_Only>
0

> <s_lp_Force_Field>
OPLS_2005

> <r_lp_Energy>
48.702

> <b_lp_Chiralities_Consistent>
1

> <s_lp_Variant>
AV-unprocessed.smi:1285-3

> <Gold.Version>
5.8.1

> <Gold.Id.Protein>
6NUR|6NUR_protein|mol2

> <Gold.PLP.Fitness>
47.7857

> <Gold.PLP.PLP>
-43.4639

> <Gold.PLP.part.hbond>
-2.0000

> <Gold.PLP.part.metal>
0.0000

> <Gold.PLP.part.buried>
-6.3604

> <Gold.PLP.part.nonpolar>
-34.8474

> <Gold.PLP.part.repulsive>
0.4299

> <Gold.PLP.ligand.clash>
0.0000

> <Gold.PLP.ligand.torsion>
0.9622

> <Gold.PLP.Chemscore.Hbond>
1.0000

> <Gold.PLP.Chemscore.CHOScore>
1.0000

> <Gold.PLP.Chemscore.Metal>
0.0000

> <Gold.Chemscore.Hbonds>
donor molecule, donor type, donor heavy atom, donor atom, acceptor molecule, acceptor atom, score
      P1  H  7989  7998       L1    15  1.00
      L1  C    14    38       P1  7957  1.00

> <Gold.PLP.Chemscore.Internal.Correction>
0.2462

> <Gold.Rescore>
     Score         DG    S(hbond)    S(metal)    S(lipo)     H(rot)  DE(clash)    DE(int)     intcor
     11.65     -15.14       0.96        0.00     113.91       2.68       1.60       1.89       ----

> <Gold.Chemscore.Fitness>
11.6522

> <Gold.Chemscore.DG>
-15.1389

> <Gold.Chemscore.ZeroCoef>
-5.4800

> <Gold.Chemscore.Hbond>
0.9574

> <Gold.Chemscore.Metal>
0.0000

> <Gold.Chemscore.Lipo>
113.9104

> <Gold.Chemscore.Internal_Hbond>
0.0000

> <Gold.Chemscore.DEClash>
1.6000

> <Gold.Chemscore.DEInternal>
1.8867

> <Gold.Chemscore.Rot>
2.6821

> <Gold.Chemscore.Internal.Correction>
   9.000000E+99

> <Gold.Chemscore.Hbonds>
donor molecule, donor type, donor heavy atom, donor atom, acceptor molecule, acceptor atom, score
      P1  H  7989  7998       L1    15  0.25

> <Gold.Chemscore.Hbond.Weighted>
-3.1976

> <Gold.Chemscore.Metal.Weighted>
-0.0000

> <Gold.Chemscore.Lipo.Weighted>
-13.3275

> <Gold.Chemscore.Internal_Hbond.Weighted>
0.0000

> <Gold.Chemscore.DEClash.Weighted>
1.6000

> <Gold.Chemscore.DEInternal.Weighted>
1.8867

> <Gold.Chemscore.Rot.Weighted>
6.8661

> <Gold.Chemscore.Internal.Correction.Weighted>
   9.000000E+99

> <Gold.Protein.RotatedTorsions>
[ 6907 6896 6895 6894 ] final -176.93 input  -60.11 | X-H torsion
[ 7974 7965 7964 7962 ] final  -51.83 input  175.53 | X-H torsion
[ 8008 7997 7996 7995 ] final -172.36 input   59.86 | X-H torsion
[ 10167 10162 10161 10158 ] final   28.06 input  -65.29 | X-H torsion
[ 10718 10713 10712 10709 ] final  -80.69 input   66.30 | X-H torsion
[ 10763 10752 10751 10750 ] final  -89.77 input  -60.55 | X-H torsion
[ 11005 11000 10999 10996 ] final   34.99 input  -57.11 | X-H torsion

> <Gold.Protein.ActiveResidues>
 VAL166  LYS551  ARG553  GLY616  TRP617  ASP618  TYR619  PRO620  LYS621  CYS622 
 ASP623  PHE694  ASN695  SER759  ASP760  ASP761  ALA762  ILE779  LEU786  VAL792 
 PHE793  MET794  SER795  GLU796  ALA797  LYS798  CYS799  TRP800  GLU811  SER814 

> <Gold.Protein.RotatedAtoms>
  151.6127  133.3346  159.3070 H   0  0  0  0  0  0  0  0  0  0  0  0  # atno 6907 bound_to 6896
  150.8147  134.7326  159.6731 H   0  0  0  0  0  0  0  0  0  0  0  0  # atno 6908 bound_to 6896
  152.4244  134.5901  160.0023 H   0  0  0  0  0  0  0  0  0  0  0  0  # atno 6909 bound_to 6896
  145.9147  140.7885  142.9677 H   0  0  0  0  0  0  0  0  0  0  0  0  # atno 7974 bound_to 7965
  155.9435  140.1113  157.1036 H   0  0  0  0  0  0  0  0  0  0  0  0  # atno 8008 bound_to 7997
  154.4094  140.1214  156.5025 H   0  0  0  0  0  0  0  0  0  0  0  0  # atno 8009 bound_to 7997
  155.6932  140.3472  155.4904 H   0  0  0  0  0  0  0  0  0  0  0  0  # atno 8010 bound_to 7997
  140.4885  144.0504  150.6289 H   0  0  0  0  0  0  0  0  0  0  0  0  # atno 10167 bound_to 10162
  156.0065  130.4581  150.3838 H   0  0  0  0  0  0  0  0  0  0  0  0  # atno 10718 bound_to 10713
  154.6587  135.5329  153.7991 H   0  0  0  0  0  0  0  0  0  0  0  0  # atno 10763 bound_to 10752
  153.0429  135.6500  154.0905 H   0  0  0  0  0  0  0  0  0  0  0  0  # atno 10764 bound_to 10752
  154.0815  135.2946  155.3269 H   0  0  0  0  0  0  0  0  0  0  0  0  # atno 10765 bound_to 10752
  140.2472  134.3345  155.7903 H   0  0  0  0  0  0  0  0  0  0  0  0  # atno 11005 bound_to 11000
  144.6746  140.1881  143.7399 LP  0  0  0  0  0  0  0  0  0  0  0  0  # atno 17320 bound_to 7965
  145.8627  139.2231  143.1707 LP  0  0  0  0  0  0  0  0  0  0  0  0  # atno 17321 bound_to 7965
  140.3766  143.2825  152.0218 LP  0  0  0  0  0  0  0  0  0  0  0  0  # atno 17342 bound_to 10162
  139.4846  144.6188  151.7295 LP  0  0  0  0  0  0  0  0  0  0  0  0  # atno 17343 bound_to 10162
  157.1916  131.0417  151.2697 LP  0  0  0  0  0  0  0  0  0  0  0  0  # atno 17370 bound_to 10713
  157.4056  130.7357  149.6800 LP  0  0  0  0  0  0  0  0  0  0  0  0  # atno 17371 bound_to 10713
  141.2205  133.7333  156.8980 LP  0  0  0  0  0  0  0  0  0  0  0  0  # atno 17394 bound_to 11000
  140.1594  134.9176  157.2695 LP  0  0  0  0  0  0  0  0  0  0  0  0  # atno 17395 bound_to 11000

$$$$
