AV-unprocessed.smi:1072|AV-procd|sdf|4683|dock7
  -GOLD-   22720 3203D 1   1.00000     0.00000
 Structure written by MMmdl.
 46 47  0  0  0  0  0  0  0  0  1 V2000
  151.1571  142.8695  157.2302 C   0  0  0  0  0  0  0  0  0  0  0  0
  150.9323  141.6344  156.3839 C   0  0  0  0  0  0  0  0  0  0  0  0
  149.8756  141.4351  155.6670 N   0  0  0  0  0  0  0  0  0  0  0  0
  149.7810  140.2519  154.9213 C   0  0  0  0  0  0  0  0  0  0  0  0
  148.5128  140.0941  154.0999 C   0  0  0  0  0  0  0  0  0  0  0  0
  150.7724  139.3132  154.9389 C   0  0  0  0  0  0  0  0  0  0  0  0
  150.6985  138.0172  154.1328 C   0  0  0  0  0  0  0  0  0  0  0  0
  150.6655  136.7255  154.9531 C   0  0  0  0  0  0  0  0  0  0  0  0
  151.6846  136.3253  155.5154 O   0  0  0  0  0  0  0  0  0  0  0  0
  149.4829  136.0871  154.9953 N   0  0  0  0  0  0  0  0  0  0  0  0
  149.1473  134.8188  155.6590 C   0  0  1  0  0  0  0  0  0  0  0  0
  149.6763  134.8359  157.1095 C   0  0  0  0  0  0  0  0  0  0  0  0
  147.6194  134.5471  155.6445 C   0  0  0  0  0  0  0  0  0  0  0  0
  147.0578  134.3700  154.2225 C   0  0  0  0  0  0  0  0  0  0  0  0
  147.7803  133.2386  153.4694 C   0  0  1  0  0  0  0  0  0  0  0  0
  147.2265  133.0674  152.0481 C   0  0  0  0  0  0  0  0  0  0  0  0
  149.2993  133.4882  153.4583 C   0  0  0  0  0  0  0  0  0  0  0  0
  149.8544  133.6815  154.8827 C   0  0  0  0  0  0  0  0  0  0  0  0
  151.9745  139.5512  155.7612 C   0  0  0  0  0  0  0  0  0  0  0  0
  152.9272  138.7777  155.8451 O   0  0  0  0  0  0  0  0  0  0  0  0
  151.9798  140.7167  156.4460 N   0  0  0  0  0  0  0  0  0  0  0  0
  152.7816  140.9264  157.0225 H   0  0  0  0  0  0  0  0  0  0  0  0
  151.1646  143.7588  156.5997 H   0  0  0  0  0  0  0  0  0  0  0  0
  152.1050  142.8234  157.7676 H   0  0  0  0  0  0  0  0  0  0  0  0
  150.3555  142.9744  157.9614 H   0  0  0  0  0  0  0  0  0  0  0  0
  147.9385  139.2344  154.4448 H   0  0  0  0  0  0  0  0  0  0  0  0
  148.7505  139.9538  153.0454 H   0  0  0  0  0  0  0  0  0  0  0  0
  147.8762  140.9759  154.1814 H   0  0  0  0  0  0  0  0  0  0  0  0
  149.8299  138.0216  153.4736 H   0  0  0  0  0  0  0  0  0  0  0  0
  151.5567  137.9850  153.4605 H   0  0  0  0  0  0  0  0  0  0  0  0
  148.7226  136.5236  154.4948 H   0  0  0  0  0  0  0  0  0  0  0  0
  149.5211  133.8729  157.5966 H   0  0  0  0  0  0  0  0  0  0  0  0
  149.1738  135.5855  157.7208 H   0  0  0  0  0  0  0  0  0  0  0  0
  150.7456  135.0489  157.1397 H   0  0  0  0  0  0  0  0  0  0  0  0
  147.4130  133.6392  156.2130 H   0  0  0  0  0  0  0  0  0  0  0  0
  147.0731  135.3383  156.1573 H   0  0  0  0  0  0  0  0  0  0  0  0
  145.9902  134.1547  154.2792 H   0  0  0  0  0  0  0  0  0  0  0  0
  147.1508  135.3050  153.6686 H   0  0  0  0  0  0  0  0  0  0  0  0
  147.5977  132.3072  154.0074 H   0  0  0  0  0  0  0  0  0  0  0  0
  147.3698  133.9714  151.4555 H   0  0  0  0  0  0  0  0  0  0  0  0
  146.1587  132.8476  152.0674 H   0  0  0  0  0  0  0  0  0  0  0  0
  147.7224  132.2466  151.5293 H   0  0  0  0  0  0  0  0  0  0  0  0
  149.8087  132.6495  152.9825 H   0  0  0  0  0  0  0  0  0  0  0  0
  149.5250  134.3647  152.8495 H   0  0  0  0  0  0  0  0  0  0  0  0
  150.9277  133.8704  154.8325 H   0  0  0  0  0  0  0  0  0  0  0  0
  149.7414  132.7438  155.4290 H   0  0  0  0  0  0  0  0  0  0  0  0
  1  2  1  0  0  0  0
  1 23  1  0  0  0  0
  1 24  1  0  0  0  0
  1 25  1  0  0  0  0
  2 21  1  0  0  0  0
  2  3  2  0  0  0  0
  3  4  1  0  0  0  0
  4  5  1  0  0  0  0
  4  6  2  0  0  0  0
  5 26  1  0  0  0  0
  5 27  1  0  0  0  0
  5 28  1  0  0  0  0
  6  7  1  0  0  0  0
  6 19  1  0  0  0  0
  7  8  1  0  0  0  0
  7 29  1  0  0  0  0
  7 30  1  0  0  0  0
  8  9  2  0  0  0  0
  8 10  1  0  0  0  0
 10 11  1  0  0  0  0
 10 31  1  0  0  0  0
 11 18  1  0  0  0  0
 11 12  1  0  0  0  0
 11 13  1  0  0  0  0
 12 32  1  0  0  0  0
 12 33  1  0  0  0  0
 12 34  1  0  0  0  0
 13 14  1  0  0  0  0
 13 35  1  0  0  0  0
 13 36  1  0  0  0  0
 14 15  1  0  0  0  0
 14 37  1  0  0  0  0
 14 38  1  0  0  0  0
 15 16  1  0  0  0  0
 15 17  1  0  0  0  0
 15 39  1  0  0  0  0
 16 40  1  0  0  0  0
 16 41  1  0  0  0  0
 16 42  1  0  0  0  0
 17 18  1  0  0  0  0
 17 43  1  0  0  0  0
 17 44  1  0  0  0  0
 18 45  1  0  0  0  0
 18 46  1  0  0  0  0
 19 20  2  0  0  0  0
 19 21  1  0  0  0  0
 21 22  1  0  0  0  0
M  END
> <s_m_source_file>
AV-unprocessed.smi

> <i_m_source_file_index>
1072

> <i_lp_mmshare_version>
43012

> <i_f3d_flags>
0

> <s_epik_input>
W0NIM11jMW5jKFtDSDNdKWMoYyg9TylbbkhdMSlbQ0gyXUMoPU8pW05IXVtDQEBdMihbQ0gzXSlbQ0gyXVtDSDJdW0NAQEhdKFtDSDNdKVtDSDJdW0NIMl0y

> <s_epik_cmdline>
J2VwaWtfcHl0aG9uJywgJy1waCcsICc3LjAnLCAnLXRuJywgJzgnLCAnLW1hJywgJzIwMCcsICctbWV0YWxfYmluZGluZycsICctaW1hZScsICc8aW5maWxlLm1hZT4nLCAnLW9tYWUnLCAnPG91dGZpbGUubWFlPic=

> <r_lp_tautomer_probability>
0.839158

> <r_epik_Ionization_Penalty>
0.000352328

> <r_epik_Ionization_Penalty_Charging>
0.000314696

> <r_epik_Ionization_Penalty_Neutral>
3.76315e-05

> <r_epik_State_Penalty>
0.09125

> <r_epik_Charging_Adjusted_Penalty>
0.0915647

> <i_epik_Tot_Q>
0

> <i_epik_Tot_abs_Q>
0

> <r_epik_Metal_State_Penalty>
0.245598

> <b_epik_Metal_Only>
0

> <s_lp_Force_Field>
OPLS_2005

> <r_lp_Energy>
11.0611

> <b_lp_Chiralities_Consistent>
1

> <s_lp_Variant>
AV-unprocessed.smi:1072-1

> <Gold.Version>
5.8.1

> <Gold.Id.Protein>
6NUR|6NUR_protein|mol2

> <Gold.PLP.Fitness>
38.9570

> <Gold.PLP.PLP>
-33.5619

> <Gold.PLP.part.hbond>
-2.5926

> <Gold.PLP.part.metal>
0.0000

> <Gold.PLP.part.buried>
-1.2367

> <Gold.PLP.part.nonpolar>
-30.7507

> <Gold.PLP.part.repulsive>
0.3508

> <Gold.PLP.ligand.clash>
0.0000

> <Gold.PLP.ligand.torsion>
0.3048

> <Gold.PLP.Chemscore.Hbond>
2.0000

> <Gold.PLP.Chemscore.CHOScore>
0.0000

> <Gold.PLP.Chemscore.Metal>
0.0000

> <Gold.Chemscore.Hbonds>
donor molecule, donor type, donor heavy atom, donor atom, acceptor molecule, acceptor atom, score
      P1  H  7997  8009       L1    20  0.90
      P1  H 10752 10764       L1     9  1.00

> <Gold.PLP.Chemscore.Internal.Correction>
0.0048

> <Gold.Rescore>
     Score         DG    S(hbond)    S(metal)    S(lipo)     H(rot)  DE(clash)    DE(int)     intcor
     13.10     -16.23       1.82        0.00      72.23       1.47       0.21       2.92       ----

> <Gold.Chemscore.Fitness>
13.1001

> <Gold.Chemscore.DG>
-16.2332

> <Gold.Chemscore.ZeroCoef>
-5.4800

> <Gold.Chemscore.Hbond>
1.8154

> <Gold.Chemscore.Metal>
0.0000

> <Gold.Chemscore.Lipo>
72.2267

> <Gold.Chemscore.Internal_Hbond>
0.0000

> <Gold.Chemscore.DEClash>
0.2117

> <Gold.Chemscore.DEInternal>
2.9214

> <Gold.Chemscore.Rot>
1.4690

> <Gold.Chemscore.Internal.Correction>
   9.000000E+99

> <Gold.Chemscore.Hbonds>
donor molecule, donor type, donor heavy atom, donor atom, acceptor molecule, acceptor atom, score
      P1  H  7997  8009       L1    20  0.17
      P1  H 10752 10764       L1     9  1.00

> <Gold.Chemscore.Hbond.Weighted>
-6.0633

> <Gold.Chemscore.Metal.Weighted>
-0.0000

> <Gold.Chemscore.Lipo.Weighted>
-8.4505

> <Gold.Chemscore.Internal_Hbond.Weighted>
0.0000

> <Gold.Chemscore.DEClash.Weighted>
0.2117

> <Gold.Chemscore.DEInternal.Weighted>
2.9214

> <Gold.Chemscore.Rot.Weighted>
3.7607

> <Gold.Chemscore.Internal.Correction.Weighted>
   9.000000E+99

> <Gold.Protein.RotatedTorsions>
[ 6907 6896 6895 6894 ] final  105.44 input  -60.11 | X-H torsion
[ 7974 7965 7964 7962 ] final  111.86 input  175.53 | X-H torsion
[ 8008 7997 7996 7995 ] final -157.73 input   59.86 | X-H torsion
[ 10167 10162 10161 10158 ] final  -48.40 input  -65.29 | X-H torsion
[ 10718 10713 10712 10709 ] final  160.29 input   66.30 | X-H torsion
[ 10763 10752 10751 10750 ] final  -41.58 input  -60.55 | X-H torsion
[ 11005 11000 10999 10996 ] final -142.63 input  -57.11 | X-H torsion

> <Gold.Protein.ActiveResidues>
 VAL166  LYS551  ARG553  GLY616  TRP617  ASP618  TYR619  PRO620  LYS621  CYS622 
 ASP623  PHE694  ASN695  SER759  ASP760  ASP761  ALA762  ILE779  LEU786  VAL792 
 PHE793  MET794  SER795  GLU796  ALA797  LYS798  CYS799  TRP800  GLU811  SER814 

> <Gold.Protein.RotatedAtoms>
  152.5230  133.9528  159.7679 H   0  0  0  0  0  0  0  0  0  0  0  0  # atno 6907 bound_to 6896
  150.9834  133.6214  159.2726 H   0  0  0  0  0  0  0  0  0  0  0  0  # atno 6908 bound_to 6896
  151.3383  135.0863  159.9415 H   0  0  0  0  0  0  0  0  0  0  0  0  # atno 6909 bound_to 6896
  145.2369  139.2795  143.4138 H   0  0  0  0  0  0  0  0  0  0  0  0  # atno 7974 bound_to 7965
  155.7369  140.0809  157.2263 H   0  0  0  0  0  0  0  0  0  0  0  0  # atno 8008 bound_to 7997
  154.4026  140.1585  156.2627 H   0  0  0  0  0  0  0  0  0  0  0  0  # atno 8009 bound_to 7997
  155.9056  140.3407  155.6062 H   0  0  0  0  0  0  0  0  0  0  0  0  # atno 8010 bound_to 7997
  140.6732  143.2742  151.4065 H   0  0  0  0  0  0  0  0  0  0  0  0  # atno 10167 bound_to 10162
  157.1525  131.0567  151.2273 H   0  0  0  0  0  0  0  0  0  0  0  0  # atno 10718 bound_to 10713
  153.9649  135.6735  153.4746 H   0  0  0  0  0  0  0  0  0  0  0  0  # atno 10763 bound_to 10752
  153.0820  135.4918  154.8519 H   0  0  0  0  0  0  0  0  0  0  0  0  # atno 10764 bound_to 10752
  154.7252  135.3126  154.8943 H   0  0  0  0  0  0  0  0  0  0  0  0  # atno 10765 bound_to 10752
  140.8206  134.2635  157.4902 H   0  0  0  0  0  0  0  0  0  0  0  0  # atno 11005 bound_to 11000
  146.3339  140.2720  142.8606 LP  0  0  0  0  0  0  0  0  0  0  0  0  # atno 17320 bound_to 7965
  144.9625  140.8289  143.5505 LP  0  0  0  0  0  0  0  0  0  0  0  0  # atno 17321 bound_to 7965
  139.6011  144.1293  152.2199 LP  0  0  0  0  0  0  0  0  0  0  0  0  # atno 17342 bound_to 10162
  140.0678  144.5804  150.7214 LP  0  0  0  0  0  0  0  0  0  0  0  0  # atno 17343 bound_to 10162
  157.4208  130.7436  149.6911 LP  0  0  0  0  0  0  0  0  0  0  0  0  # atno 17370 bound_to 10713
  155.9768  130.4071  150.3755 LP  0  0  0  0  0  0  0  0  0  0  0  0  # atno 17371 bound_to 10713
  139.8709  134.9533  156.4142 LP  0  0  0  0  0  0  0  0  0  0  0  0  # atno 17394 bound_to 11000
  140.9103  133.7717  155.9783 LP  0  0  0  0  0  0  0  0  0  0  0  0  # atno 17395 bound_to 11000

$$$$
