AV-unprocessed.smi:114|AV-procd|sdf|1113|dock4
  -GOLD-   2262018233D 1   1.00000     0.00000
 Structure written by MMmdl.
 32 34  0  0  0  0  0  0  0  0  1 V2000
  144.2313  136.5437  151.1205 N   0  0  0  0  0  0  0  0  0  0  0  0
  144.9431  136.4988  152.2554 C   0  0  0  0  0  0  0  0  0  0  0  0
  144.6973  135.4967  153.1309 N   0  0  0  0  0  0  0  0  0  0  0  0
  145.3838  135.4178  154.2773 C   0  0  0  0  0  0  0  0  0  0  0  0
  145.0714  134.3849  155.0946 F   0  0  0  0  0  0  0  0  0  0  0  0
  146.3420  136.2459  154.7064 N   0  0  0  0  0  0  0  0  0  0  0  0
  146.5949  137.2584  153.8272 C   0  0  0  0  0  0  0  0  0  0  0  0
  145.9378  137.4525  152.5823 C   0  0  0  0  0  0  0  0  0  0  0  0
  146.4423  138.5801  151.9497 N   0  0  0  0  0  0  0  0  0  0  0  0
  147.3457  139.0267  152.7801 C   0  0  0  0  0  0  0  0  0  0  0  0
  147.5005  138.2967  153.9384 N   0  0  0  0  0  0  0  0  0  0  0  0
  148.4499  138.5804  155.0647 C   0  0  2  0  0  0  0  0  0  0  0  0
  148.3765  139.9331  155.4088 O   0  0  0  0  0  0  0  0  0  0  0  0
  149.6471  140.5642  155.2473 C   0  0  1  0  0  0  0  0  0  0  0  0
  149.8118  141.6765  156.2945 C   0  0  0  0  0  0  0  0  0  0  0  0
  148.5714  142.3061  156.5338 O   0  0  0  0  0  0  0  0  0  0  0  0
  150.6306  139.4061  155.4268 C   0  0  2  0  0  0  0  0  0  0  0  0
  151.9140  139.6754  154.8940 O   0  0  0  0  0  0  0  0  0  0  0  0
  149.9180  138.2591  154.7240 C   0  0  2  0  0  0  0  0  0  0  0  0
  150.1859  138.2148  153.3308 O   0  0  0  0  0  0  0  0  0  0  0  0
  148.0725  137.9877  155.8989 H   0  0  0  0  0  0  0  0  0  0  0  0
  149.7361  140.9615  154.2349 H   0  0  0  0  0  0  0  0  0  0  0  0
  150.7290  139.1683  156.4872 H   0  0  0  0  0  0  0  0  0  0  0  0
  150.1884  137.2937  155.1527 H   0  0  0  0  0  0  0  0  0  0  0  0
  144.3956  137.2836  150.4532 H   0  0  0  0  0  0  0  0  0  0  0  0
  143.5319  135.8391  150.9361 H   0  0  0  0  0  0  0  0  0  0  0  0
  147.9265  139.9132  152.5709 H   0  0  0  0  0  0  0  0  0  0  0  0
  150.2274  141.2887  157.2251 H   0  0  0  0  0  0  0  0  0  0  0  0
  150.4983  142.4394  155.9263 H   0  0  0  0  0  0  0  0  0  0  0  0
  148.6694  143.2331  156.3797 H   0  0  0  0  0  0  0  0  0  0  0  0
  152.4468  140.0600  155.5729 H   0  0  0  0  0  0  0  0  0  0  0  0
  149.7146  137.4856  152.9579 H   0  0  0  0  0  0  0  0  0  0  0  0
  1  2  1  0  0  0  0
  1 25  1  0  0  0  0
  1 26  1  0  0  0  0
  2  8  1  0  0  0  0
  2  3  2  0  0  0  0
  3  4  1  0  0  0  0
  4  5  1  0  0  0  0
  4  6  2  0  0  0  0
  6  7  1  0  0  0  0
  7 11  1  0  0  0  0
  7  8  2  0  0  0  0
  8  9  1  0  0  0  0
  9 10  2  0  0  0  0
 10 11  1  0  0  0  0
 10 27  1  0  0  0  0
 11 12  1  0  0  0  0
 12 21  1  0  0  0  0
 12 19  1  0  0  0  0
 12 13  1  0  0  0  0
 13 14  1  0  0  0  0
 14 22  1  0  0  0  0
 14 15  1  0  0  0  0
 14 17  1  0  0  0  0
 15 16  1  0  0  0  0
 15 28  1  0  0  0  0
 15 29  1  0  0  0  0
 16 30  1  0  0  0  0
 17 23  1  0  0  0  0
 17 18  1  0  0  0  0
 17 19  1  0  0  0  0
 18 31  1  0  0  0  0
 19 24  1  0  0  0  0
 19 20  1  0  0  0  0
 20 32  1  0  0  0  0
M  END
> <s_m_source_file>
AV-unprocessed.smi

> <i_m_source_file_index>
114

> <i_lp_mmshare_version>
43012

> <i_f3d_flags>
0

> <s_epik_input>
RmMobjEpbmMoW05IMl0pYyhjMTIpbltjSF1uMltDQEBIXTNPW0NASF0oW0NIMl1bT0hdKVtDQEBIXShbT0hdKVtDQEBIXTNbT0hd

> <s_epik_cmdline>
J2VwaWtfcHl0aG9uJywgJy1waCcsICc3LjAnLCAnLXRuJywgJzgnLCAnLW1hJywgJzIwMCcsICctbWV0YWxfYmluZGluZycsICctaW1hZScsICc8aW5maWxlLm1hZT4nLCAnLW9tYWUnLCAnPG91dGZpbGUubWFlPic=

> <r_lp_tautomer_probability>
1

> <r_epik_Ionization_Penalty>
1.13199e-05

> <r_epik_Ionization_Penalty_Charging>
0

> <r_epik_Ionization_Penalty_Neutral>
1.13199e-05

> <r_epik_State_Penalty>
-0

> <r_epik_Charging_Adjusted_Penalty>
0

> <i_epik_Tot_Q>
0

> <i_epik_Tot_abs_Q>
0

> <r_epik_Metal_State_Penalty>
-0

> <b_epik_Metal_Only>
0

> <s_epik_Chemistry_Notes>
This compound contains an acetal/aminal-like group ( X-CH(R)-Y where X, Y are N, S, or O) that may be acid/base labile, releasing an aldehyde.

> <s_lp_Force_Field>
OPLS_2005

> <r_lp_Energy>
45.5286

> <b_lp_Chiralities_Consistent>
1

> <s_lp_Variant>
AV-unprocessed.smi:114-7

> <Gold.Version>
5.8.1

> <Gold.Id.Protein>
6NUR|6NUR_protein|mol2

> <Gold.PLP.Fitness>
34.7506

> <Gold.PLP.PLP>
-21.3559

> <Gold.PLP.part.hbond>
-5.9283

> <Gold.PLP.part.metal>
0.0000

> <Gold.PLP.part.buried>
-1.0004

> <Gold.PLP.part.nonpolar>
-14.8726

> <Gold.PLP.part.repulsive>
0.5386

> <Gold.PLP.ligand.clash>
0.0000

> <Gold.PLP.ligand.torsion>
0.6288

> <Gold.PLP.Chemscore.Hbond>
3.9920

> <Gold.PLP.Chemscore.CHOScore>
0.8894

> <Gold.PLP.Chemscore.Metal>
0.0000

> <Gold.Chemscore.Hbonds>
donor molecule, donor type, donor heavy atom, donor atom, acceptor molecule, acceptor atom, score
      L1  H     1    25       P1 10171  0.94
      L1  H    16    30       P1  8028  1.00
      L1  H    20    32       P1  7948  1.00
      P1  H  7989  7998       L1    18  0.96
      L1  C    10    27       P1  7957  0.91

> <Gold.PLP.Chemscore.Internal.Correction>
0.0080

> <Gold.Rescore>
     Score         DG    S(hbond)    S(metal)    S(lipo)     H(rot)  DE(clash)    DE(int)     intcor
      9.96     -10.59       3.70        0.00      26.26       4.03       0.00       0.63       ----

> <Gold.Chemscore.Fitness>
9.9618

> <Gold.Chemscore.DG>
-10.5931

> <Gold.Chemscore.ZeroCoef>
-5.4800

> <Gold.Chemscore.Hbond>
3.6980

> <Gold.Chemscore.Metal>
0.0000

> <Gold.Chemscore.Lipo>
26.2638

> <Gold.Chemscore.Internal_Hbond>
0.0000

> <Gold.Chemscore.DEClash>
0.0000

> <Gold.Chemscore.DEInternal>
0.6313

> <Gold.Chemscore.Rot>
4.0277

> <Gold.Chemscore.Internal.Correction>
   9.000000E+99

> <Gold.Chemscore.Hbonds>
donor molecule, donor type, donor heavy atom, donor atom, acceptor molecule, acceptor atom, score
      L1  H     1    25       P1 10171  0.85
      L1  H    16    30       P1  8028  0.90
      L1  H    20    32       P1  7948  0.55
      P1  H  7989  7998       L1    18  0.44

> <Gold.Chemscore.Hbond.Weighted>
-12.3512

> <Gold.Chemscore.Metal.Weighted>
-0.0000

> <Gold.Chemscore.Lipo.Weighted>
-3.0729

> <Gold.Chemscore.Internal_Hbond.Weighted>
0.0000

> <Gold.Chemscore.DEClash.Weighted>
0.0000

> <Gold.Chemscore.DEInternal.Weighted>
0.6313

> <Gold.Chemscore.Rot.Weighted>
10.3110

> <Gold.Chemscore.Internal.Correction.Weighted>
   9.000000E+99

> <Gold.Protein.RotatedTorsions>
[ 6907 6896 6895 6894 ] final -170.64 input  -60.11 | X-H torsion
[ 7974 7965 7964 7962 ] final -159.95 input  175.53 | X-H torsion
[ 8008 7997 7996 7995 ] final  167.31 input   59.86 | X-H torsion
[ 10167 10162 10161 10158 ] final  147.71 input  -65.29 | X-H torsion
[ 10718 10713 10712 10709 ] final  109.91 input   66.30 | X-H torsion
[ 10763 10752 10751 10750 ] final -137.97 input  -60.55 | X-H torsion
[ 11005 11000 10999 10996 ] final  -66.09 input  -57.11 | X-H torsion

> <Gold.Protein.ActiveResidues>
 VAL166  LYS551  ARG553  GLY616  TRP617  ASP618  TYR619  PRO620  LYS621  CYS622 
 ASP623  PHE694  ASN695  SER759  ASP760  ASP761  ALA762  ILE779  LEU786  VAL792 
 PHE793  MET794  SER795  GLU796  ALA797  LYS798  CYS799  TRP800  GLU811  SER814 

> <Gold.Protein.RotatedAtoms>
  151.5109  133.3485  159.2884 H   0  0  0  0  0  0  0  0  0  0  0  0  # atno 6907 bound_to 6896
  150.8713  134.8089  159.7167 H   0  0  0  0  0  0  0  0  0  0  0  0  # atno 6908 bound_to 6896
  152.4700  134.4994  159.9771 H   0  0  0  0  0  0  0  0  0  0  0  0  # atno 6909 bound_to 6896
  144.7445  140.3612  143.6095 H   0  0  0  0  0  0  0  0  0  0  0  0  # atno 7974 bound_to 7965
  156.1644  140.1620  156.8556 H   0  0  0  0  0  0  0  0  0  0  0  0  # atno 8008 bound_to 7997
  154.5193  140.0782  156.8176 H   0  0  0  0  0  0  0  0  0  0  0  0  # atno 8009 bound_to 7997
  155.3641  140.3397  155.4244 H   0  0  0  0  0  0  0  0  0  0  0  0  # atno 8010 bound_to 7997
  139.4886  144.5735  151.7010 H   0  0  0  0  0  0  0  0  0  0  0  0  # atno 10167 bound_to 10162
  157.6519  131.0923  150.6524 H   0  0  0  0  0  0  0  0  0  0  0  0  # atno 10718 bound_to 10713
  154.8649  135.3626  154.5309 H   0  0  0  0  0  0  0  0  0  0  0  0  # atno 10763 bound_to 10752
  153.5934  135.7015  153.5418 H   0  0  0  0  0  0  0  0  0  0  0  0  # atno 10764 bound_to 10752
  153.3353  135.4113  155.1490 H   0  0  0  0  0  0  0  0  0  0  0  0  # atno 10765 bound_to 10752
  141.1472  133.6693  156.6085 H   0  0  0  0  0  0  0  0  0  0  0  0  # atno 11005 bound_to 11000
  145.7175  139.1701  143.2503 LP  0  0  0  0  0  0  0  0  0  0  0  0  # atno 17320 bound_to 7965
  146.1302  140.7196  142.9416 LP  0  0  0  0  0  0  0  0  0  0  0  0  # atno 17321 bound_to 7965
  140.5327  144.0705  150.6059 LP  0  0  0  0  0  0  0  0  0  0  0  0  # atno 17342 bound_to 10162
  140.3701  143.2859  152.0288 LP  0  0  0  0  0  0  0  0  0  0  0  0  # atno 17343 bound_to 10162
  156.6834  130.4574  149.5621 LP  0  0  0  0  0  0  0  0  0  0  0  0  # atno 17370 bound_to 10713
  156.1913  130.6561  151.1064 LP  0  0  0  0  0  0  0  0  0  0  0  0  # atno 17371 bound_to 10713
  140.3632  134.7669  157.4548 LP  0  0  0  0  0  0  0  0  0  0  0  0  # atno 17394 bound_to 11000
  140.0768  134.5786  155.8582 LP  0  0  0  0  0  0  0  0  0  0  0  0  # atno 17395 bound_to 11000

$$$$
