AV-unprocessed.smi:2190|AV-procd|sdf|8888|dock2
  -GOLD-   2272012 93D 1   1.00000     0.00000
 Structure written by MMmdl.
 46 48  0  0  0  0  0  0  0  0  1 V2000
  150.5401  144.1023  158.8279 C   0  0  0  0  0  0  0  0  0  0  0  0
  151.4443  142.9566  159.2337 C   0  0  0  0  0  0  0  0  0  0  0  0
  152.0838  142.9650  160.4881 C   0  0  0  0  0  0  0  0  0  0  0  0
  152.9202  141.8962  160.8570 C   0  0  0  0  0  0  0  0  0  0  0  0
  153.1219  140.8135  159.9760 C   0  0  0  0  0  0  0  0  0  0  0  0
  154.0264  139.6683  160.3911 C   0  0  0  0  0  0  0  0  0  0  0  0
  152.4852  140.7916  158.7133 C   0  0  0  0  0  0  0  0  0  0  0  0
  152.7233  139.7022  157.9003 O   0  0  0  0  0  0  0  0  0  0  0  0
  152.0008  139.5929  156.6811 C   0  0  0  0  0  0  0  0  0  0  0  0
  152.5283  138.3814  155.8959 C   0  0  2  0  0  0  0  0  0  0  0  0
  153.9003  138.5859  155.6203 O   0  0  0  0  0  0  0  0  0  0  0  0
  151.7685  138.1860  154.5674 C   0  0  0  0  0  0  0  0  0  0  0  0
  150.3548  137.8874  154.7585 N   0  0  0  0  0  0  0  0  0  0  0  0
  149.3252  138.7635  154.8765 C   0  0  0  0  0  0  0  0  0  0  0  0
  149.5504  140.2481  154.8123 C   0  0  0  0  0  0  0  0  0  0  0  0
  148.8912  140.8842  153.7358 O   0  0  0  0  0  0  0  0  0  0  0  0
  148.1184  138.2159  155.0402 N   0  0  0  0  0  0  0  0  0  0  0  0
  148.3909  136.8625  155.0265 C   0  0  0  0  0  0  0  0  0  0  0  0
  147.5275  135.7509  155.1535 C   0  0  0  0  0  0  0  0  0  0  0  0
  148.0416  134.4385  155.1058 C   0  0  0  0  0  0  0  0  0  0  0  0
  149.4232  134.2195  154.9303 C   0  0  0  0  0  0  0  0  0  0  0  0
  150.3008  135.3132  154.8011 C   0  0  0  0  0  0  0  0  0  0  0  0
  149.7825  136.6216  154.8500 C   0  0  0  0  0  0  0  0  0  0  0  0
  151.6437  141.8751  158.3524 C   0  0  0  0  0  0  0  0  0  0  0  0
  150.6079  144.9314  159.5329 H   0  0  0  0  0  0  0  0  0  0  0  0
  149.5029  143.7685  158.7911 H   0  0  0  0  0  0  0  0  0  0  0  0
  150.8170  144.4736  157.8409 H   0  0  0  0  0  0  0  0  0  0  0  0
  151.9362  143.7884  161.1716 H   0  0  0  0  0  0  0  0  0  0  0  0
  153.4065  141.9116  161.8213 H   0  0  0  0  0  0  0  0  0  0  0  0
  154.8383  139.5465  159.6736 H   0  0  0  0  0  0  0  0  0  0  0  0
  153.4608  138.7369  160.4316 H   0  0  0  0  0  0  0  0  0  0  0  0
  154.4660  139.8411  161.3738 H   0  0  0  0  0  0  0  0  0  0  0  0
  150.9482  139.4345  156.9213 H   0  0  0  0  0  0  0  0  0  0  0  0
  152.0742  140.5040  156.0843 H   0  0  0  0  0  0  0  0  0  0  0  0
  152.4256  137.4827  156.5042 H   0  0  0  0  0  0  0  0  0  0  0  0
  154.3077  137.7451  155.4791 H   0  0  0  0  0  0  0  0  0  0  0  0
  151.8559  139.0777  153.9463 H   0  0  0  0  0  0  0  0  0  0  0  0
  152.2191  137.3765  153.9914 H   0  0  0  0  0  0  0  0  0  0  0  0
  149.2089  140.7071  155.7395 H   0  0  0  0  0  0  0  0  0  0  0  0
  150.6197  140.4417  154.7252 H   0  0  0  0  0  0  0  0  0  0  0  0
  149.3524  140.6789  152.9372 H   0  0  0  0  0  0  0  0  0  0  0  0
  146.4676  135.9090  155.2879 H   0  0  0  0  0  0  0  0  0  0  0  0
  147.3727  133.5963  155.2049 H   0  0  0  0  0  0  0  0  0  0  0  0
  149.8091  133.2112  154.8953 H   0  0  0  0  0  0  0  0  0  0  0  0
  151.3593  135.1478  154.6687 H   0  0  0  0  0  0  0  0  0  0  0  0
  151.1363  141.8987  157.4000 H   0  0  0  0  0  0  0  0  0  0  0  0
  1  2  1  0  0  0  0
  1 25  1  0  0  0  0
  1 26  1  0  0  0  0
  1 27  1  0  0  0  0
  2 24  1  0  0  0  0
  2  3  2  0  0  0  0
  3  4  1  0  0  0  0
  3 28  1  0  0  0  0
  4  5  2  0  0  0  0
  4 29  1  0  0  0  0
  5  6  1  0  0  0  0
  5  7  1  0  0  0  0
  6 30  1  0  0  0  0
  6 31  1  0  0  0  0
  6 32  1  0  0  0  0
  7  8  1  0  0  0  0
  7 24  2  0  0  0  0
  8  9  1  0  0  0  0
  9 10  1  0  0  0  0
  9 33  1  0  0  0  0
  9 34  1  0  0  0  0
 10 11  1  0  0  0  0
 10 12  1  0  0  0  0
 10 35  1  0  0  0  0
 11 36  1  0  0  0  0
 12 13  1  0  0  0  0
 12 37  1  0  0  0  0
 12 38  1  0  0  0  0
 13 23  1  0  0  0  0
 13 14  1  0  0  0  0
 14 15  1  0  0  0  0
 14 17  2  0  0  0  0
 15 16  1  0  0  0  0
 15 39  1  0  0  0  0
 15 40  1  0  0  0  0
 16 41  1  0  0  0  0
 17 18  1  0  0  0  0
 18 23  2  0  0  0  0
 18 19  1  0  0  0  0
 19 20  2  0  0  0  0
 19 42  1  0  0  0  0
 20 21  1  0  0  0  0
 20 43  1  0  0  0  0
 21 22  2  0  0  0  0
 21 44  1  0  0  0  0
 22 23  1  0  0  0  0
 22 45  1  0  0  0  0
 24 46  1  0  0  0  0
M  END
> <s_m_source_file>
AV-unprocessed.smi

> <i_m_source_file_index>
2190

> <i_lp_mmshare_version>
43012

> <i_f3d_flags>
0

> <s_epik_input>
W0NIM11jMVtjSF1bY0hdYyhbQ0gzXSljKFtjSF0xKU9bQ0gyXVtDQEhdKFtPSF0pW0NIMl1uKGMobjIpW0NIMl1bT0hdKWMoYzIzKVtjSF1bY0hdW2NIXVtjSF0z

> <s_epik_cmdline>
J2VwaWtfcHl0aG9uJywgJy1waCcsICc3LjAnLCAnLXRuJywgJzgnLCAnLW1hJywgJzIwMCcsICctbWV0YWxfYmluZGluZycsICctaW1hZScsICc8aW5maWxlLm1hZT4nLCAnLW9tYWUnLCAnPG91dGZpbGUubWFlPic=

> <r_lp_tautomer_probability>
1

> <r_epik_Ionization_Penalty>
0.0555874

> <r_epik_Ionization_Penalty_Charging>
0

> <r_epik_Ionization_Penalty_Neutral>
0.0555874

> <r_epik_State_Penalty>
0.0478234

> <r_epik_Charging_Adjusted_Penalty>
0.0478234

> <i_epik_Tot_Q>
0

> <i_epik_Tot_abs_Q>
0

> <r_epik_Metal_State_Penalty>
4.98044e-05

> <b_epik_Metal_Only>
0

> <s_lp_Force_Field>
OPLS_2005

> <r_lp_Energy>
17.5677

> <b_lp_Chiralities_Consistent>
1

> <s_lp_Variant>
AV-unprocessed.smi:2190-1

> <Gold.Version>
5.8.1

> <Gold.Id.Protein>
6NUR|6NUR_protein|mol2

> <Gold.PLP.Fitness>
51.6533

> <Gold.PLP.PLP>
-46.1487

> <Gold.PLP.part.hbond>
-4.8637

> <Gold.PLP.part.metal>
0.0000

> <Gold.PLP.part.buried>
-3.5189

> <Gold.PLP.part.nonpolar>
-37.4836

> <Gold.PLP.part.repulsive>
0.0922

> <Gold.PLP.ligand.clash>
0.0000

> <Gold.PLP.ligand.torsion>
0.4196

> <Gold.PLP.Chemscore.Hbond>
2.0870

> <Gold.PLP.Chemscore.CHOScore>
0.0000

> <Gold.PLP.Chemscore.Metal>
0.0000

> <Gold.Chemscore.Hbonds>
donor molecule, donor type, donor heavy atom, donor atom, acceptor molecule, acceptor atom, score
      L1  H    16    41       P1  7957  1.00
      P1  H  7997  8009       L1     8  0.72
      P1  H  7997  8010       L1    11  0.08

> <Gold.PLP.Chemscore.Internal.Correction>
0.0828

> <Gold.Rescore>
     Score         DG    S(hbond)    S(metal)    S(lipo)     H(rot)  DE(clash)    DE(int)     intcor
     17.93     -18.92       1.70        0.00     131.02       2.96       0.42       0.57       ----

> <Gold.Chemscore.Fitness>
17.9313

> <Gold.Chemscore.DG>
-18.9222

> <Gold.Chemscore.ZeroCoef>
-5.4800

> <Gold.Chemscore.Hbond>
1.7007

> <Gold.Chemscore.Metal>
0.0000

> <Gold.Chemscore.Lipo>
131.0216

> <Gold.Chemscore.Internal_Hbond>
0.0000

> <Gold.Chemscore.DEClash>
0.4243

> <Gold.Chemscore.DEInternal>
0.5666

> <Gold.Chemscore.Rot>
2.9561

> <Gold.Chemscore.Internal.Correction>
   9.000000E+99

> <Gold.Chemscore.Hbonds>
donor molecule, donor type, donor heavy atom, donor atom, acceptor molecule, acceptor atom, score
      L1  H    16    41       P1  7957  0.99
      P1  H  7997  8009       L1     8  0.07
      P1  H  7997  8010       L1    11  0.09

> <Gold.Chemscore.Hbond.Weighted>
-5.6804

> <Gold.Chemscore.Metal.Weighted>
-0.0000

> <Gold.Chemscore.Lipo.Weighted>
-15.3295

> <Gold.Chemscore.Internal_Hbond.Weighted>
0.0000

> <Gold.Chemscore.DEClash.Weighted>
0.4243

> <Gold.Chemscore.DEInternal.Weighted>
0.5666

> <Gold.Chemscore.Rot.Weighted>
7.5677

> <Gold.Chemscore.Internal.Correction.Weighted>
   9.000000E+99

> <Gold.Protein.RotatedTorsions>
[ 6907 6896 6895 6894 ] final   70.11 input  -60.11 | X-H torsion
[ 7974 7965 7964 7962 ] final  -73.68 input  175.53 | X-H torsion
[ 8008 7997 7996 7995 ] final  149.08 input   59.86 | X-H torsion
[ 10167 10162 10161 10158 ] final   99.02 input  -65.29 | X-H torsion
[ 10718 10713 10712 10709 ] final -157.83 input   66.30 | X-H torsion
[ 10763 10752 10751 10750 ] final  -14.90 input  -60.55 | X-H torsion
[ 11005 11000 10999 10996 ] final   81.92 input  -57.11 | X-H torsion

> <Gold.Protein.ActiveResidues>
 VAL166  LYS551  ARG553  GLY616  TRP617  ASP618  TYR619  PRO620  LYS621  CYS622 
 ASP623  PHE694  ASN695  SER759  ASP760  ASP761  ALA762  ILE779  LEU786  VAL792 
 PHE793  MET794  SER795  GLU796  ALA797  LYS798  CYS799  TRP800  GLU811  SER814 

> <Gold.Protein.RotatedAtoms>
  152.4729  134.4917  159.9697 H   0  0  0  0  0  0  0  0  0  0  0  0  # atno 6907 bound_to 6896
  151.4940  133.3513  159.2866 H   0  0  0  0  0  0  0  0  0  0  0  0  # atno 6908 bound_to 6896
  150.8749  134.8157  159.7244 H   0  0  0  0  0  0  0  0  0  0  0  0  # atno 6909 bound_to 6896
  145.6490  140.9288  143.0995 H   0  0  0  0  0  0  0  0  0  0  0  0  # atno 7974 bound_to 7965
  156.2768  140.2111  156.5801 H   0  0  0  0  0  0  0  0  0  0  0  0  # atno 8008 bound_to 7997
  154.7065  140.0516  157.0532 H   0  0  0  0  0  0  0  0  0  0  0  0  # atno 8009 bound_to 7997
  155.0663  140.3172  155.4647 H   0  0  0  0  0  0  0  0  0  0  0  0  # atno 8010 bound_to 7997
  139.7655  144.6940  151.0230 H   0  0  0  0  0  0  0  0  0  0  0  0  # atno 10167 bound_to 10162
  156.5457  130.8583  151.2763 H   0  0  0  0  0  0  0  0  0  0  0  0  # atno 10718 bound_to 10713
  153.5353  135.7014  153.5663 H   0  0  0  0  0  0  0  0  0  0  0  0  # atno 10763 bound_to 10752
  153.3653  135.3959  155.1748 H   0  0  0  0  0  0  0  0  0  0  0  0  # atno 10764 bound_to 10752
  154.8680  135.3798  154.4853 H   0  0  0  0  0  0  0  0  0  0  0  0  # atno 10765 bound_to 10752
  139.9081  134.8033  156.2105 H   0  0  0  0  0  0  0  0  0  0  0  0  # atno 11005 bound_to 11000
  144.7129  139.8302  143.7408 LP  0  0  0  0  0  0  0  0  0  0  0  0  # atno 17320 bound_to 7965
  146.1219  139.4239  143.0223 LP  0  0  0  0  0  0  0  0  0  0  0  0  # atno 17321 bound_to 7965
  140.7810  143.4647  151.0228 LP  0  0  0  0  0  0  0  0  0  0  0  0  # atno 17342 bound_to 10162
  139.8332  143.7662  152.3180 LP  0  0  0  0  0  0  0  0  0  0  0  0  # atno 17343 bound_to 10162
  157.7397  130.9836  150.2330 LP  0  0  0  0  0  0  0  0  0  0  0  0  # atno 17370 bound_to 10713
  156.2930  130.3748  149.7823 LP  0  0  0  0  0  0  0  0  0  0  0  0  # atno 17371 bound_to 10713
  141.0468  133.6909  156.1698 LP  0  0  0  0  0  0  0  0  0  0  0  0  # atno 17394 bound_to 11000
  140.6871  134.4705  157.5589 LP  0  0  0  0  0  0  0  0  0  0  0  0  # atno 17395 bound_to 11000

$$$$
