AV-unprocessed.smi:2499|AV-procd|sdf|9833|dock6
  -GOLD-   2272013463D 1   1.00000     0.00000
 Structure written by MMmdl.
 28 29  0  0  0  0  0  0  0  0  2 V2000
  147.4935  140.7411  154.6859 C   0  0  0  0  0  0  0  0  0  0  0  0
  148.6227  140.7914  155.7241 C   0  0  2  0  0  0  0  0  0  0  0  0
  148.4575  141.9926  156.5371 N   0  0  0  0  0  0  0  0  0  0  0  0
  147.7532  142.0657  157.6766 C   0  0  0  0  0  0  0  0  0  0  0  0
  147.1507  141.1124  158.1716 O   0  0  0  0  0  0  0  0  0  0  0  0
  147.7896  143.2992  158.2032 N   0  0  0  0  0  0  0  0  0  0  0  0
  147.1488  143.7036  159.3972 C   0  0  0  0  0  0  0  0  0  0  0  0
  146.7550  144.9513  159.6468 N   0  3  0  0  0  0  0  0  0  0  0  0
  146.1730  144.9890  160.8898 C   0  0  0  0  0  0  0  0  0  0  0  0
  146.2369  143.7035  161.3715 C   0  0  0  0  0  0  0  0  0  0  0  0
  146.8485  142.8839  160.4443 O   0  0  0  0  0  0  0  0  0  0  0  0
  149.9816  140.6990  155.0502 C   0  0  0  0  0  0  0  0  0  0  0  0
  150.6024  139.3580  154.7374 C   0  0  0  0  0  0  0  0  0  0  0  0
  151.2072  140.2405  155.8049 C   0  0  0  0  0  0  0  0  0  0  0  0
  147.5498  139.8302  154.0889 H   0  0  0  0  0  0  0  0  0  0  0  0
  147.5437  141.5889  154.0017 H   0  0  0  0  0  0  0  0  0  0  0  0
  146.5145  140.7565  155.1664 H   0  0  0  0  0  0  0  0  0  0  0  0
  148.5061  139.9179  156.3689 H   0  0  0  0  0  0  0  0  0  0  0  0
  148.9195  142.8270  156.2053 H   0  0  0  0  0  0  0  0  0  0  0  0
  146.8493  145.7629  159.0491 H   0  0  0  0  0  0  0  0  0  0  0  0
  145.7790  145.9078  161.3001 H   0  0  0  0  0  0  0  0  0  0  0  0
  145.9172  143.2335  162.2903 H   0  0  0  0  0  0  0  0  0  0  0  0
  150.1481  141.4733  154.3032 H   0  0  0  0  0  0  0  0  0  0  0  0
  150.0751  138.4645  155.0665 H   0  0  0  0  0  0  0  0  0  0  0  0
  151.1447  139.2610  153.7991 H   0  0  0  0  0  0  0  0  0  0  0  0
  152.1500  140.7331  155.5766 H   0  0  0  0  0  0  0  0  0  0  0  0
  151.0833  139.9280  156.8399 H   0  0  0  0  0  0  0  0  0  0  0  0
  148.3165  144.0052  157.7110 H   0  0  0  0  0  0  0  0  0  0  0  0
  1  2  1  0  0  0  0
  1 15  1  0  0  0  0
  1 16  1  0  0  0  0
  1 17  1  0  0  0  0
  2  3  1  0  0  0  0
  2 12  1  0  0  0  0
  2 18  1  0  0  0  0
  3 19  1  0  0  0  0
  3  4  1  0  0  0  0
  4  6  1  0  0  0  0
  4  5  2  0  0  0  0
  6  7  1  0  0  0  0
  6 28  1  0  0  0  0
  7 11  1  0  0  0  0
  7  8  2  0  0  0  0
  8 20  1  0  0  0  0
  8  9  1  0  0  0  0
  9 21  1  0  0  0  0
  9 10  2  0  0  0  0
 10 22  1  0  0  0  0
 10 11  1  0  0  0  0
 12 14  1  0  0  0  0
 12 13  1  0  0  0  0
 12 23  1  0  0  0  0
 13 14  1  0  0  0  0
 13 24  1  0  0  0  0
 13 25  1  0  0  0  0
 14 26  1  0  0  0  0
 14 27  1  0  0  0  0
M  CHG  1   8   1
M  END
> <s_m_source_file>
AV-unprocessed.smi

> <i_m_source_file_index>
2499

> <i_lp_mmshare_version>
43012

> <i_f3d_flags>
0

> <s_epik_input>
W0NIMl0xW0NIMl1bQ0hdMVtDQEhdKFtDSDNdKVtOSF1DKD1PKVtOSF1jMm5bY0hdW2NIXW8y

> <s_epik_cmdline>
J2VwaWtfcHl0aG9uJywgJy1waCcsICc3LjAnLCAnLXRuJywgJzgnLCAnLW1hJywgJzIwMCcsICctbWV0YWxfYmluZGluZycsICctaW1hZScsICc8aW5maWxlLm1hZT4nLCAnLW9tYWUnLCAnPG91dGZpbGUubWFlPic=

> <r_epik_Ionization_Penalty>
6.56099

> <r_epik_Ionization_Penalty_Charging>
6.51293

> <r_epik_Ionization_Penalty_Neutral>
0.0480564

> <r_epik_State_Penalty>
1.72359

> <r_epik_Charging_Adjusted_Penalty>
8.23652

> <i_epik_Tot_Q>
1

> <i_epik_Tot_abs_Q>
1

> <r_epik_Metal_State_Penalty>
1.73747

> <b_epik_Metal_Only>
0

> <s_lp_Force_Field>
OPLS_2005

> <r_lp_Energy>
20.6817

> <b_lp_Chiralities_Consistent>
1

> <s_lp_Variant>
AV-unprocessed.smi:2499-3

> <Gold.Version>
5.8.1

> <Gold.Id.Protein>
6NUR|6NUR_protein|mol2

> <Gold.PLP.Fitness>
36.1745

> <Gold.PLP.PLP>
-24.5428

> <Gold.PLP.part.hbond>
-6.5681

> <Gold.PLP.part.metal>
0.0000

> <Gold.PLP.part.buried>
-0.8046

> <Gold.PLP.part.nonpolar>
-17.0514

> <Gold.PLP.part.repulsive>
0.1901

> <Gold.PLP.ligand.clash>
0.0000

> <Gold.PLP.ligand.torsion>
1.0495

> <Gold.PLP.Chemscore.Hbond>
4.2214

> <Gold.PLP.Chemscore.CHOScore>
0.0000

> <Gold.PLP.Chemscore.Metal>
0.0000

> <Gold.Chemscore.Hbonds>
donor molecule, donor type, donor heavy atom, donor atom, acceptor molecule, acceptor atom, score
      L1  H     3    19       P1  8028  1.00
      L1  H     6    28       P1  8029  0.22
      L1  H     8    20       P1  8029  1.17
      P1  H  6933  6944       L1    11  0.93
      P1  H  6934  6946       L1    11  0.89

> <Gold.PLP.Chemscore.Internal.Correction>
1.0665

> <Gold.Rescore>
     Score         DG    S(hbond)    S(metal)    S(lipo)     H(rot)  DE(clash)    DE(int)     intcor
     13.39     -15.68       2.62        0.00      40.90       1.30       0.00       2.29       ----

> <Gold.Chemscore.Fitness>
13.3935

> <Gold.Chemscore.DG>
-15.6847

> <Gold.Chemscore.ZeroCoef>
-5.4800

> <Gold.Chemscore.Hbond>
2.6218

> <Gold.Chemscore.Metal>
0.0000

> <Gold.Chemscore.Lipo>
40.8973

> <Gold.Chemscore.Internal_Hbond>
0.0000

> <Gold.Chemscore.DEClash>
0.0013

> <Gold.Chemscore.DEInternal>
2.2899

> <Gold.Chemscore.Rot>
1.3036

> <Gold.Chemscore.Internal.Correction>
   9.000000E+99

> <Gold.Chemscore.Hbonds>
donor molecule, donor type, donor heavy atom, donor atom, acceptor molecule, acceptor atom, score
      L1  H     3    19       P1  8028  0.94
      L1  H     8    20       P1  8029  0.55
      P1  H  6933  6944       L1    11  0.21
      P1  H  6934  6946       L1    11  0.80

> <Gold.Chemscore.Hbond.Weighted>
-8.7569

> <Gold.Chemscore.Metal.Weighted>
-0.0000

> <Gold.Chemscore.Lipo.Weighted>
-4.7850

> <Gold.Chemscore.Internal_Hbond.Weighted>
0.0000

> <Gold.Chemscore.DEClash.Weighted>
0.0013

> <Gold.Chemscore.DEInternal.Weighted>
2.2899

> <Gold.Chemscore.Rot.Weighted>
3.3371

> <Gold.Chemscore.Internal.Correction.Weighted>
   9.000000E+99

> <Gold.Protein.RotatedTorsions>
[ 6907 6896 6895 6894 ] final   55.56 input  -60.11 | X-H torsion
[ 7974 7965 7964 7962 ] final   64.46 input  175.53 | X-H torsion
[ 8008 7997 7996 7995 ] final -121.81 input   59.86 | X-H torsion
[ 10167 10162 10161 10158 ] final  119.42 input  -65.29 | X-H torsion
[ 10718 10713 10712 10709 ] final   22.65 input   66.30 | X-H torsion
[ 10763 10752 10751 10750 ] final  -56.24 input  -60.55 | X-H torsion
[ 11005 11000 10999 10996 ] final  -32.33 input  -57.11 | X-H torsion

> <Gold.Protein.ActiveResidues>
 VAL166  LYS551  ARG553  GLY616  TRP617  ASP618  TYR619  PRO620  LYS621  CYS622 
 ASP623  PHE694  ASN695  SER759  ASP760  ASP761  ALA762  ILE779  LEU786  VAL792 
 PHE793  MET794  SER795  GLU796  ALA797  LYS798  CYS799  TRP800  GLU811  SER814 

> <Gold.Protein.RotatedAtoms>
  152.3551  134.6951  160.0224 H   0  0  0  0  0  0  0  0  0  0  0  0  # atno 6907 bound_to 6896
  151.7293  133.3311  159.3344 H   0  0  0  0  0  0  0  0  0  0  0  0  # atno 6908 bound_to 6896
  150.7566  134.6312  159.6231 H   0  0  0  0  0  0  0  0  0  0  0  0  # atno 6909 bound_to 6896
  145.8500  139.3248  143.0881 H   0  0  0  0  0  0  0  0  0  0  0  0  # atno 7974 bound_to 7965
  155.1540  140.0404  157.2827 H   0  0  0  0  0  0  0  0  0  0  0  0  # atno 8008 bound_to 7997
  154.6383  140.2541  155.7325 H   0  0  0  0  0  0  0  0  0  0  0  0  # atno 8009 bound_to 7997
  156.2520  140.2861  156.0766 H   0  0  0  0  0  0  0  0  0  0  0  0  # atno 8010 bound_to 7997
  139.6047  144.7066  151.2980 H   0  0  0  0  0  0  0  0  0  0  0  0  # atno 10167 bound_to 10162
  157.1552  130.6692  149.6025 H   0  0  0  0  0  0  0  0  0  0  0  0  # atno 10718 bound_to 10713
  154.2035  135.6407  153.5094 H   0  0  0  0  0  0  0  0  0  0  0  0  # atno 10763 bound_to 10752
  153.0006  135.5457  154.6290 H   0  0  0  0  0  0  0  0  0  0  0  0  # atno 10764 bound_to 10752
  154.5709  135.2917  155.0801 H   0  0  0  0  0  0  0  0  0  0  0  0  # atno 10765 bound_to 10752
  140.9543  133.7202  156.1268 H   0  0  0  0  0  0  0  0  0  0  0  0  # atno 11005 bound_to 11000
  145.9369  140.9008  143.0328 LP  0  0  0  0  0  0  0  0  0  0  0  0  # atno 17320 bound_to 7965
  144.6729  140.1495  143.7431 LP  0  0  0  0  0  0  0  0  0  0  0  0  # atno 17321 bound_to 7965
  140.7276  143.6958  150.7885 LP  0  0  0  0  0  0  0  0  0  0  0  0  # atno 17342 bound_to 10162
  140.0542  143.5220  152.2659 LP  0  0  0  0  0  0  0  0  0  0  0  0  # atno 17343 bound_to 10162
  155.9763  130.4730  150.6521 LP  0  0  0  0  0  0  0  0  0  0  0  0  # atno 17370 bound_to 10713
  157.4183  131.0833  151.1155 LP  0  0  0  0  0  0  0  0  0  0  0  0  # atno 17371 bound_to 10713
  140.7558  134.3994  157.5534 LP  0  0  0  0  0  0  0  0  0  0  0  0  # atno 17394 bound_to 11000
  139.8857  134.8930  156.2627 LP  0  0  0  0  0  0  0  0  0  0  0  0  # atno 17395 bound_to 11000

$$$$
