AV-unprocessed.smi:2525|AV-procd|sdf|9931|dock10
  -GOLD-   2272013573D 1   1.00000     0.00000
 Structure written by MMmdl.
 44 45  0  0  0  0  0  0  0  0  1 V2000
  151.0800  138.4799  154.3681 C   0  0  0  0  0  0  0  0  0  0  0  0
  150.3768  139.5384  155.2347 C   0  0  0  0  0  0  0  0  0  0  0  0
  150.5309  139.4025  156.7694 C   0  0  0  0  0  0  0  0  0  0  0  0
  149.5746  140.4463  157.4152 C   0  0  0  0  0  0  0  0  0  0  0  0
  148.0908  140.3551  157.0111 C   0  0  0  0  0  0  0  0  0  0  0  0
  150.4542  137.9646  157.3640 C   0  0  2  0  0  0  0  0  0  0  0  0
  149.1755  137.6441  157.9893 N   0  0  0  0  0  0  0  0  0  0  0  0
  148.8811  136.4734  158.5729 C   0  0  0  0  0  0  0  0  0  0  0  0
  149.6786  135.5406  158.6655 O   0  0  0  0  0  0  0  0  0  0  0  0
  147.4665  136.3298  159.1352 C   0  0  0  0  0  0  0  0  0  0  0  0
  147.4963  136.0468  160.5590 N   0  0  0  0  0  0  0  0  0  0  0  0
  147.2353  134.8557  161.2058 C   0  0  0  0  0  0  0  0  0  0  0  0
  147.4216  135.1625  162.5235 C   0  0  0  0  0  0  0  0  0  0  0  0
  147.7823  136.5053  162.6231 N   0  0  0  0  0  0  0  0  0  0  0  0
  147.8232  137.0260  161.4370 N   0  0  0  0  0  0  0  0  0  0  0  0
  151.5496  138.3320  158.3726 C   0  0  1  0  0  0  0  0  0  0  0  0
  152.5206  137.2489  158.8269 C   0  0  0  0  0  0  0  0  0  0  0  0
  151.9868  139.3610  157.3166 C   0  0  2  0  0  0  0  0  0  0  0  0
  152.4298  140.5989  157.8501 O   0  0  0  0  0  0  0  0  0  0  0  0
  153.6280  140.4959  158.5988 C   0  0  0  0  0  0  0  0  0  0  0  0
  150.9875  138.7346  153.3122 H   0  0  0  0  0  0  0  0  0  0  0  0
  150.6322  137.4942  154.4947 H   0  0  0  0  0  0  0  0  0  0  0  0
  152.1438  138.4055  154.5900 H   0  0  0  0  0  0  0  0  0  0  0  0
  150.7574  140.5110  154.9216 H   0  0  0  0  0  0  0  0  0  0  0  0
  149.3208  139.5327  154.9611 H   0  0  0  0  0  0  0  0  0  0  0  0
  149.6248  140.3710  158.5021 H   0  0  0  0  0  0  0  0  0  0  0  0
  149.9114  141.4576  157.1877 H   0  0  0  0  0  0  0  0  0  0  0  0
  147.5317  141.1871  157.4395 H   0  0  0  0  0  0  0  0  0  0  0  0
  147.6258  139.4399  157.3766 H   0  0  0  0  0  0  0  0  0  0  0  0
  147.9492  140.3942  155.9324 H   0  0  0  0  0  0  0  0  0  0  0  0
  150.8100  137.1868  156.6872 H   0  0  0  0  0  0  0  0  0  0  0  0
  148.4603  138.3562  157.9598 H   0  0  0  0  0  0  0  0  0  0  0  0
  146.8981  137.2450  158.9616 H   0  0  0  0  0  0  0  0  0  0  0  0
  146.9405  135.5228  158.6233 H   0  0  0  0  0  0  0  0  0  0  0  0
  146.9570  133.9433  160.6991 H   0  0  0  0  0  0  0  0  0  0  0  0
  147.3286  134.5367  163.3989 H   0  0  0  0  0  0  0  0  0  0  0  0
  151.1184  138.8462  159.2334 H   0  0  0  0  0  0  0  0  0  0  0  0
  153.0059  136.7672  157.9778 H   0  0  0  0  0  0  0  0  0  0  0  0
  152.0053  136.4732  159.3932 H   0  0  0  0  0  0  0  0  0  0  0  0
  153.3018  137.6537  159.4688 H   0  0  0  0  0  0  0  0  0  0  0  0
  152.6909  138.9437  156.5941 H   0  0  0  0  0  0  0  0  0  0  0  0
  153.9301  141.4865  158.9380 H   0  0  0  0  0  0  0  0  0  0  0  0
  154.4386  140.0865  157.9946 H   0  0  0  0  0  0  0  0  0  0  0  0
  153.4949  139.8698  159.4804 H   0  0  0  0  0  0  0  0  0  0  0  0
  1  2  1  0  0  0  0
  1 21  1  0  0  0  0
  1 22  1  0  0  0  0
  1 23  1  0  0  0  0
  2  3  1  0  0  0  0
  2 24  1  0  0  0  0
  2 25  1  0  0  0  0
  3 18  1  0  0  0  0
  3  4  1  0  0  0  0
  3  6  1  0  0  0  0
  4  5  1  0  0  0  0
  4 26  1  0  0  0  0
  4 27  1  0  0  0  0
  5 28  1  0  0  0  0
  5 29  1  0  0  0  0
  5 30  1  0  0  0  0
  6  7  1  0  0  0  0
  6 16  1  0  0  0  0
  6 31  1  0  0  0  0
  7  8  1  0  0  0  0
  7 32  1  0  0  0  0
  8  9  2  0  0  0  0
  8 10  1  0  0  0  0
 10 11  1  0  0  0  0
 10 33  1  0  0  0  0
 10 34  1  0  0  0  0
 11 15  1  0  0  0  0
 11 12  1  0  0  0  0
 12 13  2  0  0  0  0
 12 35  1  0  0  0  0
 13 14  1  0  0  0  0
 13 36  1  0  0  0  0
 14 15  2  0  0  0  0
 16 17  1  0  0  0  0
 16 18  1  0  0  0  0
 16 37  1  0  0  0  0
 17 38  1  0  0  0  0
 17 39  1  0  0  0  0
 17 40  1  0  0  0  0
 18 19  1  0  0  0  0
 18 41  1  0  0  0  0
 19 20  1  0  0  0  0
 20 42  1  0  0  0  0
 20 43  1  0  0  0  0
 20 44  1  0  0  0  0
M  END
> <s_m_source_file>
AV-unprocessed.smi

> <i_m_source_file_index>
2525

> <i_lp_mmshare_version>
43012

> <i_f3d_flags>
0

> <s_epik_input>
W0NIM11PW0NAQEhdMVtDQEhdKFtDSDNdKVtDQEBIXShDMShbQ0gyXVtDSDNdKVtDSDJdW0NIM10pW05IXUMoPU8pW0NIMl1uMltjSF1bY0hdbm4y

> <s_epik_cmdline>
J2VwaWtfcHl0aG9uJywgJy1waCcsICc3LjAnLCAnLXRuJywgJzgnLCAnLW1hJywgJzIwMCcsICctbWV0YWxfYmluZGluZycsICctaW1hZScsICc8aW5maWxlLm1hZT4nLCAnLW9tYWUnLCAnPG91dGZpbGUubWFlPic=

> <r_lp_tautomer_probability>
1

> <r_epik_Ionization_Penalty>
1.18045e-06

> <r_epik_Ionization_Penalty_Charging>
0

> <r_epik_Ionization_Penalty_Neutral>
1.18045e-06

> <r_epik_State_Penalty>
-0

> <r_epik_Charging_Adjusted_Penalty>
0

> <i_epik_Tot_Q>
0

> <i_epik_Tot_abs_Q>
0

> <r_epik_Metal_State_Penalty>
-0

> <b_epik_Metal_Only>
0

> <s_lp_Force_Field>
OPLS_2005

> <r_lp_Energy>
27.6116

> <b_lp_Chiralities_Consistent>
1

> <s_lp_Variant>
AV-unprocessed.smi:2525-6

> <Gold.Version>
5.8.1

> <Gold.Id.Protein>
6NUR|6NUR_protein|mol2

> <Gold.PLP.Fitness>
42.1997

> <Gold.PLP.PLP>
-34.4633

> <Gold.PLP.part.hbond>
-3.2672

> <Gold.PLP.part.metal>
0.0000

> <Gold.PLP.part.buried>
-5.5922

> <Gold.PLP.part.nonpolar>
-26.2741

> <Gold.PLP.part.repulsive>
0.1577

> <Gold.PLP.ligand.clash>
0.0000

> <Gold.PLP.ligand.torsion>
0.5338

> <Gold.PLP.Chemscore.Hbond>
2.7360

> <Gold.PLP.Chemscore.CHOScore>
0.0000

> <Gold.PLP.Chemscore.Metal>
0.0000

> <Gold.Chemscore.Hbonds>
donor molecule, donor type, donor heavy atom, donor atom, acceptor molecule, acceptor atom, score
      P1  H  6896  6909       L1     9  1.00
      P1  H  6931  6943       L1    15  0.65
      P1  H  6934  6947       L1    15  0.54

> <Gold.PLP.Chemscore.Internal.Correction>
0.5960

> <Gold.Rescore>
     Score         DG    S(hbond)    S(metal)    S(lipo)     H(rot)  DE(clash)    DE(int)     intcor
     15.59     -16.29       2.25        0.00      71.46       1.98       0.00       0.70       ----

> <Gold.Chemscore.Fitness>
15.5910

> <Gold.Chemscore.DG>
-16.2915

> <Gold.Chemscore.ZeroCoef>
-5.4800

> <Gold.Chemscore.Hbond>
2.2527

> <Gold.Chemscore.Metal>
0.0000

> <Gold.Chemscore.Lipo>
71.4569

> <Gold.Chemscore.Internal_Hbond>
0.0000

> <Gold.Chemscore.DEClash>
0.0000

> <Gold.Chemscore.DEInternal>
0.7005

> <Gold.Chemscore.Rot>
1.9817

> <Gold.Chemscore.Internal.Correction>
   9.000000E+99

> <Gold.Chemscore.Hbonds>
donor molecule, donor type, donor heavy atom, donor atom, acceptor molecule, acceptor atom, score
      P1  H  6896  6909       L1     9  1.00
      P1  H  6931  6943       L1    15  0.06
      P1  H  6934  6947       L1    15  0.49

> <Gold.Chemscore.Hbond.Weighted>
-7.5241

> <Gold.Chemscore.Metal.Weighted>
-0.0000

> <Gold.Chemscore.Lipo.Weighted>
-8.3605

> <Gold.Chemscore.Internal_Hbond.Weighted>
0.0000

> <Gold.Chemscore.DEClash.Weighted>
0.0000

> <Gold.Chemscore.DEInternal.Weighted>
0.7005

> <Gold.Chemscore.Rot.Weighted>
5.0731

> <Gold.Chemscore.Internal.Correction.Weighted>
   9.000000E+99

> <Gold.Protein.RotatedTorsions>
[ 6907 6896 6895 6894 ] final   59.97 input  -60.11 | X-H torsion
[ 7974 7965 7964 7962 ] final   24.83 input  175.53 | X-H torsion
[ 8008 7997 7996 7995 ] final  -82.78 input   59.86 | X-H torsion
[ 10167 10162 10161 10158 ] final  105.81 input  -65.29 | X-H torsion
[ 10718 10713 10712 10709 ] final   10.09 input   66.30 | X-H torsion
[ 10763 10752 10751 10750 ] final   19.75 input  -60.55 | X-H torsion
[ 11005 11000 10999 10996 ] final   56.25 input  -57.11 | X-H torsion

> <Gold.Protein.ActiveResidues>
 VAL166  LYS551  ARG553  GLY616  TRP617  ASP618  TYR619  PRO620  LYS621  CYS622 
 ASP623  PHE694  ASN695  SER759  ASP760  ASP761  ALA762  ILE779  LEU786  VAL792 
 PHE793  MET794  SER795  GLU796  ALA797  LYS798  CYS799  TRP800  GLU811  SER814 

> <Gold.Protein.RotatedAtoms>
  152.3962  134.6361  160.0087 H   0  0  0  0  0  0  0  0  0  0  0  0  # atno 6907 bound_to 6896
  151.6580  133.3312  159.3175 H   0  0  0  0  0  0  0  0  0  0  0  0  # atno 6908 bound_to 6896
  150.7869  134.6905  159.6539 H   0  0  0  0  0  0  0  0  0  0  0  0  # atno 6909 bound_to 6896
  146.1918  139.7550  142.8826 H   0  0  0  0  0  0  0  0  0  0  0  0  # atno 7974 bound_to 7965
  154.6122  140.0628  156.9508 H   0  0  0  0  0  0  0  0  0  0  0  0  # atno 8008 bound_to 7997
  155.1955  140.3310  155.4333 H   0  0  0  0  0  0  0  0  0  0  0  0  # atno 8009 bound_to 7997
  156.2383  140.1873  156.7042 H   0  0  0  0  0  0  0  0  0  0  0  0  # atno 8010 bound_to 7997
  139.7062  144.7086  151.1103 H   0  0  0  0  0  0  0  0  0  0  0  0  # atno 10167 bound_to 10162
  156.9759  130.5987  149.5672 H   0  0  0  0  0  0  0  0  0  0  0  0  # atno 10718 bound_to 10713
  153.1135  135.6702  153.9459 H   0  0  0  0  0  0  0  0  0  0  0  0  # atno 10763 bound_to 10752
  153.8995  135.3037  155.3449 H   0  0  0  0  0  0  0  0  0  0  0  0  # atno 10764 bound_to 10752
  154.7553  135.5015  153.9441 H   0  0  0  0  0  0  0  0  0  0  0  0  # atno 10765 bound_to 10752
  140.0543  134.5692  155.9226 H   0  0  0  0  0  0  0  0  0  0  0  0  # atno 11005 bound_to 11000
  145.3768  141.0352  143.3200 LP  0  0  0  0  0  0  0  0  0  0  0  0  # atno 17320 bound_to 7965
  144.8502  139.5334  143.6860 LP  0  0  0  0  0  0  0  0  0  0  0  0  # atno 17321 bound_to 7965
  140.7722  143.5356  150.9372 LP  0  0  0  0  0  0  0  0  0  0  0  0  # atno 17342 bound_to 10162
  139.9039  143.6802  152.3127 LP  0  0  0  0  0  0  0  0  0  0  0  0  # atno 17343 bound_to 10162
  156.0264  130.5357  150.8417 LP  0  0  0  0  0  0  0  0  0  0  0  0  # atno 17370 bound_to 10713
  157.5560  131.0945  150.9627 LP  0  0  0  0  0  0  0  0  0  0  0  0  # atno 17371 bound_to 10713
  141.1945  133.6583  156.5597 LP  0  0  0  0  0  0  0  0  0  0  0  0  # atno 17394 bound_to 11000
  140.3868  134.7475  157.4696 LP  0  0  0  0  0  0  0  0  0  0  0  0  # atno 17395 bound_to 11000

$$$$
