#       Name:                AV-unprocessed.smi:578
#       Creating user name   scv26
#       Creation time:       Thu Mar 26 23:49:21 2020


#       File generated by GOLD software.
#

@<TRIPOS>MOLECULE
AV-unprocessed.smi:578
    40    41     1
SMALL
NO_CHARGES


@<TRIPOS>ATOM
      1 ****        -2.7484  -1.9584  -0.3832 C.3            1 S1                 0.0000
      2 ****        -2.1808  -1.0761   0.7428 C.3            1 S1                 0.0000
      3 ****        -0.6399  -1.0725   0.8035 C.3            1 S1                 0.0000
      4 ****        -0.0828  -0.2725  -0.2790 N.3            1 S1                 0.0000
      5 ****         1.3163  -0.3296  -0.3426 C.ar           1 S1                 0.0000
      6 ****         1.9333  -0.9722  -1.4330 C.ar           1 S1                 0.0000
      7 ****         3.3394  -1.0169  -1.4775 C.ar           1 S1                 0.0000
      8 ****         4.1287  -0.4766  -0.5264 N.ar           1 S1                 0.0000
      9 ****         3.5445   0.1420   0.5284 C.ar           1 S1                 0.0000
     10 ****         4.4467   0.7351   1.5776 C.2            1 S1                 0.0000
     11 ****         3.9307   1.3119   2.5615 O.co2          1 S1                 0.0000
     12 ****         5.6868   0.6353   1.4380 O.co2          1 S1                -1.0000
     13 ****         2.1381   0.2367   0.6571 C.ar           1 S1                 0.0000
     14 ****        -0.6115   1.0838  -0.2924 C.3            1 S1                 0.0000
     15 ****        -2.1468   1.0475  -0.3945 C.3            1 S1                 0.0000
     16 ****        -2.7598   2.4487  -0.3078 C.3            1 S1                 0.0000
     17 ****        -2.6759   0.2645   0.6765 O.3            1 S1                 0.0000
     18 ****        -2.4575  -2.9991  -0.2402 H              1 S1                 0.0000
     19 ****        -2.3910  -1.6553  -1.3670 H              1 S1                 0.0000
     20 ****        -3.8379  -1.9202  -0.3955 H              1 S1                 0.0000
     21 ****        -2.5484  -1.4895   1.6823 H              1 S1                 0.0000
     22 ****        -0.3164  -0.6566   1.7589 H              1 S1                 0.0000
     23 ****        -0.2550  -2.0920   0.7540 H              1 S1                 0.0000
     24 ****         1.3447  -1.4200  -2.2202 H              1 S1                 0.0000
     25 ****         3.8444  -1.5003  -2.3006 H              1 S1                 0.0000
     26 ****         1.6947   0.7334   1.5080 H              1 S1                 0.0000
     27 ****        -0.3116   1.6067   0.6169 H              1 S1                 0.0000
     28 ****        -0.1909   1.6338  -1.1353 H              1 S1                 0.0000
     29 ****        -2.4396   0.6092  -1.3488 H              1 S1                 0.0000
     30 ****        -2.3918   3.0876  -1.1111 H              1 S1                 0.0000
     31 ****        -2.5161   2.9279   0.6407 H              1 S1                 0.0000
     32 ****        -3.8460   2.4040  -0.3899 H              1 S1                 0.0000
     33 ****        -0.3949  -0.6949  -1.1300 LP             1 S1                 0.0000
     34 ****         5.1246  -0.5314  -0.5982 LP             1 S1                 0.0000
     35 ****         4.5135   1.7119   3.2688 LP             1 S1                 0.0000
     36 ****         2.9356   1.3727   2.6401 LP             1 S1                 0.0000
     37 ****         6.3002   1.0235   2.1257 LP             1 S1                 0.0000
     38 ****         6.0639   0.1674   0.6387 LP             1 S1                 0.0000
     39 ****        -2.4507   0.7219   1.5367 LP             1 S1                 0.0000
     40 ****        -3.6695   0.2240   0.5706 LP             1 S1                 0.0000
@<TRIPOS>BOND
    1    1    2 1     
    2    1   18 1     
    3    1   19 1     
    4    1   20 1     
    5    2   17 1     
    6    2    3 1     
    7    2   21 1     
    8    3    4 1     
    9    3   22 1     
   10    3   23 1     
   11    4    5 1     
   12    4   14 1     
   13    5   13 ar    
   14    5    6 ar    
   15    6    7 ar    
   16    6   24 1     
   17    7    8 ar    
   18    7   25 1     
   19    8    9 ar    
   20    9   10 1     
   21    9   13 ar    
   22   10   11 ar    
   23   10   12 ar    
   24   13   26 1     
   25   14   15 1     
   26   14   27 1     
   27   14   28 1     
   28   15   16 1     
   29   15   17 1     
   30   15   29 1     
   31   16   30 1     
   32   16   31 1     
   33   16   32 1     
   34    4   33 1     
   35    8   34 1     
   36   11   35 1     
   37   11   36 1     
   38   12   37 1     
   39   12   38 1     
   40   17   39 1     
   41   17   40 1     
@<TRIPOS>SUBSTRUCTURE
      1 S1             1
@<TRIPOS>SET
LONE_PAIRS      STATIC     ATOMS    <user>   **** ""
8 33 34 35 36 37 38 39 40
ATOM$BLUE        STATIC     ATOMS    COLORGROUP SYSTEM
8 33 34 35 36 37 38 39 40
