AV-unprocessed.smi:2011|AV-procd|sdf|8154|dock2
  -GOLD-   2272010393D 1   1.00000     0.00000
 Structure written by MMmdl.
 25 26  0  0  0  0  0  0  0  0  2 V2000
  151.7936  139.4492  158.6335 O   0  0  0  0  0  0  0  0  0  0  0  0
  152.1658  140.3330  157.8582 C   0  0  0  0  0  0  0  0  0  0  0  0
  152.3654  141.5773  158.3126 N   0  0  0  0  0  0  0  0  0  0  0  0
  152.1739  142.0078  159.6911 C   0  0  0  0  0  0  0  0  0  0  0  0
  152.5251  143.4829  159.8426 C   0  0  0  0  0  0  0  0  0  0  0  0
  151.9518  144.2818  161.0223 C   0  0  0  0  0  0  0  0  0  0  0  0
  151.8710  145.5006  160.0990 C   0  0  0  0  0  0  0  0  0  0  0  0
  151.8719  144.5238  158.9203 C   0  0  0  0  0  0  0  0  0  0  0  0
  152.4108  140.1888  156.5356 N   0  5  0  0  0  0  0  0  0  0  0  0
  151.9678  139.1002  155.8851 C   0  0  0  0  0  0  0  0  0  0  0  0
  152.3641  137.8588  156.2094 N   0  0  0  0  0  0  0  0  0  0  0  0
  151.7847  136.8761  155.4179 N   0  0  0  0  0  0  0  0  0  0  0  0
  150.9559  137.4039  154.5174 C   0  0  0  0  0  0  0  0  0  0  0  0
  150.8042  139.1479  154.5574 S   0  0  0  0  0  0  0  0  0  0  0  0
  152.6682  142.2757  157.6497 H   0  0  0  0  0  0  0  0  0  0  0  0
  151.1379  141.8293  159.9831 H   0  0  0  0  0  0  0  0  0  0  0  0
  152.7986  141.4007  160.3477 H   0  0  0  0  0  0  0  0  0  0  0  0
  153.6077  143.6262  159.8213 H   0  0  0  0  0  0  0  0  0  0  0  0
  150.9690  143.9274  161.3373 H   0  0  0  0  0  0  0  0  0  0  0  0
  152.6288  144.3938  161.8695 H   0  0  0  0  0  0  0  0  0  0  0  0
  150.9616  146.0931  160.2020 H   0  0  0  0  0  0  0  0  0  0  0  0
  152.7682  146.1207  160.1363 H   0  0  0  0  0  0  0  0  0  0  0  0
  152.4850  144.8288  158.0718 H   0  0  0  0  0  0  0  0  0  0  0  0
  150.8658  144.2397  158.6070 H   0  0  0  0  0  0  0  0  0  0  0  0
  150.4278  136.7625  153.8280 H   0  0  0  0  0  0  0  0  0  0  0  0
  1  2  2  0  0  0  0
  2  3  1  0  0  0  0
  2  9  1  0  0  0  0
  3  4  1  0  0  0  0
  3 15  1  0  0  0  0
  4  5  1  0  0  0  0
  4 16  1  0  0  0  0
  4 17  1  0  0  0  0
  5  8  1  0  0  0  0
  5  6  1  0  0  0  0
  5 18  1  0  0  0  0
  6  7  1  0  0  0  0
  6 19  1  0  0  0  0
  6 20  1  0  0  0  0
  7  8  1  0  0  0  0
  7 21  1  0  0  0  0
  7 22  1  0  0  0  0
  8 23  1  0  0  0  0
  8 24  1  0  0  0  0
  9 10  1  0  0  0  0
 10 14  1  0  0  0  0
 10 11  2  0  0  0  0
 11 12  1  0  0  0  0
 12 13  2  0  0  0  0
 13 14  1  0  0  0  0
 13 25  1  0  0  0  0
M  CHG  1   9  -1
M  END
> <s_m_source_file>
AV-unprocessed.smi

> <i_m_source_file_index>
2011

> <i_lp_mmshare_version>
43012

> <i_f3d_flags>
0

> <s_epik_input>
czFbY0hdbm5jMVtOSF1DKD1PKVtOSF1bQ0gyXVtDSF0yW0NIMl1bQ0gyXVtDSDJdMg==

> <s_epik_cmdline>
J2VwaWtfcHl0aG9uJywgJy1waCcsICc3LjAnLCAnLXRuJywgJzgnLCAnLW1hJywgJzIwMCcsICctbWV0YWxfYmluZGluZycsICctaW1hZScsICc8aW5maWxlLm1hZT4nLCAnLW9tYWUnLCAnPG91dGZpbGUubWFlPic=

> <r_lp_tautomer_probability>
1

> <r_epik_Ionization_Penalty>
4.51229

> <r_epik_Ionization_Penalty_Charging>
4.46823

> <r_epik_Ionization_Penalty_Neutral>
0.0440628

> <r_epik_State_Penalty>
4.46792

> <r_epik_Charging_Adjusted_Penalty>
8.93614

> <i_epik_Tot_Q>
-1

> <i_epik_Tot_abs_Q>
1

> <r_epik_Metal_State_Penalty>
0.803637

> <b_epik_Metal_Only>
1

> <s_lp_Force_Field>
OPLS_2005

> <r_lp_Energy>
10.4468

> <b_lp_Chiralities_Consistent>
1

> <s_lp_Variant>
AV-unprocessed.smi:2011-2

> <Gold.Version>
5.8.1

> <Gold.Id.Protein>
6NUR|6NUR_protein|mol2

> <Gold.PLP.Fitness>
42.5943

> <Gold.PLP.PLP>
-31.8410

> <Gold.PLP.part.hbond>
-2.0000

> <Gold.PLP.part.metal>
0.0000

> <Gold.PLP.part.buried>
-1.2682

> <Gold.PLP.part.nonpolar>
-27.7801

> <Gold.PLP.part.repulsive>
0.1503

> <Gold.PLP.ligand.clash>
0.0000

> <Gold.PLP.ligand.torsion>
0.7568

> <Gold.PLP.Chemscore.Hbond>
3.0000

> <Gold.PLP.Chemscore.CHOScore>
1.0627

> <Gold.PLP.Chemscore.Metal>
0.0000

> <Gold.Chemscore.Hbonds>
donor molecule, donor type, donor heavy atom, donor atom, acceptor molecule, acceptor atom, score
      P1  H  7997  8008       L1     9  2.00
      P1  H 10752 10763       L1    12  1.00
      L1  C    13    25       P1  7948  0.66
      L1  C    13    25       P1  7949  0.37

> <Gold.PLP.Chemscore.Internal.Correction>
0.0789

> <Gold.Rescore>
     Score         DG    S(hbond)    S(metal)    S(lipo)     H(rot)  DE(clash)    DE(int)     intcor
     15.08     -16.01       1.58        0.00      73.81       1.32       0.05       0.88       ----

> <Gold.Chemscore.Fitness>
15.0811

> <Gold.Chemscore.DG>
-16.0123

> <Gold.Chemscore.ZeroCoef>
-5.4800

> <Gold.Chemscore.Hbond>
1.5831

> <Gold.Chemscore.Metal>
0.0000

> <Gold.Chemscore.Lipo>
73.8108

> <Gold.Chemscore.Internal_Hbond>
0.0000

> <Gold.Chemscore.DEClash>
0.0536

> <Gold.Chemscore.DEInternal>
0.8776

> <Gold.Chemscore.Rot>
1.3247

> <Gold.Chemscore.Internal.Correction>
   9.000000E+99

> <Gold.Chemscore.Hbonds>
donor molecule, donor type, donor heavy atom, donor atom, acceptor molecule, acceptor atom, score
      P1  H  7997  8008       L1     9  0.24
      P1  H 10752 10763       L1    12  0.82

> <Gold.Chemscore.Hbond.Weighted>
-5.2876

> <Gold.Chemscore.Metal.Weighted>
-0.0000

> <Gold.Chemscore.Lipo.Weighted>
-8.6359

> <Gold.Chemscore.Internal_Hbond.Weighted>
0.0000

> <Gold.Chemscore.DEClash.Weighted>
0.0536

> <Gold.Chemscore.DEInternal.Weighted>
0.8776

> <Gold.Chemscore.Rot.Weighted>
3.3912

> <Gold.Chemscore.Internal.Correction.Weighted>
   9.000000E+99

> <Gold.Protein.RotatedTorsions>
[ 6907 6896 6895 6894 ] final  -99.82 input  -60.11 | X-H torsion
[ 7974 7965 7964 7962 ] final   22.46 input  175.53 | X-H torsion
[ 8008 7997 7996 7995 ] final  -47.78 input   59.86 | X-H torsion
[ 10167 10162 10161 10158 ] final -152.67 input  -65.29 | X-H torsion
[ 10718 10713 10712 10709 ] final  171.12 input   66.30 | X-H torsion
[ 10763 10752 10751 10750 ] final   72.59 input  -60.55 | X-H torsion
[ 11005 11000 10999 10996 ] final   -8.87 input  -57.11 | X-H torsion

> <Gold.Protein.ActiveResidues>
 VAL166  LYS551  ARG553  GLY616  TRP617  ASP618  TYR619  PRO620  LYS621  CYS622 
 ASP623  PHE694  ASN695  SER759  ASP760  ASP761  ALA762  ILE779  LEU786  VAL792 
 PHE793  MET794  SER795  GLU796  ALA797  LYS798  CYS799  TRP800  GLU811  SER814 

> <Gold.Protein.RotatedAtoms>
  150.7093  134.0981  159.3955 H   0  0  0  0  0  0  0  0  0  0  0  0  # atno 6907 bound_to 6896
  151.8967  135.0392  160.0512 H   0  0  0  0  0  0  0  0  0  0  0  0  # atno 6908 bound_to 6896
  152.2447  133.5129  159.5327 H   0  0  0  0  0  0  0  0  0  0  0  0  # atno 6909 bound_to 6896
  146.2028  139.7883  142.8749 H   0  0  0  0  0  0  0  0  0  0  0  0  # atno 7974 bound_to 7965
  154.4020  140.1338  156.4231 H   0  0  0  0  0  0  0  0  0  0  0  0  # atno 8008 bound_to 7997
  155.7623  140.3486  155.5184 H   0  0  0  0  0  0  0  0  0  0  0  0  # atno 8009 bound_to 7997
  155.8847  140.0993  157.1451 H   0  0  0  0  0  0  0  0  0  0  0  0  # atno 8010 bound_to 7997
  139.7162  143.9030  152.2487 H   0  0  0  0  0  0  0  0  0  0  0  0  # atno 10167 bound_to 10162
  156.9981  131.0168  151.2838 H   0  0  0  0  0  0  0  0  0  0  0  0  # atno 10718 bound_to 10713
  153.0468  135.5094  154.7767 H   0  0  0  0  0  0  0  0  0  0  0  0  # atno 10763 bound_to 10752
  154.6660  135.2946  154.9806 H   0  0  0  0  0  0  0  0  0  0  0  0  # atno 10764 bound_to 10752
  154.0641  135.6687  153.4868 H   0  0  0  0  0  0  0  0  0  0  0  0  # atno 10765 bound_to 10752
  140.7281  133.8772  155.8871 H   0  0  0  0  0  0  0  0  0  0  0  0  # atno 11005 bound_to 11000
  145.3425  141.0291  143.3384 LP  0  0  0  0  0  0  0  0  0  0  0  0  # atno 17320 bound_to 7965
  144.8722  139.5022  143.6762 LP  0  0  0  0  0  0  0  0  0  0  0  0  # atno 17321 bound_to 7965
  139.8913  144.6964  150.8767 LP  0  0  0  0  0  0  0  0  0  0  0  0  # atno 17342 bound_to 10162
  140.7744  143.3584  151.1875 LP  0  0  0  0  0  0  0  0  0  0  0  0  # atno 17343 bound_to 10162
  157.5410  130.8120  149.8029 LP  0  0  0  0  0  0  0  0  0  0  0  0  # atno 17370 bound_to 10713
  156.0181  130.3806  150.2046 LP  0  0  0  0  0  0  0  0  0  0  0  0  # atno 17371 bound_to 10713
  140.9945  134.1233  157.4376 LP  0  0  0  0  0  0  0  0  0  0  0  0  # atno 17394 bound_to 11000
  139.8832  135.0050  156.6287 LP  0  0  0  0  0  0  0  0  0  0  0  0  # atno 17395 bound_to 11000

$$$$
