AV-unprocessed.smi:2668|AV-procd|sdf|10342|dock6
  -GOLD-   2272014363D 1   1.00000     0.00000
 Structure written by MMmdl.
 53 54  0  0  0  0  0  0  0  0  2 V2000
  152.0075  137.2950  157.4598 C   0  0  0  0  0  0  0  0  0  0  0  0
  151.5924  138.2136  156.4018 N   0  0  0  0  0  0  0  0  0  0  0  0
  152.6400  139.2275  156.2974 C   0  0  0  0  0  0  0  0  0  0  0  0
  151.3645  137.5211  155.1176 C   0  0  2  0  0  0  0  0  0  0  0  0
  151.0880  138.4917  153.9471 C   0  0  0  0  0  0  0  0  0  0  0  0
  149.7154  139.1760  154.0718 C   0  0  0  0  0  0  0  0  0  0  0  0
  148.6063  138.1776  154.1383 N   0  3  2  0  0  0  0  0  0  0  0  0
  147.2127  138.7479  154.0319 C   0  0  0  0  0  0  0  0  0  0  0  0
  146.8223  139.4429  155.3613 C   0  0  0  0  0  0  0  0  0  0  0  0
  147.1845  139.8575  152.9496 C   0  0  0  0  0  0  0  0  0  0  0  0
  146.1729  137.6352  153.6993 C   0  0  0  0  0  0  0  0  0  0  0  0
  144.8078  138.1377  153.5473 N   0  0  0  0  0  0  0  0  0  0  0  0
  143.7108  137.5950  154.0950 C   0  0  0  0  0  0  0  0  0  0  0  0
  143.7310  136.5791  154.7893 O   0  0  0  0  0  0  0  0  0  0  0  0
  142.6143  138.3120  153.7945 N   0  0  0  0  0  0  0  0  0  0  0  0
  141.2667  138.0713  154.1766 C   0  0  0  0  0  0  0  0  0  0  0  0
  140.1721  138.8877  153.8011 C   0  0  0  0  0  0  0  0  0  0  0  0
  138.8844  138.5517  154.2615 C   0  0  0  0  0  0  0  0  0  0  0  0
  138.7381  137.4181  155.0840 C   0  0  0  0  0  0  0  0  0  0  0  0
  139.7736  136.6390  155.4607 N   0  0  0  0  0  0  0  0  0  0  0  0
  141.0053  136.9677  155.0164 C   0  0  0  0  0  0  0  0  0  0  0  0
  148.8252  137.2242  155.2676 C   0  0  0  0  0  0  0  0  0  0  0  0
  150.1884  136.5187  155.1564 C   0  0  0  0  0  0  0  0  0  0  0  0
  151.2049  136.6136  157.7373 H   0  0  0  0  0  0  0  0  0  0  0  0
  152.2662  137.8409  158.3682 H   0  0  0  0  0  0  0  0  0  0  0  0
  152.8767  136.7079  157.1596 H   0  0  0  0  0  0  0  0  0  0  0  0
  152.3406  140.0554  155.6572 H   0  0  0  0  0  0  0  0  0  0  0  0
  153.5670  138.8039  155.9082 H   0  0  0  0  0  0  0  0  0  0  0  0
  152.8539  139.6649  157.2736 H   0  0  0  0  0  0  0  0  0  0  0  0
  152.2738  136.9627  154.8890 H   0  0  0  0  0  0  0  0  0  0  0  0
  151.8746  139.2343  153.8255 H   0  0  0  0  0  0  0  0  0  0  0  0
  151.1035  137.9240  153.0156 H   0  0  0  0  0  0  0  0  0  0  0  0
  149.7057  139.8116  154.9574 H   0  0  0  0  0  0  0  0  0  0  0  0
  149.6085  139.8326  153.2113 H   0  0  0  0  0  0  0  0  0  0  0  0
  145.9148  140.0385  155.2539 H   0  0  0  0  0  0  0  0  0  0  0  0
  147.6077  140.1180  155.7038 H   0  0  0  0  0  0  0  0  0  0  0  0
  146.6172  138.7303  156.1598 H   0  0  0  0  0  0  0  0  0  0  0  0
  146.2657  140.4433  152.9928 H   0  0  0  0  0  0  0  0  0  0  0  0
  147.2337  139.4538  151.9387 H   0  0  0  0  0  0  0  0  0  0  0  0
  148.0119  140.5572  153.0743 H   0  0  0  0  0  0  0  0  0  0  0  0
  146.4617  137.0830  152.8045 H   0  0  0  0  0  0  0  0  0  0  0  0
  146.1350  136.8986  154.5013 H   0  0  0  0  0  0  0  0  0  0  0  0
  144.6930  138.9740  152.9934 H   0  0  0  0  0  0  0  0  0  0  0  0
  142.7701  139.1666  153.2800 H   0  0  0  0  0  0  0  0  0  0  0  0
  140.2934  139.7662  153.1867 H   0  0  0  0  0  0  0  0  0  0  0  0
  138.0285  139.1532  153.9935 H   0  0  0  0  0  0  0  0  0  0  0  0
  137.7643  137.1336  155.4545 H   0  0  0  0  0  0  0  0  0  0  0  0
  141.8102  136.3237  155.3400 H   0  0  0  0  0  0  0  0  0  0  0  0
  148.7641  137.7474  156.2219 H   0  0  0  0  0  0  0  0  0  0  0  0
  148.0650  136.4462  155.2860 H   0  0  0  0  0  0  0  0  0  0  0  0
  150.1986  135.9386  154.2325 H   0  0  0  0  0  0  0  0  0  0  0  0
  150.3008  135.7749  155.9436 H   0  0  0  0  0  0  0  0  0  0  0  0
  148.7109  137.6184  153.3038 H   0  0  0  0  0  0  0  0  0  0  0  0
  1  2  1  0  0  0  0
  1 24  1  0  0  0  0
  1 25  1  0  0  0  0
  1 26  1  0  0  0  0
  2  3  1  0  0  0  0
  2  4  1  0  0  0  0
  3 27  1  0  0  0  0
  3 28  1  0  0  0  0
  3 29  1  0  0  0  0
  4 23  1  0  0  0  0
  4  5  1  0  0  0  0
  4 30  1  0  0  0  0
  5  6  1  0  0  0  0
  5 31  1  0  0  0  0
  5 32  1  0  0  0  0
  6  7  1  0  0  0  0
  6 33  1  0  0  0  0
  6 34  1  0  0  0  0
  7  8  1  0  0  0  0
  7 22  1  0  0  0  0
  7 53  1  0  0  0  0
  8  9  1  0  0  0  0
  8 10  1  0  0  0  0
  8 11  1  0  0  0  0
  9 35  1  0  0  0  0
  9 36  1  0  0  0  0
  9 37  1  0  0  0  0
 10 38  1  0  0  0  0
 10 39  1  0  0  0  0
 10 40  1  0  0  0  0
 11 12  1  0  0  0  0
 11 41  1  0  0  0  0
 11 42  1  0  0  0  0
 12 13  1  0  0  0  0
 12 43  1  0  0  0  0
 13 14  2  0  0  0  0
 13 15  1  0  0  0  0
 15 16  1  0  0  0  0
 15 44  1  0  0  0  0
 16 21  1  0  0  0  0
 16 17  2  0  0  0  0
 17 18  1  0  0  0  0
 17 45  1  0  0  0  0
 18 19  2  0  0  0  0
 18 46  1  0  0  0  0
 19 20  1  0  0  0  0
 19 47  1  0  0  0  0
 20 21  2  0  0  0  0
 21 48  1  0  0  0  0
 22 23  1  0  0  0  0
 22 49  1  0  0  0  0
 22 50  1  0  0  0  0
 23 51  1  0  0  0  0
 23 52  1  0  0  0  0
M  CHG  1   7   1
M  END
> <s_m_source_file>
AV-unprocessed.smi

> <i_m_source_file_index>
2668

> <i_lp_mmshare_version>
43012

> <i_f3d_flags>
0

> <s_epik_input>
W0NIM11OKFtDSDNdKVtDSF0xW0NIMl1bQ0gyXU4oW0NIMl1bQ0gyXTEpQyhbQ0gzXSkoW0NIM10pW0NIMl1bTkhdQyg9TylbTkhdYzJbY0hdW2NIXVtjSF1uW2NIXTI=

> <s_epik_cmdline>
J2VwaWtfcHl0aG9uJywgJy1waCcsICc3LjAnLCAnLXRuJywgJzgnLCAnLW1hJywgJzIwMCcsICctbWV0YWxfYmluZGluZycsICctaW1hZScsICc8aW5maWxlLm1hZT4nLCAnLW9tYWUnLCAnPG91dGZpbGUubWFlPic=

> <r_epik_Ionization_Penalty>
1.32573

> <r_epik_Ionization_Penalty_Charging>
0.00219175

> <r_epik_Ionization_Penalty_Neutral>
1.32353

> <r_epik_State_Penalty>
1.51166

> <r_epik_Charging_Adjusted_Penalty>
1.51385

> <i_epik_Tot_Q>
1

> <i_epik_Tot_abs_Q>
1

> <r_epik_Metal_State_Penalty>
1.51178

> <b_epik_Metal_Only>
0

> <s_lp_Force_Field>
OPLS_2005

> <r_lp_Energy>
39.6139

> <b_lp_Chiralities_Consistent>
1

> <s_lp_Variant>
AV-unprocessed.smi:2668-5

> <Gold.Version>
5.8.1

> <Gold.Id.Protein>
6NUR|6NUR_protein|mol2

> <Gold.PLP.Fitness>
47.8116

> <Gold.PLP.PLP>
-33.4140

> <Gold.PLP.part.hbond>
-4.0000

> <Gold.PLP.part.metal>
0.0000

> <Gold.PLP.part.buried>
-3.3691

> <Gold.PLP.part.nonpolar>
-26.1276

> <Gold.PLP.part.repulsive>
0.1620

> <Gold.PLP.ligand.clash>
0.0000

> <Gold.PLP.ligand.torsion>
0.3493

> <Gold.PLP.Chemscore.Hbond>
4.9920

> <Gold.PLP.Chemscore.CHOScore>
0.0000

> <Gold.PLP.Chemscore.Metal>
0.0000

> <Gold.Chemscore.Hbonds>
donor molecule, donor type, donor heavy atom, donor atom, acceptor molecule, acceptor atom, score
      L1  H     7    53       P1  7948  2.00
      L1  H    12    43       P1 10175  1.00
      L1  H    15    44       P1 10175  1.00
      P1  H 11000 11005       L1    20  0.78

> <Gold.PLP.Chemscore.Internal.Correction>
0.1203

> <Gold.Rescore>
     Score         DG    S(hbond)    S(metal)    S(lipo)     H(rot)  DE(clash)    DE(int)     intcor
     21.46     -23.62       3.50        0.00      90.75       1.62       0.09       2.07       ----

> <Gold.Chemscore.Fitness>
21.4634

> <Gold.Chemscore.DG>
-23.6225

> <Gold.Chemscore.ZeroCoef>
-5.4800

> <Gold.Chemscore.Hbond>
3.4968

> <Gold.Chemscore.Metal>
0.0000

> <Gold.Chemscore.Lipo>
90.7482

> <Gold.Chemscore.Internal_Hbond>
0.0000

> <Gold.Chemscore.DEClash>
0.0937

> <Gold.Chemscore.DEInternal>
2.0654

> <Gold.Chemscore.Rot>
1.6228

> <Gold.Chemscore.Internal.Correction>
   9.000000E+99

> <Gold.Chemscore.Hbonds>
donor molecule, donor type, donor heavy atom, donor atom, acceptor molecule, acceptor atom, score
      L1  H     7    53       P1  7948  0.96
      L1  H    12    43       P1 10175  0.94
      L1  H    15    44       P1 10175  1.00
      P1  H 11000 11005       L1    20  0.25

> <Gold.Chemscore.Hbond.Weighted>
-11.6794

> <Gold.Chemscore.Metal.Weighted>
-0.0000

> <Gold.Chemscore.Lipo.Weighted>
-10.6175

> <Gold.Chemscore.Internal_Hbond.Weighted>
0.0000

> <Gold.Chemscore.DEClash.Weighted>
0.0937

> <Gold.Chemscore.DEInternal.Weighted>
2.0654

> <Gold.Chemscore.Rot.Weighted>
4.1545

> <Gold.Chemscore.Internal.Correction.Weighted>
   9.000000E+99

> <Gold.Protein.RotatedTorsions>
[ 6907 6896 6895 6894 ] final  166.40 input  -60.11 | X-H torsion
[ 7974 7965 7964 7962 ] final -165.63 input  175.53 | X-H torsion
[ 8008 7997 7996 7995 ] final  -81.60 input   59.86 | X-H torsion
[ 10167 10162 10161 10158 ] final   26.92 input  -65.29 | X-H torsion
[ 10718 10713 10712 10709 ] final  -39.89 input   66.30 | X-H torsion
[ 10763 10752 10751 10750 ] final  -45.37 input  -60.55 | X-H torsion
[ 11005 11000 10999 10996 ] final   61.80 input  -57.11 | X-H torsion

> <Gold.Protein.ActiveResidues>
 VAL166  LYS551  ARG553  GLY616  TRP617  ASP618  TYR619  PRO620  LYS621  CYS622 
 ASP623  PHE694  ASN695  SER759  ASP760  ASP761  ALA762  ILE779  LEU786  VAL792 
 PHE793  MET794  SER795  GLU796  ALA797  LYS798  CYS799  TRP800  GLU811  SER814 

> <Gold.Protein.RotatedAtoms>
  151.8795  133.3492  159.3761 H   0  0  0  0  0  0  0  0  0  0  0  0  # atno 6907 bound_to 6896
  150.7131  134.5033  159.5581 H   0  0  0  0  0  0  0  0  0  0  0  0  # atno 6908 bound_to 6896
  152.2581  134.8063  160.0486 H   0  0  0  0  0  0  0  0  0  0  0  0  # atno 6909 bound_to 6896
  144.7265  140.2786  143.6239 H   0  0  0  0  0  0  0  0  0  0  0  0  # atno 7974 bound_to 7965
  154.6000  140.0645  156.9355 H   0  0  0  0  0  0  0  0  0  0  0  0  # atno 8008 bound_to 7997
  155.2149  140.3325  155.4305 H   0  0  0  0  0  0  0  0  0  0  0  0  # atno 8009 bound_to 7997
  156.2312  140.1841  156.7222 H   0  0  0  0  0  0  0  0  0  0  0  0  # atno 8010 bound_to 7997
  140.4982  144.0357  150.6322 H   0  0  0  0  0  0  0  0  0  0  0  0  # atno 10167 bound_to 10162
  156.2874  130.4224  149.8273 H   0  0  0  0  0  0  0  0  0  0  0  0  # atno 10718 bound_to 10713
  154.0274  135.6661  153.4777 H   0  0  0  0  0  0  0  0  0  0  0  0  # atno 10763 bound_to 10752
  153.0555  135.5059  154.7966 H   0  0  0  0  0  0  0  0  0  0  0  0  # atno 10764 bound_to 10752
  154.6900  135.3059  154.9458 H   0  0  0  0  0  0  0  0  0  0  0  0  # atno 10765 bound_to 10752
  140.0136  134.6259  155.9744 H   0  0  0  0  0  0  0  0  0  0  0  0  # atno 11005 bound_to 11000
  145.7972  139.1950  143.2069 LP  0  0  0  0  0  0  0  0  0  0  0  0  # atno 17320 bound_to 7965
  146.0707  140.7872  142.9690 LP  0  0  0  0  0  0  0  0  0  0  0  0  # atno 17321 bound_to 7965
  140.3646  143.2889  152.0346 LP  0  0  0  0  0  0  0  0  0  0  0  0  # atno 17342 bound_to 10162
  139.4866  144.6277  151.7132 LP  0  0  0  0  0  0  0  0  0  0  0  0  # atno 17343 bound_to 10162
  156.5698  130.8420  151.3353 LP  0  0  0  0  0  0  0  0  0  0  0  0  # atno 17370 bound_to 10713
  157.7333  130.9728  150.1969 LP  0  0  0  0  0  0  0  0  0  0  0  0  # atno 17371 bound_to 10713
  141.1727  133.6538  156.4713 LP  0  0  0  0  0  0  0  0  0  0  0  0  # atno 17394 bound_to 11000
  140.4511  134.6928  157.5040 LP  0  0  0  0  0  0  0  0  0  0  0  0  # atno 17395 bound_to 11000

$$$$
