AV-unprocessed.smi:1740|AV-procd|sdf|7014|dock6
  -GOLD-   22720 8233D 1   1.00000     0.00000
 Structure written by MMmdl.
 52 54  0  0  0  0  0  0  0  0  4 V2000
  153.4006  132.8384  160.5388 N   0  5  0  0  0  0  0  0  0  0  0  0
  154.1290  132.9694  161.6659 C   0  0  0  0  0  0  0  0  0  0  0  0
  153.9819  132.3789  162.7332 O   0  0  0  0  0  0  0  0  0  0  0  0
  155.2570  133.9961  161.5158 C   0  0  0  0  0  0  0  0  0  0  0  0
  154.7328  135.2862  160.9993 N   0  3  2  0  0  0  0  0  0  0  0  0
  155.7991  136.1974  160.5028 C   0  0  0  0  0  0  0  0  0  0  0  0
  155.1995  137.4614  159.8635 C   0  0  0  0  0  0  0  0  0  0  0  0
  154.2720  138.1948  160.8492 C   0  0  1  0  0  0  0  0  0  0  0  0
  153.6347  139.3440  160.2125 N   0  0  0  0  0  0  0  0  0  0  0  0
  152.8861  139.2942  159.1014 C   0  0  0  0  0  0  0  0  0  0  0  0
  152.6306  138.2523  158.4979 O   0  0  0  0  0  0  0  0  0  0  0  0
  152.4462  140.5154  158.7546 N   0  0  0  0  0  0  0  0  0  0  0  0
  151.6089  140.8673  157.6576 C   0  0  0  0  0  0  0  0  0  0  0  0
  151.1020  139.8797  156.7735 C   0  0  0  0  0  0  0  0  0  0  0  0
  150.3380  140.2623  155.6551 C   0  0  0  0  0  0  0  0  0  0  0  0
  150.1048  141.6289  155.4261 C   0  0  0  0  0  0  0  0  0  0  0  0
  150.6102  142.5448  156.2775 N   0  3  0  0  0  0  0  0  0  0  0  0
  151.3400  142.2394  157.3796 C   0  0  0  0  0  0  0  0  0  0  0  0
  151.7945  143.3074  158.1865 N   0  0  0  0  0  0  0  0  0  0  0  0
  152.8018  144.2359  157.6859 C   0  0  0  0  0  0  0  0  0  0  0  0
  152.7655  145.4174  158.6515 C   0  0  0  0  0  0  0  0  0  0  0  0
  151.2866  145.4958  159.0181 C   0  0  0  0  0  0  0  0  0  0  0  0
  150.8340  144.0320  159.0129 C   0  0  0  0  0  0  0  0  0  0  0  0
  153.2001  137.2208  161.3628 C   0  0  0  0  0  0  0  0  0  0  0  0
  153.8402  135.9630  161.9737 C   0  0  0  0  0  0  0  0  0  0  0  0
  153.7766  132.2645  159.7742 H   0  0  0  0  0  0  0  0  0  0  0  0
  155.7128  134.1363  162.4976 H   0  0  0  0  0  0  0  0  0  0  0  0
  156.0418  133.6146  160.8607 H   0  0  0  0  0  0  0  0  0  0  0  0
  156.4569  136.4727  161.3286 H   0  0  0  0  0  0  0  0  0  0  0  0
  156.4182  135.6858  159.7653 H   0  0  0  0  0  0  0  0  0  0  0  0
  156.0039  138.1221  159.5380 H   0  0  0  0  0  0  0  0  0  0  0  0
  154.6444  137.1842  158.9661 H   0  0  0  0  0  0  0  0  0  0  0  0
  154.8591  138.5387  161.7035 H   0  0  0  0  0  0  0  0  0  0  0  0
  153.7855  140.2434  160.6457 H   0  0  0  0  0  0  0  0  0  0  0  0
  152.6552  141.2634  159.3995 H   0  0  0  0  0  0  0  0  0  0  0  0
  151.3077  138.8304  156.9214 H   0  0  0  0  0  0  0  0  0  0  0  0
  149.9488  139.5178  154.9759 H   0  0  0  0  0  0  0  0  0  0  0  0
  149.5381  142.0159  154.5915 H   0  0  0  0  0  0  0  0  0  0  0  0
  153.7885  143.7729  157.6494 H   0  0  0  0  0  0  0  0  0  0  0  0
  152.5432  144.5762  156.6822 H   0  0  0  0  0  0  0  0  0  0  0  0
  153.3576  145.1932  159.5400 H   0  0  0  0  0  0  0  0  0  0  0  0
  153.1472  146.3391  158.2116 H   0  0  0  0  0  0  0  0  0  0  0  0
  151.1092  145.9912  159.9730 H   0  0  0  0  0  0  0  0  0  0  0  0
  150.7483  146.0495  158.2477 H   0  0  0  0  0  0  0  0  0  0  0  0
  149.8127  143.9338  158.6424 H   0  0  0  0  0  0  0  0  0  0  0  0
  150.8692  143.6285  160.0249 H   0  0  0  0  0  0  0  0  0  0  0  0
  152.5722  137.7121  162.1070 H   0  0  0  0  0  0  0  0  0  0  0  0
  152.5396  136.9282  160.5448 H   0  0  0  0  0  0  0  0  0  0  0  0
  153.0514  135.2777  162.2864 H   0  0  0  0  0  0  0  0  0  0  0  0
  154.4081  136.2241  162.8680 H   0  0  0  0  0  0  0  0  0  0  0  0
  154.1581  135.0398  160.2051 H   0  0  0  0  0  0  0  0  0  0  0  0
  150.4249  143.5289  156.0830 H   0  0  0  0  0  0  0  0  0  0  0  0
  1  2  1  0  0  0  0
  1 26  1  0  0  0  0
  2  3  2  0  0  0  0
  2  4  1  0  0  0  0
  4  5  1  0  0  0  0
  4 27  1  0  0  0  0
  4 28  1  0  0  0  0
  5 25  1  0  0  0  0
  5  6  1  0  0  0  0
  5 51  1  0  0  0  0
  6  7  1  0  0  0  0
  6 29  1  0  0  0  0
  6 30  1  0  0  0  0
  7  8  1  0  0  0  0
  7 31  1  0  0  0  0
  7 32  1  0  0  0  0
  8  9  1  0  0  0  0
  8 24  1  0  0  0  0
  8 33  1  0  0  0  0
  9 10  1  0  0  0  0
  9 34  1  0  0  0  0
 10 11  2  0  0  0  0
 10 12  1  0  0  0  0
 12 13  1  0  0  0  0
 12 35  1  0  0  0  0
 13 18  1  0  0  0  0
 13 14  2  0  0  0  0
 14 15  1  0  0  0  0
 14 36  1  0  0  0  0
 15 16  2  0  0  0  0
 15 37  1  0  0  0  0
 16 17  1  0  0  0  0
 16 38  1  0  0  0  0
 17 18  2  0  0  0  0
 17 52  1  0  0  0  0
 18 19  1  0  0  0  0
 19 23  1  0  0  0  0
 19 20  1  0  0  0  0
 20 21  1  0  0  0  0
 20 39  1  0  0  0  0
 20 40  1  0  0  0  0
 21 22  1  0  0  0  0
 21 41  1  0  0  0  0
 21 42  1  0  0  0  0
 22 23  1  0  0  0  0
 22 43  1  0  0  0  0
 22 44  1  0  0  0  0
 23 45  1  0  0  0  0
 23 46  1  0  0  0  0
 24 25  1  0  0  0  0
 24 47  1  0  0  0  0
 24 48  1  0  0  0  0
 25 49  1  0  0  0  0
 25 50  1  0  0  0  0
M  CHG  1   1  -1
M  CHG  1   5   1
M  CHG  1  17   1
M  END
> <s_m_source_file>
AV-unprocessed.smi

> <i_m_source_file_index>
1740

> <i_lp_mmshare_version>
43012

> <i_f3d_flags>
0

> <s_epik_input>
W05IMl1DKD1PKVtDSDJdTjFbQ0gyXVtDSDJdW0NIXShbQ0gyXVtDSDJdMSlbTkhdQyg9TylbTkhdYzJbY0hdW2NIXVtjSF1uYzJOM1tDSDJdW0NIMl1bQ0gyXVtDSDJdMw==

> <s_epik_cmdline>
J2VwaWtfcHl0aG9uJywgJy1waCcsICc3LjAnLCAnLXRuJywgJzgnLCAnLW1hJywgJzIwMCcsICctbWV0YWxfYmluZGluZycsICctaW1hZScsICc8aW5maWxlLm1hZT4nLCAnLW9tYWUnLCAnPG91dGZpbGUubWFlPic=

> <r_lp_tautomer_probability>
0.999994

> <r_epik_Ionization_Penalty>
6.97817

> <r_epik_Ionization_Penalty_Charging>
6.97815

> <r_epik_Ionization_Penalty_Neutral>
1.88285e-05

> <r_epik_State_Penalty>
7.80985

> <r_epik_Charging_Adjusted_Penalty>
14.788

> <i_epik_Tot_Q>
1

> <i_epik_Tot_abs_Q>
3

> <r_epik_Metal_State_Penalty>
3.85728

> <b_epik_Metal_Only>
1

> <s_lp_Force_Field>
OPLS_2005

> <r_lp_Energy>
44.3343

> <b_lp_Chiralities_Consistent>
1

> <s_lp_Variant>
AV-unprocessed.smi:1740-9

> <Gold.Version>
5.8.1

> <Gold.Id.Protein>
6NUR|6NUR_protein|mol2

> <Gold.PLP.Fitness>
48.9374

> <Gold.PLP.PLP>
-37.2350

> <Gold.PLP.part.hbond>
-2.0000

> <Gold.PLP.part.metal>
0.0000

> <Gold.PLP.part.buried>
-6.1247

> <Gold.PLP.part.nonpolar>
-29.2379

> <Gold.PLP.part.repulsive>
0.3831

> <Gold.PLP.ligand.clash>
0.0000

> <Gold.PLP.ligand.torsion>
0.3456

> <Gold.PLP.Chemscore.Hbond>
3.9840

> <Gold.PLP.Chemscore.CHOScore>
0.0000

> <Gold.PLP.Chemscore.Metal>
0.0000

> <Gold.Chemscore.Hbonds>
donor molecule, donor type, donor heavy atom, donor atom, acceptor molecule, acceptor atom, score
      L1  H    17    52       P1  8028  1.60
      P1  H  6896  6907       L1     1  0.95

> <Gold.PLP.Chemscore.Internal.Correction>
0.4417

> <Gold.Rescore>
     Score         DG    S(hbond)    S(metal)    S(lipo)     H(rot)  DE(clash)    DE(int)     intcor
     14.59     -17.50       1.91        0.00      95.93       2.18       0.02       2.89       ----

> <Gold.Chemscore.Fitness>
14.5867

> <Gold.Chemscore.DG>
-17.5000

> <Gold.Chemscore.ZeroCoef>
-5.4800

> <Gold.Chemscore.Hbond>
1.9119

> <Gold.Chemscore.Metal>
0.0000

> <Gold.Chemscore.Lipo>
95.9275

> <Gold.Chemscore.Internal_Hbond>
0.0000

> <Gold.Chemscore.DEClash>
0.0230

> <Gold.Chemscore.DEInternal>
2.8904

> <Gold.Chemscore.Rot>
2.1832

> <Gold.Chemscore.Internal.Correction>
   9.000000E+99

> <Gold.Chemscore.Hbonds>
donor molecule, donor type, donor heavy atom, donor atom, acceptor molecule, acceptor atom, score
      L1  H    17    52       P1  8028  0.77
      P1  H  6896  6907       L1     1  0.15

> <Gold.Chemscore.Hbond.Weighted>
-6.3856

> <Gold.Chemscore.Metal.Weighted>
-0.0000

> <Gold.Chemscore.Lipo.Weighted>
-11.2235

> <Gold.Chemscore.Internal_Hbond.Weighted>
0.0000

> <Gold.Chemscore.DEClash.Weighted>
0.0230

> <Gold.Chemscore.DEInternal.Weighted>
2.8904

> <Gold.Chemscore.Rot.Weighted>
5.5891

> <Gold.Chemscore.Internal.Correction.Weighted>
   9.000000E+99

> <Gold.Protein.RotatedTorsions>
[ 6907 6896 6895 6894 ] final  109.31 input  -60.11 | X-H torsion
[ 7974 7965 7964 7962 ] final -169.52 input  175.53 | X-H torsion
[ 8008 7997 7996 7995 ] final -169.51 input   59.86 | X-H torsion
[ 10167 10162 10161 10158 ] final   43.93 input  -65.29 | X-H torsion
[ 10718 10713 10712 10709 ] final  120.80 input   66.30 | X-H torsion
[ 10763 10752 10751 10750 ] final  -39.96 input  -60.55 | X-H torsion
[ 11005 11000 10999 10996 ] final -134.51 input  -57.11 | X-H torsion

> <Gold.Protein.ActiveResidues>
 VAL166  LYS551  ARG553  GLY616  TRP617  ASP618  TYR619  PRO620  LYS621  CYS622 
 ASP623  PHE694  ASN695  SER759  ASP760  ASP761  ALA762  ILE779  LEU786  VAL792 
 PHE793  MET794  SER795  GLU796  ALA797  LYS798  CYS799  TRP800  GLU811  SER814 

> <Gold.Protein.RotatedAtoms>
  152.5073  133.8963  159.7418 H   0  0  0  0  0  0  0  0  0  0  0  0  # atno 6907 bound_to 6896
  150.9389  133.6670  159.2801 H   0  0  0  0  0  0  0  0  0  0  0  0  # atno 6908 bound_to 6896
  151.3989  135.0973  159.9602 H   0  0  0  0  0  0  0  0  0  0  0  0  # atno 6909 bound_to 6896
  144.7184  140.2209  143.6316 H   0  0  0  0  0  0  0  0  0  0  0  0  # atno 7974 bound_to 7965
  155.9059  140.1049  157.1315 H   0  0  0  0  0  0  0  0  0  0  0  0  # atno 8008 bound_to 7997
  154.4032  140.1283  156.4560 H   0  0  0  0  0  0  0  0  0  0  0  0  # atno 8009 bound_to 7997
  155.7367  140.3467  155.5087 H   0  0  0  0  0  0  0  0  0  0  0  0  # atno 8010 bound_to 7997
  140.3394  144.2489  150.6157 H   0  0  0  0  0  0  0  0  0  0  0  0  # atno 10167 bound_to 10162
  157.5864  131.1069  150.8086 H   0  0  0  0  0  0  0  0  0  0  0  0  # atno 10718 bound_to 10713
  153.9381  135.6764  153.4744 H   0  0  0  0  0  0  0  0  0  0  0  0  # atno 10763 bound_to 10752
  153.0945  135.4858  154.8750 H   0  0  0  0  0  0  0  0  0  0  0  0  # atno 10764 bound_to 10752
  154.7392  135.3156  154.8716 H   0  0  0  0  0  0  0  0  0  0  0  0  # atno 10765 bound_to 10752
  140.8983  134.1723  157.4479 H   0  0  0  0  0  0  0  0  0  0  0  0  # atno 11005 bound_to 11000
  145.8502  139.2172  143.1776 LP  0  0  0  0  0  0  0  0  0  0  0  0  # atno 17320 bound_to 7965
  146.0267  140.8296  142.9896 LP  0  0  0  0  0  0  0  0  0  0  0  0  # atno 17321 bound_to 7965
  140.5323  143.2240  151.8218 LP  0  0  0  0  0  0  0  0  0  0  0  0  # atno 17342 bound_to 10162
  139.4843  144.4704  151.9432 LP  0  0  0  0  0  0  0  0  0  0  0  0  # atno 17343 bound_to 10162
  156.8519  130.5083  149.5311 LP  0  0  0  0  0  0  0  0  0  0  0  0  # atno 17370 bound_to 10713
  156.0914  130.5898  150.9739 LP  0  0  0  0  0  0  0  0  0  0  0  0  # atno 17371 bound_to 10713
  139.8738  134.9887  156.5425 LP  0  0  0  0  0  0  0  0  0  0  0  0  # atno 17394 bound_to 11000
  140.8262  133.8315  155.8941 LP  0  0  0  0  0  0  0  0  0  0  0  0  # atno 17395 bound_to 11000

$$$$
