AV-unprocessed.smi:1183|AV-procd|sdf|4968|dock3
  -GOLD-   22720 3563D 1   1.00000     0.00000
 Structure written by MMmdl.
 42 43  0  0  0  0  0  0  0  0  1 V2000
  152.0124  144.6248  161.5466 C   0  0  0  0  0  0  0  0  0  0  0  0
  152.1711  143.1799  161.0675 C   0  0  0  0  0  0  0  0  0  0  0  0
  151.9658  142.2759  161.8775 O   0  0  0  0  0  0  0  0  0  0  0  0
  152.5358  142.9437  159.7843 N   0  0  0  0  0  0  0  0  0  0  0  0
  152.6680  141.6179  159.1687 C   0  0  0  0  0  0  0  0  0  0  0  0
  151.5033  141.4109  158.1849 C   0  0  0  0  0  0  0  0  0  0  0  0
  151.4494  142.5398  157.1291 C   0  0  0  0  0  0  0  0  0  0  0  0
  150.2248  142.4463  156.3404 N   0  0  0  0  0  0  0  0  0  0  0  0
  149.9472  141.4846  155.4470 C   0  0  0  0  0  0  0  0  0  0  0  0
  150.7217  140.5616  155.1888 O   0  0  0  0  0  0  0  0  0  0  0  0
  148.5846  141.6005  154.7522 C   0  0  0  0  0  0  0  0  0  0  0  0
  148.0984  140.3296  154.2333 N   0  0  0  0  0  0  0  0  0  0  0  0
  147.5442  140.2900  153.0019 N   0  0  0  0  0  0  0  0  0  0  0  0
  147.2057  139.0239  152.8224 C   0  0  0  0  0  0  0  0  0  0  0  0
  146.5490  138.6109  151.5383 C   0  0  0  0  0  0  0  0  0  0  0  0
  147.5405  138.2125  153.9424 C   0  0  0  0  0  0  0  0  0  0  0  0
  148.1097  139.0812  154.8302 C   0  0  0  0  0  0  0  0  0  0  0  0
  148.6631  138.8395  156.1959 C   0  0  0  0  0  0  0  0  0  0  0  0
  151.5336  143.9346  157.7869 C   0  0  0  0  0  0  0  0  0  0  0  0
  152.6955  144.0144  158.7940 C   0  0  0  0  0  0  0  0  0  0  0  0
  152.9399  145.1821  161.4117 H   0  0  0  0  0  0  0  0  0  0  0  0
  151.7603  144.6520  162.6073 H   0  0  0  0  0  0  0  0  0  0  0  0
  151.2133  145.1276  161.0013 H   0  0  0  0  0  0  0  0  0  0  0  0
  153.6180  141.5638  158.6350 H   0  0  0  0  0  0  0  0  0  0  0  0
  152.6954  140.8024  159.8896 H   0  0  0  0  0  0  0  0  0  0  0  0
  151.6019  140.4414  157.6954 H   0  0  0  0  0  0  0  0  0  0  0  0
  150.5660  141.3807  158.7429 H   0  0  0  0  0  0  0  0  0  0  0  0
  152.3113  142.4348  156.4671 H   0  0  0  0  0  0  0  0  0  0  0  0
  149.5333  143.1668  156.4894 H   0  0  0  0  0  0  0  0  0  0  0  0
  147.8536  142.0022  155.4558 H   0  0  0  0  0  0  0  0  0  0  0  0
  148.6553  142.3122  153.9293 H   0  0  0  0  0  0  0  0  0  0  0  0
  146.3255  137.5440  151.5358 H   0  0  0  0  0  0  0  0  0  0  0  0
  147.1938  138.8168  150.6835 H   0  0  0  0  0  0  0  0  0  0  0  0
  145.6114  139.1464  151.3869 H   0  0  0  0  0  0  0  0  0  0  0  0
  147.3842  137.1523  154.0750 H   0  0  0  0  0  0  0  0  0  0  0  0
  148.5477  137.7943  156.4834 H   0  0  0  0  0  0  0  0  0  0  0  0
  148.1476  139.4495  156.9380 H   0  0  0  0  0  0  0  0  0  0  0  0
  149.7251  139.0825  156.2341 H   0  0  0  0  0  0  0  0  0  0  0  0
  151.6512  144.7025  157.0214 H   0  0  0  0  0  0  0  0  0  0  0  0
  150.5997  144.1562  158.3060 H   0  0  0  0  0  0  0  0  0  0  0  0
  152.7281  145.0067  159.2459 H   0  0  0  0  0  0  0  0  0  0  0  0
  153.6491  143.8924  158.2783 H   0  0  0  0  0  0  0  0  0  0  0  0
  1  2  1  0  0  0  0
  1 21  1  0  0  0  0
  1 22  1  0  0  0  0
  1 23  1  0  0  0  0
  2  3  2  0  0  0  0
  2  4  1  0  0  0  0
  4 20  1  0  0  0  0
  4  5  1  0  0  0  0
  5  6  1  0  0  0  0
  5 24  1  0  0  0  0
  5 25  1  0  0  0  0
  6  7  1  0  0  0  0
  6 26  1  0  0  0  0
  6 27  1  0  0  0  0
  7  8  1  0  0  0  0
  7 19  1  0  0  0  0
  7 28  1  0  0  0  0
  8  9  1  0  0  0  0
  8 29  1  0  0  0  0
  9 10  2  0  0  0  0
  9 11  1  0  0  0  0
 11 12  1  0  0  0  0
 11 30  1  0  0  0  0
 11 31  1  0  0  0  0
 12 17  1  0  0  0  0
 12 13  1  0  0  0  0
 13 14  2  0  0  0  0
 14 15  1  0  0  0  0
 14 16  1  0  0  0  0
 15 32  1  0  0  0  0
 15 33  1  0  0  0  0
 15 34  1  0  0  0  0
 16 17  2  0  0  0  0
 16 35  1  0  0  0  0
 17 18  1  0  0  0  0
 18 36  1  0  0  0  0
 18 37  1  0  0  0  0
 18 38  1  0  0  0  0
 19 20  1  0  0  0  0
 19 39  1  0  0  0  0
 19 40  1  0  0  0  0
 20 41  1  0  0  0  0
 20 42  1  0  0  0  0
M  END
> <s_m_source_file>
AV-unprocessed.smi

> <i_m_source_file_index>
1183

> <i_lp_mmshare_version>
43012

> <i_f3d_flags>
0

> <s_epik_input>
W0NIM11DKD1PKU4xW0NIMl1bQ0gyXVtDSF0oW0NIMl1bQ0gyXTEpW05IXUMoPU8pW0NIMl1uMm5jKFtDSDNdKVtjSF1jMltDSDNd

> <s_epik_cmdline>
J2VwaWtfcHl0aG9uJywgJy1waCcsICc3LjAnLCAnLXRuJywgJzgnLCAnLW1hJywgJzIwMCcsICctbWV0YWxfYmluZGluZycsICctaW1hZScsICc8aW5maWxlLm1hZT4nLCAnLW9tYWUnLCAnPG91dGZpbGUubWFlPic=

> <r_lp_tautomer_probability>
1

> <r_epik_Ionization_Penalty>
0.000413777

> <r_epik_Ionization_Penalty_Charging>
0

> <r_epik_Ionization_Penalty_Neutral>
0.000413777

> <r_epik_State_Penalty>
-0

> <r_epik_Charging_Adjusted_Penalty>
0

> <i_epik_Tot_Q>
0

> <i_epik_Tot_abs_Q>
0

> <r_epik_Metal_State_Penalty>
-0

> <b_epik_Metal_Only>
0

> <s_lp_Force_Field>
OPLS_2005

> <r_lp_Energy>
21.0351

> <b_lp_Chiralities_Consistent>
1

> <s_lp_Variant>
AV-unprocessed.smi:1183-1

> <Gold.Version>
5.8.1

> <Gold.Id.Protein>
6NUR|6NUR_protein|mol2

> <Gold.PLP.Fitness>
47.2299

> <Gold.PLP.PLP>
-40.5173

> <Gold.PLP.part.hbond>
-3.0000

> <Gold.PLP.part.metal>
0.0000

> <Gold.PLP.part.buried>
-3.2677

> <Gold.PLP.part.nonpolar>
-37.6076

> <Gold.PLP.part.repulsive>
2.5871

> <Gold.PLP.ligand.clash>
0.0000

> <Gold.PLP.ligand.torsion>
0.6709

> <Gold.PLP.Chemscore.Hbond>
2.6786

> <Gold.PLP.Chemscore.CHOScore>
0.0000

> <Gold.PLP.Chemscore.Metal>
0.0000

> <Gold.Chemscore.Hbonds>
donor molecule, donor type, donor heavy atom, donor atom, acceptor molecule, acceptor atom, score
      L1  H     8    29       P1  8028  0.80
      P1  H  6933  6945       L1     3  0.85
      P1  H  7989  7998       L1    10  0.96

> <Gold.PLP.Chemscore.Internal.Correction>
0.0188

> <Gold.Rescore>
     Score         DG    S(hbond)    S(metal)    S(lipo)     H(rot)  DE(clash)    DE(int)     intcor
     18.45     -19.68       2.21        0.00      89.11       1.41       0.74       0.49       ----

> <Gold.Chemscore.Fitness>
18.4538

> <Gold.Chemscore.DG>
-19.6827

> <Gold.Chemscore.ZeroCoef>
-5.4800

> <Gold.Chemscore.Hbond>
2.2086

> <Gold.Chemscore.Metal>
0.0000

> <Gold.Chemscore.Lipo>
89.1141

> <Gold.Chemscore.Internal_Hbond>
0.0000

> <Gold.Chemscore.DEClash>
0.7390

> <Gold.Chemscore.DEInternal>
0.4899

> <Gold.Chemscore.Rot>
1.4064

> <Gold.Chemscore.Internal.Correction>
   9.000000E+99

> <Gold.Chemscore.Hbonds>
donor molecule, donor type, donor heavy atom, donor atom, acceptor molecule, acceptor atom, score
      L1  H     8    29       P1  8028  0.80
      P1  H  6933  6945       L1     3  0.77
      P1  H  7989  7998       L1    10  0.68

> <Gold.Chemscore.Hbond.Weighted>
-7.3766

> <Gold.Chemscore.Metal.Weighted>
-0.0000

> <Gold.Chemscore.Lipo.Weighted>
-10.4264

> <Gold.Chemscore.Internal_Hbond.Weighted>
0.0000

> <Gold.Chemscore.DEClash.Weighted>
0.7390

> <Gold.Chemscore.DEInternal.Weighted>
0.4899

> <Gold.Chemscore.Rot.Weighted>
3.6003

> <Gold.Chemscore.Internal.Correction.Weighted>
   9.000000E+99

> <Gold.Protein.RotatedTorsions>
[ 6907 6896 6895 6894 ] final  -26.39 input  -60.11 | X-H torsion
[ 7974 7965 7964 7962 ] final  154.85 input  175.53 | X-H torsion
[ 8008 7997 7996 7995 ] final  -45.04 input   59.86 | X-H torsion
[ 10167 10162 10161 10158 ] final -138.87 input  -65.29 | X-H torsion
[ 10718 10713 10712 10709 ] final  -69.95 input   66.30 | X-H torsion
[ 10763 10752 10751 10750 ] final  -93.45 input  -60.55 | X-H torsion
[ 11005 11000 10999 10996 ] final  122.76 input  -57.11 | X-H torsion

> <Gold.Protein.ActiveResidues>
 VAL166  LYS551  ARG553  GLY616  TRP617  ASP618  TYR619  PRO620  LYS621  CYS622 
 ASP623  PHE694  ASN695  SER759  ASP760  ASP761  ALA762  ILE779  LEU786  VAL792 
 PHE793  MET794  SER795  GLU796  ALA797  LYS798  CYS799  TRP800  GLU811  SER814 

> <Gold.Protein.RotatedAtoms>
  151.1617  135.0276  159.8712 H   0  0  0  0  0  0  0  0  0  0  0  0  # atno 6907 bound_to 6896
  152.5451  134.1272  159.8434 H   0  0  0  0  0  0  0  0  0  0  0  0  # atno 6908 bound_to 6896
  151.1368  133.4953  159.2630 H   0  0  0  0  0  0  0  0  0  0  0  0  # atno 6909 bound_to 6896
  144.8062  139.6989  143.6161 H   0  0  0  0  0  0  0  0  0  0  0  0  # atno 7974 bound_to 7965
  154.3999  140.1407  156.3783 H   0  0  0  0  0  0  0  0  0  0  0  0  # atno 8008 bound_to 7997
  155.8028  140.3475  155.5392 H   0  0  0  0  0  0  0  0  0  0  0  0  # atno 8009 bound_to 7997
  155.8466  140.0935  157.1691 H   0  0  0  0  0  0  0  0  0  0  0  0  # atno 8010 bound_to 7997
  139.8436  143.7290  152.2662 H   0  0  0  0  0  0  0  0  0  0  0  0  # atno 10167 bound_to 10162
  156.0430  130.4322  150.2224 H   0  0  0  0  0  0  0  0  0  0  0  0  # atno 10718 bound_to 10713
  154.6960  135.5194  153.8459 H   0  0  0  0  0  0  0  0  0  0  0  0  # atno 10763 bound_to 10752
  153.0667  135.6587  154.0347 H   0  0  0  0  0  0  0  0  0  0  0  0  # atno 10764 bound_to 10752
  154.0214  135.2993  155.3360 H   0  0  0  0  0  0  0  0  0  0  0  0  # atno 10765 bound_to 10752
  139.9283  134.9641  156.8158 H   0  0  0  0  0  0  0  0  0  0  0  0  # atno 11005 bound_to 11000
  146.2354  139.5894  142.9527 LP  0  0  0  0  0  0  0  0  0  0  0  0  # atno 17320 bound_to 7965
  145.5432  141.0419  143.2319 LP  0  0  0  0  0  0  0  0  0  0  0  0  # atno 17321 bound_to 7965
  139.7535  144.7527  151.0471 LP  0  0  0  0  0  0  0  0  0  0  0  0  # atno 17342 bound_to 10162
  140.7795  143.4833  150.9990 LP  0  0  0  0  0  0  0  0  0  0  0  0  # atno 17343 bound_to 10162
  157.0317  131.0009  151.3310 LP  0  0  0  0  0  0  0  0  0  0  0  0  # atno 17370 bound_to 10713
  157.5273  130.8036  149.7876 LP  0  0  0  0  0  0  0  0  0  0  0  0  # atno 17371 bound_to 10713
  140.6275  133.9937  155.7646 LP  0  0  0  0  0  0  0  0  0  0  0  0  # atno 17394 bound_to 11000
  141.0855  133.9997  157.3320 LP  0  0  0  0  0  0  0  0  0  0  0  0  # atno 17395 bound_to 11000

$$$$
