AV-unprocessed.smi:150|AV-procd|sdf|1242|dock1
  -GOLD-   2262018463D 1   1.00000     0.00000
 Structure written by MMmdl.
 55 57  0  0  0  0  0  0  0  0  1 V2000
  144.8649  135.8379  150.5985 C   0  0  0  0  0  0  0  0  0  0  0  0
  144.7557  136.3062  152.0601 C   0  0  0  0  0  0  0  0  0  0  0  0
  143.3201  136.7628  152.3630 C   0  0  0  0  0  0  0  0  0  0  0  0
  145.7621  137.4302  152.3987 C   0  0  0  0  0  0  0  0  0  0  0  0
  146.3045  137.4331  153.8534 C   0  0  2  0  0  0  0  0  0  0  0  0
  145.1845  137.3681  154.9218 C   0  0  0  0  0  0  0  0  0  0  0  0
  145.7530  137.2819  156.2115 O   0  0  0  0  0  0  0  0  0  0  0  0
  147.2511  138.5373  154.0859 N   0  0  0  0  0  0  0  0  0  0  0  0
  146.7804  139.8961  153.8338 C   0  0  0  0  0  0  0  0  0  0  0  0
  148.2661  138.4609  154.9891 C   0  0  0  0  0  0  0  0  0  0  0  0
  148.5618  137.2793  155.5917 N   0  0  0  0  0  0  0  0  0  0  0  0
  149.5461  137.2026  156.4917 C   0  0  0  0  0  0  0  0  0  0  0  0
  150.3470  138.1721  156.9361 N   0  0  0  0  0  0  0  0  0  0  0  0
  150.0543  139.3641  156.3427 C   0  0  0  0  0  0  0  0  0  0  0  0
  149.0419  139.5946  155.3679 C   0  0  0  0  0  0  0  0  0  0  0  0
  149.0529  140.9314  154.9859 N   0  0  0  0  0  0  0  0  0  0  0  0
  150.0109  141.4600  155.6962 C   0  0  0  0  0  0  0  0  0  0  0  0
  150.6588  140.5925  156.5460 N   0  0  0  0  0  0  0  0  0  0  0  0
  151.7561  140.9137  157.4462 C   0  0  0  0  0  0  0  0  0  0  0  0
  151.4605  142.0884  158.4124 C   0  0  0  0  0  0  0  0  0  0  0  0
  150.1814  141.8706  158.9820 O   0  0  0  0  0  0  0  0  0  0  0  0
  152.5012  142.1181  159.5502 C   0  0  0  0  0  0  0  0  0  0  0  0
  152.3606  143.3684  160.4362 C   0  0  0  0  0  0  0  0  0  0  0  0
  152.4351  144.5418  159.6360 O   0  0  0  0  0  0  0  0  0  0  0  0
  151.3734  144.6308  158.6940 C   0  0  0  0  0  0  0  0  0  0  0  0
  151.4480  143.4586  157.6993 C   0  0  0  0  0  0  0  0  0  0  0  0
  144.7287  136.6682  149.9048 H   0  0  0  0  0  0  0  0  0  0  0  0
  144.1061  135.0890  150.3704 H   0  0  0  0  0  0  0  0  0  0  0  0
  145.8320  135.3825  150.3886 H   0  0  0  0  0  0  0  0  0  0  0  0
  144.9513  135.4468  152.7000 H   0  0  0  0  0  0  0  0  0  0  0  0
  143.0391  137.6209  151.7514 H   0  0  0  0  0  0  0  0  0  0  0  0
  143.2093  137.0494  153.4092 H   0  0  0  0  0  0  0  0  0  0  0  0
  142.6034  135.9650  152.1662 H   0  0  0  0  0  0  0  0  0  0  0  0
  146.5939  137.3592  151.6966 H   0  0  0  0  0  0  0  0  0  0  0  0
  145.2904  138.3910  152.1935 H   0  0  0  0  0  0  0  0  0  0  0  0
  146.8977  136.5273  153.9733 H   0  0  0  0  0  0  0  0  0  0  0  0
  144.4939  138.2084  154.8773 H   0  0  0  0  0  0  0  0  0  0  0  0
  144.5792  136.4728  154.7915 H   0  0  0  0  0  0  0  0  0  0  0  0
  146.5406  136.7624  156.1580 H   0  0  0  0  0  0  0  0  0  0  0  0
  147.3747  140.3638  153.0490 H   0  0  0  0  0  0  0  0  0  0  0  0
  146.8466  140.5127  154.7314 H   0  0  0  0  0  0  0  0  0  0  0  0
  145.7406  139.9007  153.5062 H   0  0  0  0  0  0  0  0  0  0  0  0
  149.7146  136.2246  156.9177 H   0  0  0  0  0  0  0  0  0  0  0  0
  150.2692  142.5065  155.6239 H   0  0  0  0  0  0  0  0  0  0  0  0
  152.0139  140.0148  158.0086 H   0  0  0  0  0  0  0  0  0  0  0  0
  152.6288  141.1473  156.8347 H   0  0  0  0  0  0  0  0  0  0  0  0
  150.0922  140.9510  159.1802 H   0  0  0  0  0  0  0  0  0  0  0  0
  152.4278  141.2165  160.1600 H   0  0  0  0  0  0  0  0  0  0  0  0
  153.5042  142.1140  159.1209 H   0  0  0  0  0  0  0  0  0  0  0  0
  151.4237  143.3537  160.9953 H   0  0  0  0  0  0  0  0  0  0  0  0
  153.1652  143.3954  161.1713 H   0  0  0  0  0  0  0  0  0  0  0  0
  150.4131  144.6473  159.2115 H   0  0  0  0  0  0  0  0  0  0  0  0
  151.4583  145.5770  158.1597 H   0  0  0  0  0  0  0  0  0  0  0  0
  152.3586  143.5635  157.1080 H   0  0  0  0  0  0  0  0  0  0  0  0
  150.6161  143.5249  156.9974 H   0  0  0  0  0  0  0  0  0  0  0  0
  1  2  1  0  0  0  0
  1 27  1  0  0  0  0
  1 28  1  0  0  0  0
  1 29  1  0  0  0  0
  2  3  1  0  0  0  0
  2  4  1  0  0  0  0
  2 30  1  0  0  0  0
  3 31  1  0  0  0  0
  3 32  1  0  0  0  0
  3 33  1  0  0  0  0
  4  5  1  0  0  0  0
  4 34  1  0  0  0  0
  4 35  1  0  0  0  0
  5  6  1  0  0  0  0
  5  8  1  0  0  0  0
  5 36  1  0  0  0  0
  6  7  1  0  0  0  0
  6 37  1  0  0  0  0
  6 38  1  0  0  0  0
  7 39  1  0  0  0  0
  8  9  1  0  0  0  0
  8 10  1  0  0  0  0
  9 40  1  0  0  0  0
  9 41  1  0  0  0  0
  9 42  1  0  0  0  0
 10 15  1  0  0  0  0
 10 11  2  0  0  0  0
 11 12  1  0  0  0  0
 12 13  2  0  0  0  0
 12 43  1  0  0  0  0
 13 14  1  0  0  0  0
 14 18  1  0  0  0  0
 14 15  2  0  0  0  0
 15 16  1  0  0  0  0
 16 17  2  0  0  0  0
 17 18  1  0  0  0  0
 17 44  1  0  0  0  0
 18 19  1  0  0  0  0
 19 20  1  0  0  0  0
 19 45  1  0  0  0  0
 19 46  1  0  0  0  0
 20 26  1  0  0  0  0
 20 21  1  0  0  0  0
 20 22  1  0  0  0  0
 21 47  1  0  0  0  0
 22 23  1  0  0  0  0
 22 48  1  0  0  0  0
 22 49  1  0  0  0  0
 23 24  1  0  0  0  0
 23 50  1  0  0  0  0
 23 51  1  0  0  0  0
 24 25  1  0  0  0  0
 25 26  1  0  0  0  0
 25 52  1  0  0  0  0
 25 53  1  0  0  0  0
 26 54  1  0  0  0  0
 26 55  1  0  0  0  0
M  END
> <s_m_source_file>
AV-unprocessed.smi

> <i_m_source_file_index>
150

> <i_lp_mmshare_version>
43012

> <i_f3d_flags>
0

> <s_epik_input>
W0NIM11bQ0hdKFtDSDNdKVtDSDJdW0NASF0oW0NIMl1bT0hdKU4oW0NIM10pYyhuW2NIXW4xKWMoYzEyKW5bY0hdbjJbQ0gyXUMzKFtPSF0pW0NIMl1bQ0gyXU9bQ0gyXVtDSDJdMw==

> <s_epik_cmdline>
J2VwaWtfcHl0aG9uJywgJy1waCcsICc3LjAnLCAnLXRuJywgJzgnLCAnLW1hJywgJzIwMCcsICctbWV0YWxfYmluZGluZycsICctaW1hZScsICc8aW5maWxlLm1hZT4nLCAnLW9tYWUnLCAnPG91dGZpbGUubWFlPic=

> <r_lp_tautomer_probability>
1

> <r_epik_Ionization_Penalty>
0.00548416

> <r_epik_Ionization_Penalty_Charging>
0

> <r_epik_Ionization_Penalty_Neutral>
0.00548416

> <r_epik_State_Penalty>
0.0038135

> <r_epik_Charging_Adjusted_Penalty>
0.0038135

> <i_epik_Tot_Q>
0

> <i_epik_Tot_abs_Q>
0

> <r_epik_Metal_State_Penalty>
-0

> <b_epik_Metal_Only>
0

> <s_lp_Force_Field>
OPLS_2005

> <r_lp_Energy>
31.7552

> <b_lp_Chiralities_Consistent>
1

> <s_lp_Variant>
AV-unprocessed.smi:150-1

> <Gold.Version>
5.8.1

> <Gold.Id.Protein>
6NUR|6NUR_protein|mol2

> <Gold.PLP.Fitness>
39.5239

> <Gold.PLP.PLP>
-37.5858

> <Gold.PLP.part.hbond>
-0.4474

> <Gold.PLP.part.metal>
0.0000

> <Gold.PLP.part.buried>
-4.9151

> <Gold.PLP.part.nonpolar>
-32.2302

> <Gold.PLP.part.repulsive>
0.2235

> <Gold.PLP.ligand.clash>
0.0260

> <Gold.PLP.ligand.torsion>
1.0833

> <Gold.PLP.Chemscore.Hbond>
0.0000

> <Gold.PLP.Chemscore.CHOScore>
1.0000

> <Gold.PLP.Chemscore.Metal>
0.0000

> <Gold.Chemscore.Hbonds>
donor molecule, donor type, donor heavy atom, donor atom, acceptor molecule, acceptor atom, score
      L1  C    17    44       P1  8028  0.81

> <Gold.PLP.Chemscore.Internal.Correction>
1.1306

> <Gold.Rescore>
     Score         DG    S(hbond)    S(metal)    S(lipo)     H(rot)  DE(clash)    DE(int)     intcor
      5.23      -7.82       0.00        0.00      94.38       3.40       0.24       2.35       ----

> <Gold.Chemscore.Fitness>
5.2301

> <Gold.Chemscore.DG>
-7.8191

> <Gold.Chemscore.ZeroCoef>
-5.4800

> <Gold.Chemscore.Hbond>
0.0000

> <Gold.Chemscore.Metal>
0.0000

> <Gold.Chemscore.Lipo>
94.3751

> <Gold.Chemscore.Internal_Hbond>
0.0000

> <Gold.Chemscore.DEClash>
0.2387

> <Gold.Chemscore.DEInternal>
2.3503

> <Gold.Chemscore.Rot>
3.3995

> <Gold.Chemscore.Internal.Correction>
   9.000000E+99

> <Gold.Chemscore.Hbond.Weighted>
-0.0000

> <Gold.Chemscore.Metal.Weighted>
-0.0000

> <Gold.Chemscore.Lipo.Weighted>
-11.0419

> <Gold.Chemscore.Internal_Hbond.Weighted>
0.0000

> <Gold.Chemscore.DEClash.Weighted>
0.2387

> <Gold.Chemscore.DEInternal.Weighted>
2.3503

> <Gold.Chemscore.Rot.Weighted>
8.7028

> <Gold.Chemscore.Internal.Correction.Weighted>
   9.000000E+99

> <Gold.Protein.RotatedTorsions>
[ 6907 6896 6895 6894 ] final   51.60 input  -60.11 | X-H torsion
[ 7974 7965 7964 7962 ] final  123.39 input  175.53 | X-H torsion
[ 8008 7997 7996 7995 ] final  111.52 input   59.86 | X-H torsion
[ 10167 10162 10161 10158 ] final   11.85 input  -65.29 | X-H torsion
[ 10718 10713 10712 10709 ] final  106.94 input   66.30 | X-H torsion
[ 10763 10752 10751 10750 ] final -171.35 input  -60.55 | X-H torsion
[ 11005 11000 10999 10996 ] final   99.04 input  -57.11 | X-H torsion

> <Gold.Protein.ActiveResidues>
 VAL166  LYS551  ARG553  GLY616  TRP617  ASP618  TYR619  PRO620  LYS621  CYS622 
 ASP623  PHE694  ASN695  SER759  ASP760  ASP761  ALA762  ILE779  LEU786  VAL792 
 PHE793  MET794  SER795  GLU796  ALA797  LYS798  CYS799  TRP800  GLU811  SER814 

> <Gold.Protein.RotatedAtoms>
  152.3144  134.7458  160.0328 H   0  0  0  0  0  0  0  0  0  0  0  0  # atno 6907 bound_to 6896
  151.7928  133.3356  159.3512 H   0  0  0  0  0  0  0  0  0  0  0  0  # atno 6908 bound_to 6896
  150.7337  134.5757  159.5957 H   0  0  0  0  0  0  0  0  0  0  0  0  # atno 6909 bound_to 6896
  145.0964  139.3549  143.4834 H   0  0  0  0  0  0  0  0  0  0  0  0  # atno 7974 bound_to 7965
  156.2129  140.3017  155.9774 H   0  0  0  0  0  0  0  0  0  0  0  0  # atno 8008 bound_to 7997
  155.2677  140.0432  157.3021 H   0  0  0  0  0  0  0  0  0  0  0  0  # atno 8009 bound_to 7997
  154.5726  140.2352  155.8177 H   0  0  0  0  0  0  0  0  0  0  0  0  # atno 8010 bound_to 7997
  140.6106  143.8416  150.7061 H   0  0  0  0  0  0  0  0  0  0  0  0  # atno 10167 bound_to 10162
  157.6648  131.0862  150.6082 H   0  0  0  0  0  0  0  0  0  0  0  0  # atno 10718 bound_to 10713
  154.6314  135.2887  155.0211 H   0  0  0  0  0  0  0  0  0  0  0  0  # atno 10763 bound_to 10752
  154.1370  135.6524  153.4938 H   0  0  0  0  0  0  0  0  0  0  0  0  # atno 10764 bound_to 10752
  153.0282  135.5324  154.7144 H   0  0  0  0  0  0  0  0  0  0  0  0  # atno 10765 bound_to 10752
  139.8771  134.9077  156.4546 H   0  0  0  0  0  0  0  0  0  0  0  0  # atno 11005 bound_to 11000
  146.3530  140.0822  142.8617 LP  0  0  0  0  0  0  0  0  0  0  0  0  # atno 17320 bound_to 7965
  145.1006  140.9343  143.4715 LP  0  0  0  0  0  0  0  0  0  0  0  0  # atno 17321 bound_to 7965
  140.1984  143.3979  152.1810 LP  0  0  0  0  0  0  0  0  0  0  0  0  # atno 17342 bound_to 10162
  139.5358  144.7208  151.4899 LP  0  0  0  0  0  0  0  0  0  0  0  0  # atno 17343 bound_to 10162
  156.6383  130.4451  149.5761 LP  0  0  0  0  0  0  0  0  0  0  0  0  # atno 17370 bound_to 10713
  156.2229  130.6748  151.1386 LP  0  0  0  0  0  0  0  0  0  0  0  0  # atno 17371 bound_to 10713
  140.8907  133.7850  155.9569 LP  0  0  0  0  0  0  0  0  0  0  0  0  # atno 17394 bound_to 11000
  140.8756  134.2673  157.5169 LP  0  0  0  0  0  0  0  0  0  0  0  0  # atno 17395 bound_to 11000

$$$$
