AV-unprocessed.smi:1815|AV-procd|sdf|7355|dock4
  -GOLD-   22720 9 13D 1   1.00000     0.00000
 Structure written by MMmdl.
 40 41  0  0  0  0  0  0  0  0  2 V2000
  152.7305  138.5015  154.6079 C   0  0  0  0  0  0  0  0  0  0  0  0
  151.3724  137.8312  154.3736 C   0  0  2  0  0  0  0  0  0  0  0  0
  150.2613  138.8569  154.0815 C   0  0  0  0  0  0  0  0  0  0  0  0
  148.9509  138.1800  153.9352 N   0  3  2  0  0  0  0  0  0  0  0  0
  147.8626  139.1285  153.5902 C   0  0  0  0  0  0  0  0  0  0  0  0
  146.5041  138.4252  153.4044 C   0  0  0  0  0  0  0  0  0  0  0  0
  146.6484  137.1599  152.6935 N   0  0  0  0  0  0  0  0  0  0  0  0
  145.6279  136.4175  152.2399 C   0  0  0  0  0  0  0  0  0  0  0  0
  144.4465  136.7325  152.3871 O   0  0  0  0  0  0  0  0  0  0  0  0
  146.0668  135.3080  151.6204 N   0  0  0  0  0  0  0  0  0  0  0  0
  145.2976  134.2749  151.0232 C   0  0  0  0  0  0  0  0  0  0  0  0
  143.9611  134.2703  150.9580 N   0  0  0  0  0  0  0  0  0  0  0  0
  143.4715  133.1292  150.3172 C   0  0  0  0  0  0  0  0  0  0  0  0
  144.4563  132.2693  149.8990 C   0  0  0  0  0  0  0  0  0  0  0  0
  146.0473  132.8624  150.2940 S   0  0  0  0  0  0  0  0  0  0  0  0
  148.6628  137.3507  155.1312 C   0  0  0  0  0  0  0  0  0  0  0  0
  149.8179  136.3662  155.3963 C   0  0  2  0  0  0  0  0  0  0  0  0
  149.5963  135.5452  156.6713 C   0  0  0  0  0  0  0  0  0  0  0  0
  151.0297  137.0981  155.5445 O   0  0  0  0  0  0  0  0  0  0  0  0
  153.0462  139.0665  153.7305 H   0  0  0  0  0  0  0  0  0  0  0  0
  153.5003  137.7588  154.8184 H   0  0  0  0  0  0  0  0  0  0  0  0
  152.6915  139.1894  155.4531 H   0  0  0  0  0  0  0  0  0  0  0  0
  151.4674  137.1416  153.5329 H   0  0  0  0  0  0  0  0  0  0  0  0
  150.2027  139.5916  154.8866 H   0  0  0  0  0  0  0  0  0  0  0  0
  150.4984  139.4017  153.1667 H   0  0  0  0  0  0  0  0  0  0  0  0
  147.7945  139.9080  154.3507 H   0  0  0  0  0  0  0  0  0  0  0  0
  148.1232  139.6309  152.6574 H   0  0  0  0  0  0  0  0  0  0  0  0
  146.0247  138.2565  154.3704 H   0  0  0  0  0  0  0  0  0  0  0  0
  145.8228  139.0452  152.8229 H   0  0  0  0  0  0  0  0  0  0  0  0
  147.5889  136.8307  152.5300 H   0  0  0  0  0  0  0  0  0  0  0  0
  147.0673  135.1847  151.5720 H   0  0  0  0  0  0  0  0  0  0  0  0
  142.4044  133.0092  150.2015 H   0  0  0  0  0  0  0  0  0  0  0  0
  144.3424  131.3268  149.3843 H   0  0  0  0  0  0  0  0  0  0  0  0
  148.5145  137.9992  155.9965 H   0  0  0  0  0  0  0  0  0  0  0  0
  147.7399  136.7894  154.9903 H   0  0  0  0  0  0  0  0  0  0  0  0
  149.9149  135.6782  154.5545 H   0  0  0  0  0  0  0  0  0  0  0  0
  148.6802  134.9575  156.6059 H   0  0  0  0  0  0  0  0  0  0  0  0
  149.5191  136.1891  157.5479 H   0  0  0  0  0  0  0  0  0  0  0  0
  150.4226  134.8539  156.8380 H   0  0  0  0  0  0  0  0  0  0  0  0
  149.0441  137.5499  153.1512 H   0  0  0  0  0  0  0  0  0  0  0  0
  1  2  1  0  0  0  0
  1 20  1  0  0  0  0
  1 21  1  0  0  0  0
  1 22  1  0  0  0  0
  2 19  1  0  0  0  0
  2  3  1  0  0  0  0
  2 23  1  0  0  0  0
  3  4  1  0  0  0  0
  3 24  1  0  0  0  0
  3 25  1  0  0  0  0
  4  5  1  0  0  0  0
  4 16  1  0  0  0  0
  4 40  1  0  0  0  0
  5  6  1  0  0  0  0
  5 26  1  0  0  0  0
  5 27  1  0  0  0  0
  6  7  1  0  0  0  0
  6 28  1  0  0  0  0
  6 29  1  0  0  0  0
  7  8  1  0  0  0  0
  7 30  1  0  0  0  0
  8  9  2  0  0  0  0
  8 10  1  0  0  0  0
 10 11  1  0  0  0  0
 10 31  1  0  0  0  0
 11 15  1  0  0  0  0
 11 12  2  0  0  0  0
 12 13  1  0  0  0  0
 13 14  2  0  0  0  0
 13 32  1  0  0  0  0
 14 15  1  0  0  0  0
 14 33  1  0  0  0  0
 16 17  1  0  0  0  0
 16 34  1  0  0  0  0
 16 35  1  0  0  0  0
 17 18  1  0  0  0  0
 17 19  1  0  0  0  0
 17 36  1  0  0  0  0
 18 37  1  0  0  0  0
 18 38  1  0  0  0  0
 18 39  1  0  0  0  0
M  CHG  1   4   1
M  END
> <s_m_source_file>
AV-unprocessed.smi

> <i_m_source_file_index>
1815

> <i_lp_mmshare_version>
43012

> <i_f3d_flags>
0

> <s_epik_input>
W0NIM11bQ0BASF0xW0NIMl1OKFtDSDJdW0NASF0oTzEpW0NIM10pW0NIMl1bQ0gyXVtOSF1DKD1PKVtOSF1jMm5bY0hdW2NIXXMy

> <s_epik_cmdline>
J2VwaWtfcHl0aG9uJywgJy1waCcsICc3LjAnLCAnLXRuJywgJzgnLCAnLW1hJywgJzIwMCcsICctbWV0YWxfYmluZGluZycsICctaW1hZScsICc8aW5maWxlLm1hZT4nLCAnLW9tYWUnLCAnPG91dGZpbGUubWFlPic=

> <r_lp_tautomer_probability>
0.999

> <r_epik_Ionization_Penalty>
0.695838

> <r_epik_Ionization_Penalty_Charging>
0.695697

> <r_epik_Ionization_Penalty_Neutral>
0.000141198

> <r_epik_State_Penalty>
0.717972

> <r_epik_Charging_Adjusted_Penalty>
1.41367

> <i_epik_Tot_Q>
1

> <i_epik_Tot_abs_Q>
1

> <r_epik_Metal_State_Penalty>
0.756405

> <b_epik_Metal_Only>
0

> <s_lp_Force_Field>
OPLS_2005

> <r_lp_Energy>
12.0644

> <b_lp_Chiralities_Consistent>
1

> <s_lp_Variant>
AV-unprocessed.smi:1815-6

> <Gold.Version>
5.8.1

> <Gold.Id.Protein>
6NUR|6NUR_protein|mol2

> <Gold.PLP.Fitness>
45.8239

> <Gold.PLP.PLP>
-31.6512

> <Gold.PLP.part.hbond>
-2.9930

> <Gold.PLP.part.metal>
0.0000

> <Gold.PLP.part.buried>
-4.1394

> <Gold.PLP.part.nonpolar>
-24.9511

> <Gold.PLP.part.repulsive>
0.5236

> <Gold.PLP.ligand.clash>
0.0000

> <Gold.PLP.ligand.torsion>
0.1354

> <Gold.PLP.Chemscore.Hbond>
3.8640

> <Gold.PLP.Chemscore.CHOScore>
0.9409

> <Gold.PLP.Chemscore.Metal>
0.0000

> <Gold.Chemscore.Hbonds>
donor molecule, donor type, donor heavy atom, donor atom, acceptor molecule, acceptor atom, score
      L1  H     4    40       P1  7948  2.00
      L1  H     7    30       P1  7948  1.00
      L1  H    10    31       P1  7948  0.66
      L1  C    13    32       P1 10186  0.98

> <Gold.PLP.Chemscore.Internal.Correction>
0.0285

> <Gold.Rescore>
     Score         DG    S(hbond)    S(metal)    S(lipo)     H(rot)  DE(clash)    DE(int)     intcor
     17.60     -19.05       2.74        0.00      73.66       1.64       0.06       1.39       ----

> <Gold.Chemscore.Fitness>
17.6017

> <Gold.Chemscore.DG>
-19.0524

> <Gold.Chemscore.ZeroCoef>
-5.4800

> <Gold.Chemscore.Hbond>
2.7391

> <Gold.Chemscore.Metal>
0.0000

> <Gold.Chemscore.Lipo>
73.6592

> <Gold.Chemscore.Internal_Hbond>
0.0000

> <Gold.Chemscore.DEClash>
0.0587

> <Gold.Chemscore.DEInternal>
1.3920

> <Gold.Chemscore.Rot>
1.6385

> <Gold.Chemscore.Internal.Correction>
   9.000000E+99

> <Gold.Chemscore.Hbonds>
donor molecule, donor type, donor heavy atom, donor atom, acceptor molecule, acceptor atom, score
      L1  H     4    40       P1  7948  1.00
      L1  H     7    30       P1  7948  0.99
      L1  H    10    31       P1  7948  0.61

> <Gold.Chemscore.Hbond.Weighted>
-9.1487

> <Gold.Chemscore.Metal.Weighted>
-0.0000

> <Gold.Chemscore.Lipo.Weighted>
-8.6181

> <Gold.Chemscore.Internal_Hbond.Weighted>
0.0000

> <Gold.Chemscore.DEClash.Weighted>
0.0587

> <Gold.Chemscore.DEInternal.Weighted>
1.3920

> <Gold.Chemscore.Rot.Weighted>
4.1945

> <Gold.Chemscore.Internal.Correction.Weighted>
   9.000000E+99

> <Gold.Protein.RotatedTorsions>
[ 6907 6896 6895 6894 ] final  -30.10 input  -60.11 | X-H torsion
[ 7974 7965 7964 7962 ] final  157.09 input  175.53 | X-H torsion
[ 8008 7997 7996 7995 ] final   79.27 input   59.86 | X-H torsion
[ 10167 10162 10161 10158 ] final -159.08 input  -65.29 | X-H torsion
[ 10718 10713 10712 10709 ] final -104.25 input   66.30 | X-H torsion
[ 10763 10752 10751 10750 ] final   66.79 input  -60.55 | X-H torsion
[ 11005 11000 10999 10996 ] final  -50.56 input  -57.11 | X-H torsion

> <Gold.Protein.ActiveResidues>
 VAL166  LYS551  ARG553  GLY616  TRP617  ASP618  TYR619  PRO620  LYS621  CYS622 
 ASP623  PHE694  ASN695  SER759  ASP760  ASP761  ALA762  ILE779  LEU786  VAL792 
 PHE793  MET794  SER795  GLU796  ALA797  LYS798  CYS799  TRP800  GLU811  SER814 

> <Gold.Protein.RotatedAtoms>
  151.1101  135.0022  159.8489 H   0  0  0  0  0  0  0  0  0  0  0  0  # atno 6907 bound_to 6896
  152.5442  134.1846  159.8659 H   0  0  0  0  0  0  0  0  0  0  0  0  # atno 6908 bound_to 6896
  151.1895  133.4631  159.2628 H   0  0  0  0  0  0  0  0  0  0  0  0  # atno 6909 bound_to 6896
  144.7924  139.7293  143.6216 H   0  0  0  0  0  0  0  0  0  0  0  0  # atno 7974 bound_to 7965
  155.8673  140.3451  155.5797 H   0  0  0  0  0  0  0  0  0  0  0  0  # atno 8008 bound_to 7997
  155.7867  140.0866  157.2050 H   0  0  0  0  0  0  0  0  0  0  0  0  # atno 8009 bound_to 7997
  154.4015  140.1491  156.3102 H   0  0  0  0  0  0  0  0  0  0  0  0  # atno 8010 bound_to 7997
  139.6642  143.9858  152.2245 H   0  0  0  0  0  0  0  0  0  0  0  0  # atno 10167 bound_to 10162
  156.0297  130.5506  150.7369 H   0  0  0  0  0  0  0  0  0  0  0  0  # atno 10718 bound_to 10713
  153.0156  135.5307  154.6878 H   0  0  0  0  0  0  0  0  0  0  0  0  # atno 10763 bound_to 10752
  154.6021  135.2869  155.0526 H   0  0  0  0  0  0  0  0  0  0  0  0  # atno 10764 bound_to 10752
  154.1579  135.6552  153.5031 H   0  0  0  0  0  0  0  0  0  0  0  0  # atno 10765 bound_to 10752
  141.0822  133.6650  156.3749 H   0  0  0  0  0  0  0  0  0  0  0  0  # atno 11005 bound_to 11000
  146.2180  139.5585  142.9637 LP  0  0  0  0  0  0  0  0  0  0  0  0  # atno 17320 bound_to 7965
  145.5761  141.0388  143.2148 LP  0  0  0  0  0  0  0  0  0  0  0  0  # atno 17321 bound_to 7965
  139.9605  144.6561  150.8084 LP  0  0  0  0  0  0  0  0  0  0  0  0  # atno 17342 bound_to 10162
  140.7593  143.3125  151.2811 LP  0  0  0  0  0  0  0  0  0  0  0  0  # atno 17343 bound_to 10162
  157.4947  131.0914  151.0385 LP  0  0  0  0  0  0  0  0  0  0  0  0  # atno 17370 bound_to 10713
  157.0782  130.5892  149.5415 LP  0  0  0  0  0  0  0  0  0  0  0  0  # atno 17371 bound_to 10713
  140.5442  134.6091  157.5389 LP  0  0  0  0  0  0  0  0  0  0  0  0  # atno 17394 bound_to 11000
  139.9637  134.7408  156.0182 LP  0  0  0  0  0  0  0  0  0  0  0  0  # atno 17395 bound_to 11000

$$$$
