AV-unprocessed.smi:1240|AV-procd|sdf|5208|dock4
  -GOLD-   22720 4303D 1   1.00000     0.00000
 Structure written by MMmdl.
 49 51  0  0  0  0  0  0  0  0  3 V2000
  144.8476  138.0800  154.0273 O   0  0  0  0  0  0  0  0  0  0  0  0
  145.9055  137.5720  153.6565 C   0  0  0  0  0  0  0  0  0  0  0  0
  145.9718  136.4061  152.9982 N   0  0  0  0  0  0  0  0  0  0  0  0
  144.8234  135.5841  152.6336 C   0  0  0  0  0  0  0  0  0  0  0  0
  144.3490  134.6207  153.7601 C   0  0  1  0  0  0  0  0  0  0  0  0
  142.8424  134.7606  154.1218 C   0  0  2  0  0  0  0  0  0  0  0  0
  141.8646  134.6720  152.9586 C   0  0  0  0  0  0  0  0  0  0  0  0
  140.6166  135.3820  153.4831 C   0  0  0  0  0  0  0  0  0  0  0  0
  141.0482  136.2023  154.5626 O   0  0  0  0  0  0  0  0  0  0  0  0
  142.4618  136.1387  154.6709 C   0  0  0  0  0  0  0  0  0  0  0  0
  144.6638  133.1963  153.4365 N   0  3  0  0  0  0  0  0  0  0  0  0
  144.7646  132.8605  151.9934 C   0  0  0  0  0  0  0  0  0  0  0  0
  144.9033  131.3392  151.8194 C   0  0  0  0  0  0  0  0  0  0  0  0
  146.0433  130.8815  152.5373 O   0  0  0  0  0  0  0  0  0  0  0  0
  145.9329  131.1298  153.9341 C   0  0  0  0  0  0  0  0  0  0  0  0
  145.8187  132.6433  154.1852 C   0  0  0  0  0  0  0  0  0  0  0  0
  147.1302  138.0876  153.8590 N   0  0  0  0  0  0  0  0  0  0  0  0
  147.4810  139.3117  154.4908 C   0  0  0  0  0  0  0  0  0  0  0  0
  146.6277  140.4196  154.2906 C   0  0  0  0  0  0  0  0  0  0  0  0
  146.9263  141.6488  154.9126 C   0  0  0  0  0  0  0  0  0  0  0  0
  148.0170  141.7557  155.7011 N   0  3  0  0  0  0  0  0  0  0  0  0
  148.8542  140.7219  155.9337 C   0  0  0  0  0  0  0  0  0  0  0  0
  148.6070  139.4678  155.3390 C   0  0  0  0  0  0  0  0  0  0  0  0
  146.8821  136.0566  152.7349 H   0  0  0  0  0  0  0  0  0  0  0  0
  144.0206  136.2689  152.3608 H   0  0  0  0  0  0  0  0  0  0  0  0
  145.0739  135.0325  151.7268 H   0  0  0  0  0  0  0  0  0  0  0  0
  144.9087  134.8553  154.6664 H   0  0  0  0  0  0  0  0  0  0  0  0
  142.5638  134.0058  154.8583 H   0  0  0  0  0  0  0  0  0  0  0  0
  142.2548  135.2093  152.0930 H   0  0  0  0  0  0  0  0  0  0  0  0
  141.6475  133.6485  152.6531 H   0  0  0  0  0  0  0  0  0  0  0  0
  140.1357  135.9784  152.7073 H   0  0  0  0  0  0  0  0  0  0  0  0
  139.8867  134.6646  153.8591 H   0  0  0  0  0  0  0  0  0  0  0  0
  142.7790  136.2865  155.7036 H   0  0  0  0  0  0  0  0  0  0  0  0
  142.8980  136.9336  154.0637 H   0  0  0  0  0  0  0  0  0  0  0  0
  143.8830  133.2087  151.4558 H   0  0  0  0  0  0  0  0  0  0  0  0
  145.6305  133.3523  151.5488 H   0  0  0  0  0  0  0  0  0  0  0  0
  144.0063  130.8231  152.1661 H   0  0  0  0  0  0  0  0  0  0  0  0
  145.0265  131.0912  150.7652 H   0  0  0  0  0  0  0  0  0  0  0  0
  145.0694  130.6014  154.3416 H   0  0  0  0  0  0  0  0  0  0  0  0
  146.8152  130.7314  154.4351 H   0  0  0  0  0  0  0  0  0  0  0  0
  146.7405  133.1372  153.8773 H   0  0  0  0  0  0  0  0  0  0  0  0
  145.6966  132.8267  155.2532 H   0  0  0  0  0  0  0  0  0  0  0  0
  147.9074  137.5091  153.5750 H   0  0  0  0  0  0  0  0  0  0  0  0
  145.7534  140.3343  153.6613 H   0  0  0  0  0  0  0  0  0  0  0  0
  146.3287  142.5425  154.8056 H   0  0  0  0  0  0  0  0  0  0  0  0
  149.6881  140.9252  156.5896 H   0  0  0  0  0  0  0  0  0  0  0  0
  149.2772  138.6498  155.5551 H   0  0  0  0  0  0  0  0  0  0  0  0
  143.8677  132.6767  153.7780 H   0  0  0  0  0  0  0  0  0  0  0  0
  148.2144  142.6538  156.1434 H   0  0  0  0  0  0  0  0  0  0  0  0
  1  2  2  0  0  0  0
  2  3  1  0  0  0  0
  2 17  1  0  0  0  0
  3  4  1  0  0  0  0
  3 24  1  0  0  0  0
  4  5  1  0  0  0  0
  4 25  1  0  0  0  0
  4 26  1  0  0  0  0
  5  6  1  0  0  0  0
  5 11  1  0  0  0  0
  5 27  1  0  0  0  0
  6 10  1  0  0  0  0
  6  7  1  0  0  0  0
  6 28  1  0  0  0  0
  7  8  1  0  0  0  0
  7 29  1  0  0  0  0
  7 30  1  0  0  0  0
  8  9  1  0  0  0  0
  8 31  1  0  0  0  0
  8 32  1  0  0  0  0
  9 10  1  0  0  0  0
 10 33  1  0  0  0  0
 10 34  1  0  0  0  0
 11 16  1  0  0  0  0
 11 12  1  0  0  0  0
 11 48  1  0  0  0  0
 12 13  1  0  0  0  0
 12 35  1  0  0  0  0
 12 36  1  0  0  0  0
 13 14  1  0  0  0  0
 13 37  1  0  0  0  0
 13 38  1  0  0  0  0
 14 15  1  0  0  0  0
 15 16  1  0  0  0  0
 15 39  1  0  0  0  0
 15 40  1  0  0  0  0
 16 41  1  0  0  0  0
 16 42  1  0  0  0  0
 17 18  1  0  0  0  0
 17 43  1  0  0  0  0
 18 23  1  0  0  0  0
 18 19  2  0  0  0  0
 19 20  1  0  0  0  0
 19 44  1  0  0  0  0
 20 21  2  0  0  0  0
 20 45  1  0  0  0  0
 21 22  1  0  0  0  0
 21 49  1  0  0  0  0
 22 23  2  0  0  0  0
 22 46  1  0  0  0  0
 23 47  1  0  0  0  0
M  CHG  1  11   1
M  CHG  1  21   1
M  END
> <s_m_source_file>
AV-unprocessed.smi

> <i_m_source_file_index>
1240

> <i_lp_mmshare_version>
43012

> <i_f3d_flags>
0

> <s_epik_input>
W2NIXTFbY0hdbltjSF1bY0hdYzFbTkhdQyg9TylbTkhdW0NIMl1bQ0BIXShbQ0BASF0yW0NIMl1bQ0gyXU9bQ0gyXTIpTjNbQ0gyXVtDSDJdT1tDSDJdW0NIMl0z

> <s_epik_cmdline>
J2VwaWtfcHl0aG9uJywgJy1waCcsICc3LjAnLCAnLXRuJywgJzgnLCAnLW1hJywgJzIwMCcsICctbWV0YWxfYmluZGluZycsICctaW1hZScsICc8aW5maWxlLm1hZT4nLCAnLW9tYWUnLCAnPG91dGZpbGUubWFlPic=

> <r_epik_Ionization_Penalty>
2.08105

> <r_epik_Ionization_Penalty_Charging>
2.08103

> <r_epik_Ionization_Penalty_Neutral>
2.04144e-05

> <r_epik_State_Penalty>
2.15598

> <r_epik_Charging_Adjusted_Penalty>
4.23701

> <i_epik_Tot_Q>
2

> <i_epik_Tot_abs_Q>
2

> <r_epik_Metal_State_Penalty>
2.25158

> <b_epik_Metal_Only>
0

> <s_lp_Force_Field>
OPLS_2005

> <r_lp_Energy>
49.9195

> <b_lp_Chiralities_Consistent>
1

> <s_lp_Variant>
AV-unprocessed.smi:1240-14

> <Gold.Version>
5.8.1

> <Gold.Id.Protein>
6NUR|6NUR_protein|mol2

> <Gold.PLP.Fitness>
45.2232

> <Gold.PLP.PLP>
-32.2552

> <Gold.PLP.part.hbond>
-4.0013

> <Gold.PLP.part.metal>
0.0000

> <Gold.PLP.part.buried>
-6.0387

> <Gold.PLP.part.nonpolar>
-25.1935

> <Gold.PLP.part.repulsive>
1.7291

> <Gold.PLP.ligand.clash>
0.0000

> <Gold.PLP.ligand.torsion>
2.4265

> <Gold.PLP.Chemscore.Hbond>
5.8525

> <Gold.PLP.Chemscore.CHOScore>
0.0000

> <Gold.PLP.Chemscore.Metal>
0.0000

> <Gold.Chemscore.Hbonds>
donor molecule, donor type, donor heavy atom, donor atom, acceptor molecule, acceptor atom, score
      L1  H     3    24       P1  7948  0.47
      L1  H    11    48       P1 10957  2.00
      L1  H    17    43       P1  7948  0.14
      L1  H    21    49       P1  8028  0.89

> <Gold.PLP.Chemscore.Internal.Correction>
0.2637

> <Gold.Rescore>
     Score         DG    S(hbond)    S(metal)    S(lipo)     H(rot)  DE(clash)    DE(int)     intcor
     17.85     -22.39       3.77        0.00      75.09       1.74       0.02       4.52       ----

> <Gold.Chemscore.Fitness>
17.8490

> <Gold.Chemscore.DG>
-22.3909

> <Gold.Chemscore.ZeroCoef>
-5.4800

> <Gold.Chemscore.Hbond>
3.7680

> <Gold.Chemscore.Metal>
0.0000

> <Gold.Chemscore.Lipo>
75.0902

> <Gold.Chemscore.Internal_Hbond>
0.0000

> <Gold.Chemscore.DEClash>
0.0215

> <Gold.Chemscore.DEInternal>
4.5204

> <Gold.Chemscore.Rot>
1.7421

> <Gold.Chemscore.Internal.Correction>
   9.000000E+99

> <Gold.Chemscore.Hbonds>
donor molecule, donor type, donor heavy atom, donor atom, acceptor molecule, acceptor atom, score
      L1  H     3    24       P1  7948  0.45
      L1  H    11    48       P1 10957  0.74
      L1  H    17    43       P1  7948  0.15
      L1  H    21    49       P1  8028  0.39

> <Gold.Chemscore.Hbond.Weighted>
-12.5851

> <Gold.Chemscore.Metal.Weighted>
-0.0000

> <Gold.Chemscore.Lipo.Weighted>
-8.7856

> <Gold.Chemscore.Internal_Hbond.Weighted>
0.0000

> <Gold.Chemscore.DEClash.Weighted>
0.0215

> <Gold.Chemscore.DEInternal.Weighted>
4.5204

> <Gold.Chemscore.Rot.Weighted>
4.4597

> <Gold.Chemscore.Internal.Correction.Weighted>
   9.000000E+99

> <Gold.Protein.RotatedTorsions>
[ 6907 6896 6895 6894 ] final  157.17 input  -60.11 | X-H torsion
[ 7974 7965 7964 7962 ] final  101.12 input  175.53 | X-H torsion
[ 8008 7997 7996 7995 ] final -133.32 input   59.86 | X-H torsion
[ 10167 10162 10161 10158 ] final   73.85 input  -65.29 | X-H torsion
[ 10718 10713 10712 10709 ] final   -5.91 input   66.30 | X-H torsion
[ 10763 10752 10751 10750 ] final  -64.83 input  -60.55 | X-H torsion
[ 11005 11000 10999 10996 ] final  120.33 input  -57.11 | X-H torsion

> <Gold.Protein.ActiveResidues>
 VAL166  LYS551  ARG553  GLY616  TRP617  ASP618  TYR619  PRO620  LYS621  CYS622 
 ASP623  PHE694  ASN695  SER759  ASP760  ASP761  ALA762  ILE779  LEU786  VAL792 
 PHE793  MET794  SER795  GLU796  ALA797  LYS798  CYS799  TRP800  GLU811  SER814 

> <Gold.Protein.RotatedAtoms>
  152.0190  133.3891  159.4250 H   0  0  0  0  0  0  0  0  0  0  0  0  # atno 6907 bound_to 6896
  150.6892  134.3647  159.4975 H   0  0  0  0  0  0  0  0  0  0  0  0  # atno 6908 bound_to 6896
  152.1418  134.9056  160.0604 H   0  0  0  0  0  0  0  0  0  0  0  0  # atno 6909 bound_to 6896
  145.3766  139.2388  143.3426 H   0  0  0  0  0  0  0  0  0  0  0  0  # atno 7974 bound_to 7965
  155.3436  140.0473  157.3045 H   0  0  0  0  0  0  0  0  0  0  0  0  # atno 8008 bound_to 7997
  154.5264  140.2242  155.8847 H   0  0  0  0  0  0  0  0  0  0  0  0  # atno 8009 bound_to 7997
  156.1744  140.3088  155.9038 H   0  0  0  0  0  0  0  0  0  0  0  0  # atno 8010 bound_to 7997
  140.0200  144.5548  150.7589 H   0  0  0  0  0  0  0  0  0  0  0  0  # atno 10167 bound_to 10162
  156.7397  130.5205  149.5827 H   0  0  0  0  0  0  0  0  0  0  0  0  # atno 10718 bound_to 10713
  154.3359  135.6167  153.5573 H   0  0  0  0  0  0  0  0  0  0  0  0  # atno 10763 bound_to 10752
  152.9808  135.5758  154.4908 H   0  0  0  0  0  0  0  0  0  0  0  0  # atno 10764 bound_to 10752
  154.4603  135.2855  155.1694 H   0  0  0  0  0  0  0  0  0  0  0  0  # atno 10765 bound_to 10752
  139.9181  134.9634  156.7791 H   0  0  0  0  0  0  0  0  0  0  0  0  # atno 11005 bound_to 11000
  146.2861  140.4426  142.8757 LP  0  0  0  0  0  0  0  0  0  0  0  0  # atno 17320 bound_to 7965
  144.8538  140.7040  143.6151 LP  0  0  0  0  0  0  0  0  0  0  0  0  # atno 17321 bound_to 7965
  140.7346  143.2731  151.3826 LP  0  0  0  0  0  0  0  0  0  0  0  0  # atno 17342 bound_to 10162
  139.6146  144.1029  152.2333 LP  0  0  0  0  0  0  0  0  0  0  0  0  # atno 17343 bound_to 10162
  156.1473  130.6286  151.0548 LP  0  0  0  0  0  0  0  0  0  0  0  0  # atno 17370 bound_to 10713
  157.6824  131.0834  150.7335 LP  0  0  0  0  0  0  0  0  0  0  0  0  # atno 17371 bound_to 10713
  140.6559  133.9689  155.7779 LP  0  0  0  0  0  0  0  0  0  0  0  0  # atno 17394 bound_to 11000
  141.0677  134.0253  157.3571 LP  0  0  0  0  0  0  0  0  0  0  0  0  # atno 17395 bound_to 11000

$$$$
