AV-unprocessed.smi:767|AV-procd|sdf|3668|dock2
  -GOLD-   22720 1 73D 1   1.00000     0.00000
 Structure written by MMmdl.
 48 50  0  0  0  0  0  0  0  0  2 V2000
  150.8586  143.6597  158.0920 C   0  0  0  0  0  0  0  0  0  0  0  0
  150.8013  142.4068  157.2443 C   0  0  0  0  0  0  0  0  0  0  0  0
  151.5065  141.2333  157.5868 C   0  0  0  0  0  0  0  0  0  0  0  0
  151.4134  140.1044  156.7468 C   0  0  0  0  0  0  0  0  0  0  0  0
  150.6176  140.1709  155.5816 C   0  0  0  0  0  0  0  0  0  0  0  0
  150.5313  138.9890  154.6311 C   0  0  0  0  0  0  0  0  0  0  0  0
  150.5208  137.6218  155.3443 C   0  0  0  0  0  0  0  0  0  0  0  0
  149.8317  136.5909  154.5706 N   0  0  0  0  0  0  0  0  0  0  0  0
  149.2756  135.4812  155.0780 C   0  0  0  0  0  0  0  0  0  0  0  0
  149.2885  135.1857  156.2733 O   0  0  0  0  0  0  0  0  0  0  0  0
  148.6851  134.7410  154.1312 N   0  0  0  0  0  0  0  0  0  0  0  0
  147.9518  133.5084  154.3981 C   0  0  1  0  0  0  0  0  0  0  0  0
  148.0489  132.5004  153.2427 C   0  0  2  0  0  0  0  0  0  0  0  0
  146.8166  132.1396  152.4590 C   0  0  0  0  0  0  0  0  0  0  0  0
  146.3246  130.8707  153.1612 C   0  0  0  0  0  0  0  0  0  0  0  0
  146.9131  130.9234  154.4590 O   0  0  0  0  0  0  0  0  0  0  0  0
  148.2364  131.4327  154.3101 C   0  0  2  0  0  0  0  0  0  0  0  0
  148.6833  132.5058  155.3258 C   0  0  0  0  0  0  0  0  0  0  0  0
  150.2059  132.6481  155.4638 C   0  0  0  0  0  0  0  0  0  0  0  0
  148.1236  132.3649  156.7421 C   0  0  0  0  0  0  0  0  0  0  0  0
  149.9270  141.3682  155.2958 C   0  0  0  0  0  0  0  0  0  0  0  0
  150.0440  142.4284  156.1246 N   0  3  0  0  0  0  0  0  0  0  0  0
  151.7146  143.6350  158.7671 H   0  0  0  0  0  0  0  0  0  0  0  0
  149.9522  143.7525  158.6908 H   0  0  0  0  0  0  0  0  0  0  0  0
  150.9494  144.5466  157.4637 H   0  0  0  0  0  0  0  0  0  0  0  0
  152.1164  141.1981  158.4777 H   0  0  0  0  0  0  0  0  0  0  0  0
  151.9589  139.2041  156.9890 H   0  0  0  0  0  0  0  0  0  0  0  0
  149.6358  139.0878  154.0161 H   0  0  0  0  0  0  0  0  0  0  0  0
  151.3761  139.0348  153.9429 H   0  0  0  0  0  0  0  0  0  0  0  0
  151.5462  137.2897  155.5075 H   0  0  0  0  0  0  0  0  0  0  0  0
  150.0740  137.7162  156.3356 H   0  0  0  0  0  0  0  0  0  0  0  0
  149.7677  136.7393  153.5739 H   0  0  0  0  0  0  0  0  0  0  0  0
  148.7254  135.0559  153.1729 H   0  0  0  0  0  0  0  0  0  0  0  0
  146.9154  133.6722  154.7032 H   0  0  0  0  0  0  0  0  0  0  0  0
  148.9510  132.6310  152.6421 H   0  0  0  0  0  0  0  0  0  0  0  0
  146.0702  132.9324  152.5195 H   0  0  0  0  0  0  0  0  0  0  0  0
  147.0277  131.9574  151.4049 H   0  0  0  0  0  0  0  0  0  0  0  0
  145.2372  130.8153  153.2156 H   0  0  0  0  0  0  0  0  0  0  0  0
  146.6872  129.9814  152.6438 H   0  0  0  0  0  0  0  0  0  0  0  0
  148.9742  130.6704  154.0549 H   0  0  0  0  0  0  0  0  0  0  0  0
  150.6444  131.7742  155.9464 H   0  0  0  0  0  0  0  0  0  0  0  0
  150.4778  133.5200  156.0597 H   0  0  0  0  0  0  0  0  0  0  0  0
  150.6927  132.7533  154.4939 H   0  0  0  0  0  0  0  0  0  0  0  0
  148.5087  131.4732  157.2375 H   0  0  0  0  0  0  0  0  0  0  0  0
  147.0360  132.2882  156.7394 H   0  0  0  0  0  0  0  0  0  0  0  0
  148.3810  133.2251  157.3608 H   0  0  0  0  0  0  0  0  0  0  0  0
  149.3040  141.5155  154.4258 H   0  0  0  0  0  0  0  0  0  0  0  0
  149.5437  143.2863  155.8911 H   0  0  0  0  0  0  0  0  0  0  0  0
  1  2  1  0  0  0  0
  1 23  1  0  0  0  0
  1 24  1  0  0  0  0
  1 25  1  0  0  0  0
  2 22  1  0  0  0  0
  2  3  2  0  0  0  0
  3  4  1  0  0  0  0
  3 26  1  0  0  0  0
  4  5  2  0  0  0  0
  4 27  1  0  0  0  0
  5  6  1  0  0  0  0
  5 21  1  0  0  0  0
  6  7  1  0  0  0  0
  6 28  1  0  0  0  0
  6 29  1  0  0  0  0
  7  8  1  0  0  0  0
  7 30  1  0  0  0  0
  7 31  1  0  0  0  0
  8  9  1  0  0  0  0
  8 32  1  0  0  0  0
  9 10  2  0  0  0  0
  9 11  1  0  0  0  0
 11 12  1  0  0  0  0
 11 33  1  0  0  0  0
 12 18  1  0  0  0  0
 12 13  1  0  0  0  0
 12 34  1  0  0  0  0
 13 17  1  0  0  0  0
 13 14  1  0  0  0  0
 13 35  1  0  0  0  0
 14 15  1  0  0  0  0
 14 36  1  0  0  0  0
 14 37  1  0  0  0  0
 15 16  1  0  0  0  0
 15 38  1  0  0  0  0
 15 39  1  0  0  0  0
 16 17  1  0  0  0  0
 17 18  1  0  0  0  0
 17 40  1  0  0  0  0
 18 19  1  0  0  0  0
 18 20  1  0  0  0  0
 19 41  1  0  0  0  0
 19 42  1  0  0  0  0
 19 43  1  0  0  0  0
 20 44  1  0  0  0  0
 20 45  1  0  0  0  0
 20 46  1  0  0  0  0
 21 22  2  0  0  0  0
 21 47  1  0  0  0  0
 22 48  1  0  0  0  0
M  CHG  1  22   1
M  END
> <s_m_source_file>
AV-unprocessed.smi

> <i_m_source_file_index>
767

> <i_lp_mmshare_version>
43012

> <i_f3d_flags>
0

> <s_epik_input>
W0NIM11jMVtjSF1bY0hdYyhbY0hdbjEpW0NIMl1bQ0gyXVtOSF1DKD1PKVtOSF1bQ0BIXTJDKFtDSDNdKShbQ0gzXSlbQ0BIXShbQ0BASF0yMylPW0NIMl1bQ0gyXTM=

> <s_epik_cmdline>
J2VwaWtfcHl0aG9uJywgJy1waCcsICc3LjAnLCAnLXRuJywgJzgnLCAnLW1hJywgJzIwMCcsICctbWV0YWxfYmluZGluZycsICctaW1hZScsICc8aW5maWxlLm1hZT4nLCAnLW9tYWUnLCAnPG91dGZpbGUubWFlPic=

> <r_epik_Ionization_Penalty>
1.41853

> <r_epik_Ionization_Penalty_Charging>
1.41848

> <r_epik_Ionization_Penalty_Neutral>
5.17407e-05

> <r_epik_State_Penalty>
1.50205

> <r_epik_Charging_Adjusted_Penalty>
2.92053

> <i_epik_Tot_Q>
1

> <i_epik_Tot_abs_Q>
1

> <r_epik_Metal_State_Penalty>
1.5544

> <b_epik_Metal_Only>
0

> <s_lp_Force_Field>
OPLS_2005

> <r_lp_Energy>
39.2779

> <b_lp_Chiralities_Consistent>
1

> <s_lp_Variant>
AV-unprocessed.smi:767-12

> <Gold.Version>
5.8.1

> <Gold.Id.Protein>
6NUR|6NUR_protein|mol2

> <Gold.PLP.Fitness>
47.2372

> <Gold.PLP.PLP>
-36.8801

> <Gold.PLP.part.hbond>
-3.2303

> <Gold.PLP.part.metal>
0.0000

> <Gold.PLP.part.buried>
-3.2176

> <Gold.PLP.part.nonpolar>
-29.4838

> <Gold.PLP.part.repulsive>
0.2505

> <Gold.PLP.ligand.clash>
0.0000

> <Gold.PLP.ligand.torsion>
0.9101

> <Gold.PLP.Chemscore.Hbond>
3.9920

> <Gold.PLP.Chemscore.CHOScore>
0.0000

> <Gold.PLP.Chemscore.Metal>
0.0000

> <Gold.Chemscore.Hbonds>
donor molecule, donor type, donor heavy atom, donor atom, acceptor molecule, acceptor atom, score
      L1  H     8    32       P1  7948  0.98
      L1  H    11    33       P1  7948  1.00
      L1  H    22    48       P1  8028  2.00

> <Gold.PLP.Chemscore.Internal.Correction>
0.2014

> <Gold.Rescore>
     Score         DG    S(hbond)    S(metal)    S(lipo)     H(rot)  DE(clash)    DE(int)     intcor
     17.46     -21.49       2.71        0.00      92.84       1.52       0.02       4.01       ----

> <Gold.Chemscore.Fitness>
17.4645

> <Gold.Chemscore.DG>
-21.4934

> <Gold.Chemscore.ZeroCoef>
-5.4800

> <Gold.Chemscore.Hbond>
2.7097

> <Gold.Chemscore.Metal>
0.0000

> <Gold.Chemscore.Lipo>
92.8417

> <Gold.Chemscore.Internal_Hbond>
0.0000

> <Gold.Chemscore.DEClash>
0.0212

> <Gold.Chemscore.DEInternal>
4.0076

> <Gold.Chemscore.Rot>
1.5233

> <Gold.Chemscore.Internal.Correction>
   9.000000E+99

> <Gold.Chemscore.Hbonds>
donor molecule, donor type, donor heavy atom, donor atom, acceptor molecule, acceptor atom, score
      L1  H     8    32       P1  7948  0.46
      L1  H    11    33       P1  7948  0.55
      L1  H    22    48       P1  8028  0.98

> <Gold.Chemscore.Hbond.Weighted>
-9.0504

> <Gold.Chemscore.Metal.Weighted>
-0.0000

> <Gold.Chemscore.Lipo.Weighted>
-10.8625

> <Gold.Chemscore.Internal_Hbond.Weighted>
0.0000

> <Gold.Chemscore.DEClash.Weighted>
0.0212

> <Gold.Chemscore.DEInternal.Weighted>
4.0076

> <Gold.Chemscore.Rot.Weighted>
3.8995

> <Gold.Chemscore.Internal.Correction.Weighted>
   9.000000E+99

> <Gold.Protein.RotatedTorsions>
[ 6907 6896 6895 6894 ] final  145.28 input  -60.11 | X-H torsion
[ 7974 7965 7964 7962 ] final   57.87 input  175.53 | X-H torsion
[ 8008 7997 7996 7995 ] final  -28.29 input   59.86 | X-H torsion
[ 10167 10162 10161 10158 ] final  165.26 input  -65.29 | X-H torsion
[ 10718 10713 10712 10709 ] final  -25.46 input   66.30 | X-H torsion
[ 10763 10752 10751 10750 ] final  116.09 input  -60.55 | X-H torsion
[ 11005 11000 10999 10996 ] final -155.72 input  -57.11 | X-H torsion

> <Gold.Protein.ActiveResidues>
 VAL166  LYS551  ARG553  GLY616  TRP617  ASP618  TYR619  PRO620  LYS621  CYS622 
 ASP623  PHE694  ASN695  SER759  ASP760  ASP761  ALA762  ILE779  LEU786  VAL792 
 PHE793  MET794  SER795  GLU796  ALA797  LYS798  CYS799  TRP800  GLU811  SER814 

> <Gold.Protein.RotatedAtoms>
  152.1830  133.4720  159.4967 H   0  0  0  0  0  0  0  0  0  0  0  0  # atno 6907 bound_to 6896
  150.6937  134.1810  159.4257 H   0  0  0  0  0  0  0  0  0  0  0  0  # atno 6908 bound_to 6896
  151.9722  135.0071  160.0604 H   0  0  0  0  0  0  0  0  0  0  0  0  # atno 6909 bound_to 6896
  145.9243  139.3755  143.0459 H   0  0  0  0  0  0  0  0  0  0  0  0  # atno 7974 bound_to 7965
  154.4339  140.1849  156.1066 H   0  0  0  0  0  0  0  0  0  0  0  0  # atno 8008 bound_to 7997
  156.0251  140.3336  155.7054 H   0  0  0  0  0  0  0  0  0  0  0  0  # atno 8009 bound_to 7997
  155.5921  140.0632  157.2746 H   0  0  0  0  0  0  0  0  0  0  0  0  # atno 8010 bound_to 7997
  139.4903  144.4150  151.9254 H   0  0  0  0  0  0  0  0  0  0  0  0  # atno 10167 bound_to 10162
  156.4640  130.4510  149.6911 H   0  0  0  0  0  0  0  0  0  0  0  0  # atno 10718 bound_to 10713
  153.5320  135.3576  155.2680 H   0  0  0  0  0  0  0  0  0  0  0  0  # atno 10763 bound_to 10752
  154.8726  135.4070  154.3141 H   0  0  0  0  0  0  0  0  0  0  0  0  # atno 10764 bound_to 10752
  153.3831  135.7069  153.6618 H   0  0  0  0  0  0  0  0  0  0  0  0  # atno 10765 bound_to 10752
  140.6834  134.4120  157.5225 H   0  0  0  0  0  0  0  0  0  0  0  0  # atno 11005 bound_to 11000
  145.8509  140.9529  143.0750 LP  0  0  0  0  0  0  0  0  0  0  0  0  # atno 17320 bound_to 7965
  144.6756  140.0405  143.7481 LP  0  0  0  0  0  0  0  0  0  0  0  0  # atno 17321 bound_to 7965
  140.3593  144.2993  150.5936 LP  0  0  0  0  0  0  0  0  0  0  0  0  # atno 17342 bound_to 10162
  140.5417  143.2222  151.8074 LP  0  0  0  0  0  0  0  0  0  0  0  0  # atno 17343 bound_to 10162
  156.3687  130.7519  151.2500 LP  0  0  0  0  0  0  0  0  0  0  0  0  # atno 17370 bound_to 10713
  157.7496  131.0329  150.4249 LP  0  0  0  0  0  0  0  0  0  0  0  0  # atno 17371 bound_to 10713
  139.8945  134.8705  156.2175 LP  0  0  0  0  0  0  0  0  0  0  0  0  # atno 17394 bound_to 11000
  141.0299  133.6994  156.1413 LP  0  0  0  0  0  0  0  0  0  0  0  0  # atno 17395 bound_to 11000

$$$$
