AV-unprocessed.smi:3152|AV-procd|sdf|12018|dock1
  -GOLD-   2272017433D 1   1.00000     0.00000
 Structure written by MMmdl.
 40 41  0  0  0  0  0  0  0  0  1 V2000
  152.7233  142.6911  161.0001 C   0  0  0  0  0  0  0  0  0  0  0  0
  152.7438  141.6943  159.8771 C   0  0  0  0  0  0  0  0  0  0  0  0
  153.6523  140.6151  159.6827 C   0  0  0  0  0  0  0  0  0  0  0  0
  153.3949  139.9161  158.5892 N   0  0  0  0  0  0  0  0  0  0  0  0
  152.3172  140.5224  158.0479 N   0  0  0  0  0  0  0  0  0  0  0  0
  151.7454  140.0110  156.8176 C   0  0  0  0  0  0  0  0  0  0  0  0
  150.5768  140.8807  156.3353 C   0  0  0  0  0  0  0  0  0  0  0  0
  150.2957  140.6407  154.9246 N   0  0  0  0  0  0  0  0  0  0  0  0
  149.2186  141.4760  154.3965 C   0  0  0  0  0  0  0  0  0  0  0  0
  147.8922  140.6955  154.2183 C   0  0  0  0  0  0  0  0  0  0  0  0
  148.1968  139.5353  153.4666 O   0  0  0  0  0  0  0  0  0  0  0  0
  147.3517  140.1984  155.5802 C   0  0  0  0  0  0  0  0  0  0  0  0
  146.7743  141.3367  156.4421 C   0  0  0  0  0  0  0  0  0  0  0  0
  145.6985  142.1271  155.6812 C   0  0  0  0  0  0  0  0  0  0  0  0
  146.2295  142.6411  154.3340 C   0  0  0  0  0  0  0  0  0  0  0  0
  146.7840  141.4875  153.4809 C   0  0  0  0  0  0  0  0  0  0  0  0
  151.9024  141.5972  158.8048 C   0  0  0  0  0  0  0  0  0  0  0  0
  153.7114  142.8245  161.4411 H   0  0  0  0  0  0  0  0  0  0  0  0
  152.0533  142.3782  161.8012 H   0  0  0  0  0  0  0  0  0  0  0  0
  152.3880  143.6724  160.6640 H   0  0  0  0  0  0  0  0  0  0  0  0
  154.4863  140.3200  160.3021 H   0  0  0  0  0  0  0  0  0  0  0  0
  152.5297  139.9736  156.0605 H   0  0  0  0  0  0  0  0  0  0  0  0
  151.4172  138.9839  156.9849 H   0  0  0  0  0  0  0  0  0  0  0  0
  149.6903  140.6617  156.9320 H   0  0  0  0  0  0  0  0  0  0  0  0
  150.8112  141.9338  156.4952 H   0  0  0  0  0  0  0  0  0  0  0  0
  150.0616  139.6630  154.7831 H   0  0  0  0  0  0  0  0  0  0  0  0
  149.0502  142.3254  155.0600 H   0  0  0  0  0  0  0  0  0  0  0  0
  149.5345  141.8977  153.4427 H   0  0  0  0  0  0  0  0  0  0  0  0
  148.7427  139.7855  152.7371 H   0  0  0  0  0  0  0  0  0  0  0  0
  146.5629  139.4628  155.4127 H   0  0  0  0  0  0  0  0  0  0  0  0
  148.1355  139.6782  156.1326 H   0  0  0  0  0  0  0  0  0  0  0  0
  146.3488  140.9242  157.3573 H   0  0  0  0  0  0  0  0  0  0  0  0
  147.5711  142.0106  156.7569 H   0  0  0  0  0  0  0  0  0  0  0  0
  144.8312  141.4880  155.5100 H   0  0  0  0  0  0  0  0  0  0  0  0
  145.3507  142.9631  156.2886 H   0  0  0  0  0  0  0  0  0  0  0  0
  145.4308  143.1490  153.7929 H   0  0  0  0  0  0  0  0  0  0  0  0
  147.0077  143.3864  154.5024 H   0  0  0  0  0  0  0  0  0  0  0  0
  147.1418  141.8705  152.5248 H   0  0  0  0  0  0  0  0  0  0  0  0
  145.9607  140.8142  153.2371 H   0  0  0  0  0  0  0  0  0  0  0  0
  151.0500  142.1971  158.5213 H   0  0  0  0  0  0  0  0  0  0  0  0
  1  2  1  0  0  0  0
  1 18  1  0  0  0  0
  1 19  1  0  0  0  0
  1 20  1  0  0  0  0
  2 17  2  0  0  0  0
  2  3  1  0  0  0  0
  3  4  2  0  0  0  0
  3 21  1  0  0  0  0
  4  5  1  0  0  0  0
  5  6  1  0  0  0  0
  5 17  1  0  0  0  0
  6  7  1  0  0  0  0
  6 22  1  0  0  0  0
  6 23  1  0  0  0  0
  7  8  1  0  0  0  0
  7 24  1  0  0  0  0
  7 25  1  0  0  0  0
  8  9  1  0  0  0  0
  8 26  1  0  0  0  0
  9 10  1  0  0  0  0
  9 27  1  0  0  0  0
  9 28  1  0  0  0  0
 10 16  1  0  0  0  0
 10 11  1  0  0  0  0
 10 12  1  0  0  0  0
 11 29  1  0  0  0  0
 12 13  1  0  0  0  0
 12 30  1  0  0  0  0
 12 31  1  0  0  0  0
 13 14  1  0  0  0  0
 13 32  1  0  0  0  0
 13 33  1  0  0  0  0
 14 15  1  0  0  0  0
 14 34  1  0  0  0  0
 14 35  1  0  0  0  0
 15 16  1  0  0  0  0
 15 36  1  0  0  0  0
 15 37  1  0  0  0  0
 16 38  1  0  0  0  0
 16 39  1  0  0  0  0
 17 40  1  0  0  0  0
M  END
> <s_m_source_file>
AV-unprocessed.smi

> <i_m_source_file_index>
3152

> <i_lp_mmshare_version>
43012

> <i_f3d_flags>
0

> <s_epik_input>
W0NIM11jMVtjSF1ubihbY0hdMSlbQ0gyXVtDSDJdW05IXVtDSDJdQzIoW09IXSlbQ0gyXVtDSDJdW0NIMl1bQ0gyXVtDSDJdMg==

> <s_epik_cmdline>
J2VwaWtfcHl0aG9uJywgJy1waCcsICc3LjAnLCAnLXRuJywgJzgnLCAnLW1hJywgJzIwMCcsICctbWV0YWxfYmluZGluZycsICctaW1hZScsICc8aW5maWxlLm1hZT4nLCAnLW9tYWUnLCAnPG91dGZpbGUubWFlPic=

> <r_lp_tautomer_probability>
1

> <r_epik_Ionization_Penalty>
1.91403

> <r_epik_Ionization_Penalty_Charging>
0

> <r_epik_Ionization_Penalty_Neutral>
1.91403

> <r_epik_State_Penalty>
2.0334

> <r_epik_Charging_Adjusted_Penalty>
2.0334

> <i_epik_Tot_Q>
0

> <i_epik_Tot_abs_Q>
0

> <r_epik_Metal_State_Penalty>
2.03082

> <b_epik_Metal_Only>
0

> <s_lp_Force_Field>
OPLS_2005

> <r_lp_Energy>
20.9393

> <b_lp_Chiralities_Consistent>
1

> <s_lp_Variant>
AV-unprocessed.smi:3152-2

> <Gold.Version>
5.8.1

> <Gold.Id.Protein>
6NUR|6NUR_protein|mol2

> <Gold.PLP.Fitness>
42.4414

> <Gold.PLP.PLP>
-34.6129

> <Gold.PLP.part.hbond>
-3.0000

> <Gold.PLP.part.metal>
0.0000

> <Gold.PLP.part.buried>
-3.4403

> <Gold.PLP.part.nonpolar>
-27.7057

> <Gold.PLP.part.repulsive>
0.0000

> <Gold.PLP.ligand.clash>
0.0000

> <Gold.PLP.ligand.torsion>
0.4415

> <Gold.PLP.Chemscore.Hbond>
2.8664

> <Gold.PLP.Chemscore.CHOScore>
0.0000

> <Gold.PLP.Chemscore.Metal>
0.0000

> <Gold.Chemscore.Hbonds>
donor molecule, donor type, donor heavy atom, donor atom, acceptor molecule, acceptor atom, score
      L1  H    11    29       P1  7957  1.00
      P1  H  7989  7998       L1     8  0.85
      P1  H  7997  8008       L1     4  1.00

> <Gold.PLP.Chemscore.Internal.Correction>
0.1122

> <Gold.Rescore>
     Score         DG    S(hbond)    S(metal)    S(lipo)     H(rot)  DE(clash)    DE(int)     intcor
     15.20     -16.20       1.75        0.00      87.41       2.09       0.47       0.53       ----

> <Gold.Chemscore.Fitness>
15.1999

> <Gold.Chemscore.DG>
-16.1951

> <Gold.Chemscore.ZeroCoef>
-5.4800

> <Gold.Chemscore.Hbond>
1.7467

> <Gold.Chemscore.Metal>
0.0000

> <Gold.Chemscore.Lipo>
87.4121

> <Gold.Chemscore.Internal_Hbond>
0.0000

> <Gold.Chemscore.DEClash>
0.4691

> <Gold.Chemscore.DEInternal>
0.5262

> <Gold.Chemscore.Rot>
2.0883

> <Gold.Chemscore.Internal.Correction>
   9.000000E+99

> <Gold.Chemscore.Hbonds>
donor molecule, donor type, donor heavy atom, donor atom, acceptor molecule, acceptor atom, score
      L1  H    11    29       P1  7957  1.00
      P1  H  7989  7998       L1     8  0.05
      P1  H  7997  8008       L1     4  0.28

> <Gold.Chemscore.Hbond.Weighted>
-5.8340

> <Gold.Chemscore.Metal.Weighted>
-0.0000

> <Gold.Chemscore.Lipo.Weighted>
-10.2272

> <Gold.Chemscore.Internal_Hbond.Weighted>
0.0000

> <Gold.Chemscore.DEClash.Weighted>
0.4691

> <Gold.Chemscore.DEInternal.Weighted>
0.5262

> <Gold.Chemscore.Rot.Weighted>
5.3461

> <Gold.Chemscore.Internal.Correction.Weighted>
   9.000000E+99

> <Gold.Protein.RotatedTorsions>
[ 6907 6896 6895 6894 ] final  -75.26 input  -60.11 | X-H torsion
[ 7974 7965 7964 7962 ] final  -38.63 input  175.53 | X-H torsion
[ 8008 7997 7996 7995 ] final  -92.53 input   59.86 | X-H torsion
[ 10167 10162 10161 10158 ] final   17.46 input  -65.29 | X-H torsion
[ 10718 10713 10712 10709 ] final  -41.22 input   66.30 | X-H torsion
[ 10763 10752 10751 10750 ] final  -12.53 input  -60.55 | X-H torsion
[ 11005 11000 10999 10996 ] final   33.95 input  -57.11 | X-H torsion

> <Gold.Protein.ActiveResidues>
 VAL166  LYS551  ARG553  GLY616  TRP617  ASP618  TYR619  PRO620  LYS621  CYS622 
 ASP623  PHE694  ASN695  SER759  ASP760  ASP761  ALA762  ILE779  LEU786  VAL792 
 PHE793  MET794  SER795  GLU796  ALA797  LYS798  CYS799  TRP800  GLU811  SER814 

> <Gold.Protein.RotatedAtoms>
  150.7065  134.4748  159.5441 H   0  0  0  0  0  0  0  0  0  0  0  0  # atno 6907 bound_to 6896
  152.2397  134.8238  160.0471 H   0  0  0  0  0  0  0  0  0  0  0  0  # atno 6908 bound_to 6896
  151.9024  133.3506  159.3872 H   0  0  0  0  0  0  0  0  0  0  0  0  # atno 6909 bound_to 6896
  146.0469  140.6533  142.9060 H   0  0  0  0  0  0  0  0  0  0  0  0  # atno 7974 bound_to 7965
  154.7243  140.0508  157.0668 H   0  0  0  0  0  0  0  0  0  0  0  0  # atno 8008 bound_to 7997
  155.0385  140.3166  155.4714 H   0  0  0  0  0  0  0  0  0  0  0  0  # atno 8009 bound_to 7997
  156.2825  140.2137  156.5508 H   0  0  0  0  0  0  0  0  0  0  0  0  # atno 8010 bound_to 7997
  140.5724  143.9136  150.6723 H   0  0  0  0  0  0  0  0  0  0  0  0  # atno 10167 bound_to 10162
  156.2728  130.4208  149.8420 H   0  0  0  0  0  0  0  0  0  0  0  0  # atno 10718 bound_to 10713
  153.4998  135.7017  153.5838 H   0  0  0  0  0  0  0  0  0  0  0  0  # atno 10763 bound_to 10752
  153.3974  135.3880  155.1965 H   0  0  0  0  0  0  0  0  0  0  0  0  # atno 10764 bound_to 10752
  154.8711  135.3873  154.4467 H   0  0  0  0  0  0  0  0  0  0  0  0  # atno 10765 bound_to 10752
  140.2579  134.3227  155.7867 H   0  0  0  0  0  0  0  0  0  0  0  0  # atno 11005 bound_to 11000
  144.7102  140.4011  143.7086 LP  0  0  0  0  0  0  0  0  0  0  0  0  # atno 17320 bound_to 7965
  145.6790  139.1614  143.2712 LP  0  0  0  0  0  0  0  0  0  0  0  0  # atno 17321 bound_to 7965
  140.2614  143.3521  152.1319 LP  0  0  0  0  0  0  0  0  0  0  0  0  # atno 17342 bound_to 10162
  139.5124  144.6917  151.5742 LP  0  0  0  0  0  0  0  0  0  0  0  0  # atno 17343 bound_to 10162
  156.5895  130.8500  151.3404 LP  0  0  0  0  0  0  0  0  0  0  0  0  # atno 17370 bound_to 10713
  157.7289  130.9664  150.1764 LP  0  0  0  0  0  0  0  0  0  0  0  0  # atno 17371 bound_to 10713
  141.2194  133.7392  156.9140 LP  0  0  0  0  0  0  0  0  0  0  0  0  # atno 17394 bound_to 11000
  140.1493  134.9241  157.2572 LP  0  0  0  0  0  0  0  0  0  0  0  0  # atno 17395 bound_to 11000

$$$$
