AV-unprocessed.smi:1291|AV-procd|sdf|5391|dock7
  -GOLD-   22720 4543D 1   1.00000     0.00000
 Structure written by MMmdl.
 43 45  0  0  0  0  0  0  0  0  1 V2000
  155.2172  139.0041  160.7954 O   0  0  0  0  0  0  0  0  0  0  0  0
  154.1816  139.5804  161.5608 C   0  0  0  0  0  0  0  0  0  0  0  0
  153.5340  140.7407  160.8696 C   0  0  0  0  0  0  0  0  0  0  0  0
  153.5449  141.9652  161.3978 N   0  0  0  0  0  0  0  0  0  0  0  0
  152.8314  142.7024  160.4734 C   0  0  0  0  0  0  0  0  0  0  0  0
  152.4876  144.0732  160.4601 C   0  0  0  0  0  0  0  0  0  0  0  0
  151.7354  144.6101  159.3949 C   0  0  0  0  0  0  0  0  0  0  0  0
  151.3164  143.7861  158.3303 C   0  0  0  0  0  0  0  0  0  0  0  0
  151.6492  142.4179  158.3235 C   0  0  0  0  0  0  0  0  0  0  0  0
  152.4022  141.8870  159.3883 C   0  0  0  0  0  0  0  0  0  0  0  0
  152.8882  140.6167  159.6819 N   0  0  0  0  0  0  0  0  0  0  0  0
  152.7084  139.4256  158.8642 C   0  0  0  0  0  0  0  0  0  0  0  0
  152.0690  138.2624  159.6575 C   0  0  2  0  0  0  0  0  0  0  0  0
  152.9239  137.1398  159.5653 O   0  0  0  0  0  0  0  0  0  0  0  0
  150.6872  137.8689  159.1108 C   0  0  0  0  0  0  0  0  0  0  0  0
  149.9999  137.0990  160.0871 O   0  0  0  0  0  0  0  0  0  0  0  0
  148.6110  136.9498  159.8257 C   0  0  0  0  0  0  0  0  0  0  0  0
  147.9006  136.0750  160.8470 C   0  0  0  0  0  0  0  0  0  0  0  0
  147.6401  136.5839  162.1368 C   0  0  0  0  0  0  0  0  0  0  0  0
  146.9798  135.7892  163.0939 C   0  0  0  0  0  0  0  0  0  0  0  0
  146.5734  134.4822  162.7640 C   0  0  0  0  0  0  0  0  0  0  0  0
  146.8254  133.9720  161.4760 C   0  0  0  0  0  0  0  0  0  0  0  0
  147.4860  134.7651  160.5172 C   0  0  0  0  0  0  0  0  0  0  0  0
  147.7226  134.2577  159.2835 F   0  0  0  0  0  0  0  0  0  0  0  0
  155.6229  138.3198  161.3050 H   0  0  0  0  0  0  0  0  0  0  0  0
  153.4292  138.8151  161.7550 H   0  0  0  0  0  0  0  0  0  0  0  0
  154.5698  139.8844  162.5322 H   0  0  0  0  0  0  0  0  0  0  0  0
  152.8020  144.7123  161.2721 H   0  0  0  0  0  0  0  0  0  0  0  0
  151.4776  145.6590  159.3952 H   0  0  0  0  0  0  0  0  0  0  0  0
  150.7394  144.2050  157.5189 H   0  0  0  0  0  0  0  0  0  0  0  0
  151.3276  141.7854  157.5096 H   0  0  0  0  0  0  0  0  0  0  0  0
  152.0883  139.6956  158.0090 H   0  0  0  0  0  0  0  0  0  0  0  0
  153.6675  139.1436  158.4292 H   0  0  0  0  0  0  0  0  0  0  0  0
  151.9739  138.5361  160.7097 H   0  0  0  0  0  0  0  0  0  0  0  0
  153.8181  137.4373  159.6308 H   0  0  0  0  0  0  0  0  0  0  0  0
  150.1021  138.7701  158.9208 H   0  0  0  0  0  0  0  0  0  0  0  0
  150.7791  137.3369  158.1625 H   0  0  0  0  0  0  0  0  0  0  0  0
  148.1561  137.9397  159.8612 H   0  0  0  0  0  0  0  0  0  0  0  0
  148.4602  136.5822  158.8100 H   0  0  0  0  0  0  0  0  0  0  0  0
  147.9505  137.5859  162.3950 H   0  0  0  0  0  0  0  0  0  0  0  0
  146.7854  136.1825  164.0808 H   0  0  0  0  0  0  0  0  0  0  0  0
  146.0681  133.8715  163.4977 H   0  0  0  0  0  0  0  0  0  0  0  0
  146.5120  132.9700  161.2225 H   0  0  0  0  0  0  0  0  0  0  0  0
  1  2  1  0  0  0  0
  1 25  1  0  0  0  0
  2  3  1  0  0  0  0
  2 26  1  0  0  0  0
  2 27  1  0  0  0  0
  3 11  1  0  0  0  0
  3  4  2  0  0  0  0
  4  5  1  0  0  0  0
  5 10  2  0  0  0  0
  5  6  1  0  0  0  0
  6  7  2  0  0  0  0
  6 28  1  0  0  0  0
  7  8  1  0  0  0  0
  7 29  1  0  0  0  0
  8  9  2  0  0  0  0
  8 30  1  0  0  0  0
  9 10  1  0  0  0  0
  9 31  1  0  0  0  0
 10 11  1  0  0  0  0
 11 12  1  0  0  0  0
 12 13  1  0  0  0  0
 12 32  1  0  0  0  0
 12 33  1  0  0  0  0
 13 14  1  0  0  0  0
 13 15  1  0  0  0  0
 13 34  1  0  0  0  0
 14 35  1  0  0  0  0
 15 16  1  0  0  0  0
 15 36  1  0  0  0  0
 15 37  1  0  0  0  0
 16 17  1  0  0  0  0
 17 18  1  0  0  0  0
 17 38  1  0  0  0  0
 17 39  1  0  0  0  0
 18 23  1  0  0  0  0
 18 19  2  0  0  0  0
 19 20  1  0  0  0  0
 19 40  1  0  0  0  0
 20 21  2  0  0  0  0
 20 41  1  0  0  0  0
 21 22  1  0  0  0  0
 21 42  1  0  0  0  0
 22 23  2  0  0  0  0
 22 43  1  0  0  0  0
 23 24  1  0  0  0  0
M  END
> <s_m_source_file>
AV-unprocessed.smi

> <i_m_source_file_index>
1291

> <i_lp_mmshare_version>
43012

> <i_f3d_flags>
0

> <s_epik_input>
W2NIXTFbY0hdW2NIXVtjSF1jKGMxMiluKGMobjIpW0NIMl1bT0hdKVtDSDJdW0NASF0oW09IXSlbQ0gyXU9bQ0gyXWMzW2NIXVtjSF1bY0hdW2NIXWMzRg==

> <s_epik_cmdline>
J2VwaWtfcHl0aG9uJywgJy1waCcsICc3LjAnLCAnLXRuJywgJzgnLCAnLW1hJywgJzIwMCcsICctbWV0YWxfYmluZGluZycsICctaW1hZScsICc8aW5maWxlLm1hZT4nLCAnLW9tYWUnLCAnPG91dGZpbGUubWFlPic=

> <r_epik_Ionization_Penalty>
0.0649918

> <r_epik_Ionization_Penalty_Charging>
0

> <r_epik_Ionization_Penalty_Neutral>
0.0649918

> <r_epik_State_Penalty>
0.0565791

> <r_epik_Charging_Adjusted_Penalty>
0.0565791

> <i_epik_Tot_Q>
0

> <i_epik_Tot_abs_Q>
0

> <r_epik_Metal_State_Penalty>
5.93658e-05

> <b_epik_Metal_Only>
0

> <s_lp_Force_Field>
OPLS_2005

> <r_lp_Energy>
20.1032

> <b_lp_Chiralities_Consistent>
1

> <s_lp_Variant>
AV-unprocessed.smi:1291-1

> <Gold.Version>
5.8.1

> <Gold.Id.Protein>
6NUR|6NUR_protein|mol2

> <Gold.PLP.Fitness>
55.4897

> <Gold.PLP.PLP>
-54.6710

> <Gold.PLP.part.hbond>
-1.3958

> <Gold.PLP.part.metal>
0.0000

> <Gold.PLP.part.buried>
-7.0165

> <Gold.PLP.part.nonpolar>
-46.4813

> <Gold.PLP.part.repulsive>
0.0000

> <Gold.PLP.ligand.clash>
0.0000

> <Gold.PLP.ligand.torsion>
1.1240

> <Gold.PLP.Chemscore.Hbond>
0.9913

> <Gold.PLP.Chemscore.CHOScore>
0.0000

> <Gold.PLP.Chemscore.Metal>
0.0000

> <Gold.Chemscore.Hbonds>
donor molecule, donor type, donor heavy atom, donor atom, acceptor molecule, acceptor atom, score
      P1  H  6896  6908       L1    16  0.29

> <Gold.PLP.Chemscore.Internal.Correction>
0.0929

> <Gold.Rescore>
     Score         DG    S(hbond)    S(metal)    S(lipo)     H(rot)  DE(clash)    DE(int)     intcor
     15.03     -16.32       0.87        0.00     140.80       3.33       0.10       1.19       ----

> <Gold.Chemscore.Fitness>
15.0311

> <Gold.Chemscore.DG>
-16.3216

> <Gold.Chemscore.ZeroCoef>
-5.4800

> <Gold.Chemscore.Hbond>
0.8674

> <Gold.Chemscore.Metal>
0.0000

> <Gold.Chemscore.Lipo>
140.7961

> <Gold.Chemscore.Internal_Hbond>
0.0000

> <Gold.Chemscore.DEClash>
0.0993

> <Gold.Chemscore.DEInternal>
1.1912

> <Gold.Chemscore.Rot>
3.3316

> <Gold.Chemscore.Internal.Correction>
   9.000000E+99

> <Gold.Chemscore.Hbonds>
donor molecule, donor type, donor heavy atom, donor atom, acceptor molecule, acceptor atom, score
      P1  H  6896  6908       L1    16  0.06

> <Gold.Chemscore.Hbond.Weighted>
-2.8972

> <Gold.Chemscore.Metal.Weighted>
-0.0000

> <Gold.Chemscore.Lipo.Weighted>
-16.4731

> <Gold.Chemscore.Internal_Hbond.Weighted>
0.0000

> <Gold.Chemscore.DEClash.Weighted>
0.0993

> <Gold.Chemscore.DEInternal.Weighted>
1.1912

> <Gold.Chemscore.Rot.Weighted>
8.5288

> <Gold.Chemscore.Internal.Correction.Weighted>
   9.000000E+99

> <Gold.Protein.RotatedTorsions>
[ 6907 6896 6895 6894 ] final -151.02 input  -60.11 | X-H torsion
[ 7974 7965 7964 7962 ] final -100.74 input  175.53 | X-H torsion
[ 8008 7997 7996 7995 ] final   89.22 input   59.86 | X-H torsion
[ 10167 10162 10161 10158 ] final  -11.34 input  -65.29 | X-H torsion
[ 10718 10713 10712 10709 ] final -115.94 input   66.30 | X-H torsion
[ 10763 10752 10751 10750 ] final   27.61 input  -60.55 | X-H torsion
[ 11005 11000 10999 10996 ] final  -68.72 input  -57.11 | X-H torsion

> <Gold.Protein.ActiveResidues>
 VAL166  LYS551  ARG553  GLY616  TRP617  ASP618  TYR619  PRO620  LYS621  CYS622 
 ASP623  PHE694  ASN695  SER759  ASP760  ASP761  ALA762  ILE779  LEU786  VAL792 
 PHE793  MET794  SER795  GLU796  ALA797  LYS798  CYS799  TRP800  GLU811  SER814 

> <Gold.Protein.RotatedAtoms>
  151.2071  133.4577  159.2597 H   0  0  0  0  0  0  0  0  0  0  0  0  # atno 6907 bound_to 6896
  151.1013  134.9974  159.8460 H   0  0  0  0  0  0  0  0  0  0  0  0  # atno 6908 bound_to 6896
  152.5443  134.1997  159.8760 H   0  0  0  0  0  0  0  0  0  0  0  0  # atno 6909 bound_to 6896
  145.2906  140.9351  143.2880 H   0  0  0  0  0  0  0  0  0  0  0  0  # atno 7974 bound_to 7965
  155.9974  140.3363  155.6811 H   0  0  0  0  0  0  0  0  0  0  0  0  # atno 8008 bound_to 7997
  155.6338  140.0688  157.2658 H   0  0  0  0  0  0  0  0  0  0  0  0  # atno 8009 bound_to 7997
  154.4238  140.1755  156.1488 H   0  0  0  0  0  0  0  0  0  0  0  0  # atno 8010 bound_to 7997
  140.7136  143.5650  150.9154 H   0  0  0  0  0  0  0  0  0  0  0  0  # atno 10167 bound_to 10162
  156.0930  130.6108  150.8971 H   0  0  0  0  0  0  0  0  0  0  0  0  # atno 10718 bound_to 10713
  153.0544  135.6533  154.0613 H   0  0  0  0  0  0  0  0  0  0  0  0  # atno 10763 bound_to 10752
  154.0294  135.2913  155.3372 H   0  0  0  0  0  0  0  0  0  0  0  0  # atno 10764 bound_to 10752
  154.6851  135.5304  153.8383 H   0  0  0  0  0  0  0  0  0  0  0  0  # atno 10765 bound_to 10752
  141.1538  133.6747  156.6489 H   0  0  0  0  0  0  0  0  0  0  0  0  # atno 11005 bound_to 11000
  144.9176  139.4451  143.6557 LP  0  0  0  0  0  0  0  0  0  0  0  0  # atno 17320 bound_to 7965
  146.3186  139.8019  142.8963 LP  0  0  0  0  0  0  0  0  0  0  0  0  # atno 17321 bound_to 7965
  139.9376  143.6420  152.3061 LP  0  0  0  0  0  0  0  0  0  0  0  0  # atno 17342 bound_to 10162
  139.6893  144.7648  151.1468 LP  0  0  0  0  0  0  0  0  0  0  0  0  # atno 17343 bound_to 10162
  157.6083  131.0938  150.8839 LP  0  0  0  0  0  0  0  0  0  0  0  0  # atno 17370 bound_to 10713
  156.8984  130.5237  149.5283 LP  0  0  0  0  0  0  0  0  0  0  0  0  # atno 17371 bound_to 10713
  140.3336  134.7908  157.4344 LP  0  0  0  0  0  0  0  0  0  0  0  0  # atno 17394 bound_to 11000
  140.0996  134.5490  155.8365 LP  0  0  0  0  0  0  0  0  0  0  0  0  # atno 17395 bound_to 11000

$$$$
