#       Name:                AV-unprocessed.smi:1828
#       Creating user name   scv26
#       Creation time:       Fri Mar 27 09:10:33 2020


#       File generated by GOLD software.
#

@<TRIPOS>MOLECULE
AV-unprocessed.smi:1828
    44    46     1
SMALL
NO_CHARGES


@<TRIPOS>ATOM
      1 ****        -2.4664  -1.0958  -3.3305 O.3            1 S1                 0.0000
      2 ****        -1.5429  -0.0322  -3.4203 C.3            1 S1                 0.0000
      3 ****        -1.7401   0.9958  -2.3487 C.2            1 S1                 0.0000
      4 ****        -2.3381   2.1625  -2.5937 N.2            1 S1                 0.0000
      5 ****        -2.3153   2.7810  -1.3590 C.ar           1 S1                 0.0000
      6 ****        -2.7984   4.0466  -0.9562 C.ar           1 S1                 0.0000
      7 ****        -2.6625   4.4697   0.3824 C.ar           1 S1                 0.0000
      8 ****        -2.0428   3.6354   1.3354 C.ar           1 S1                 0.0000
      9 ****        -1.5531   2.3712   0.9547 C.ar           1 S1                 0.0000
     10 ****        -1.6913   1.9541  -0.3827 C.ar           1 S1                 0.0000
     11 ****        -1.3276   0.8011  -1.0703 N.pl3          1 S1                 0.0000
     12 ****        -0.6501  -0.3556  -0.4994 C.3            1 S1                 0.0000
     13 ****         0.8604  -0.1194  -0.3012 C.3            1 S1                 0.0000
     14 ****         1.4692   0.2020  -1.5370 O.3            1 S1                 0.0000
     15 ****         1.5211  -1.3123   0.3713 C.ar           1 S1                 0.0000
     16 ****         1.8194  -2.4785  -0.3659 C.ar           1 S1                 0.0000
     17 ****         2.4285  -3.5788   0.2659 C.ar           1 S1                 0.0000
     18 ****         2.7370  -3.5229   1.6385 C.ar           1 S1                 0.0000
     19 ****         2.4327  -2.3668   2.3897 C.ar           1 S1                 0.0000
     20 ****         2.7659  -2.2936   3.8726 C.3            1 S1                 0.0000
     21 ****         1.8103  -1.6383   4.5323 F              1 S1                 0.0000
     22 ****         2.8817  -3.5104   4.4060 F              1 S1                 0.0000
     23 ****         3.9187  -1.6449   4.0310 F              1 S1                 0.0000
     24 ****         1.8288  -1.2639   1.7477 C.ar           1 S1                 0.0000
     25 ****        -2.3026  -1.6950  -4.0424 H              1 S1                 0.0000
     26 ****        -0.5279  -0.4261  -3.3744 H              1 S1                 0.0000
     27 ****        -1.6510   0.4401  -4.3971 H              1 S1                 0.0000
     28 ****        -3.2753   4.6923  -1.6787 H              1 S1                 0.0000
     29 ****        -3.0363   5.4385   0.6798 H              1 S1                 0.0000
     30 ****        -1.9437   3.9666   2.3589 H              1 S1                 0.0000
     31 ****        -1.0780   1.7295   1.6818 H              1 S1                 0.0000
     32 ****        -1.1181  -0.5753   0.4609 H              1 S1                 0.0000
     33 ****        -0.8238  -1.2308  -1.1249 H              1 S1                 0.0000
     34 ****         0.9959   0.7506   0.3426 H              1 S1                 0.0000
     35 ****         2.3662   0.4501  -1.3725 H              1 S1                 0.0000
     36 ****         1.5820  -2.5327  -1.4184 H              1 S1                 0.0000
     37 ****         2.6595  -4.4673  -0.3032 H              1 S1                 0.0000
     38 ****         3.2088  -4.3729   2.1091 H              1 S1                 0.0000
     39 ****         1.6006  -0.3745   2.3169 H              1 S1                 0.0000
     40 ****        -3.3986  -0.7399  -3.3966 LP             1 S1                 0.0000
     41 ****        -2.3517  -1.5696  -2.4574 LP             1 S1                 0.0000
     42 ****        -2.7104   2.5044  -3.4566 LP             1 S1                 0.0000
     43 ****         0.9817   0.9626  -1.9658 LP             1 S1                 0.0000
     44 ****         1.4445  -0.5934  -2.1425 LP             1 S1                 0.0000
@<TRIPOS>BOND
    1    1    2 1     
    2    1   25 1     
    3    2    3 1     
    4    2   26 1     
    5    2   27 1     
    6    3   11 1     
    7    3    4 2     
    8    4    5 1     
    9    5   10 ar    
   10    5    6 ar    
   11    6    7 ar    
   12    6   28 1     
   13    7    8 ar    
   14    7   29 1     
   15    8    9 ar    
   16    8   30 1     
   17    9   10 ar    
   18    9   31 1     
   19   10   11 1     
   20   11   12 1     
   21   12   13 1     
   22   12   32 1     
   23   12   33 1     
   24   13   14 1     
   25   13   15 1     
   26   13   34 1     
   27   14   35 1     
   28   15   24 ar    
   29   15   16 ar    
   30   16   17 ar    
   31   16   36 1     
   32   17   18 ar    
   33   17   37 1     
   34   18   19 ar    
   35   18   38 1     
   36   19   20 1     
   37   19   24 ar    
   38   20   21 1     
   39   20   22 1     
   40   20   23 1     
   41   24   39 1     
   42    1   40 1     
   43    1   41 1     
   44    4   42 1     
   45   14   43 1     
   46   14   44 1     
@<TRIPOS>SUBSTRUCTURE
      1 S1             1
@<TRIPOS>SET
LONE_PAIRS      STATIC     ATOMS    <user>   **** ""
5 40 41 42 43 44
DONOR_HYDROGENS      STATIC     ATOMS    <user>   **** ""
2 25 35
ATOM$BLUE        STATIC     ATOMS    COLORGROUP SYSTEM
5 40 41 42 43 44
ATOM$RED        STATIC     ATOMS    COLORGROUP SYSTEM
2 25 35
