AV-unprocessed.smi:3303|AV-procd|sdf|12671|dock7
  -GOLD-   2272019 03D 1   1.00000     0.00000
 Structure written by MMmdl.
 45 46  0  0  0  0  0  0  0  0  3 V2000
  146.4673  142.1769  155.0128 C   0  0  0  0  0  0  0  0  0  0  0  0
  147.6798  141.8941  154.1008 C   0  0  2  0  0  0  0  0  0  0  0  0
  147.3022  140.9437  152.9478 C   0  0  0  0  0  0  0  0  0  0  0  0
  147.0472  139.5568  153.4227 N   0  3  1  0  0  0  0  0  0  0  0  0
  146.5476  138.7051  152.3157 C   0  0  0  0  0  0  0  0  0  0  0  0
  148.2203  138.9818  154.1498 C   0  0  2  0  0  0  0  0  0  0  0  0
  147.9436  137.5667  154.6941 C   0  0  0  0  0  0  0  0  0  0  0  0
  148.6541  139.9033  155.3119 C   0  0  0  0  0  0  0  0  0  0  0  0
  148.9204  141.3441  154.8367 C   0  0  2  0  0  0  0  0  0  0  0  0
  149.3296  142.2420  155.9429 N   0  3  0  0  0  0  0  0  0  0  0  0
  150.6515  141.9542  156.5388 C   0  0  0  0  0  0  0  0  0  0  0  0
  151.0416  143.0358  157.5559 C   0  0  0  0  0  0  0  0  0  0  0  0
  151.8605  142.4780  158.7047 C   0  0  0  0  0  0  0  0  0  0  0  0
  152.2534  143.3037  159.7799 C   0  0  0  0  0  0  0  0  0  0  0  0
  153.0098  142.7328  160.8219 C   0  0  0  0  0  0  0  0  0  0  0  0
  153.3447  141.3670  160.7472 C   0  0  0  0  0  0  0  0  0  0  0  0
  152.9057  140.6290  159.6298 C   0  0  0  0  0  0  0  0  0  0  0  0
  152.1791  141.1665  158.6256 N   0  0  0  0  0  0  0  0  0  0  0  0
  146.0964  141.2737  155.4970 H   0  0  0  0  0  0  0  0  0  0  0  0
  145.6416  142.5977  154.4380 H   0  0  0  0  0  0  0  0  0  0  0  0
  146.7091  142.8972  155.7943 H   0  0  0  0  0  0  0  0  0  0  0  0
  147.9603  142.8486  153.6529 H   0  0  0  0  0  0  0  0  0  0  0  0
  146.4187  141.3274  152.4354 H   0  0  0  0  0  0  0  0  0  0  0  0
  148.1031  140.9241  152.2067 H   0  0  0  0  0  0  0  0  0  0  0  0
  147.3376  138.4998  151.5921 H   0  0  0  0  0  0  0  0  0  0  0  0
  145.7273  139.1956  151.7902 H   0  0  0  0  0  0  0  0  0  0  0  0
  146.1568  137.7564  152.6821 H   0  0  0  0  0  0  0  0  0  0  0  0
  149.0492  138.9137  153.4430 H   0  0  0  0  0  0  0  0  0  0  0  0
  148.7773  137.2136  155.3018 H   0  0  0  0  0  0  0  0  0  0  0  0
  147.8146  136.8367  153.8952 H   0  0  0  0  0  0  0  0  0  0  0  0
  147.0501  137.5474  155.3191 H   0  0  0  0  0  0  0  0  0  0  0  0
  147.8925  139.9009  156.0927 H   0  0  0  0  0  0  0  0  0  0  0  0
  149.5532  139.4899  155.7690 H   0  0  0  0  0  0  0  0  0  0  0  0
  149.7416  141.3218  154.1177 H   0  0  0  0  0  0  0  0  0  0  0  0
  149.3679  143.1824  155.5760 H   0  0  0  0  0  0  0  0  0  0  0  0
  150.6315  140.9813  157.0294 H   0  0  0  0  0  0  0  0  0  0  0  0
  151.4012  141.9033  155.7482 H   0  0  0  0  0  0  0  0  0  0  0  0
  151.6084  143.8260  157.0617 H   0  0  0  0  0  0  0  0  0  0  0  0
  150.1460  143.5086  157.9621 H   0  0  0  0  0  0  0  0  0  0  0  0
  151.9818  144.3487  159.8110 H   0  0  0  0  0  0  0  0  0  0  0  0
  153.3269  143.3315  161.6630 H   0  0  0  0  0  0  0  0  0  0  0  0
  153.9237  140.8961  161.5279 H   0  0  0  0  0  0  0  0  0  0  0  0
  153.1444  139.5795  159.5404 H   0  0  0  0  0  0  0  0  0  0  0  0
  148.6261  142.2125  156.6673 H   0  0  0  0  0  0  0  0  0  0  0  0
  146.2929  139.6193  154.0918 H   0  0  0  0  0  0  0  0  0  0  0  0
  1  2  1  0  0  0  0
  1 19  1  0  0  0  0
  1 20  1  0  0  0  0
  1 21  1  0  0  0  0
  2  9  1  0  0  0  0
  2  3  1  0  0  0  0
  2 22  1  0  0  0  0
  3  4  1  0  0  0  0
  3 23  1  0  0  0  0
  3 24  1  0  0  0  0
  4  5  1  0  0  0  0
  4  6  1  0  0  0  0
  4 45  1  0  0  0  0
  5 25  1  0  0  0  0
  5 26  1  0  0  0  0
  5 27  1  0  0  0  0
  6  7  1  0  0  0  0
  6  8  1  0  0  0  0
  6 28  1  0  0  0  0
  7 29  1  0  0  0  0
  7 30  1  0  0  0  0
  7 31  1  0  0  0  0
  8  9  1  0  0  0  0
  8 32  1  0  0  0  0
  8 33  1  0  0  0  0
  9 10  1  0  0  0  0
  9 34  1  0  0  0  0
 10 11  1  0  0  0  0
 10 35  1  0  0  0  0
 10 44  1  0  0  0  0
 11 12  1  0  0  0  0
 11 36  1  0  0  0  0
 11 37  1  0  0  0  0
 12 13  1  0  0  0  0
 12 38  1  0  0  0  0
 12 39  1  0  0  0  0
 13 18  1  0  0  0  0
 13 14  2  0  0  0  0
 14 15  1  0  0  0  0
 14 40  1  0  0  0  0
 15 16  2  0  0  0  0
 15 41  1  0  0  0  0
 16 17  1  0  0  0  0
 16 42  1  0  0  0  0
 17 18  2  0  0  0  0
 17 43  1  0  0  0  0
M  CHG  1   4   1
M  CHG  1  10   1
M  END
> <s_m_source_file>
AV-unprocessed.smi

> <i_m_source_file_index>
3303

> <i_lp_mmshare_version>
43012

> <i_f3d_flags>
0

> <s_epik_input>
W0NIM11bQ0BASF0xW0NIMl1OKFtDSDNdKVtDQEBIXShbQ0gzXSlbQ0gyXVtDQEhdMVtOSF1bQ0gyXVtDSDJdYzJbY0hdW2NIXVtjSF1bY0hdbjI=

> <s_epik_cmdline>
J2VwaWtfcHl0aG9uJywgJy1waCcsICc3LjAnLCAnLXRuJywgJzgnLCAnLW1hJywgJzIwMCcsICctbWV0YWxfYmluZGluZycsICctaW1hZScsICc8aW5maWxlLm1hZT4nLCAnLW9tYWUnLCAnPG91dGZpbGUubWFlPic=

> <r_epik_Ionization_Penalty>
0.0769462

> <r_epik_Ionization_Penalty_Charging>
0.0759813

> <r_epik_Ionization_Penalty_Neutral>
0.000964829

> <r_epik_State_Penalty>
0.0654373

> <r_epik_Charging_Adjusted_Penalty>
0.141419

> <i_epik_Tot_Q>
2

> <i_epik_Tot_abs_Q>
2

> <r_epik_Metal_State_Penalty>
0.0656439

> <b_epik_Metal_Only>
0

> <s_lp_Force_Field>
OPLS_2005

> <r_lp_Energy>
31.1482

> <b_lp_Chiralities_Consistent>
1

> <s_lp_Variant>
AV-unprocessed.smi:3303-15

> <Gold.Version>
5.8.1

> <Gold.Id.Protein>
6NUR|6NUR_protein|mol2

> <Gold.PLP.Fitness>
44.1935

> <Gold.PLP.PLP>
-38.7637

> <Gold.PLP.part.hbond>
-0.9271

> <Gold.PLP.part.metal>
0.0000

> <Gold.PLP.part.buried>
-4.5615

> <Gold.PLP.part.nonpolar>
-34.6468

> <Gold.PLP.part.repulsive>
0.1185

> <Gold.PLP.ligand.clash>
0.0000

> <Gold.PLP.ligand.torsion>
0.2886

> <Gold.PLP.Chemscore.Hbond>
2.0000

> <Gold.PLP.Chemscore.CHOScore>
0.0000

> <Gold.PLP.Chemscore.Metal>
0.0000

> <Gold.Chemscore.Hbonds>
donor molecule, donor type, donor heavy atom, donor atom, acceptor molecule, acceptor atom, score
      L1  H    10    35       P1  8028  1.98

> <Gold.PLP.Chemscore.Internal.Correction>
0.0069

> <Gold.Rescore>
     Score         DG    S(hbond)    S(metal)    S(lipo)     H(rot)  DE(clash)    DE(int)     intcor
     18.25     -18.83       0.97        0.00     116.54       1.37       0.26       0.32       ----

> <Gold.Chemscore.Fitness>
18.2478

> <Gold.Chemscore.DG>
-18.8275

> <Gold.Chemscore.ZeroCoef>
-5.4800

> <Gold.Chemscore.Hbond>
0.9673

> <Gold.Chemscore.Metal>
0.0000

> <Gold.Chemscore.Lipo>
116.5404

> <Gold.Chemscore.Internal_Hbond>
0.0000

> <Gold.Chemscore.DEClash>
0.2642

> <Gold.Chemscore.DEInternal>
0.3155

> <Gold.Chemscore.Rot>
1.3744

> <Gold.Chemscore.Internal.Correction>
   9.000000E+99

> <Gold.Chemscore.Hbonds>
donor molecule, donor type, donor heavy atom, donor atom, acceptor molecule, acceptor atom, score
      L1  H    10    35       P1  8028  0.92

> <Gold.Chemscore.Hbond.Weighted>
-3.2307

> <Gold.Chemscore.Metal.Weighted>
-0.0000

> <Gold.Chemscore.Lipo.Weighted>
-13.6352

> <Gold.Chemscore.Internal_Hbond.Weighted>
0.0000

> <Gold.Chemscore.DEClash.Weighted>
0.2642

> <Gold.Chemscore.DEInternal.Weighted>
0.3155

> <Gold.Chemscore.Rot.Weighted>
3.5185

> <Gold.Chemscore.Internal.Correction.Weighted>
   9.000000E+99

> <Gold.Protein.RotatedTorsions>
[ 6907 6896 6895 6894 ] final   46.61 input  -60.11 | X-H torsion
[ 7974 7965 7964 7962 ] final  -92.17 input  175.53 | X-H torsion
[ 8008 7997 7996 7995 ] final   56.69 input   59.86 | X-H torsion
[ 10167 10162 10161 10158 ] final   -7.07 input  -65.29 | X-H torsion
[ 10718 10713 10712 10709 ] final  163.62 input   66.30 | X-H torsion
[ 10763 10752 10751 10750 ] final  178.86 input  -60.55 | X-H torsion
[ 11005 11000 10999 10996 ] final   79.96 input  -57.11 | X-H torsion

> <Gold.Protein.ActiveResidues>
 VAL166  LYS551  ARG553  GLY616  TRP617  ASP618  TYR619  PRO620  LYS621  CYS622 
 ASP623  PHE694  ASN695  SER759  ASP760  ASP761  ALA762  ILE779  LEU786  VAL792 
 PHE793  MET794  SER795  GLU796  ALA797  LYS798  CYS799  TRP800  GLU811  SER814 

> <Gold.Protein.RotatedAtoms>
  152.2584  134.8060  160.0434 H   0  0  0  0  0  0  0  0  0  0  0  0  # atno 6907 bound_to 6896
  151.8715  133.3471  159.3744 H   0  0  0  0  0  0  0  0  0  0  0  0  # atno 6908 bound_to 6896
  150.7108  134.5035  159.5617 H   0  0  0  0  0  0  0  0  0  0  0  0  # atno 6909 bound_to 6896
  145.4034  140.9539  143.2274 H   0  0  0  0  0  0  0  0  0  0  0  0  # atno 7974 bound_to 7965
  155.5215  140.3480  155.4408 H   0  0  0  0  0  0  0  0  0  0  0  0  # atno 8008 bound_to 7997
  156.0781  140.1379  156.9773 H   0  0  0  0  0  0  0  0  0  0  0  0  # atno 8009 bound_to 7997
  154.4564  140.0952  156.6746 H   0  0  0  0  0  0  0  0  0  0  0  0  # atno 8010 bound_to 7997
  140.7017  143.6122  150.8693 H   0  0  0  0  0  0  0  0  0  0  0  0  # atno 10167 bound_to 10162
  157.1060  131.0455  151.2478 H   0  0  0  0  0  0  0  0  0  0  0  0  # atno 10718 bound_to 10713
  154.5131  135.2789  155.1326 H   0  0  0  0  0  0  0  0  0  0  0  0  # atno 10763 bound_to 10752
  154.2913  135.6266  153.5390 H   0  0  0  0  0  0  0  0  0  0  0  0  # atno 10764 bound_to 10752
  152.9922  135.5674  154.5601 H   0  0  0  0  0  0  0  0  0  0  0  0  # atno 10765 bound_to 10752
  139.9152  134.7883  156.1847 H   0  0  0  0  0  0  0  0  0  0  0  0  # atno 11005 bound_to 11000
  144.8358  139.5553  143.6923 LP  0  0  0  0  0  0  0  0  0  0  0  0  # atno 17320 bound_to 7965
  146.2740  139.6707  142.9276 LP  0  0  0  0  0  0  0  0  0  0  0  0  # atno 17321 bound_to 7965
  139.9845  143.5915  152.2931 LP  0  0  0  0  0  0  0  0  0  0  0  0  # atno 17342 bound_to 10162
  139.6547  144.7662  151.2078 LP  0  0  0  0  0  0  0  0  0  0  0  0  # atno 17343 bound_to 10162
  157.4600  130.7648  149.7228 LP  0  0  0  0  0  0  0  0  0  0  0  0  # atno 17370 bound_to 10713
  155.9862  130.3977  150.3224 LP  0  0  0  0  0  0  0  0  0  0  0  0  # atno 17371 bound_to 10713
  141.0621  133.6837  156.1972 LP  0  0  0  0  0  0  0  0  0  0  0  0  # atno 17394 bound_to 11000
  140.6645  134.4933  157.5585 LP  0  0  0  0  0  0  0  0  0  0  0  0  # atno 17395 bound_to 11000

$$$$
