AV-unprocessed.smi:2886|AV-procd|sdf|11096|dock4
  -GOLD-   2272015563D 1   1.00000     0.00000
 Structure written by MMmdl.
 27 29  0  0  0  0  0  0  0  0  2 V2000
  151.6096  138.8407  154.7390 O   0  0  0  0  0  0  0  0  0  0  0  0
  151.8983  139.2710  155.8544 C   0  0  0  0  0  0  0  0  0  0  0  0
  152.8489  138.6788  156.6393 N   0  5  0  0  0  0  0  0  0  0  0  0
  153.1463  139.2152  157.9488 N   0  0  0  0  0  0  0  0  0  0  0  0
  152.5413  140.2468  158.3891 C   0  0  0  0  0  0  0  0  0  0  0  0
  151.5088  140.9606  157.5981 C   0  0  0  0  0  0  0  0  0  0  0  0
  150.8483  142.0845  158.0780 N   0  0  0  0  0  0  0  0  0  0  0  0
  151.0099  142.7566  159.3601 C   0  0  1  0  0  0  0  0  0  0  0  0
  152.4748  142.9658  159.7471 C   0  0  0  0  0  0  0  0  0  0  0  0
  152.5104  144.4771  160.0165 C   0  0  1  0  0  0  0  0  0  0  0  0
  152.4751  145.2823  158.7113 C   0  0  0  0  0  0  0  0  0  0  0  0
  151.0269  145.0887  158.2657 C   0  0  0  0  0  0  0  0  0  0  0  0
  150.4658  144.1953  159.3849 C   0  0  2  0  0  0  0  0  0  0  0  0
  151.1929  144.7018  160.4920 O   0  0  0  0  0  0  0  0  0  0  0  0
  151.2102  140.4596  156.3727 C   0  0  0  0  0  0  0  0  0  0  0  0
  150.0076  141.2156  155.3786 Cl  0  0  0  0  0  0  0  0  0  0  0  0
  152.7575  140.6482  159.3818 H   0  0  0  0  0  0  0  0  0  0  0  0
  150.2748  142.5816  157.4119 H   0  0  0  0  0  0  0  0  0  0  0  0
  150.5338  142.1763  160.1503 H   0  0  0  0  0  0  0  0  0  0  0  0
  152.7117  142.4018  160.6498 H   0  0  0  0  0  0  0  0  0  0  0  0
  153.1814  142.6723  158.9693 H   0  0  0  0  0  0  0  0  0  0  0  0
  153.2976  144.7858  160.7050 H   0  0  0  0  0  0  0  0  0  0  0  0
  152.6791  146.3369  158.8991 H   0  0  0  0  0  0  0  0  0  0  0  0
  153.1966  144.9192  157.9785 H   0  0  0  0  0  0  0  0  0  0  0  0
  150.5067  146.0469  158.2445 H   0  0  0  0  0  0  0  0  0  0  0  0
  150.9413  144.6393  157.2760 H   0  0  0  0  0  0  0  0  0  0  0  0
  149.3826  144.2537  159.4953 H   0  0  0  0  0  0  0  0  0  0  0  0
  1  2  2  0  0  0  0
  2 15  1  0  0  0  0
  2  3  1  0  0  0  0
  3  4  1  0  0  0  0
  4  5  2  0  0  0  0
  5  6  1  0  0  0  0
  5 17  1  0  0  0  0
  6  7  1  0  0  0  0
  6 15  2  0  0  0  0
  7  8  1  0  0  0  0
  7 18  1  0  0  0  0
  8 13  1  0  0  0  0
  8  9  1  0  0  0  0
  8 19  1  0  0  0  0
  9 10  1  0  0  0  0
  9 20  1  0  0  0  0
  9 21  1  0  0  0  0
 10 14  1  0  0  0  0
 10 11  1  0  0  0  0
 10 22  1  0  0  0  0
 11 12  1  0  0  0  0
 11 23  1  0  0  0  0
 11 24  1  0  0  0  0
 12 13  1  0  0  0  0
 12 25  1  0  0  0  0
 12 26  1  0  0  0  0
 13 14  1  0  0  0  0
 13 27  1  0  0  0  0
 15 16  1  0  0  0  0
M  CHG  1   3  -1
M  END
> <s_m_source_file>
AV-unprocessed.smi

> <i_m_source_file_index>
2886

> <i_lp_mmshare_version>
43012

> <i_f3d_flags>
0

> <s_epik_input>
Tz1jMVtuSF1uW2NIXWMoYzFDbClbTkhdW0NASF0oW0NIMl1bQ0BASF0yMylbQ0BASF0oTzMpW0NIMl1bQ0gyXTI=

> <s_epik_cmdline>
J2VwaWtfcHl0aG9uJywgJy1waCcsICc3LjAnLCAnLXRuJywgJzgnLCAnLW1hJywgJzIwMCcsICctbWV0YWxfYmluZGluZycsICctaW1hZScsICc8aW5maWxlLm1hZT4nLCAnLW9tYWUnLCAnPG91dGZpbGUubWFlPic=

> <r_lp_tautomer_probability>
0.986175

> <r_epik_Ionization_Penalty>
3.84253

> <r_epik_Ionization_Penalty_Charging>
0.0129711

> <r_epik_Ionization_Penalty_Neutral>
3.82956

> <r_epik_State_Penalty>
3.8249

> <r_epik_Charging_Adjusted_Penalty>
3.83787

> <i_epik_Tot_Q>
-1

> <i_epik_Tot_abs_Q>
1

> <r_epik_Metal_State_Penalty>
0.57612

> <b_epik_Metal_Only>
1

> <s_lp_Force_Field>
OPLS_2005

> <r_lp_Energy>
60.9826

> <b_lp_Chiralities_Consistent>
1

> <s_lp_Variant>
AV-unprocessed.smi:2886-10

> <Gold.Version>
5.8.1

> <Gold.Id.Protein>
6NUR|6NUR_protein|mol2

> <Gold.PLP.Fitness>
35.3817

> <Gold.PLP.PLP>
-31.4518

> <Gold.PLP.part.hbond>
-2.8802

> <Gold.PLP.part.metal>
0.0000

> <Gold.PLP.part.buried>
-3.3024

> <Gold.PLP.part.nonpolar>
-24.4558

> <Gold.PLP.part.repulsive>
0.3225

> <Gold.PLP.ligand.clash>
0.0000

> <Gold.PLP.ligand.torsion>
0.2146

> <Gold.PLP.Chemscore.Hbond>
1.4500

> <Gold.PLP.Chemscore.CHOScore>
0.0000

> <Gold.PLP.Chemscore.Metal>
0.0000

> <Gold.Chemscore.Hbonds>
donor molecule, donor type, donor heavy atom, donor atom, acceptor molecule, acceptor atom, score
      P1  H  7989  7998       L1     1  0.16

> <Gold.PLP.Chemscore.Internal.Correction>
0.0091

> <Gold.Rescore>
     Score         DG    S(hbond)    S(metal)    S(lipo)     H(rot)  DE(clash)    DE(int)     intcor
     15.01     -15.15       0.50        0.00      90.32       1.00       0.03       0.11       ----

> <Gold.Chemscore.Fitness>
15.0116

> <Gold.Chemscore.DG>
-15.1487

> <Gold.Chemscore.ZeroCoef>
-5.4800

> <Gold.Chemscore.Hbond>
0.4973

> <Gold.Chemscore.Metal>
0.0000

> <Gold.Chemscore.Lipo>
90.3222

> <Gold.Chemscore.Internal_Hbond>
0.0000

> <Gold.Chemscore.DEClash>
0.0272

> <Gold.Chemscore.DEInternal>
0.1099

> <Gold.Chemscore.Rot>
1.0000

> <Gold.Chemscore.Internal.Correction>
   9.000000E+99

> <Gold.Chemscore.Hbonds>
donor molecule, donor type, donor heavy atom, donor atom, acceptor molecule, acceptor atom, score
      P1  H  7989  7998       L1     1  0.04

> <Gold.Chemscore.Hbond.Weighted>
-1.6610

> <Gold.Chemscore.Metal.Weighted>
-0.0000

> <Gold.Chemscore.Lipo.Weighted>
-10.5677

> <Gold.Chemscore.Internal_Hbond.Weighted>
0.0000

> <Gold.Chemscore.DEClash.Weighted>
0.0272

> <Gold.Chemscore.DEInternal.Weighted>
0.1099

> <Gold.Chemscore.Rot.Weighted>
2.5600

> <Gold.Chemscore.Internal.Correction.Weighted>
   9.000000E+99

> <Gold.Protein.RotatedTorsions>
[ 6907 6896 6895 6894 ] final -151.31 input  -60.11 | X-H torsion
[ 7974 7965 7964 7962 ] final  129.44 input  175.53 | X-H torsion
[ 8008 7997 7996 7995 ] final   41.97 input   59.86 | X-H torsion
[ 10167 10162 10161 10158 ] final   13.55 input  -65.29 | X-H torsion
[ 10718 10713 10712 10709 ] final -166.46 input   66.30 | X-H torsion
[ 10763 10752 10751 10750 ] final  -61.76 input  -60.55 | X-H torsion
[ 11005 11000 10999 10996 ] final   75.62 input  -57.11 | X-H torsion

> <Gold.Protein.ActiveResidues>
 VAL166  LYS551  ARG553  GLY616  TRP617  ASP618  TYR619  PRO620  LYS621  CYS622 
 ASP623  PHE694  ASN695  SER759  ASP760  ASP761  ALA762  ILE779  LEU786  VAL792 
 PHE793  MET794  SER795  GLU796  ALA797  LYS798  CYS799  TRP800  GLU811  SER814 

> <Gold.Protein.RotatedAtoms>
  151.2112  133.4555  159.2598 H   0  0  0  0  0  0  0  0  0  0  0  0  # atno 6907 bound_to 6896
  151.0975  134.9953  159.8442 H   0  0  0  0  0  0  0  0  0  0  0  0  # atno 6908 bound_to 6896
  152.5440  134.2041  159.8777 H   0  0  0  0  0  0  0  0  0  0  0  0  # atno 6909 bound_to 6896
  145.0287  139.4066  143.5161 H   0  0  0  0  0  0  0  0  0  0  0  0  # atno 7974 bound_to 7965
  155.2785  140.3371  155.4260 H   0  0  0  0  0  0  0  0  0  0  0  0  # atno 8008 bound_to 7997
  156.2101  140.1766  156.7756 H   0  0  0  0  0  0  0  0  0  0  0  0  # atno 8009 bound_to 7997
  154.5674  140.0676  156.8897 H   0  0  0  0  0  0  0  0  0  0  0  0  # atno 8010 bound_to 7997
  140.5995  143.8634  150.6951 H   0  0  0  0  0  0  0  0  0  0  0  0  # atno 10167 bound_to 10162
  156.6682  130.9073  151.3039 H   0  0  0  0  0  0  0  0  0  0  0  0  # atno 10718 bound_to 10713
  154.2895  135.6256  153.5379 H   0  0  0  0  0  0  0  0  0  0  0  0  # atno 10763 bound_to 10752
  152.9854  135.5652  154.5406 H   0  0  0  0  0  0  0  0  0  0  0  0  # atno 10764 bound_to 10752
  154.5014  135.2872  155.1393 H   0  0  0  0  0  0  0  0  0  0  0  0  # atno 10765 bound_to 10752
  139.9335  134.7532  156.1293 H   0  0  0  0  0  0  0  0  0  0  0  0  # atno 11005 bound_to 11000
  146.3495  139.9824  142.8694 LP  0  0  0  0  0  0  0  0  0  0  0  0  # atno 17320 bound_to 7965
  145.1800  140.9762  143.4272 LP  0  0  0  0  0  0  0  0  0  0  0  0  # atno 17321 bound_to 7965
  140.2176  143.3834  152.1668 LP  0  0  0  0  0  0  0  0  0  0  0  0  # atno 17342 bound_to 10162
  139.5281  144.7127  151.5155 LP  0  0  0  0  0  0  0  0  0  0  0  0  # atno 17343 bound_to 10162
  157.7086  130.9414  150.1014 LP  0  0  0  0  0  0  0  0  0  0  0  0  # atno 17370 bound_to 10713
  156.1959  130.3657  149.8850 LP  0  0  0  0  0  0  0  0  0  0  0  0  # atno 17371 bound_to 10713
  141.0937  133.6704  156.2598 LP  0  0  0  0  0  0  0  0  0  0  0  0  # atno 17394 bound_to 11000
  140.6137  134.5433  157.5537 LP  0  0  0  0  0  0  0  0  0  0  0  0  # atno 17395 bound_to 11000

$$$$
