AV-unprocessed.smi:2446|AV-procd|sdf|9646|dock8
  -GOLD-   2272013283D 1   1.00000     0.00000
 Structure written by MMmdl.
 40 41  0  0  0  0  0  0  0  0  2 V2000
  147.2135  141.7256  154.4184 C   0  0  0  0  0  0  0  0  0  0  0  0
  148.1679  140.5443  154.4680 C   0  0  0  0  0  0  0  0  0  0  0  0
  147.8618  139.3725  153.7423 C   0  0  0  0  0  0  0  0  0  0  0  0
  148.6984  138.3142  153.7792 N   0  3  0  0  0  0  0  0  0  0  0  0
  149.8408  138.3121  154.4968 C   0  0  0  0  0  0  0  0  0  0  0  0
  150.2040  139.4502  155.2438 C   0  0  0  0  0  0  0  0  0  0  0  0
  149.3666  140.5953  155.2252 C   0  0  0  0  0  0  0  0  0  0  0  0
  149.6487  141.7802  155.9616 N   0  0  0  0  0  0  0  0  0  0  0  0
  150.6360  142.0203  156.8467 C   0  0  0  0  0  0  0  0  0  0  0  0
  151.4773  141.1967  157.1985 O   0  0  0  0  0  0  0  0  0  0  0  0
  150.6494  143.2773  157.3279 N   0  0  0  0  0  0  0  0  0  0  0  0
  151.5745  143.8723  158.2957 C   0  0  1  0  0  0  0  0  0  0  0  0
  150.9430  145.1410  158.8962 C   0  0  0  0  0  0  0  0  0  0  0  0
  151.8547  145.7669  159.9627 C   0  0  0  0  0  0  0  0  0  0  0  0
  152.2053  144.7533  161.0635 C   0  0  0  0  0  0  0  0  0  0  0  0
  152.8504  143.4797  160.4777 C   0  0  1  0  0  0  0  0  0  0  0  0
  153.2260  142.4613  161.5736 C   0  0  0  0  0  0  0  0  0  0  0  0
  154.1137  141.5774  161.1167 F   0  0  0  0  0  0  0  0  0  0  0  0
  153.7495  143.0952  162.6231 F   0  0  0  0  0  0  0  0  0  0  0  0
  152.1382  141.8084  161.9826 F   0  0  0  0  0  0  0  0  0  0  0  0
  151.9240  142.8619  159.4091 C   0  0  0  0  0  0  0  0  0  0  0  0
  146.3360  141.5003  153.8117 H   0  0  0  0  0  0  0  0  0  0  0  0
  147.7071  142.5964  153.9860 H   0  0  0  0  0  0  0  0  0  0  0  0
  146.8717  141.9846  155.4210 H   0  0  0  0  0  0  0  0  0  0  0  0
  146.9758  139.2488  153.1365 H   0  0  0  0  0  0  0  0  0  0  0  0
  150.4243  137.4037  154.4576 H   0  0  0  0  0  0  0  0  0  0  0  0
  151.1118  139.4147  155.8259 H   0  0  0  0  0  0  0  0  0  0  0  0
  149.0765  142.5775  155.7252 H   0  0  0  0  0  0  0  0  0  0  0  0
  149.9220  143.8910  156.9893 H   0  0  0  0  0  0  0  0  0  0  0  0
  152.4914  144.1731  157.7853 H   0  0  0  0  0  0  0  0  0  0  0  0
  150.7463  145.8699  158.1091 H   0  0  0  0  0  0  0  0  0  0  0  0
  149.9773  144.9001  159.3433 H   0  0  0  0  0  0  0  0  0  0  0  0
  152.7704  146.1292  159.4941 H   0  0  0  0  0  0  0  0  0  0  0  0
  151.3674  146.6378  160.4021 H   0  0  0  0  0  0  0  0  0  0  0  0
  152.8797  145.2200  161.7818 H   0  0  0  0  0  0  0  0  0  0  0  0
  151.3019  144.4911  161.6156 H   0  0  0  0  0  0  0  0  0  0  0  0
  153.7759  143.7764  159.9811 H   0  0  0  0  0  0  0  0  0  0  0  0
  151.0071  142.5067  159.8817 H   0  0  0  0  0  0  0  0  0  0  0  0
  152.4022  141.9833  158.9763 H   0  0  0  0  0  0  0  0  0  0  0  0
  148.4543  137.4788  153.2467 H   0  0  0  0  0  0  0  0  0  0  0  0
  1  2  1  0  0  0  0
  1 22  1  0  0  0  0
  1 23  1  0  0  0  0
  1 24  1  0  0  0  0
  2  7  1  0  0  0  0
  2  3  2  0  0  0  0
  3  4  1  0  0  0  0
  3 25  1  0  0  0  0
  4  5  2  0  0  0  0
  4 40  1  0  0  0  0
  5  6  1  0  0  0  0
  5 26  1  0  0  0  0
  6  7  2  0  0  0  0
  6 27  1  0  0  0  0
  7  8  1  0  0  0  0
  8  9  1  0  0  0  0
  8 28  1  0  0  0  0
  9 10  2  0  0  0  0
  9 11  1  0  0  0  0
 11 12  1  0  0  0  0
 11 29  1  0  0  0  0
 12 21  1  0  0  0  0
 12 13  1  0  0  0  0
 12 30  1  0  0  0  0
 13 14  1  0  0  0  0
 13 31  1  0  0  0  0
 13 32  1  0  0  0  0
 14 15  1  0  0  0  0
 14 33  1  0  0  0  0
 14 34  1  0  0  0  0
 15 16  1  0  0  0  0
 15 35  1  0  0  0  0
 15 36  1  0  0  0  0
 16 17  1  0  0  0  0
 16 21  1  0  0  0  0
 16 37  1  0  0  0  0
 17 18  1  0  0  0  0
 17 19  1  0  0  0  0
 17 20  1  0  0  0  0
 21 38  1  0  0  0  0
 21 39  1  0  0  0  0
M  CHG  1   4   1
M  END
> <s_m_source_file>
AV-unprocessed.smi

> <i_m_source_file_index>
2446

> <i_lp_mmshare_version>
43012

> <i_f3d_flags>
0

> <s_epik_input>
W0NIM11jMVtjSF1uW2NIXVtjSF1jMVtOSF1DKD1PKVtOSF1bQ0BASF0yW0NIMl1bQ0gyXVtDSDJdW0NAQEhdKEMoRikoRilGKVtDSDJdMg==

> <s_epik_cmdline>
J2VwaWtfcHl0aG9uJywgJy1waCcsICc3LjAnLCAnLXRuJywgJzgnLCAnLW1hJywgJzIwMCcsICctbWV0YWxfYmluZGluZycsICctaW1hZScsICc8aW5maWxlLm1hZT4nLCAnLW9tYWUnLCAnPG91dGZpbGUubWFlPic=

> <r_epik_Ionization_Penalty>
0.736582

> <r_epik_Ionization_Penalty_Charging>
0.736562

> <r_epik_Ionization_Penalty_Neutral>
1.98379e-05

> <r_epik_State_Penalty>
0.762314

> <r_epik_Charging_Adjusted_Penalty>
1.49888

> <i_epik_Tot_Q>
1

> <i_epik_Tot_abs_Q>
1

> <r_epik_Metal_State_Penalty>
0.914579

> <b_epik_Metal_Only>
0

> <s_lp_Force_Field>
OPLS_2005

> <r_lp_Energy>
31.4788

> <b_lp_Chiralities_Consistent>
1

> <s_lp_Variant>
AV-unprocessed.smi:2446-6

> <Gold.Version>
5.8.1

> <Gold.Id.Protein>
6NUR|6NUR_protein|mol2

> <Gold.PLP.Fitness>
55.4814

> <Gold.PLP.PLP>
-44.8151

> <Gold.PLP.part.hbond>
-4.0000

> <Gold.PLP.part.metal>
0.0000

> <Gold.PLP.part.buried>
0.2741

> <Gold.PLP.part.nonpolar>
-43.2311

> <Gold.PLP.part.repulsive>
0.2366

> <Gold.PLP.ligand.clash>
0.0000

> <Gold.PLP.ligand.torsion>
0.6763

> <Gold.PLP.Chemscore.Hbond>
4.0000

> <Gold.PLP.Chemscore.CHOScore>
0.0000

> <Gold.PLP.Chemscore.Metal>
0.0000

> <Gold.Chemscore.Hbonds>
donor molecule, donor type, donor heavy atom, donor atom, acceptor molecule, acceptor atom, score
      L1  H     4    40       P1  7948  1.86
      L1  H     8    28       P1  8028  0.67
      L1  H    11    29       P1  8028  1.00

> <Gold.PLP.Chemscore.Internal.Correction>
0.0190

> <Gold.Rescore>
     Score         DG    S(hbond)    S(metal)    S(lipo)     H(rot)  DE(clash)    DE(int)     intcor
     21.22     -25.97       2.62        0.00     122.29       1.00       2.13       2.62       ----

> <Gold.Chemscore.Fitness>
21.2185

> <Gold.Chemscore.DG>
-25.9687

> <Gold.Chemscore.ZeroCoef>
-5.4800

> <Gold.Chemscore.Hbond>
2.6172

> <Gold.Chemscore.Metal>
0.0000

> <Gold.Chemscore.Lipo>
122.2854

> <Gold.Chemscore.Internal_Hbond>
0.0000

> <Gold.Chemscore.DEClash>
2.1273

> <Gold.Chemscore.DEInternal>
2.6229

> <Gold.Chemscore.Rot>
1.0000

> <Gold.Chemscore.Internal.Correction>
   9.000000E+99

> <Gold.Chemscore.Hbonds>
donor molecule, donor type, donor heavy atom, donor atom, acceptor molecule, acceptor atom, score
      L1  H     4    40       P1  7948  0.89
      L1  H     8    28       P1  8028  0.65
      L1  H    11    29       P1  8028  0.93

> <Gold.Chemscore.Hbond.Weighted>
-8.7413

> <Gold.Chemscore.Metal.Weighted>
-0.0000

> <Gold.Chemscore.Lipo.Weighted>
-14.3074

> <Gold.Chemscore.Internal_Hbond.Weighted>
0.0000

> <Gold.Chemscore.DEClash.Weighted>
2.1273

> <Gold.Chemscore.DEInternal.Weighted>
2.6229

> <Gold.Chemscore.Rot.Weighted>
2.5600

> <Gold.Chemscore.Internal.Correction.Weighted>
   9.000000E+99

> <Gold.Protein.RotatedTorsions>
[ 6907 6896 6895 6894 ] final  130.93 input  -60.11 | X-H torsion
[ 7974 7965 7964 7962 ] final  -29.97 input  175.53 | X-H torsion
[ 8008 7997 7996 7995 ] final   56.81 input   59.86 | X-H torsion
[ 10167 10162 10161 10158 ] final  -76.33 input  -65.29 | X-H torsion
[ 10718 10713 10712 10709 ] final   23.59 input   66.30 | X-H torsion
[ 10763 10752 10751 10750 ] final  128.18 input  -60.55 | X-H torsion
[ 11005 11000 10999 10996 ] final   92.72 input  -57.11 | X-H torsion

> <Gold.Protein.ActiveResidues>
 VAL166  LYS551  ARG553  GLY616  TRP617  ASP618  TYR619  PRO620  LYS621  CYS622 
 ASP623  PHE694  ASN695  SER759  ASP760  ASP761  ALA762  ILE779  LEU786  VAL792 
 PHE793  MET794  SER795  GLU796  ALA797  LYS798  CYS799  TRP800  GLU811  SER814 

> <Gold.Protein.RotatedAtoms>
  152.3477  133.6141  159.5921 H   0  0  0  0  0  0  0  0  0  0  0  0  # atno 6907 bound_to 6896
  150.7518  133.9624  159.3528 H   0  0  0  0  0  0  0  0  0  0  0  0  # atno 6908 bound_to 6896
  151.7480  135.0840  160.0377 H   0  0  0  0  0  0  0  0  0  0  0  0  # atno 6909 bound_to 6896
  146.1177  140.5480  142.8749 H   0  0  0  0  0  0  0  0  0  0  0  0  # atno 7974 bound_to 7965
  155.5235  140.3480  155.4411 H   0  0  0  0  0  0  0  0  0  0  0  0  # atno 8008 bound_to 7997
  156.0768  140.1376  156.9788 H   0  0  0  0  0  0  0  0  0  0  0  0  # atno 8009 bound_to 7997
  154.4558  140.0954  156.6727 H   0  0  0  0  0  0  0  0  0  0  0  0  # atno 8010 bound_to 7997
  140.4866  143.2389  151.7973 H   0  0  0  0  0  0  0  0  0  0  0  0  # atno 10167 bound_to 10162
  157.1682  130.6747  149.6068 H   0  0  0  0  0  0  0  0  0  0  0  0  # atno 10718 bound_to 10713
  153.7214  135.3253  155.3267 H   0  0  0  0  0  0  0  0  0  0  0  0  # atno 10763 bound_to 10752
  154.8354  135.4500  154.1213 H   0  0  0  0  0  0  0  0  0  0  0  0  # atno 10764 bound_to 10752
  153.2335  135.6962  153.7943 H   0  0  0  0  0  0  0  0  0  0  0  0  # atno 10765 bound_to 10752
  139.8819  134.8749  156.3614 H   0  0  0  0  0  0  0  0  0  0  0  0  # atno 11005 bound_to 11000
  144.7568  140.5327  143.6763 LP  0  0  0  0  0  0  0  0  0  0  0  0  # atno 17320 bound_to 7965
  145.5531  139.1477  143.3383 LP  0  0  0  0  0  0  0  0  0  0  0  0  # atno 17321 bound_to 7965
  139.4843  144.4703  151.9433 LP  0  0  0  0  0  0  0  0  0  0  0  0  # atno 17342 bound_to 10162
  140.3789  144.2761  150.5911 LP  0  0  0  0  0  0  0  0  0  0  0  0  # atno 17343 bound_to 10162
  155.9742  130.4688  150.6373 LP  0  0  0  0  0  0  0  0  0  0  0  0  # atno 17370 bound_to 10713
  157.4069  131.0818  151.1257 LP  0  0  0  0  0  0  0  0  0  0  0  0  # atno 17371 bound_to 10713
  140.9527  133.7440  156.0293 LP  0  0  0  0  0  0  0  0  0  0  0  0  # atno 17394 bound_to 11000
  140.8086  134.3425  157.5418 LP  0  0  0  0  0  0  0  0  0  0  0  0  # atno 17395 bound_to 11000

$$$$
