AV-unprocessed.smi:3183|AV-procd|sdf|12154|dock9
  -GOLD-   2272017593D 1   1.00000     0.00000
 Structure written by MMmdl.
 43 44  0  0  0  0  0  0  0  0  2 V2000
  152.2298  143.0349  161.3510 C   0  0  0  0  0  0  0  0  0  0  0  0
  152.9530  143.5479  160.0893 C   0  0  1  0  0  0  0  0  0  0  0  0
  153.2687  142.3997  159.1077 C   0  0  0  0  0  0  0  0  0  0  0  0
  152.0128  141.8891  158.3808 C   0  0  0  0  0  0  0  0  0  0  0  0
  151.2876  143.0321  157.6503 C   0  0  1  0  0  0  0  0  0  0  0  0
  150.0587  142.5286  156.9998 N   0  3  0  0  0  0  0  0  0  0  0  0
  149.0408  142.0009  157.9304 C   0  0  0  0  0  0  0  0  0  0  0  0
  148.0299  141.1069  157.1978 C   0  0  0  0  0  0  0  0  0  0  0  0
  147.8892  141.4057  155.7355 C   0  0  0  0  0  0  0  0  0  0  0  0
  146.9047  142.0596  155.0451 C   0  0  0  0  0  0  0  0  0  0  0  0
  147.3403  142.0204  153.6923 C   0  0  0  0  0  0  0  0  0  0  0  0
  148.4957  141.3960  153.5511 N   0  0  0  0  0  0  0  0  0  0  0  0
  148.8352  141.0176  154.8011 N   0  0  0  0  0  0  0  0  0  0  0  0
  150.0786  140.2937  154.9884 C   0  0  0  0  0  0  0  0  0  0  0  0
  150.9492  144.1756  158.6242 C   0  0  0  0  0  0  0  0  0  0  0  0
  152.2084  144.6910  159.3515 C   0  0  1  0  0  0  0  0  0  0  0  0
  151.8948  145.8950  160.2548 C   0  0  0  0  0  0  0  0  0  0  0  0
  151.2246  142.6754  161.1334 H   0  0  0  0  0  0  0  0  0  0  0  0
  152.1460  143.8146  162.1080 H   0  0  0  0  0  0  0  0  0  0  0  0
  152.7805  142.2115  161.8063 H   0  0  0  0  0  0  0  0  0  0  0  0
  153.9107  143.9464  160.4278 H   0  0  0  0  0  0  0  0  0  0  0  0
  153.9879  142.7512  158.3665 H   0  0  0  0  0  0  0  0  0  0  0  0
  153.7567  141.5770  159.6316 H   0  0  0  0  0  0  0  0  0  0  0  0
  152.2964  141.1138  157.6681 H   0  0  0  0  0  0  0  0  0  0  0  0
  151.3390  141.4147  159.0954 H   0  0  0  0  0  0  0  0  0  0  0  0
  151.9625  143.4272  156.8886 H   0  0  0  0  0  0  0  0  0  0  0  0
  149.6479  143.2840  156.4699 H   0  0  0  0  0  0  0  0  0  0  0  0
  149.5396  141.4337  158.7178 H   0  0  0  0  0  0  0  0  0  0  0  0
  148.5258  142.8378  158.4047 H   0  0  0  0  0  0  0  0  0  0  0  0
  148.3241  140.0634  157.3188 H   0  0  0  0  0  0  0  0  0  0  0  0
  147.0540  141.2079  157.6747 H   0  0  0  0  0  0  0  0  0  0  0  0
  146.0039  142.5028  155.4428 H   0  0  0  0  0  0  0  0  0  0  0  0
  146.8554  142.4238  152.8155 H   0  0  0  0  0  0  0  0  0  0  0  0
  150.2334  140.0465  156.0380 H   0  0  0  0  0  0  0  0  0  0  0  0
  150.9141  140.9050  154.6461 H   0  0  0  0  0  0  0  0  0  0  0  0
  150.0553  139.3691  154.4110 H   0  0  0  0  0  0  0  0  0  0  0  0
  150.4856  144.9952  158.0731 H   0  0  0  0  0  0  0  0  0  0  0  0
  150.2080  143.8411  159.3512 H   0  0  0  0  0  0  0  0  0  0  0  0
  152.8883  145.0600  158.5817 H   0  0  0  0  0  0  0  0  0  0  0  0
  151.1477  145.6513  161.0101 H   0  0  0  0  0  0  0  0  0  0  0  0
  151.5059  146.7292  159.6704 H   0  0  0  0  0  0  0  0  0  0  0  0
  152.7906  146.2449  160.7686 H   0  0  0  0  0  0  0  0  0  0  0  0
  150.3183  141.7927  156.3583 H   0  0  0  0  0  0  0  0  0  0  0  0
  1  2  1  0  0  0  0
  1 18  1  0  0  0  0
  1 19  1  0  0  0  0
  1 20  1  0  0  0  0
  2 16  1  0  0  0  0
  2  3  1  0  0  0  0
  2 21  1  0  0  0  0
  3  4  1  0  0  0  0
  3 22  1  0  0  0  0
  3 23  1  0  0  0  0
  4  5  1  0  0  0  0
  4 24  1  0  0  0  0
  4 25  1  0  0  0  0
  5  6  1  0  0  0  0
  5 15  1  0  0  0  0
  5 26  1  0  0  0  0
  6  7  1  0  0  0  0
  6 27  1  0  0  0  0
  6 43  1  0  0  0  0
  7  8  1  0  0  0  0
  7 28  1  0  0  0  0
  7 29  1  0  0  0  0
  8  9  1  0  0  0  0
  8 30  1  0  0  0  0
  8 31  1  0  0  0  0
  9 13  1  0  0  0  0
  9 10  2  0  0  0  0
 10 11  1  0  0  0  0
 10 32  1  0  0  0  0
 11 12  2  0  0  0  0
 11 33  1  0  0  0  0
 12 13  1  0  0  0  0
 13 14  1  0  0  0  0
 14 34  1  0  0  0  0
 14 35  1  0  0  0  0
 14 36  1  0  0  0  0
 15 16  1  0  0  0  0
 15 37  1  0  0  0  0
 15 38  1  0  0  0  0
 16 17  1  0  0  0  0
 16 39  1  0  0  0  0
 17 40  1  0  0  0  0
 17 41  1  0  0  0  0
 17 42  1  0  0  0  0
M  CHG  1   6   1
M  END
> <s_m_source_file>
AV-unprocessed.smi

> <i_m_source_file_index>
3183

> <i_lp_mmshare_version>
43012

> <i_f3d_flags>
0

> <s_epik_input>
W0NIM11bQ0BASF0xW0NIMl1bQ0gyXVtDQEhdKFtDSDJdW0NASF0xW0NIM10pW05IXVtDSDJdW0NIMl1jMltjSF1bY0hdbm4yW0NIM10=

> <s_epik_cmdline>
J2VwaWtfcHl0aG9uJywgJy1waCcsICc3LjAnLCAnLXRuJywgJzgnLCAnLW1hJywgJzIwMCcsICctbWV0YWxfYmluZGluZycsICctaW1hZScsICc8aW5maWxlLm1hZT4nLCAnLW9tYWUnLCAnPG91dGZpbGUubWFlPic=

> <r_lp_tautomer_probability>
1

> <r_epik_Ionization_Penalty>
0.000327718

> <r_epik_Ionization_Penalty_Charging>
0.000294043

> <r_epik_Ionization_Penalty_Neutral>
3.36755e-05

> <r_epik_State_Penalty>
-0

> <r_epik_Charging_Adjusted_Penalty>
0.000294043

> <i_epik_Tot_Q>
1

> <i_epik_Tot_abs_Q>
1

> <r_epik_Metal_State_Penalty>
-0

> <b_epik_Metal_Only>
0

> <s_lp_Force_Field>
OPLS_2005

> <r_lp_Energy>
15.8905

> <b_lp_Chiralities_Consistent>
1

> <s_lp_Variant>
AV-unprocessed.smi:3183-2

> <Gold.Version>
5.8.1

> <Gold.Id.Protein>
6NUR|6NUR_protein|mol2

> <Gold.PLP.Fitness>
47.8440

> <Gold.PLP.PLP>
-40.4809

> <Gold.PLP.part.hbond>
-2.0000

> <Gold.PLP.part.metal>
0.0000

> <Gold.PLP.part.buried>
-4.9767

> <Gold.PLP.part.nonpolar>
-33.9914

> <Gold.PLP.part.repulsive>
1.4592

> <Gold.PLP.ligand.clash>
0.0000

> <Gold.PLP.ligand.torsion>
0.5234

> <Gold.PLP.Chemscore.Hbond>
2.8000

> <Gold.PLP.Chemscore.CHOScore>
0.0000

> <Gold.PLP.Chemscore.Metal>
0.0000

> <Gold.Chemscore.Hbonds>
donor molecule, donor type, donor heavy atom, donor atom, acceptor molecule, acceptor atom, score
      L1  H     6    27       P1  8028  2.00
      P1  H  8011  8017       L1    12  0.74

> <Gold.PLP.Chemscore.Internal.Correction>
0.0098

> <Gold.Rescore>
     Score         DG    S(hbond)    S(metal)    S(lipo)     H(rot)  DE(clash)    DE(int)     intcor
     18.76     -21.49       1.61        0.00     121.11       1.38       1.09       1.65       ----

> <Gold.Chemscore.Fitness>
18.7574

> <Gold.Chemscore.DG>
-21.4907

> <Gold.Chemscore.ZeroCoef>
-5.4800

> <Gold.Chemscore.Hbond>
1.6066

> <Gold.Chemscore.Metal>
0.0000

> <Gold.Chemscore.Lipo>
121.1059

> <Gold.Chemscore.Internal_Hbond>
0.0000

> <Gold.Chemscore.DEClash>
1.0864

> <Gold.Chemscore.DEInternal>
1.6469

> <Gold.Chemscore.Rot>
1.3768

> <Gold.Chemscore.Internal.Correction>
   9.000000E+99

> <Gold.Chemscore.Hbonds>
donor molecule, donor type, donor heavy atom, donor atom, acceptor molecule, acceptor atom, score
      L1  H     6    27       P1  8028  1.00
      P1  H  8011  8017       L1    12  0.58

> <Gold.Chemscore.Hbond.Weighted>
-5.3660

> <Gold.Chemscore.Metal.Weighted>
-0.0000

> <Gold.Chemscore.Lipo.Weighted>
-14.1694

> <Gold.Chemscore.Internal_Hbond.Weighted>
0.0000

> <Gold.Chemscore.DEClash.Weighted>
1.0864

> <Gold.Chemscore.DEInternal.Weighted>
1.6469

> <Gold.Chemscore.Rot.Weighted>
3.5247

> <Gold.Chemscore.Internal.Correction.Weighted>
   9.000000E+99

> <Gold.Protein.RotatedTorsions>
[ 6907 6896 6895 6894 ] final   13.83 input  -60.11 | X-H torsion
[ 7974 7965 7964 7962 ] final   78.84 input  175.53 | X-H torsion
[ 8008 7997 7996 7995 ] final  -55.11 input   59.86 | X-H torsion
[ 10167 10162 10161 10158 ] final -140.69 input  -65.29 | X-H torsion
[ 10718 10713 10712 10709 ] final  -66.66 input   66.30 | X-H torsion
[ 10763 10752 10751 10750 ] final  -67.07 input  -60.55 | X-H torsion
[ 11005 11000 10999 10996 ] final   99.62 input  -57.11 | X-H torsion

> <Gold.Protein.ActiveResidues>
 VAL166  LYS551  ARG553  GLY616  TRP617  ASP618  TYR619  PRO620  LYS621  CYS622 
 ASP623  PHE694  ASN695  SER759  ASP760  ASP761  ALA762  ILE779  LEU786  VAL792 
 PHE793  MET794  SER795  GLU796  ALA797  LYS798  CYS799  TRP800  GLU811  SER814 

> <Gold.Protein.RotatedAtoms>
  151.7925  135.0732  160.0388 H   0  0  0  0  0  0  0  0  0  0  0  0  # atno 6907 bound_to 6896
  152.3146  133.5785  159.5712 H   0  0  0  0  0  0  0  0  0  0  0  0  # atno 6908 bound_to 6896
  150.7338  134.0017  159.3682 H   0  0  0  0  0  0  0  0  0  0  0  0  # atno 6909 bound_to 6896
  145.6720  139.2499  143.1863 H   0  0  0  0  0  0  0  0  0  0  0  0  # atno 7974 bound_to 7965
  154.4184  140.1160  156.5425 H   0  0  0  0  0  0  0  0  0  0  0  0  # atno 8008 bound_to 7997
  155.6494  140.3496  155.4723 H   0  0  0  0  0  0  0  0  0  0  0  0  # atno 8009 bound_to 7997
  155.9805  140.1159  157.0720 H   0  0  0  0  0  0  0  0  0  0  0  0  # atno 8010 bound_to 7997
  139.8257  143.7513  152.2666 H   0  0  0  0  0  0  0  0  0  0  0  0  # atno 10167 bound_to 10162
  156.0600  130.4265  150.1740 H   0  0  0  0  0  0  0  0  0  0  0  0  # atno 10718 bound_to 10713
  154.3692  135.6099  153.5731 H   0  0  0  0  0  0  0  0  0  0  0  0  # atno 10763 bound_to 10752
  152.9791  135.5834  154.4542 H   0  0  0  0  0  0  0  0  0  0  0  0  # atno 10764 bound_to 10752
  154.4293  135.2847  155.1901 H   0  0  0  0  0  0  0  0  0  0  0  0  # atno 10765 bound_to 10752
  139.8770  134.9103  156.4633 H   0  0  0  0  0  0  0  0  0  0  0  0  # atno 11005 bound_to 11000
  146.1037  140.7512  142.9536 LP  0  0  0  0  0  0  0  0  0  0  0  0  # atno 17320 bound_to 7965
  144.7054  140.3829  143.7122 LP  0  0  0  0  0  0  0  0  0  0  0  0  # atno 17321 bound_to 7965
  139.7705  144.7478  151.0231 LP  0  0  0  0  0  0  0  0  0  0  0  0  # atno 17342 bound_to 10162
  140.7810  143.4650  151.0225 LP  0  0  0  0  0  0  0  0  0  0  0  0  # atno 17343 bound_to 10162
  156.9810  130.9864  151.3437 LP  0  0  0  0  0  0  0  0  0  0  0  0  # atno 17370 bound_to 10713
  157.5601  130.8240  149.8255 LP  0  0  0  0  0  0  0  0  0  0  0  0  # atno 17371 bound_to 10713
  140.8848  133.7891  155.9507 LP  0  0  0  0  0  0  0  0  0  0  0  0  # atno 17394 bound_to 11000
  140.8815  134.2605  157.5141 LP  0  0  0  0  0  0  0  0  0  0  0  0  # atno 17395 bound_to 11000

$$$$
