AV-unprocessed.smi:2032|AV-procd|sdf|8238|dock1
  -GOLD-   2272010503D 1   1.00000     0.00000
 Structure written by MMmdl.
 43 44  0  0  0  0  0  0  0  0  2 V2000
  143.3716  142.4608  156.7806 C   0  0  0  0  0  0  0  0  0  0  0  0
  143.4533  143.9233  157.2320 C   0  0  1  0  0  0  0  0  0  0  0  0
  144.9160  144.4081  157.3560 C   0  0  0  0  0  0  0  0  0  0  0  0
  144.9917  145.8597  157.6812 N   0  3  2  0  0  0  0  0  0  0  0  0
  144.7185  146.1884  159.1213 C   0  0  2  0  0  0  0  0  0  0  0  0
  144.8399  147.6998  159.4334 C   0  0  0  0  0  0  0  0  0  0  0  0
  145.6607  145.3786  160.0547 C   0  0  0  0  0  0  0  0  0  0  0  0
  147.0263  145.2794  159.5469 N   0  0  0  0  0  0  0  0  0  0  0  0
  148.0430  144.6958  160.1979 C   0  0  0  0  0  0  0  0  0  0  0  0
  147.9203  144.1627  161.3014 O   0  0  0  0  0  0  0  0  0  0  0  0
  149.1861  144.7786  159.4951 N   0  0  0  0  0  0  0  0  0  0  0  0
  150.4813  144.3382  159.8737 C   0  0  0  0  0  0  0  0  0  0  0  0
  150.8264  143.9919  161.1196 N   0  0  0  0  0  0  0  0  0  0  0  0
  152.1667  143.6066  161.2040 C   0  0  0  0  0  0  0  0  0  0  0  0
  152.8325  143.6687  160.0051 C   0  0  0  0  0  0  0  0  0  0  0  0
  151.7960  144.2143  158.7139 S   0  0  0  0  0  0  0  0  0  0  0  0
  144.2070  146.6090  156.6625 C   0  0  0  0  0  0  0  0  0  0  0  0
  142.7517  146.1033  156.6010 C   0  0  1  0  0  0  0  0  0  0  0  0
  141.9311  146.8391  155.5361 C   0  0  0  0  0  0  0  0  0  0  0  0
  142.7702  144.7191  156.2685 O   0  0  0  0  0  0  0  0  0  0  0  0
  143.8677  141.8013  157.4933 H   0  0  0  0  0  0  0  0  0  0  0  0
  143.8448  142.3197  155.8085 H   0  0  0  0  0  0  0  0  0  0  0  0
  142.3341  142.1365  156.6962 H   0  0  0  0  0  0  0  0  0  0  0  0
  142.9406  144.0081  158.1908 H   0  0  0  0  0  0  0  0  0  0  0  0
  145.4563  143.7970  158.0753 H   0  0  0  0  0  0  0  0  0  0  0  0
  145.4255  144.2526  156.4038 H   0  0  0  0  0  0  0  0  0  0  0  0
  143.6886  145.9103  159.3412 H   0  0  0  0  0  0  0  0  0  0  0  0
  144.6960  147.9088  160.4930 H   0  0  0  0  0  0  0  0  0  0  0  0
  144.0801  148.2866  158.9177 H   0  0  0  0  0  0  0  0  0  0  0  0
  145.8207  148.0865  159.1552 H   0  0  0  0  0  0  0  0  0  0  0  0
  145.7165  145.8025  161.0558 H   0  0  0  0  0  0  0  0  0  0  0  0
  145.2750  144.3661  160.1782 H   0  0  0  0  0  0  0  0  0  0  0  0
  147.2096  145.6897  158.6425 H   0  0  0  0  0  0  0  0  0  0  0  0
  149.1294  145.2290  158.5935 H   0  0  0  0  0  0  0  0  0  0  0  0
  152.5666  143.3027  162.1602 H   0  0  0  0  0  0  0  0  0  0  0  0
  153.8659  143.4279  159.8047 H   0  0  0  0  0  0  0  0  0  0  0  0
  144.2543  147.6868  156.8098 H   0  0  0  0  0  0  0  0  0  0  0  0
  144.6776  146.4448  155.6919 H   0  0  0  0  0  0  0  0  0  0  0  0
  142.2613  146.2377  157.5666 H   0  0  0  0  0  0  0  0  0  0  0  0
  141.8798  147.9071  155.7498 H   0  0  0  0  0  0  0  0  0  0  0  0
  140.9100  146.4588  155.5000 H   0  0  0  0  0  0  0  0  0  0  0  0
  142.3678  146.7164  154.5445 H   0  0  0  0  0  0  0  0  0  0  0  0
  145.9521  146.1354  157.5331 H   0  0  0  0  0  0  0  0  0  0  0  0
  1  2  1  0  0  0  0
  1 21  1  0  0  0  0
  1 22  1  0  0  0  0
  1 23  1  0  0  0  0
  2 20  1  0  0  0  0
  2  3  1  0  0  0  0
  2 24  1  0  0  0  0
  3  4  1  0  0  0  0
  3 25  1  0  0  0  0
  3 26  1  0  0  0  0
  4  5  1  0  0  0  0
  4 17  1  0  0  0  0
  4 43  1  0  0  0  0
  5  6  1  0  0  0  0
  5  7  1  0  0  0  0
  5 27  1  0  0  0  0
  6 28  1  0  0  0  0
  6 29  1  0  0  0  0
  6 30  1  0  0  0  0
  7  8  1  0  0  0  0
  7 31  1  0  0  0  0
  7 32  1  0  0  0  0
  8  9  1  0  0  0  0
  8 33  1  0  0  0  0
  9 10  2  0  0  0  0
  9 11  1  0  0  0  0
 11 12  1  0  0  0  0
 11 34  1  0  0  0  0
 12 16  1  0  0  0  0
 12 13  2  0  0  0  0
 13 14  1  0  0  0  0
 14 15  2  0  0  0  0
 14 35  1  0  0  0  0
 15 16  1  0  0  0  0
 15 36  1  0  0  0  0
 17 18  1  0  0  0  0
 17 37  1  0  0  0  0
 17 38  1  0  0  0  0
 18 19  1  0  0  0  0
 18 20  1  0  0  0  0
 18 39  1  0  0  0  0
 19 40  1  0  0  0  0
 19 41  1  0  0  0  0
 19 42  1  0  0  0  0
M  CHG  1   4   1
M  END
> <s_m_source_file>
AV-unprocessed.smi

> <i_m_source_file_index>
2032

> <i_lp_mmshare_version>
43012

> <i_f3d_flags>
0

> <s_epik_input>
W0NIM11bQ0BASF0xW0NIMl1OKFtDSDJdW0NASF0oTzEpW0NIM10pW0NASF0oW0NIM10pW0NIMl1bTkhdQyg9TylbTkhdYzJuW2NIXVtjSF1zMg==

> <s_epik_cmdline>
J2VwaWtfcHl0aG9uJywgJy1waCcsICc3LjAnLCAnLXRuJywgJzgnLCAnLW1hJywgJzIwMCcsICctbWV0YWxfYmluZGluZycsICctaW1hZScsICc8aW5maWxlLm1hZT4nLCAnLW9tYWUnLCAnPG91dGZpbGUubWFlPic=

> <r_lp_tautomer_probability>
0.999

> <r_epik_Ionization_Penalty>
0.695838

> <r_epik_Ionization_Penalty_Charging>
0.695697

> <r_epik_Ionization_Penalty_Neutral>
0.000141198

> <r_epik_State_Penalty>
0.717972

> <r_epik_Charging_Adjusted_Penalty>
1.41367

> <i_epik_Tot_Q>
1

> <i_epik_Tot_abs_Q>
1

> <r_epik_Metal_State_Penalty>
0.756405

> <b_epik_Metal_Only>
0

> <s_lp_Force_Field>
OPLS_2005

> <r_lp_Energy>
19.2739

> <b_lp_Chiralities_Consistent>
1

> <s_lp_Variant>
AV-unprocessed.smi:2032-8

> <Gold.Version>
5.8.1

> <Gold.Id.Protein>
6NUR|6NUR_protein|mol2

> <Gold.PLP.Fitness>
47.7204

> <Gold.PLP.PLP>
-33.5468

> <Gold.PLP.part.hbond>
-4.8786

> <Gold.PLP.part.metal>
0.0000

> <Gold.PLP.part.buried>
-6.7024

> <Gold.PLP.part.nonpolar>
-23.8881

> <Gold.PLP.part.repulsive>
0.6491

> <Gold.PLP.ligand.clash>
0.0000

> <Gold.PLP.ligand.torsion>
0.3015

> <Gold.PLP.Chemscore.Hbond>
4.8960

> <Gold.PLP.Chemscore.CHOScore>
0.0000

> <Gold.PLP.Chemscore.Metal>
0.0000

> <Gold.Chemscore.Hbonds>
donor molecule, donor type, donor heavy atom, donor atom, acceptor molecule, acceptor atom, score
      L1  H     4    43       P1  8029  2.00
      L1  H     8    33       P1  8029  0.99
      L1  H    11    34       P1  8029  0.90
      P1  H  6933  6944       L1    10  1.00

> <Gold.PLP.Chemscore.Internal.Correction>
0.0886

> <Gold.Rescore>
     Score         DG    S(hbond)    S(metal)    S(lipo)     H(rot)  DE(clash)    DE(int)     intcor
     21.01     -22.57       3.69        0.00      76.11       1.61       0.01       1.55       ----

> <Gold.Chemscore.Fitness>
21.0115

> <Gold.Chemscore.DG>
-22.5722

> <Gold.Chemscore.ZeroCoef>
-5.4800

> <Gold.Chemscore.Hbond>
3.6862

> <Gold.Chemscore.Metal>
0.0000

> <Gold.Chemscore.Lipo>
76.1058

> <Gold.Chemscore.Internal_Hbond>
0.0000

> <Gold.Chemscore.DEClash>
0.0067

> <Gold.Chemscore.DEInternal>
1.5540

> <Gold.Chemscore.Rot>
1.6110

> <Gold.Chemscore.Internal.Correction>
   9.000000E+99

> <Gold.Chemscore.Hbonds>
donor molecule, donor type, donor heavy atom, donor atom, acceptor molecule, acceptor atom, score
      L1  H     4    43       P1  8029  0.65
      L1  H     8    33       P1  8029  0.92
      L1  H    11    34       P1  8029  0.81
      P1  H  6933  6944       L1    10  0.93

> <Gold.Chemscore.Hbond.Weighted>
-12.3120

> <Gold.Chemscore.Metal.Weighted>
-0.0000

> <Gold.Chemscore.Lipo.Weighted>
-8.9044

> <Gold.Chemscore.Internal_Hbond.Weighted>
0.0000

> <Gold.Chemscore.DEClash.Weighted>
0.0067

> <Gold.Chemscore.DEInternal.Weighted>
1.5540

> <Gold.Chemscore.Rot.Weighted>
4.1242

> <Gold.Chemscore.Internal.Correction.Weighted>
   9.000000E+99

> <Gold.Protein.RotatedTorsions>
[ 6907 6896 6895 6894 ] final   99.94 input  -60.11 | X-H torsion
[ 7974 7965 7964 7962 ] final -113.36 input  175.53 | X-H torsion
[ 8008 7997 7996 7995 ] final   69.79 input   59.86 | X-H torsion
[ 10167 10162 10161 10158 ] final   33.91 input  -65.29 | X-H torsion
[ 10718 10713 10712 10709 ] final    3.00 input   66.30 | X-H torsion
[ 10763 10752 10751 10750 ] final   -2.79 input  -60.55 | X-H torsion
[ 11005 11000 10999 10996 ] final  -26.36 input  -57.11 | X-H torsion

> <Gold.Protein.ActiveResidues>
 VAL166  LYS551  ARG553  GLY616  TRP617  ASP618  TYR619  PRO620  LYS621  CYS622 
 ASP623  PHE694  ASN695  SER759  ASP760  ASP761  ALA762  ILE779  LEU786  VAL792 
 PHE793  MET794  SER795  GLU796  ALA797  LYS798  CYS799  TRP800  GLU811  SER814 

> <Gold.Protein.RotatedAtoms>
  152.5382  134.0352  159.8042 H   0  0  0  0  0  0  0  0  0  0  0  0  # atno 6907 bound_to 6896
  151.0517  133.5611  159.2649 H   0  0  0  0  0  0  0  0  0  0  0  0  # atno 6908 bound_to 6896
  151.2543  135.0640  159.9127 H   0  0  0  0  0  0  0  0  0  0  0  0  # atno 6909 bound_to 6896
  145.1329  140.8735  143.3747 H   0  0  0  0  0  0  0  0  0  0  0  0  # atno 7974 bound_to 7965
  155.7290  140.3492  155.5050 H   0  0  0  0  0  0  0  0  0  0  0  0  # atno 8008 bound_to 7997
  155.9200  140.1065  157.1235 H   0  0  0  0  0  0  0  0  0  0  0  0  # atno 8009 bound_to 7997
  154.4068  140.1251  156.4654 H   0  0  0  0  0  0  0  0  0  0  0  0  # atno 8010 bound_to 7997
  140.4364  144.1251  150.6167 H   0  0  0  0  0  0  0  0  0  0  0  0  # atno 10167 bound_to 10162
  156.8713  130.5621  149.5657 H   0  0  0  0  0  0  0  0  0  0  0  0  # atno 10718 bound_to 10713
  153.3627  135.6991  153.6699 H   0  0  0  0  0  0  0  0  0  0  0  0  # atno 10763 bound_to 10752
  153.5381  135.3578  155.2706 H   0  0  0  0  0  0  0  0  0  0  0  0  # atno 10764 bound_to 10752
  154.8670  135.4197  154.2888 H   0  0  0  0  0  0  0  0  0  0  0  0  # atno 10765 bound_to 10752
  140.9022  133.7516  156.0558 H   0  0  0  0  0  0  0  0  0  0  0  0  # atno 11005 bound_to 11000
  145.0615  139.3101  143.5878 LP  0  0  0  0  0  0  0  0  0  0  0  0  # atno 17320 bound_to 7965
  146.3512  140.0059  142.8671 LP  0  0  0  0  0  0  0  0  0  0  0  0  # atno 17321 bound_to 7965
  140.4369  143.2543  151.9523 LP  0  0  0  0  0  0  0  0  0  0  0  0  # atno 17342 bound_to 10162
  139.4787  144.5691  151.8117 LP  0  0  0  0  0  0  0  0  0  0  0  0  # atno 17343 bound_to 10162
  156.0725  130.5754  150.9410 LP  0  0  0  0  0  0  0  0  0  0  0  0  # atno 17370 bound_to 10713
  157.6194  131.0931  150.8651 LP  0  0  0  0  0  0  0  0  0  0  0  0  # atno 17371 bound_to 10713
  140.8216  134.3283  157.5380 LP  0  0  0  0  0  0  0  0  0  0  0  0  # atno 17394 bound_to 11000
  139.8744  134.9312  156.3522 LP  0  0  0  0  0  0  0  0  0  0  0  0  # atno 17395 bound_to 11000

$$$$
