AV-unprocessed.smi:340|AV-procd|sdf|2380|dock1
  -GOLD-   2262022303D 1   1.00000     0.00000
 Structure written by MMmdl.
 35 36  0  0  0  0  0  0  0  0  1 V2000
  153.0049  137.8084  156.7545 C   0  0  0  0  0  0  0  0  0  0  0  0
  154.4949  137.2284  157.6650 S   0  0  0  0  0  0  0  0  0  0  0  0
  154.9053  135.9411  157.0849 O   0  0  0  0  0  0  0  0  0  0  0  0
  155.4534  138.3396  157.7667 O   0  0  0  0  0  0  0  0  0  0  0  0
  153.8830  136.9012  159.2468 N   0  0  0  0  0  0  0  0  0  0  0  0
  154.1647  137.7478  160.4074 C   0  0  0  0  0  0  0  0  0  0  0  0
  153.6983  139.1797  160.2333 C   0  0  0  0  0  0  0  0  0  0  0  0
  154.1413  140.1954  161.1021 C   0  0  0  0  0  0  0  0  0  0  0  0
  153.6657  141.5071  160.9149 C   0  0  0  0  0  0  0  0  0  0  0  0
  152.7595  141.7697  159.8594 C   0  0  0  0  0  0  0  0  0  0  0  0
  152.2668  143.0770  159.6556 N   0  0  0  0  0  0  0  0  0  0  0  0
  152.4614  144.0090  160.7639 C   0  0  0  0  0  0  0  0  0  0  0  0
  151.6185  145.2784  160.5508 C   0  0  0  0  0  0  0  0  0  0  0  0
  151.9219  145.8530  159.2839 O   0  0  0  0  0  0  0  0  0  0  0  0
  151.6175  144.9651  158.2133 C   0  0  0  0  0  0  0  0  0  0  0  0
  152.4655  143.6888  158.3429 C   0  0  0  0  0  0  0  0  0  0  0  0
  152.3346  140.7855  159.0283 N   0  0  0  0  0  0  0  0  0  0  0  0
  152.7948  139.5299  159.2102 C   0  0  0  0  0  0  0  0  0  0  0  0
  153.2630  137.9691  155.7081 H   0  0  0  0  0  0  0  0  0  0  0  0
  152.6486  138.7456  157.1797 H   0  0  0  0  0  0  0  0  0  0  0  0
  152.2195  137.0559  156.8212 H   0  0  0  0  0  0  0  0  0  0  0  0
  153.4746  135.9807  159.4085 H   0  0  0  0  0  0  0  0  0  0  0  0
  153.6654  137.3223  161.2780 H   0  0  0  0  0  0  0  0  0  0  0  0
  155.2344  137.7207  160.6185 H   0  0  0  0  0  0  0  0  0  0  0  0
  154.8270  139.9725  161.9063 H   0  0  0  0  0  0  0  0  0  0  0  0
  153.9854  142.2871  161.5897 H   0  0  0  0  0  0  0  0  0  0  0  0
  152.1935  143.5628  161.7204 H   0  0  0  0  0  0  0  0  0  0  0  0
  153.5190  144.2701  160.8214 H   0  0  0  0  0  0  0  0  0  0  0  0
  150.5528  145.0524  160.6141 H   0  0  0  0  0  0  0  0  0  0  0  0
  151.8354  146.0074  161.3315 H   0  0  0  0  0  0  0  0  0  0  0  0
  150.5525  144.7267  158.2154 H   0  0  0  0  0  0  0  0  0  0  0  0
  151.8306  145.4627  157.2672 H   0  0  0  0  0  0  0  0  0  0  0  0
  153.5218  143.9276  158.2116 H   0  0  0  0  0  0  0  0  0  0  0  0
  152.1874  142.9893  157.5535 H   0  0  0  0  0  0  0  0  0  0  0  0
  152.4211  138.7829  158.5251 H   0  0  0  0  0  0  0  0  0  0  0  0
  1  2  1  0  0  0  0
  1 19  1  0  0  0  0
  1 20  1  0  0  0  0
  1 21  1  0  0  0  0
  2  3  2  0  0  0  0
  2  4  2  0  0  0  0
  2  5  1  0  0  0  0
  5  6  1  0  0  0  0
  5 22  1  0  0  0  0
  6  7  1  0  0  0  0
  6 23  1  0  0  0  0
  6 24  1  0  0  0  0
  7 18  1  0  0  0  0
  7  8  2  0  0  0  0
  8  9  1  0  0  0  0
  8 25  1  0  0  0  0
  9 10  2  0  0  0  0
  9 26  1  0  0  0  0
 10 11  1  0  0  0  0
 10 17  1  0  0  0  0
 11 16  1  0  0  0  0
 11 12  1  0  0  0  0
 12 13  1  0  0  0  0
 12 27  1  0  0  0  0
 12 28  1  0  0  0  0
 13 14  1  0  0  0  0
 13 29  1  0  0  0  0
 13 30  1  0  0  0  0
 14 15  1  0  0  0  0
 15 16  1  0  0  0  0
 15 31  1  0  0  0  0
 15 32  1  0  0  0  0
 16 33  1  0  0  0  0
 16 34  1  0  0  0  0
 17 18  2  0  0  0  0
 18 35  1  0  0  0  0
M  END
> <s_m_source_file>
AV-unprocessed.smi

> <i_m_source_file_index>
340

> <i_lp_mmshare_version>
43012

> <i_f3d_flags>
0

> <s_epik_input>
W0NIM11TKD1PKSg9TylbTkhdW0NIMl1jMVtjSF1bY0hdYyhuW2NIXTEpTjJbQ0gyXVtDSDJdT1tDSDJdW0NIMl0y

> <s_epik_cmdline>
J2VwaWtfcHl0aG9uJywgJy1waCcsICc3LjAnLCAnLXRuJywgJzgnLCAnLW1hJywgJzIwMCcsICctbWV0YWxfYmluZGluZycsICctaW1hZScsICc8aW5maWxlLm1hZT4nLCAnLW9tYWUnLCAnPG91dGZpbGUubWFlPic=

> <r_lp_tautomer_probability>
1

> <r_epik_Ionization_Penalty>
0.00676355

> <r_epik_Ionization_Penalty_Charging>
0

> <r_epik_Ionization_Penalty_Neutral>
0.00676355

> <r_epik_State_Penalty>
0.00499739

> <r_epik_Charging_Adjusted_Penalty>
0.00499739

> <i_epik_Tot_Q>
0

> <i_epik_Tot_abs_Q>
0

> <r_epik_Metal_State_Penalty>
0.025736

> <b_epik_Metal_Only>
0

> <s_lp_Force_Field>
OPLS_2005

> <r_lp_Energy>
12.1718

> <b_lp_Chiralities_Consistent>
1

> <s_lp_Variant>
AV-unprocessed.smi:340-1

> <Gold.Version>
5.8.1

> <Gold.Id.Protein>
6NUR|6NUR_protein|mol2

> <Gold.PLP.Fitness>
39.1987

> <Gold.PLP.PLP>
-34.6768

> <Gold.PLP.part.hbond>
-2.8671

> <Gold.PLP.part.metal>
0.0000

> <Gold.PLP.part.buried>
-5.7167

> <Gold.PLP.part.nonpolar>
-25.6593

> <Gold.PLP.part.repulsive>
0.2234

> <Gold.PLP.ligand.clash>
0.0000

> <Gold.PLP.ligand.torsion>
0.9044

> <Gold.PLP.Chemscore.Hbond>
1.6560

> <Gold.PLP.Chemscore.CHOScore>
0.0000

> <Gold.PLP.Chemscore.Metal>
0.0000

> <Gold.Chemscore.Hbonds>
donor molecule, donor type, donor heavy atom, donor atom, acceptor molecule, acceptor atom, score
      P1  H  7997  8010       L1     4  0.67
      P1  H 10752 10763       L1     3  1.00

> <Gold.PLP.Chemscore.Internal.Correction>
1.3627

> <Gold.Rescore>
     Score         DG    S(hbond)    S(metal)    S(lipo)     H(rot)  DE(clash)    DE(int)     intcor
     16.33     -17.17       1.56        0.00      90.17       1.59       0.01       0.83       ----

> <Gold.Chemscore.Fitness>
16.3330

> <Gold.Chemscore.DG>
-17.1744

> <Gold.Chemscore.ZeroCoef>
-5.4800

> <Gold.Chemscore.Hbond>
1.5629

> <Gold.Chemscore.Metal>
0.0000

> <Gold.Chemscore.Lipo>
90.1696

> <Gold.Chemscore.Internal_Hbond>
0.0000

> <Gold.Chemscore.DEClash>
0.0126

> <Gold.Chemscore.DEInternal>
0.8288

> <Gold.Chemscore.Rot>
1.5921

> <Gold.Chemscore.Internal.Correction>
   9.000000E+99

> <Gold.Chemscore.Hbonds>
donor molecule, donor type, donor heavy atom, donor atom, acceptor molecule, acceptor atom, score
      P1  H  7997  8010       L1     4  0.66
      P1  H 10752 10763       L1     3  0.98

> <Gold.Chemscore.Hbond.Weighted>
-5.2202

> <Gold.Chemscore.Metal.Weighted>
-0.0000

> <Gold.Chemscore.Lipo.Weighted>
-10.5498

> <Gold.Chemscore.Internal_Hbond.Weighted>
0.0000

> <Gold.Chemscore.DEClash.Weighted>
0.0126

> <Gold.Chemscore.DEInternal.Weighted>
0.8288

> <Gold.Chemscore.Rot.Weighted>
4.0757

> <Gold.Chemscore.Internal.Correction.Weighted>
   9.000000E+99

> <Gold.Protein.RotatedTorsions>
[ 6907 6896 6895 6894 ] final  147.40 input  -60.11 | X-H torsion
[ 7974 7965 7964 7962 ] final -117.63 input  175.53 | X-H torsion
[ 8008 7997 7996 7995 ] final  -17.02 input   59.86 | X-H torsion
[ 10167 10162 10161 10158 ] final  127.86 input  -65.29 | X-H torsion
[ 10718 10713 10712 10709 ] final  -77.82 input   66.30 | X-H torsion
[ 10763 10752 10751 10750 ] final  160.20 input  -60.55 | X-H torsion
[ 11005 11000 10999 10996 ] final  -34.07 input  -57.11 | X-H torsion

> <Gold.Protein.ActiveResidues>
 VAL166  LYS551  ARG553  GLY616  TRP617  ASP618  TYR619  PRO620  LYS621  CYS622 
 ASP623  PHE694  ASN695  SER759  ASP760  ASP761  ALA762  ILE779  LEU786  VAL792 
 PHE793  MET794  SER795  GLU796  ALA797  LYS798  CYS799  TRP800  GLU811  SER814 

> <Gold.Protein.RotatedAtoms>
  152.1553  133.4547  159.4833 H   0  0  0  0  0  0  0  0  0  0  0  0  # atno 6907 bound_to 6896
  150.6900  134.2138  159.4379 H   0  0  0  0  0  0  0  0  0  0  0  0  # atno 6908 bound_to 6896
  152.0037  134.9914  160.0616 H   0  0  0  0  0  0  0  0  0  0  0  0  # atno 6909 bound_to 6896
  145.0830  140.8439  143.4027 H   0  0  0  0  0  0  0  0  0  0  0  0  # atno 7974 bound_to 7965
  154.5009  140.2154  155.9349 H   0  0  0  0  0  0  0  0  0  0  0  0  # atno 8008 bound_to 7997
  156.1432  140.3175  155.8496 H   0  0  0  0  0  0  0  0  0  0  0  0  # atno 8009 bound_to 7997
  155.4080  140.0488  157.3024 H   0  0  0  0  0  0  0  0  0  0  0  0  # atno 8010 bound_to 7997
  139.5557  144.6846  151.4191 H   0  0  0  0  0  0  0  0  0  0  0  0  # atno 10167 bound_to 10162
  156.0134  130.4501  150.3403 H   0  0  0  0  0  0  0  0  0  0  0  0  # atno 10718 bound_to 10713
  154.2438  135.2774  155.2843 H   0  0  0  0  0  0  0  0  0  0  0  0  # atno 10763 bound_to 10752
  154.5523  135.5671  153.6936 H   0  0  0  0  0  0  0  0  0  0  0  0  # atno 10764 bound_to 10752
  152.9994  135.6277  154.2582 H   0  0  0  0  0  0  0  0  0  0  0  0  # atno 10765 bound_to 10752
  140.9686  133.7122  156.1486 H   0  0  0  0  0  0  0  0  0  0  0  0  # atno 11005 bound_to 11000
  145.1155  139.2728  143.5615 LP  0  0  0  0  0  0  0  0  0  0  0  0  # atno 17320 bound_to 7965
  146.3531  140.0764  142.8620 LP  0  0  0  0  0  0  0  0  0  0  0  0  # atno 17321 bound_to 7965
  140.6829  143.8041  150.7145 LP  0  0  0  0  0  0  0  0  0  0  0  0  # atno 17342 bound_to 10162
  140.1500  143.4366  152.2137 LP  0  0  0  0  0  0  0  0  0  0  0  0  # atno 17343 bound_to 10162
  157.1499  131.0318  151.2890 LP  0  0  0  0  0  0  0  0  0  0  0  0  # atno 17370 bound_to 10713
  157.4401  130.7539  149.7062 LP  0  0  0  0  0  0  0  0  0  0  0  0  # atno 17371 bound_to 10713
  140.7362  134.4200  157.5560 LP  0  0  0  0  0  0  0  0  0  0  0  0  # atno 17394 bound_to 11000
  139.8904  134.8807  156.2373 LP  0  0  0  0  0  0  0  0  0  0  0  0  # atno 17395 bound_to 11000

$$$$
