AV-unprocessed.smi:2510|AV-procd|sdf|9870|dock5
  -GOLD-   2272013503D 1   1.00000     0.00000
 Structure written by MMmdl.
 48 49  0  0  0  0  0  0  0  0  1 V2000
  152.2386  137.9296  158.4592 C   0  0  0  0  0  0  0  0  0  0  0  0
  151.9074  139.2938  157.8313 C   0  0  0  0  0  0  0  0  0  0  0  0
  151.5124  139.2490  156.3321 C   0  0  0  0  0  0  0  0  0  0  0  0
  152.7394  138.7659  155.5184 C   0  0  0  0  0  0  0  0  0  0  0  0
  152.4277  138.1722  154.1337 C   0  0  0  0  0  0  0  0  0  0  0  0
  150.1933  138.5050  155.9686 C   0  0  1  0  0  0  0  0  0  0  0  0
  149.2239  138.4757  157.0637 N   0  0  0  0  0  0  0  0  0  0  0  0
  148.4059  137.4543  157.3566 C   0  0  0  0  0  0  0  0  0  0  0  0
  148.4348  136.3719  156.7717 O   0  0  0  0  0  0  0  0  0  0  0  0
  147.3878  137.7008  158.4726 C   0  0  0  0  0  0  0  0  0  0  0  0
  147.5946  136.7102  159.5892 C   0  0  0  0  0  0  0  0  0  0  0  0
  147.4408  135.2928  159.5446 C   0  0  0  0  0  0  0  0  0  0  0  0
  147.6973  134.8842  160.8228 C   0  0  0  0  0  0  0  0  0  0  0  0
  147.6868  133.5305  161.4471 C   0  0  0  0  0  0  0  0  0  0  0  0
  147.9927  136.0216  161.5381 N   0  0  0  0  0  0  0  0  0  0  0  0
  147.9377  137.1424  160.7956 N   0  0  0  0  0  0  0  0  0  0  0  0
  149.8748  139.6157  154.9494 C   0  0  1  0  0  0  0  0  0  0  0  0
  148.4437  140.0691  154.6628 C   0  0  0  0  0  0  0  0  0  0  0  0
  150.8305  140.5201  155.7439 C   0  0  1  0  0  0  0  0  0  0  0  0
  150.1084  141.2899  156.6993 O   0  0  0  0  0  0  0  0  0  0  0  0
  150.9407  142.1210  157.4895 C   0  0  0  0  0  0  0  0  0  0  0  0
  148.2287  136.0473  162.5200 H   0  0  0  0  0  0  0  0  0  0  0  0
  152.3817  138.0304  159.5350 H   0  0  0  0  0  0  0  0  0  0  0  0
  153.1567  137.5065  158.0533 H   0  0  0  0  0  0  0  0  0  0  0  0
  151.4360  137.2090  158.3018 H   0  0  0  0  0  0  0  0  0  0  0  0
  151.0994  139.7281  158.4198 H   0  0  0  0  0  0  0  0  0  0  0  0
  152.7439  139.9713  157.9949 H   0  0  0  0  0  0  0  0  0  0  0  0
  153.4685  139.5675  155.4067 H   0  0  0  0  0  0  0  0  0  0  0  0
  153.2746  137.9994  156.0786 H   0  0  0  0  0  0  0  0  0  0  0  0
  153.3301  137.7494  153.6918 H   0  0  0  0  0  0  0  0  0  0  0  0
  152.0583  138.9257  153.4392 H   0  0  0  0  0  0  0  0  0  0  0  0
  151.6885  137.3737  154.1914 H   0  0  0  0  0  0  0  0  0  0  0  0
  150.3636  137.5311  155.5061 H   0  0  0  0  0  0  0  0  0  0  0  0
  149.1219  139.3263  157.5988 H   0  0  0  0  0  0  0  0  0  0  0  0
  147.4956  138.7193  158.8469 H   0  0  0  0  0  0  0  0  0  0  0  0
  146.3813  137.6244  158.0590 H   0  0  0  0  0  0  0  0  0  0  0  0
  147.1648  134.6743  158.7034 H   0  0  0  0  0  0  0  0  0  0  0  0
  147.4935  132.7594  160.7011 H   0  0  0  0  0  0  0  0  0  0  0  0
  146.9108  133.4626  162.2098 H   0  0  0  0  0  0  0  0  0  0  0  0
  148.6458  133.3117  161.9171 H   0  0  0  0  0  0  0  0  0  0  0  0
  150.3554  139.3524  154.0061 H   0  0  0  0  0  0  0  0  0  0  0  0
  147.9363  140.4205  155.5609 H   0  0  0  0  0  0  0  0  0  0  0  0
  147.8494  139.2546  154.2486 H   0  0  0  0  0  0  0  0  0  0  0  0
  148.4292  140.8868  153.9426 H   0  0  0  0  0  0  0  0  0  0  0  0
  151.4549  141.1266  155.0863 H   0  0  0  0  0  0  0  0  0  0  0  0
  150.3340  142.6500  158.2243 H   0  0  0  0  0  0  0  0  0  0  0  0
  151.4469  142.8648  156.8732 H   0  0  0  0  0  0  0  0  0  0  0  0
  151.6936  141.5441  158.0264 H   0  0  0  0  0  0  0  0  0  0  0  0
  1  2  1  0  0  0  0
  1 23  1  0  0  0  0
  1 24  1  0  0  0  0
  1 25  1  0  0  0  0
  2  3  1  0  0  0  0
  2 26  1  0  0  0  0
  2 27  1  0  0  0  0
  3 19  1  0  0  0  0
  3  4  1  0  0  0  0
  3  6  1  0  0  0  0
  4  5  1  0  0  0  0
  4 28  1  0  0  0  0
  4 29  1  0  0  0  0
  5 30  1  0  0  0  0
  5 31  1  0  0  0  0
  5 32  1  0  0  0  0
  6  7  1  0  0  0  0
  6 17  1  0  0  0  0
  6 33  1  0  0  0  0
  7  8  1  0  0  0  0
  7 34  1  0  0  0  0
  8  9  2  0  0  0  0
  8 10  1  0  0  0  0
 10 11  1  0  0  0  0
 10 35  1  0  0  0  0
 10 36  1  0  0  0  0
 11 16  2  0  0  0  0
 11 12  1  0  0  0  0
 12 13  2  0  0  0  0
 12 37  1  0  0  0  0
 13 14  1  0  0  0  0
 13 15  1  0  0  0  0
 14 38  1  0  0  0  0
 14 39  1  0  0  0  0
 14 40  1  0  0  0  0
 15 22  1  0  0  0  0
 15 16  1  0  0  0  0
 17 18  1  0  0  0  0
 17 19  1  0  0  0  0
 17 41  1  0  0  0  0
 18 42  1  0  0  0  0
 18 43  1  0  0  0  0
 18 44  1  0  0  0  0
 19 20  1  0  0  0  0
 19 45  1  0  0  0  0
 20 21  1  0  0  0  0
 21 46  1  0  0  0  0
 21 47  1  0  0  0  0
 21 48  1  0  0  0  0
M  END
> <s_m_source_file>
AV-unprocessed.smi

> <i_m_source_file_index>
2510

> <i_lp_mmshare_version>
43012

> <i_f3d_flags>
0

> <s_epik_input>
W0NIM11PW0NAQEhdMVtDQEhdKFtDSDNdKVtDQEBIXShDMShbQ0gyXVtDSDNdKVtDSDJdW0NIM10pW05IXUMoPU8pW0NIMl1jMltjSF1jKFtDSDNdKVtuSF1uMg==

> <s_epik_cmdline>
J2VwaWtfcHl0aG9uJywgJy1waCcsICc3LjAnLCAnLXRuJywgJzgnLCAnLW1hJywgJzIwMCcsICctbWV0YWxfYmluZGluZycsICctaW1hZScsICc8aW5maWxlLm1hZT4nLCAnLW9tYWUnLCAnPG91dGZpbGUubWFlPic=

> <r_lp_tautomer_probability>
0.5

> <r_epik_Ionization_Penalty>
9.73156e-05

> <r_epik_Ionization_Penalty_Charging>
0

> <r_epik_Ionization_Penalty_Neutral>
9.73156e-05

> <r_epik_State_Penalty>
0.41068

> <r_epik_Charging_Adjusted_Penalty>
0.41068

> <i_epik_Tot_Q>
0

> <i_epik_Tot_abs_Q>
0

> <r_epik_Metal_State_Penalty>
0.410699

> <b_epik_Metal_Only>
0

> <s_lp_Force_Field>
OPLS_2005

> <r_lp_Energy>
26.8932

> <b_lp_Chiralities_Consistent>
1

> <s_lp_Variant>
AV-unprocessed.smi:2510-1

> <Gold.Version>
5.8.1

> <Gold.Id.Protein>
6NUR|6NUR_protein|mol2

> <Gold.PLP.Fitness>
31.2772

> <Gold.PLP.PLP>
-27.0319

> <Gold.PLP.part.hbond>
-2.0000

> <Gold.PLP.part.metal>
0.0000

> <Gold.PLP.part.buried>
-4.1611

> <Gold.PLP.part.nonpolar>
-21.3150

> <Gold.PLP.part.repulsive>
0.2529

> <Gold.PLP.ligand.clash>
0.0000

> <Gold.PLP.ligand.torsion>
0.6895

> <Gold.PLP.Chemscore.Hbond>
1.6360

> <Gold.PLP.Chemscore.CHOScore>
0.0000

> <Gold.PLP.Chemscore.Metal>
0.0000

> <Gold.Chemscore.Hbonds>
donor molecule, donor type, donor heavy atom, donor atom, acceptor molecule, acceptor atom, score
      P1  H  6931  6943       L1    16  0.84
      P1  H  6934  6947       L1    16  0.80

> <Gold.PLP.Chemscore.Internal.Correction>
0.7162

> <Gold.Rescore>
     Score         DG    S(hbond)    S(metal)    S(lipo)     H(rot)  DE(clash)    DE(int)     intcor
     12.33     -13.50       0.89        0.00      82.87       1.81       0.18       0.99       ----

> <Gold.Chemscore.Fitness>
12.3331

> <Gold.Chemscore.DG>
-13.5049

> <Gold.Chemscore.ZeroCoef>
-5.4800

> <Gold.Chemscore.Hbond>
0.8872

> <Gold.Chemscore.Metal>
0.0000

> <Gold.Chemscore.Lipo>
82.8707

> <Gold.Chemscore.Internal_Hbond>
0.0000

> <Gold.Chemscore.DEClash>
0.1791

> <Gold.Chemscore.DEInternal>
0.9927

> <Gold.Chemscore.Rot>
1.8102

> <Gold.Chemscore.Internal.Correction>
   9.000000E+99

> <Gold.Chemscore.Hbonds>
donor molecule, donor type, donor heavy atom, donor atom, acceptor molecule, acceptor atom, score
      P1  H  6931  6943       L1    16  0.19
      P1  H  6934  6947       L1    16  0.41

> <Gold.Chemscore.Hbond.Weighted>
-2.9631

> <Gold.Chemscore.Metal.Weighted>
-0.0000

> <Gold.Chemscore.Lipo.Weighted>
-9.6959

> <Gold.Chemscore.Internal_Hbond.Weighted>
0.0000

> <Gold.Chemscore.DEClash.Weighted>
0.1791

> <Gold.Chemscore.DEInternal.Weighted>
0.9927

> <Gold.Chemscore.Rot.Weighted>
4.6341

> <Gold.Chemscore.Internal.Correction.Weighted>
   9.000000E+99

> <Gold.Protein.RotatedTorsions>
[ 6907 6896 6895 6894 ] final -106.53 input  -60.11 | X-H torsion
[ 7974 7965 7964 7962 ] final  104.07 input  175.53 | X-H torsion
[ 8008 7997 7996 7995 ] final -170.93 input   59.86 | X-H torsion
[ 10167 10162 10161 10158 ] final  155.90 input  -65.29 | X-H torsion
[ 10718 10713 10712 10709 ] final  -48.79 input   66.30 | X-H torsion
[ 10763 10752 10751 10750 ] final  149.51 input  -60.55 | X-H torsion
[ 11005 11000 10999 10996 ] final  101.80 input  -57.11 | X-H torsion

> <Gold.Protein.ActiveResidues>
 VAL166  LYS551  ARG553  GLY616  TRP617  ASP618  TYR619  PRO620  LYS621  CYS622 
 ASP623  PHE694  ASN695  SER759  ASP760  ASP761  ALA762  ILE779  LEU786  VAL792 
 PHE793  MET794  SER795  GLU796  ALA797  LYS798  CYS799  TRP800  GLU811  SER814 

> <Gold.Protein.RotatedAtoms>
  150.7394  133.9962  159.3622 H   0  0  0  0  0  0  0  0  0  0  0  0  # atno 6907 bound_to 6896
  151.7913  135.0733  160.0397 H   0  0  0  0  0  0  0  0  0  0  0  0  # atno 6908 bound_to 6896
  152.3206  133.5813  159.5778 H   0  0  0  0  0  0  0  0  0  0  0  0  # atno 6909 bound_to 6896
  145.3376  139.2470  143.3627 H   0  0  0  0  0  0  0  0  0  0  0  0  # atno 7974 bound_to 7965
  155.9249  140.1081  157.1178 H   0  0  0  0  0  0  0  0  0  0  0  0  # atno 8008 bound_to 7997
  154.4060  140.1249  156.4793 H   0  0  0  0  0  0  0  0  0  0  0  0  # atno 8009 bound_to 7997
  155.7151  140.3470  155.4993 H   0  0  0  0  0  0  0  0  0  0  0  0  # atno 8010 bound_to 7997
  139.4821  144.5057  151.8101 H   0  0  0  0  0  0  0  0  0  0  0  0  # atno 10167 bound_to 10162
  156.1955  130.4154  149.9313 H   0  0  0  0  0  0  0  0  0  0  0  0  # atno 10718 bound_to 10713
  154.0722  135.2866  155.3306 H   0  0  0  0  0  0  0  0  0  0  0  0  # atno 10763 bound_to 10752
  154.6739  135.5289  153.8177 H   0  0  0  0  0  0  0  0  0  0  0  0  # atno 10764 bound_to 10752
  153.0481  135.6564  154.0903 H   0  0  0  0  0  0  0  0  0  0  0  0  # atno 10765 bound_to 10752
  139.8774  134.9198  156.4961 H   0  0  0  0  0  0  0  0  0  0  0  0  # atno 11005 bound_to 11000
  146.3020  140.3967  142.8700 LP  0  0  0  0  0  0  0  0  0  0  0  0  # atno 17320 bound_to 7965
  144.8815  140.7406  143.5983 LP  0  0  0  0  0  0  0  0  0  0  0  0  # atno 17321 bound_to 7965
  140.4555  144.1795  150.5901 LP  0  0  0  0  0  0  0  0  0  0  0  0  # atno 17342 bound_to 10162
  140.4540  143.2475  151.9310 LP  0  0  0  0  0  0  0  0  0  0  0  0  # atno 17343 bound_to 10162
  156.7039  130.8944  151.3602 LP  0  0  0  0  0  0  0  0  0  0  0  0  # atno 17370 bound_to 10713
  157.6955  130.9277  150.0632 LP  0  0  0  0  0  0  0  0  0  0  0  0  # atno 17371 bound_to 10713
  140.8623  133.8050  155.9278 LP  0  0  0  0  0  0  0  0  0  0  0  0  # atno 17394 bound_to 11000
  140.9037  134.2347  157.5027 LP  0  0  0  0  0  0  0  0  0  0  0  0  # atno 17395 bound_to 11000

$$$$
