AV-unprocessed.smi:2583|AV-procd|sdf|10140|dock5
  -GOLD-   2272014153D 1   1.00000     0.00000
 Structure written by MMmdl.
 54 56  0  0  0  0  0  0  0  0  2 V2000
  153.1181  142.8856  161.2229 C   0  0  0  0  0  0  0  0  0  0  0  0
  152.4597  142.9361  159.8600 C   0  0  0  0  0  0  0  0  0  0  0  0
  152.2599  144.1624  159.1935 C   0  0  0  0  0  0  0  0  0  0  0  0
  151.6891  144.2571  157.9743 N   0  0  0  0  0  0  0  0  0  0  0  0
  151.2859  143.1170  157.3746 C   0  0  0  0  0  0  0  0  0  0  0  0
  151.4197  141.8377  157.9542 C   0  0  0  0  0  0  0  0  0  0  0  0
  150.9597  140.7185  157.2089 N   0  0  0  0  0  0  0  0  0  0  0  0
  150.9883  139.4184  157.5488 C   0  0  0  0  0  0  0  0  0  0  0  0
  151.4451  138.9654  158.5981 O   0  0  0  0  0  0  0  0  0  0  0  0
  150.4283  138.6563  156.5985 N   0  0  0  0  0  0  0  0  0  0  0  0
  150.2749  137.2061  156.6703 C   0  0  0  0  0  0  0  0  0  0  0  0
  150.8083  136.5542  155.3925 C   0  0  0  0  0  0  0  0  0  0  0  0
  150.5592  135.0360  155.4022 C   0  0  0  0  0  0  0  0  0  0  0  0
  149.1254  134.7158  155.5096 N   0  0  0  0  0  0  0  0  0  0  0  0
  148.8931  133.2541  155.4387 C   0  0  2  0  0  0  0  0  0  0  0  0
  149.5154  132.5892  154.1835 C   0  0  0  0  0  0  0  0  0  0  0  0
  148.7881  133.0044  152.8918 C   0  0  0  0  0  0  0  0  0  0  0  0
  147.3447  132.6684  152.9584 N   0  3  2  0  0  0  0  0  0  0  0  0
  146.6352  132.9805  151.6994 C   0  0  0  0  0  0  0  0  0  0  0  0
  146.6825  133.2654  154.1442 C   0  0  0  0  0  0  0  0  0  0  0  0
  147.3955  132.8514  155.4442 C   0  0  0  0  0  0  0  0  0  0  0  0
  148.6253  135.2855  156.7723 C   0  0  0  0  0  0  0  0  0  0  0  0
  148.8012  136.8125  156.8259 C   0  0  0  0  0  0  0  0  0  0  0  0
  152.0351  141.7510  159.2265 C   0  0  0  0  0  0  0  0  0  0  0  0
  153.3894  143.8830  161.5702 H   0  0  0  0  0  0  0  0  0  0  0  0
  154.0240  142.2803  161.1834 H   0  0  0  0  0  0  0  0  0  0  0  0
  152.4408  142.4426  161.9535 H   0  0  0  0  0  0  0  0  0  0  0  0
  152.5706  145.0928  159.6459 H   0  0  0  0  0  0  0  0  0  0  0  0
  150.8348  143.2321  156.3997 H   0  0  0  0  0  0  0  0  0  0  0  0
  150.4860  140.9404  156.3454 H   0  0  0  0  0  0  0  0  0  0  0  0
  150.0767  139.1116  155.7691 H   0  0  0  0  0  0  0  0  0  0  0  0
  150.8441  136.8241  157.5201 H   0  0  0  0  0  0  0  0  0  0  0  0
  150.3305  136.9946  154.5160 H   0  0  0  0  0  0  0  0  0  0  0  0
  151.8766  136.7495  155.2934 H   0  0  0  0  0  0  0  0  0  0  0  0
  150.9798  134.6554  154.4754 H   0  0  0  0  0  0  0  0  0  0  0  0
  151.1092  134.5677  156.2199 H   0  0  0  0  0  0  0  0  0  0  0  0
  149.3599  132.8142  156.3215 H   0  0  0  0  0  0  0  0  0  0  0  0
  150.5862  132.7557  154.0927 H   0  0  0  0  0  0  0  0  0  0  0  0
  149.4266  131.5071  154.2901 H   0  0  0  0  0  0  0  0  0  0  0  0
  148.9104  134.0745  152.7170 H   0  0  0  0  0  0  0  0  0  0  0  0
  149.2385  132.4914  152.0411 H   0  0  0  0  0  0  0  0  0  0  0  0
  146.6521  134.0519  151.4954 H   0  0  0  0  0  0  0  0  0  0  0  0
  145.5949  132.6584  151.7533 H   0  0  0  0  0  0  0  0  0  0  0  0
  147.0993  132.4646  150.8582 H   0  0  0  0  0  0  0  0  0  0  0  0
  146.6676  134.3525  154.0507 H   0  0  0  0  0  0  0  0  0  0  0  0
  145.6432  132.9365  154.1802 H   0  0  0  0  0  0  0  0  0  0  0  0
  147.3339  131.7659  155.5335 H   0  0  0  0  0  0  0  0  0  0  0  0
  146.8557  133.2142  156.3164 H   0  0  0  0  0  0  0  0  0  0  0  0
  147.5596  135.1053  156.8874 H   0  0  0  0  0  0  0  0  0  0  0  0
  149.1266  134.8157  157.6201 H   0  0  0  0  0  0  0  0  0  0  0  0
  148.4094  137.1894  157.7712 H   0  0  0  0  0  0  0  0  0  0  0  0
  148.2038  137.2746  156.0383 H   0  0  0  0  0  0  0  0  0  0  0  0
  152.2007  140.8060  159.7199 H   0  0  0  0  0  0  0  0  0  0  0  0
  147.2902  131.6668  153.0760 H   0  0  0  0  0  0  0  0  0  0  0  0
  1  2  1  0  0  0  0
  1 25  1  0  0  0  0
  1 26  1  0  0  0  0
  1 27  1  0  0  0  0
  2 24  1  0  0  0  0
  2  3  2  0  0  0  0
  3  4  1  0  0  0  0
  3 28  1  0  0  0  0
  4  5  2  0  0  0  0
  5  6  1  0  0  0  0
  5 29  1  0  0  0  0
  6  7  1  0  0  0  0
  6 24  2  0  0  0  0
  7  8  1  0  0  0  0
  7 30  1  0  0  0  0
  8  9  2  0  0  0  0
  8 10  1  0  0  0  0
 10 11  1  0  0  0  0
 10 31  1  0  0  0  0
 11 23  1  0  0  0  0
 11 12  1  0  0  0  0
 11 32  1  0  0  0  0
 12 13  1  0  0  0  0
 12 33  1  0  0  0  0
 12 34  1  0  0  0  0
 13 14  1  0  0  0  0
 13 35  1  0  0  0  0
 13 36  1  0  0  0  0
 14 15  1  0  0  0  0
 14 22  1  0  0  0  0
 15 21  1  0  0  0  0
 15 16  1  0  0  0  0
 15 37  1  0  0  0  0
 16 17  1  0  0  0  0
 16 38  1  0  0  0  0
 16 39  1  0  0  0  0
 17 18  1  0  0  0  0
 17 40  1  0  0  0  0
 17 41  1  0  0  0  0
 18 19  1  0  0  0  0
 18 20  1  0  0  0  0
 18 54  1  0  0  0  0
 19 42  1  0  0  0  0
 19 43  1  0  0  0  0
 19 44  1  0  0  0  0
 20 21  1  0  0  0  0
 20 45  1  0  0  0  0
 20 46  1  0  0  0  0
 21 47  1  0  0  0  0
 21 48  1  0  0  0  0
 22 23  1  0  0  0  0
 22 49  1  0  0  0  0
 22 50  1  0  0  0  0
 23 51  1  0  0  0  0
 23 52  1  0  0  0  0
 24 53  1  0  0  0  0
M  CHG  1  18   1
M  END
> <s_m_source_file>
AV-unprocessed.smi

> <i_m_source_file_index>
2583

> <i_lp_mmshare_version>
43012

> <i_f3d_flags>
0

> <s_epik_input>
W0NIM11jMVtjSF1uW2NIXWMoW2NIXTEpW05IXUMoPU8pW05IXVtDSF0yW0NIMl1bQ0gyXU4oW0NIMl1bQ0gyXTIpW0NIXTNbQ0gyXVtDSDJdTihbQ0gzXSlbQ0gyXVtDSDJdMw==

> <s_epik_cmdline>
J2VwaWtfcHl0aG9uJywgJy1waCcsICc3LjAnLCAnLXRuJywgJzgnLCAnLW1hJywgJzIwMCcsICctbWV0YWxfYmluZGluZycsICctaW1hZScsICc8aW5maWxlLm1hZT4nLCAnLW9tYWUnLCAnPG91dGZpbGUubWFlPic=

> <r_epik_Ionization_Penalty>
1.01912

> <r_epik_Ionization_Penalty_Charging>
0.000974969

> <r_epik_Ionization_Penalty_Neutral>
1.01814

> <r_epik_State_Penalty>
1.10721

> <r_epik_Charging_Adjusted_Penalty>
1.10819

> <i_epik_Tot_Q>
1

> <i_epik_Tot_abs_Q>
1

> <r_epik_Metal_State_Penalty>
1.10135

> <b_epik_Metal_Only>
0

> <s_lp_Force_Field>
OPLS_2005

> <r_lp_Energy>
36.2524

> <b_lp_Chiralities_Consistent>
1

> <s_lp_Variant>
AV-unprocessed.smi:2583-6

> <Gold.Version>
5.8.1

> <Gold.Id.Protein>
6NUR|6NUR_protein|mol2

> <Gold.PLP.Fitness>
38.8949

> <Gold.PLP.PLP>
-36.1402

> <Gold.PLP.part.hbond>
0.0000

> <Gold.PLP.part.metal>
0.0000

> <Gold.PLP.part.buried>
-7.1315

> <Gold.PLP.part.nonpolar>
-29.3048

> <Gold.PLP.part.repulsive>
0.2353

> <Gold.PLP.ligand.clash>
0.0000

> <Gold.PLP.ligand.torsion>
0.1068

> <Gold.PLP.Chemscore.Hbond>
0.0000

> <Gold.PLP.Chemscore.CHOScore>
0.9882

> <Gold.PLP.Chemscore.Metal>
0.0000

> <Gold.Chemscore.Hbonds>
donor molecule, donor type, donor heavy atom, donor atom, acceptor molecule, acceptor atom, score
      L1  C     5    29       P1  8028  0.94

> <Gold.PLP.Chemscore.Internal.Correction>
0.0036

> <Gold.Rescore>
     Score         DG    S(hbond)    S(metal)    S(lipo)     H(rot)  DE(clash)    DE(int)     intcor
     13.90     -15.36       0.00        0.00     110.67       1.20       0.05       1.42       ----

> <Gold.Chemscore.Fitness>
13.8997

> <Gold.Chemscore.DG>
-15.3633

> <Gold.Chemscore.ZeroCoef>
-5.4800

> <Gold.Chemscore.Hbond>
0.0000

> <Gold.Chemscore.Metal>
0.0000

> <Gold.Chemscore.Lipo>
110.6709

> <Gold.Chemscore.Internal_Hbond>
0.0000

> <Gold.Chemscore.DEClash>
0.0472

> <Gold.Chemscore.DEInternal>
1.4163

> <Gold.Chemscore.Rot>
1.1974

> <Gold.Chemscore.Internal.Correction>
   9.000000E+99

> <Gold.Chemscore.Hbond.Weighted>
-0.0000

> <Gold.Chemscore.Metal.Weighted>
-0.0000

> <Gold.Chemscore.Lipo.Weighted>
-12.9485

> <Gold.Chemscore.Internal_Hbond.Weighted>
0.0000

> <Gold.Chemscore.DEClash.Weighted>
0.0472

> <Gold.Chemscore.DEInternal.Weighted>
1.4163

> <Gold.Chemscore.Rot.Weighted>
3.0652

> <Gold.Chemscore.Internal.Correction.Weighted>
   9.000000E+99

> <Gold.Protein.RotatedTorsions>
[ 6907 6896 6895 6894 ] final  166.74 input  -60.11 | X-H torsion
[ 7974 7965 7964 7962 ] final  -98.59 input  175.53 | X-H torsion
[ 8008 7997 7996 7995 ] final -142.71 input   59.86 | X-H torsion
[ 10167 10162 10161 10158 ] final  138.28 input  -65.29 | X-H torsion
[ 10718 10713 10712 10709 ] final   87.13 input   66.30 | X-H torsion
[ 10763 10752 10751 10750 ] final  -82.60 input  -60.55 | X-H torsion
[ 11005 11000 10999 10996 ] final   99.32 input  -57.11 | X-H torsion

> <Gold.Protein.ActiveResidues>
 VAL166  LYS551  ARG553  GLY616  TRP617  ASP618  TYR619  PRO620  LYS621  CYS622 
 ASP623  PHE694  ASN695  SER759  ASP760  ASP761  ALA762  ILE779  LEU786  VAL792 
 PHE793  MET794  SER795  GLU796  ALA797  LYS798  CYS799  TRP800  GLU811  SER814 

> <Gold.Protein.RotatedAtoms>
  151.8741  133.3481  159.3744 H   0  0  0  0  0  0  0  0  0  0  0  0  # atno 6907 bound_to 6896
  150.7145  134.5083  159.5604 H   0  0  0  0  0  0  0  0  0  0  0  0  # atno 6908 bound_to 6896
  152.2622  134.8022  160.0479 H   0  0  0  0  0  0  0  0  0  0  0  0  # atno 6909 bound_to 6896
  145.3186  140.9416  143.2728 H   0  0  0  0  0  0  0  0  0  0  0  0  # atno 7974 bound_to 7965
  155.4987  140.0573  157.2942 H   0  0  0  0  0  0  0  0  0  0  0  0  # atno 8008 bound_to 7997
  154.4595  140.1989  156.0234 H   0  0  0  0  0  0  0  0  0  0  0  0  # atno 8009 bound_to 7997
  156.0864  140.3240  155.7763 H   0  0  0  0  0  0  0  0  0  0  0  0  # atno 8010 bound_to 7997
  139.5116  144.6362  151.5689 H   0  0  0  0  0  0  0  0  0  0  0  0  # atno 10167 bound_to 10162
  157.6937  131.0243  150.3077 H   0  0  0  0  0  0  0  0  0  0  0  0  # atno 10718 bound_to 10713
  154.5777  135.5585  153.7155 H   0  0  0  0  0  0  0  0  0  0  0  0  # atno 10763 bound_to 10752
  153.0070  135.6312  154.2025 H   0  0  0  0  0  0  0  0  0  0  0  0  # atno 10764 bound_to 10752
  154.1966  135.2880  155.2984 H   0  0  0  0  0  0  0  0  0  0  0  0  # atno 10765 bound_to 10752
  139.8771  134.9090  156.4588 H   0  0  0  0  0  0  0  0  0  0  0  0  # atno 11005 bound_to 11000
  144.8957  139.4715  143.6656 LP  0  0  0  0  0  0  0  0  0  0  0  0  # atno 17320 bound_to 7965
  146.3091  139.7682  142.9034 LP  0  0  0  0  0  0  0  0  0  0  0  0  # atno 17321 bound_to 7965
  140.6112  143.9432  150.6455 LP  0  0  0  0  0  0  0  0  0  0  0  0  # atno 17342 bound_to 10162
  140.2675  143.3479  152.1267 LP  0  0  0  0  0  0  0  0  0  0  0  0  # atno 17343 bound_to 10162
  156.3583  130.3842  149.7272 LP  0  0  0  0  0  0  0  0  0  0  0  0  # atno 17370 bound_to 10713
  156.4727  130.8004  151.3021 LP  0  0  0  0  0  0  0  0  0  0  0  0  # atno 17371 bound_to 10713
  140.8879  133.7870  155.9538 LP  0  0  0  0  0  0  0  0  0  0  0  0  # atno 17394 bound_to 11000
  140.8785  134.2640  157.5156 LP  0  0  0  0  0  0  0  0  0  0  0  0  # atno 17395 bound_to 11000

$$$$
