AV-unprocessed.smi:3224|AV-procd|sdf|12309|dock5
  -GOLD-   2272018153D 1   1.00000     0.00000
 Structure written by MMmdl.
 31 32  0  0  0  0  0  0  0  0  1 V2000
  145.6953  144.2013  161.3382 C   0  0  0  0  0  0  0  0  0  0  0  0
  145.8754  145.1568  160.1387 C   0  0  0  0  0  0  0  0  0  0  0  0
  147.1890  144.9362  159.5141 N   0  0  0  0  0  0  0  0  0  0  0  0
  148.3329  144.5305  160.0910 C   0  0  0  0  0  0  0  0  0  0  0  0
  148.4466  144.2711  161.2890 O   0  0  0  0  0  0  0  0  0  0  0  0
  149.3228  144.4468  159.1849 N   0  0  0  0  0  0  0  0  0  0  0  0
  150.6792  144.0854  159.3965 C   0  0  0  0  0  0  0  0  0  0  0  0
  151.1356  143.4769  160.4977 N   0  0  0  0  0  0  0  0  0  0  0  0
  152.5123  143.2471  160.4375 C   0  0  0  0  0  0  0  0  0  0  0  0
  153.0925  143.6898  159.2747 C   0  0  0  0  0  0  0  0  0  0  0  0
  151.9255  144.4165  158.2024 S   0  0  0  0  0  0  0  0  0  0  0  0
  144.7200  144.9840  159.1227 C   0  0  0  0  0  0  0  0  0  0  0  0
  144.7436  146.0706  158.0329 C   0  0  0  0  0  0  0  0  0  0  0  0
  144.6826  147.3590  158.6334 O   0  0  0  0  0  0  0  0  0  0  0  0
  145.7931  147.6285  159.4805 C   0  0  0  0  0  0  0  0  0  0  0  0
  145.8307  146.6162  160.6412 C   0  0  0  0  0  0  0  0  0  0  0  0
  144.7669  144.4089  161.8711 H   0  0  0  0  0  0  0  0  0  0  0  0
  146.5120  144.3035  162.0534 H   0  0  0  0  0  0  0  0  0  0  0  0
  145.6552  143.1572  161.0282 H   0  0  0  0  0  0  0  0  0  0  0  0
  147.2263  145.1148  158.5213 H   0  0  0  0  0  0  0  0  0  0  0  0
  149.0806  144.6802  158.2333 H   0  0  0  0  0  0  0  0  0  0  0  0
  153.0006  142.7616  161.2696 H   0  0  0  0  0  0  0  0  0  0  0  0
  154.1314  143.6331  158.9860 H   0  0  0  0  0  0  0  0  0  0  0  0
  144.7366  143.9961  158.6632 H   0  0  0  0  0  0  0  0  0  0  0  0
  143.7664  145.0469  159.6487 H   0  0  0  0  0  0  0  0  0  0  0  0
  145.6353  145.9868  157.4102 H   0  0  0  0  0  0  0  0  0  0  0  0
  143.8852  145.9535  157.3714 H   0  0  0  0  0  0  0  0  0  0  0  0
  146.7185  147.6043  158.9033 H   0  0  0  0  0  0  0  0  0  0  0  0
  145.6946  148.6409  159.8724 H   0  0  0  0  0  0  0  0  0  0  0  0
  144.9415  146.7649  161.2557 H   0  0  0  0  0  0  0  0  0  0  0  0
  146.6838  146.8244  161.2888 H   0  0  0  0  0  0  0  0  0  0  0  0
  1  2  1  0  0  0  0
  1 17  1  0  0  0  0
  1 18  1  0  0  0  0
  1 19  1  0  0  0  0
  2 16  1  0  0  0  0
  2  3  1  0  0  0  0
  2 12  1  0  0  0  0
  3  4  1  0  0  0  0
  3 20  1  0  0  0  0
  4  5  2  0  0  0  0
  4  6  1  0  0  0  0
  6  7  1  0  0  0  0
  6 21  1  0  0  0  0
  7 11  1  0  0  0  0
  7  8  2  0  0  0  0
  8  9  1  0  0  0  0
  9 10  2  0  0  0  0
  9 22  1  0  0  0  0
 10 11  1  0  0  0  0
 10 23  1  0  0  0  0
 12 13  1  0  0  0  0
 12 24  1  0  0  0  0
 12 25  1  0  0  0  0
 13 14  1  0  0  0  0
 13 26  1  0  0  0  0
 13 27  1  0  0  0  0
 14 15  1  0  0  0  0
 15 16  1  0  0  0  0
 15 28  1  0  0  0  0
 15 29  1  0  0  0  0
 16 30  1  0  0  0  0
 16 31  1  0  0  0  0
M  END
> <s_m_source_file>
AV-unprocessed.smi

> <i_m_source_file_index>
3224

> <i_lp_mmshare_version>
43012

> <i_f3d_flags>
0

> <s_epik_input>
W0NIMl0xW0NIMl1PW0NIMl1bQ0gyXUMxKFtDSDNdKVtOSF1DKD1PKVtOSF1jMm5bY0hdW2NIXXMy

> <s_epik_cmdline>
J2VwaWtfcHl0aG9uJywgJy1waCcsICc3LjAnLCAnLXRuJywgJzgnLCAnLW1hJywgJzIwMCcsICctbWV0YWxfYmluZGluZycsICctaW1hZScsICc8aW5maWxlLm1hZT4nLCAnLW9tYWUnLCAnPG91dGZpbGUubWFlPic=

> <r_lp_tautomer_probability>
1

> <r_epik_Ionization_Penalty>
0.000150899

> <r_epik_Ionization_Penalty_Charging>
0

> <r_epik_Ionization_Penalty_Neutral>
0.000150899

> <r_epik_State_Penalty>
-0

> <r_epik_Charging_Adjusted_Penalty>
0

> <i_epik_Tot_Q>
0

> <i_epik_Tot_abs_Q>
0

> <r_epik_Metal_State_Penalty>
0.0306338

> <b_epik_Metal_Only>
0

> <s_lp_Force_Field>
OPLS_2005

> <r_lp_Energy>
7.54186

> <b_lp_Chiralities_Consistent>
1

> <s_lp_Variant>
AV-unprocessed.smi:3224-1

> <Gold.Version>
5.8.1

> <Gold.Id.Protein>
6NUR|6NUR_protein|mol2

> <Gold.PLP.Fitness>
35.8554

> <Gold.PLP.PLP>
-29.0497

> <Gold.PLP.part.hbond>
-4.0000

> <Gold.PLP.part.metal>
0.0000

> <Gold.PLP.part.buried>
-1.5031

> <Gold.PLP.part.nonpolar>
-24.8038

> <Gold.PLP.part.repulsive>
0.6314

> <Gold.PLP.ligand.clash>
0.0000

> <Gold.PLP.ligand.torsion>
0.6085

> <Gold.PLP.Chemscore.Hbond>
2.6720

> <Gold.PLP.Chemscore.CHOScore>
0.0000

> <Gold.PLP.Chemscore.Metal>
0.0000

> <Gold.Chemscore.Hbonds>
donor molecule, donor type, donor heavy atom, donor atom, acceptor molecule, acceptor atom, score
      L1  H     3    20       P1  8029  0.99
      L1  H     6    21       P1  8029  0.78
      P1  H  6933  6944       L1     5  0.90

> <Gold.PLP.Chemscore.Internal.Correction>
0.0067

> <Gold.Rescore>
     Score         DG    S(hbond)    S(metal)    S(lipo)     H(rot)  DE(clash)    DE(int)     intcor
     15.21     -20.21       2.77        0.00      68.84       1.00       1.68       3.33       ----

> <Gold.Chemscore.Fitness>
15.2097

> <Gold.Chemscore.DG>
-20.2147

> <Gold.Chemscore.ZeroCoef>
-5.4800

> <Gold.Chemscore.Hbond>
2.7666

> <Gold.Chemscore.Metal>
0.0000

> <Gold.Chemscore.Lipo>
68.8395

> <Gold.Chemscore.Internal_Hbond>
0.0000

> <Gold.Chemscore.DEClash>
1.6798

> <Gold.Chemscore.DEInternal>
3.3252

> <Gold.Chemscore.Rot>
1.0000

> <Gold.Chemscore.Internal.Correction>
   9.000000E+99

> <Gold.Chemscore.Hbonds>
donor molecule, donor type, donor heavy atom, donor atom, acceptor molecule, acceptor atom, score
      L1  H     3    20       P1  8029  0.93
      L1  H     6    21       P1  8029  0.30
      P1  H  6933  6944       L1     5  0.57

> <Gold.Chemscore.Hbond.Weighted>
-9.2404

> <Gold.Chemscore.Metal.Weighted>
-0.0000

> <Gold.Chemscore.Lipo.Weighted>
-8.0542

> <Gold.Chemscore.Internal_Hbond.Weighted>
0.0000

> <Gold.Chemscore.DEClash.Weighted>
1.6798

> <Gold.Chemscore.DEInternal.Weighted>
3.3252

> <Gold.Chemscore.Rot.Weighted>
2.5600

> <Gold.Chemscore.Internal.Correction.Weighted>
   9.000000E+99

> <Gold.Protein.RotatedTorsions>
[ 6907 6896 6895 6894 ] final  -33.45 input  -60.11 | X-H torsion
[ 7974 7965 7964 7962 ] final -171.51 input  175.53 | X-H torsion
[ 8008 7997 7996 7995 ] final  -32.23 input   59.86 | X-H torsion
[ 10167 10162 10161 10158 ] final  -90.75 input  -65.29 | X-H torsion
[ 10718 10713 10712 10709 ] final   75.61 input   66.30 | X-H torsion
[ 10763 10752 10751 10750 ] final  127.80 input  -60.55 | X-H torsion
[ 11005 11000 10999 10996 ] final -155.32 input  -57.11 | X-H torsion

> <Gold.Protein.ActiveResidues>
 VAL166  LYS551  ARG553  GLY616  TRP617  ASP618  TYR619  PRO620  LYS621  CYS622 
 ASP623  PHE694  ASN695  SER759  ASP760  ASP761  ALA762  ILE779  LEU786  VAL792 
 PHE793  MET794  SER795  GLU796  ALA797  LYS798  CYS799  TRP800  GLU811  SER814 

> <Gold.Protein.RotatedAtoms>
  151.0655  134.9764  159.8281 H   0  0  0  0  0  0  0  0  0  0  0  0  # atno 6907 bound_to 6896
  152.5401  134.2365  159.8855 H   0  0  0  0  0  0  0  0  0  0  0  0  # atno 6908 bound_to 6896
  151.2387  133.4368  159.2640 H   0  0  0  0  0  0  0  0  0  0  0  0  # atno 6909 bound_to 6896
  144.7156  140.1911  143.6348 H   0  0  0  0  0  0  0  0  0  0  0  0  # atno 7974 bound_to 7965
  154.4187  140.1743  156.1694 H   0  0  0  0  0  0  0  0  0  0  0  0  # atno 8008 bound_to 7997
  155.9772  140.3380  155.6606 H   0  0  0  0  0  0  0  0  0  0  0  0  # atno 8009 bound_to 7997
  155.6547  140.0694  157.2565 H   0  0  0  0  0  0  0  0  0  0  0  0  # atno 8010 bound_to 7997
  140.3518  143.2887  151.9717 H   0  0  0  0  0  0  0  0  0  0  0  0  # atno 10167 bound_to 10162
  157.6641  130.9735  150.1378 H   0  0  0  0  0  0  0  0  0  0  0  0  # atno 10718 bound_to 10713
  153.7152  135.3262  155.3255 H   0  0  0  0  0  0  0  0  0  0  0  0  # atno 10763 bound_to 10752
  154.8373  135.4486  154.1273 H   0  0  0  0  0  0  0  0  0  0  0  0  # atno 10764 bound_to 10752
  153.2378  135.6967  153.7896 H   0  0  0  0  0  0  0  0  0  0  0  0  # atno 10765 bound_to 10752
  140.6878  134.4075  157.5222 H   0  0  0  0  0  0  0  0  0  0  0  0  # atno 11005 bound_to 11000
  145.8767  139.2301  143.1629 LP  0  0  0  0  0  0  0  0  0  0  0  0  # atno 17320 bound_to 7965
  146.0034  140.8500  143.0007 LP  0  0  0  0  0  0  0  0  0  0  0  0  # atno 17321 bound_to 7965
  139.4825  144.6069  151.7504 LP  0  0  0  0  0  0  0  0  0  0  0  0  # atno 17342 bound_to 10162
  140.5212  144.0877  150.6023 LP  0  0  0  0  0  0  0  0  0  0  0  0  # atno 17343 bound_to 10162
  156.2209  130.3674  149.8558 LP  0  0  0  0  0  0  0  0  0  0  0  0  # atno 17370 bound_to 10713
  156.6411  130.8705  151.3514 LP  0  0  0  0  0  0  0  0  0  0  0  0  # atno 17371 bound_to 10713
  139.8932  134.8735  156.2232 LP  0  0  0  0  0  0  0  0  0  0  0  0  # atno 17394 bound_to 11000
  141.0266  133.7011  156.1358 LP  0  0  0  0  0  0  0  0  0  0  0  0  # atno 17395 bound_to 11000

$$$$
