AV-unprocessed.smi:1956|AV-procd|sdf|7901|dock2
  -GOLD-   2272010 53D 1   1.00000     0.00000
 Structure written by MMmdl.
 46 47  0  0  0  0  0  0  0  0  2 V2000
  151.8918  141.0876  158.3067 C   0  0  0  0  0  0  0  0  0  0  0  0
  151.5299  141.1785  156.9329 O   0  0  0  0  0  0  0  0  0  0  0  0
  151.0343  140.0512  156.3102 C   0  0  0  0  0  0  0  0  0  0  0  0
  150.5956  138.9771  157.1096 C   0  0  0  0  0  0  0  0  0  0  0  0
  150.0882  137.8255  156.4791 C   0  0  0  0  0  0  0  0  0  0  0  0
  150.0235  137.7831  155.0718 C   0  0  0  0  0  0  0  0  0  0  0  0
  149.5238  136.6011  154.4610 N   0  0  0  0  0  0  0  0  0  0  0  0
  149.0925  135.4743  155.0533 C   0  0  0  0  0  0  0  0  0  0  0  0
  149.1003  135.2573  156.2650 O   0  0  0  0  0  0  0  0  0  0  0  0
  148.6644  134.5818  154.1492 N   0  0  0  0  0  0  0  0  0  0  0  0
  148.1348  133.2609  154.4686 C   0  0  0  0  0  0  0  0  0  0  0  0
  148.0045  132.3838  153.2083 C   0  0  0  0  0  0  0  0  0  0  0  0
  146.7179  132.5982  152.4990 N   0  3  2  0  0  0  0  0  0  0  0  0
  146.1126  131.3224  152.0360 C   0  0  0  0  0  0  0  0  0  0  0  0
  144.7116  131.5530  151.4478 C   0  0  0  0  0  0  0  0  0  0  0  0
  144.7522  132.5880  150.3148 C   0  0  0  0  0  0  0  0  0  0  0  0
  145.4341  133.8908  150.7720 C   0  0  1  0  0  0  0  0  0  0  0  0
  144.5480  134.7325  151.7069 C   0  0  0  0  0  0  0  0  0  0  0  0
  146.8137  133.5901  151.3932 C   0  0  0  0  0  0  0  0  0  0  0  0
  150.5011  138.9087  154.3566 C   0  0  0  0  0  0  0  0  0  0  0  0
  150.9910  140.0149  154.9554 N   0  0  0  0  0  0  0  0  0  0  0  0
  152.2686  142.0528  158.6451 H   0  0  0  0  0  0  0  0  0  0  0  0
  152.6812  140.3514  158.4649 H   0  0  0  0  0  0  0  0  0  0  0  0
  151.0329  140.8312  158.9283 H   0  0  0  0  0  0  0  0  0  0  0  0
  150.6484  139.0352  158.1867 H   0  0  0  0  0  0  0  0  0  0  0  0
  149.7491  136.9885  157.0722 H   0  0  0  0  0  0  0  0  0  0  0  0
  149.5390  136.5969  153.4516 H   0  0  0  0  0  0  0  0  0  0  0  0
  148.6968  134.8385  153.1730 H   0  0  0  0  0  0  0  0  0  0  0  0
  148.7710  132.7736  155.2096 H   0  0  0  0  0  0  0  0  0  0  0  0
  147.1656  133.4094  154.9431 H   0  0  0  0  0  0  0  0  0  0  0  0
  148.8377  132.5579  152.5257 H   0  0  0  0  0  0  0  0  0  0  0  0
  148.0695  131.3378  153.5114 H   0  0  0  0  0  0  0  0  0  0  0  0
  146.7626  130.8584  151.2924 H   0  0  0  0  0  0  0  0  0  0  0  0
  146.0358  130.6240  152.8702 H   0  0  0  0  0  0  0  0  0  0  0  0
  144.3071  130.6116  151.0743 H   0  0  0  0  0  0  0  0  0  0  0  0
  144.0320  131.8851  152.2333 H   0  0  0  0  0  0  0  0  0  0  0  0
  145.3052  132.1704  149.4723 H   0  0  0  0  0  0  0  0  0  0  0  0
  143.7452  132.7896  149.9481 H   0  0  0  0  0  0  0  0  0  0  0  0
  145.6028  134.4979  149.8817 H   0  0  0  0  0  0  0  0  0  0  0  0
  144.3346  134.2156  152.6425 H   0  0  0  0  0  0  0  0  0  0  0  0
  143.5947  134.9699  151.2343 H   0  0  0  0  0  0  0  0  0  0  0  0
  145.0320  135.6769  151.9577 H   0  0  0  0  0  0  0  0  0  0  0  0
  147.2560  134.5208  151.7465 H   0  0  0  0  0  0  0  0  0  0  0  0
  147.4860  133.2020  150.6263 H   0  0  0  0  0  0  0  0  0  0  0  0
  150.5198  138.9358  153.2784 H   0  0  0  0  0  0  0  0  0  0  0  0
  146.0782  132.9785  153.1820 H   0  0  0  0  0  0  0  0  0  0  0  0
  1  2  1  0  0  0  0
  1 22  1  0  0  0  0
  1 23  1  0  0  0  0
  1 24  1  0  0  0  0
  2  3  1  0  0  0  0
  3 21  1  0  0  0  0
  3  4  2  0  0  0  0
  4  5  1  0  0  0  0
  4 25  1  0  0  0  0
  5  6  2  0  0  0  0
  5 26  1  0  0  0  0
  6  7  1  0  0  0  0
  6 20  1  0  0  0  0
  7  8  1  0  0  0  0
  7 27  1  0  0  0  0
  8  9  2  0  0  0  0
  8 10  1  0  0  0  0
 10 11  1  0  0  0  0
 10 28  1  0  0  0  0
 11 12  1  0  0  0  0
 11 29  1  0  0  0  0
 11 30  1  0  0  0  0
 12 13  1  0  0  0  0
 12 31  1  0  0  0  0
 12 32  1  0  0  0  0
 13 19  1  0  0  0  0
 13 14  1  0  0  0  0
 13 46  1  0  0  0  0
 14 15  1  0  0  0  0
 14 33  1  0  0  0  0
 14 34  1  0  0  0  0
 15 16  1  0  0  0  0
 15 35  1  0  0  0  0
 15 36  1  0  0  0  0
 16 17  1  0  0  0  0
 16 37  1  0  0  0  0
 16 38  1  0  0  0  0
 17 18  1  0  0  0  0
 17 19  1  0  0  0  0
 17 39  1  0  0  0  0
 18 40  1  0  0  0  0
 18 41  1  0  0  0  0
 18 42  1  0  0  0  0
 19 43  1  0  0  0  0
 19 44  1  0  0  0  0
 20 21  2  0  0  0  0
 20 45  1  0  0  0  0
M  CHG  1  13   1
M  END
> <s_m_source_file>
AV-unprocessed.smi

> <i_m_source_file_index>
1956

> <i_lp_mmshare_version>
43012

> <i_f3d_flags>
0

> <s_epik_input>
W0NIM11PYzFbY0hdW2NIXWMoW2NIXW4xKVtOSF1DKD1PKVtOSF1bQ0gyXVtDSDJdTjJbQ0gyXVtDSDJdW0NIMl1bQ0BASF0oW0NIM10pW0NIMl0y

> <s_epik_cmdline>
J2VwaWtfcHl0aG9uJywgJy1waCcsICc3LjAnLCAnLXRuJywgJzgnLCAnLW1hJywgJzIwMCcsICctbWV0YWxfYmluZGluZycsICctaW1hZScsICc8aW5maWxlLm1hZT4nLCAnLW9tYWUnLCAnPG91dGZpbGUubWFlPic=

> <r_lp_tautomer_probability>
1

> <r_epik_Ionization_Penalty>
0.00179545

> <r_epik_Ionization_Penalty_Charging>
0.00171832

> <r_epik_Ionization_Penalty_Neutral>
7.7124e-05

> <r_epik_State_Penalty>
0.0011618

> <r_epik_Charging_Adjusted_Penalty>
0.00288012

> <i_epik_Tot_Q>
1

> <i_epik_Tot_abs_Q>
1

> <r_epik_Metal_State_Penalty>
-0

> <b_epik_Metal_Only>
0

> <s_lp_Force_Field>
OPLS_2005

> <r_lp_Energy>
22.351

> <b_lp_Chiralities_Consistent>
1

> <s_lp_Variant>
AV-unprocessed.smi:1956-2

> <Gold.Version>
5.8.1

> <Gold.Id.Protein>
6NUR|6NUR_protein|mol2

> <Gold.PLP.Fitness>
42.9390

> <Gold.PLP.PLP>
-32.8681

> <Gold.PLP.part.hbond>
-3.0000

> <Gold.PLP.part.metal>
0.0000

> <Gold.PLP.part.buried>
-5.5519

> <Gold.PLP.part.nonpolar>
-24.1320

> <Gold.PLP.part.repulsive>
0.1153

> <Gold.PLP.ligand.clash>
0.0000

> <Gold.PLP.ligand.torsion>
0.9459

> <Gold.PLP.Chemscore.Hbond>
2.9600

> <Gold.PLP.Chemscore.CHOScore>
1.0000

> <Gold.PLP.Chemscore.Metal>
0.0000

> <Gold.Chemscore.Hbonds>
donor molecule, donor type, donor heavy atom, donor atom, acceptor molecule, acceptor atom, score
      L1  H     7    27       P1  7948  1.00
      L1  H    10    28       P1  7948  0.98
      P1  H  7989  7998       L1    21  0.95
      L1  C    20    45       P1  7957  0.98

> <Gold.PLP.Chemscore.Internal.Correction>
0.0827

> <Gold.Rescore>
     Score         DG    S(hbond)    S(metal)    S(lipo)     H(rot)  DE(clash)    DE(int)     intcor
     13.84     -16.15       1.81        0.00      76.86       1.71       0.01       2.30       ----

> <Gold.Chemscore.Fitness>
13.8402

> <Gold.Chemscore.DG>
-16.1498

> <Gold.Chemscore.ZeroCoef>
-5.4800

> <Gold.Chemscore.Hbond>
1.8134

> <Gold.Chemscore.Metal>
0.0000

> <Gold.Chemscore.Lipo>
76.8603

> <Gold.Chemscore.Internal_Hbond>
0.0000

> <Gold.Chemscore.DEClash>
0.0115

> <Gold.Chemscore.DEInternal>
2.2982

> <Gold.Chemscore.Rot>
1.7107

> <Gold.Chemscore.Internal.Correction>
   9.000000E+99

> <Gold.Chemscore.Hbonds>
donor molecule, donor type, donor heavy atom, donor atom, acceptor molecule, acceptor atom, score
      L1  H     7    27       P1  7948  0.69
      L1  H    10    28       P1  7948  0.37
      P1  H  7989  7998       L1    21  0.22

> <Gold.Chemscore.Hbond.Weighted>
-6.0566

> <Gold.Chemscore.Metal.Weighted>
-0.0000

> <Gold.Chemscore.Lipo.Weighted>
-8.9927

> <Gold.Chemscore.Internal_Hbond.Weighted>
0.0000

> <Gold.Chemscore.DEClash.Weighted>
0.0115

> <Gold.Chemscore.DEInternal.Weighted>
2.2982

> <Gold.Chemscore.Rot.Weighted>
4.3794

> <Gold.Chemscore.Internal.Correction.Weighted>
   9.000000E+99

> <Gold.Protein.RotatedTorsions>
[ 6907 6896 6895 6894 ] final  -32.54 input  -60.11 | X-H torsion
[ 7974 7965 7964 7962 ] final  -99.27 input  175.53 | X-H torsion
[ 8008 7997 7996 7995 ] final  -92.54 input   59.86 | X-H torsion
[ 10167 10162 10161 10158 ] final    3.56 input  -65.29 | X-H torsion
[ 10718 10713 10712 10709 ] final  168.51 input   66.30 | X-H torsion
[ 10763 10752 10751 10750 ] final  147.51 input  -60.55 | X-H torsion
[ 11005 11000 10999 10996 ] final  -26.25 input  -57.11 | X-H torsion

> <Gold.Protein.ActiveResidues>
 VAL166  LYS551  ARG553  GLY616  TRP617  ASP618  TYR619  PRO620  LYS621  CYS622 
 ASP623  PHE694  ASN695  SER759  ASP760  ASP761  ALA762  ILE779  LEU786  VAL792 
 PHE793  MET794  SER795  GLU796  ALA797  LYS798  CYS799  TRP800  GLU811  SER814 

> <Gold.Protein.RotatedAtoms>
  151.0775  134.9837  159.8338 H   0  0  0  0  0  0  0  0  0  0  0  0  # atno 6907 bound_to 6896
  152.5416  134.2223  159.8802 H   0  0  0  0  0  0  0  0  0  0  0  0  # atno 6908 bound_to 6896
  151.2251  133.4437  159.2635 H   0  0  0  0  0  0  0  0  0  0  0  0  # atno 6909 bound_to 6896
  145.3097  140.9397  143.2776 H   0  0  0  0  0  0  0  0  0  0  0  0  # atno 7974 bound_to 7965
  154.7244  140.0508  157.0669 H   0  0  0  0  0  0  0  0  0  0  0  0  # atno 8008 bound_to 7997
  155.0385  140.3166  155.4714 H   0  0  0  0  0  0  0  0  0  0  0  0  # atno 8009 bound_to 7997
  156.2825  140.2137  156.5508 H   0  0  0  0  0  0  0  0  0  0  0  0  # atno 8010 bound_to 7997
  140.6580  143.7378  150.7687 H   0  0  0  0  0  0  0  0  0  0  0  0  # atno 10167 bound_to 10162
  157.0360  131.0273  151.2729 H   0  0  0  0  0  0  0  0  0  0  0  0  # atno 10718 bound_to 10713
  154.0396  135.2891  155.3357 H   0  0  0  0  0  0  0  0  0  0  0  0  # atno 10763 bound_to 10752
  154.6937  135.5216  153.8432 H   0  0  0  0  0  0  0  0  0  0  0  0  # atno 10764 bound_to 10752
  153.0605  135.6612  154.0601 H   0  0  0  0  0  0  0  0  0  0  0  0  # atno 10765 bound_to 10752
  140.9012  133.7523  156.0546 H   0  0  0  0  0  0  0  0  0  0  0  0  # atno 11005 bound_to 11000
  144.9025  139.4631  143.6625 LP  0  0  0  0  0  0  0  0  0  0  0  0  # atno 17320 bound_to 7965
  146.3122  139.7788  142.9011 LP  0  0  0  0  0  0  0  0  0  0  0  0  # atno 17321 bound_to 7965
  140.1042  143.4760  152.2408 LP  0  0  0  0  0  0  0  0  0  0  0  0  # atno 17342 bound_to 10162
  139.5806  144.7509  151.3649 LP  0  0  0  0  0  0  0  0  0  0  0  0  # atno 17343 bound_to 10162
  157.5141  130.7957  149.7737 LP  0  0  0  0  0  0  0  0  0  0  0  0  # atno 17370 bound_to 10713
  156.0054  130.3858  150.2452 LP  0  0  0  0  0  0  0  0  0  0  0  0  # atno 17371 bound_to 10713
  140.8228  134.3270  157.5376 LP  0  0  0  0  0  0  0  0  0  0  0  0  # atno 17394 bound_to 11000
  139.8742  134.9319  156.3539 LP  0  0  0  0  0  0  0  0  0  0  0  0  # atno 17395 bound_to 11000

$$$$
