AV-unprocessed.smi:2499|AV-procd|sdf|9832|dock4
  -GOLD-   2272013463D 1   1.00000     0.00000
 Structure written by MMmdl.
 27 28  0  0  0  0  0  0  0  0  1 V2000
  151.4153  142.0406  158.7724 C   0  0  0  0  0  0  0  0  0  0  0  0
  151.6435  142.9412  157.5507 C   0  0  1  0  0  0  0  0  0  0  0  0
  150.5145  142.7845  156.6389 N   0  0  0  0  0  0  0  0  0  0  0  0
  150.1570  141.6424  156.0334 C   0  0  0  0  0  0  0  0  0  0  0  0
  150.7516  140.5751  156.1855 O   0  0  0  0  0  0  0  0  0  0  0  0
  149.0782  141.8222  155.2529 N   0  0  0  0  0  0  0  0  0  0  0  0
  148.4187  140.8533  154.4552 C   0  0  0  0  0  0  0  0  0  0  0  0
  148.6838  139.5467  154.4100 N   0  0  0  0  0  0  0  0  0  0  0  0
  147.7786  139.0380  153.4898 C   0  0  0  0  0  0  0  0  0  0  0  0
  147.0100  140.0752  153.0277 C   0  0  0  0  0  0  0  0  0  0  0  0
  147.4069  141.2375  153.6328 O   0  0  0  0  0  0  0  0  0  0  0  0
  151.8826  144.3802  157.9767 C   0  0  0  0  0  0  0  0  0  0  0  0
  152.4757  144.7148  159.3252 C   0  0  0  0  0  0  0  0  0  0  0  0
  151.0254  145.0279  159.0384 C   0  0  0  0  0  0  0  0  0  0  0  0
  152.2639  142.0838  159.4560 H   0  0  0  0  0  0  0  0  0  0  0  0
  151.2873  140.9989  158.4756 H   0  0  0  0  0  0  0  0  0  0  0  0
  150.5263  142.3414  159.3278 H   0  0  0  0  0  0  0  0  0  0  0  0
  152.5451  142.5831  157.0497 H   0  0  0  0  0  0  0  0  0  0  0  0
  149.9661  143.6114  156.4532 H   0  0  0  0  0  0  0  0  0  0  0  0
  148.6858  142.7514  155.2250 H   0  0  0  0  0  0  0  0  0  0  0  0
  147.7525  137.9881  153.2381 H   0  0  0  0  0  0  0  0  0  0  0  0
  146.1988  140.1494  152.3186 H   0  0  0  0  0  0  0  0  0  0  0  0
  152.1751  145.0319  157.1552 H   0  0  0  0  0  0  0  0  0  0  0  0
  152.6842  143.8943  160.0088 H   0  0  0  0  0  0  0  0  0  0  0  0
  153.1723  145.5492  159.3731 H   0  0  0  0  0  0  0  0  0  0  0  0
  150.7541  146.0720  158.8966 H   0  0  0  0  0  0  0  0  0  0  0  0
  150.2740  144.4131  159.5298 H   0  0  0  0  0  0  0  0  0  0  0  0
  1  2  1  0  0  0  0
  1 15  1  0  0  0  0
  1 16  1  0  0  0  0
  1 17  1  0  0  0  0
  2  3  1  0  0  0  0
  2 12  1  0  0  0  0
  2 18  1  0  0  0  0
  3  4  1  0  0  0  0
  3 19  1  0  0  0  0
  4  5  2  0  0  0  0
  4  6  1  0  0  0  0
  6  7  1  0  0  0  0
  6 20  1  0  0  0  0
  7 11  1  0  0  0  0
  7  8  2  0  0  0  0
  8  9  1  0  0  0  0
  9 10  2  0  0  0  0
  9 21  1  0  0  0  0
 10 11  1  0  0  0  0
 10 22  1  0  0  0  0
 12 14  1  0  0  0  0
 12 13  1  0  0  0  0
 12 23  1  0  0  0  0
 13 14  1  0  0  0  0
 13 24  1  0  0  0  0
 13 25  1  0  0  0  0
 14 26  1  0  0  0  0
 14 27  1  0  0  0  0
M  END
> <s_m_source_file>
AV-unprocessed.smi

> <i_m_source_file_index>
2499

> <i_lp_mmshare_version>
43012

> <i_f3d_flags>
0

> <s_epik_input>
W0NIMl0xW0NIMl1bQ0hdMVtDQEhdKFtDSDNdKVtOSF1DKD1PKVtOSF1jMm5bY0hdW2NIXW8y

> <s_epik_cmdline>
J2VwaWtfcHl0aG9uJywgJy1waCcsICc3LjAnLCAnLXRuJywgJzgnLCAnLW1hJywgJzIwMCcsICctbWV0YWxfYmluZGluZycsICctaW1hZScsICc8aW5maWxlLm1hZT4nLCAnLW9tYWUnLCAnPG91dGZpbGUubWFlPic=

> <r_lp_tautomer_probability>
0.785861

> <r_epik_Ionization_Penalty>
5.39182e-05

> <r_epik_Ionization_Penalty_Charging>
0

> <r_epik_Ionization_Penalty_Neutral>
5.39182e-05

> <r_epik_State_Penalty>
0.0482803

> <r_epik_Charging_Adjusted_Penalty>
0.0482803

> <i_epik_Tot_Q>
0

> <i_epik_Tot_abs_Q>
0

> <r_epik_Metal_State_Penalty>
0.0621274

> <b_epik_Metal_Only>
0

> <s_lp_Force_Field>
OPLS_2005

> <r_lp_Energy>
12.2154

> <b_lp_Chiralities_Consistent>
1

> <s_lp_Variant>
AV-unprocessed.smi:2499-2

> <Gold.Version>
5.8.1

> <Gold.Id.Protein>
6NUR|6NUR_protein|mol2

> <Gold.PLP.Fitness>
40.7337

> <Gold.PLP.PLP>
-28.8293

> <Gold.PLP.part.hbond>
-2.0000

> <Gold.PLP.part.metal>
0.0000

> <Gold.PLP.part.buried>
-4.5589

> <Gold.PLP.part.nonpolar>
-22.8384

> <Gold.PLP.part.repulsive>
0.5382

> <Gold.PLP.ligand.clash>
0.0000

> <Gold.PLP.ligand.torsion>
0.5666

> <Gold.PLP.Chemscore.Hbond>
1.9920

> <Gold.PLP.Chemscore.CHOScore>
2.0000

> <Gold.PLP.Chemscore.Metal>
0.0000

> <Gold.Chemscore.Hbonds>
donor molecule, donor type, donor heavy atom, donor atom, acceptor molecule, acceptor atom, score
      L1  H     3    19       P1  8028  1.00
      L1  H     6    20       P1  8028  0.99
      L1  C     9    21       P1  7948  1.00
      L1  C    10    22       P1 10175  1.00

> <Gold.PLP.Chemscore.Internal.Correction>
1.0617

> <Gold.Rescore>
     Score         DG    S(hbond)    S(metal)    S(lipo)     H(rot)  DE(clash)    DE(int)     intcor
     15.12     -17.16       1.93        0.00      73.07       1.29       0.12       1.92       ----

> <Gold.Chemscore.Fitness>
15.1152

> <Gold.Chemscore.DG>
-17.1593

> <Gold.Chemscore.ZeroCoef>
-5.4800

> <Gold.Chemscore.Hbond>
1.9269

> <Gold.Chemscore.Metal>
0.0000

> <Gold.Chemscore.Lipo>
73.0746

> <Gold.Chemscore.Internal_Hbond>
0.0000

> <Gold.Chemscore.DEClash>
0.1201

> <Gold.Chemscore.DEInternal>
1.9239

> <Gold.Chemscore.Rot>
1.2915

> <Gold.Chemscore.Internal.Correction>
   9.000000E+99

> <Gold.Chemscore.Hbonds>
donor molecule, donor type, donor heavy atom, donor atom, acceptor molecule, acceptor atom, score
      L1  H     3    19       P1  8028  1.00
      L1  H     6    20       P1  8028  0.89

> <Gold.Chemscore.Hbond.Weighted>
-6.4358

> <Gold.Chemscore.Metal.Weighted>
-0.0000

> <Gold.Chemscore.Lipo.Weighted>
-8.5497

> <Gold.Chemscore.Internal_Hbond.Weighted>
0.0000

> <Gold.Chemscore.DEClash.Weighted>
0.1201

> <Gold.Chemscore.DEInternal.Weighted>
1.9239

> <Gold.Chemscore.Rot.Weighted>
3.3062

> <Gold.Chemscore.Internal.Correction.Weighted>
   9.000000E+99

> <Gold.Protein.RotatedTorsions>
[ 6907 6896 6895 6894 ] final  -80.52 input  -60.11 | X-H torsion
[ 7974 7965 7964 7962 ] final   61.15 input  175.53 | X-H torsion
[ 8008 7997 7996 7995 ] final   40.55 input   59.86 | X-H torsion
[ 10167 10162 10161 10158 ] final -105.44 input  -65.29 | X-H torsion
[ 10718 10713 10712 10709 ] final -133.23 input   66.30 | X-H torsion
[ 10763 10752 10751 10750 ] final  -75.69 input  -60.55 | X-H torsion
[ 11005 11000 10999 10996 ] final   67.91 input  -57.11 | X-H torsion

> <Gold.Protein.ActiveResidues>
 VAL166  LYS551  ARG553  GLY616  TRP617  ASP618  TYR619  PRO620  LYS621  CYS622 
 ASP623  PHE694  ASN695  SER759  ASP760  ASP761  ALA762  ILE779  LEU786  VAL792 
 PHE793  MET794  SER795  GLU796  ALA797  LYS798  CYS799  TRP800  GLU811  SER814 

> <Gold.Protein.RotatedAtoms>
  150.6928  134.3956  159.5095 H   0  0  0  0  0  0  0  0  0  0  0  0  # atno 6907 bound_to 6896
  152.1738  134.8809  160.0541 H   0  0  0  0  0  0  0  0  0  0  0  0  # atno 6908 bound_to 6896
  151.9825  133.3728  159.4150 H   0  0  0  0  0  0  0  0  0  0  0  0  # atno 6909 bound_to 6896
  145.8880  139.3490  143.0666 H   0  0  0  0  0  0  0  0  0  0  0  0  # atno 7974 bound_to 7965
  155.2549  140.3355  155.4278 H   0  0  0  0  0  0  0  0  0  0  0  0  # atno 8008 bound_to 7997
  156.2200  140.1805  156.7543 H   0  0  0  0  0  0  0  0  0  0  0  0  # atno 8009 bound_to 7997
  154.5810  140.0653  156.9089 H   0  0  0  0  0  0  0  0  0  0  0  0  # atno 8010 bound_to 7997
  140.1986  143.3836  152.1148 H   0  0  0  0  0  0  0  0  0  0  0  0  # atno 10167 bound_to 10162
  156.2428  130.7106  151.0974 H   0  0  0  0  0  0  0  0  0  0  0  0  # atno 10718 bound_to 10713
  154.4900  135.5822  153.6452 H   0  0  0  0  0  0  0  0  0  0  0  0  # atno 10763 bound_to 10752
  152.9861  135.6110  154.3137 H   0  0  0  0  0  0  0  0  0  0  0  0  # atno 10764 bound_to 10752
  154.3036  135.2846  155.2578 H   0  0  0  0  0  0  0  0  0  0  0  0  # atno 10765 bound_to 10752
  139.9742  134.6849  156.0386 H   0  0  0  0  0  0  0  0  0  0  0  0  # atno 11005 bound_to 11000
  145.8943  140.9283  143.0535 LP  0  0  0  0  0  0  0  0  0  0  0  0  # atno 17320 bound_to 7965
  144.6729  140.0948  143.7463 LP  0  0  0  0  0  0  0  0  0  0  0  0  # atno 17321 bound_to 7965
  139.5226  144.7061  151.5348 LP  0  0  0  0  0  0  0  0  0  0  0  0  # atno 17342 bound_to 10162
  140.6406  143.8896  150.6688 LP  0  0  0  0  0  0  0  0  0  0  0  0  # atno 17343 bound_to 10162
  157.7182  131.0697  150.6242 LP  0  0  0  0  0  0  0  0  0  0  0  0  # atno 17370 bound_to 10713
  156.6316  130.4433  149.5784 LP  0  0  0  0  0  0  0  0  0  0  0  0  # atno 17371 bound_to 10713
  141.1420  133.6563  156.3759 LP  0  0  0  0  0  0  0  0  0  0  0  0  # atno 17394 bound_to 11000
  140.5229  134.6287  157.5324 LP  0  0  0  0  0  0  0  0  0  0  0  0  # atno 17395 bound_to 11000

$$$$
