AV-unprocessed.smi:1752|AV-procd|sdf|7060|dock9
  -GOLD-   22720 8273D 1   1.00000     0.00000
 Structure written by MMmdl.
 43 44  0  0  0  0  0  0  0  0  2 V2000
  150.5002  141.5537  157.7909 C   0  0  0  0  0  0  0  0  0  0  0  0
  150.9461  142.1770  156.4616 C   0  0  2  0  0  0  0  0  0  0  0  0
  151.5066  143.6002  156.6692 C   0  0  0  0  0  0  0  0  0  0  0  0
  151.8680  143.8691  158.0498 N   0  0  0  0  0  0  0  0  0  0  0  0
  152.7764  143.2019  158.8446 C   0  0  0  0  0  0  0  0  0  0  0  0
  152.7725  143.8122  160.0659 C   0  0  0  0  0  0  0  0  0  0  0  0
  151.8207  144.8597  159.9171 C   0  0  0  0  0  0  0  0  0  0  0  0
  151.2839  144.8932  158.7081 N   0  0  0  0  0  0  0  0  0  0  0  0
  149.8070  142.1936  155.5453 N   0  0  0  0  0  0  0  0  0  0  0  0
  149.5120  141.2519  154.6317 C   0  0  0  0  0  0  0  0  0  0  0  0
  150.2150  140.2564  154.4552 O   0  0  0  0  0  0  0  0  0  0  0  0
  148.3831  141.4897  153.9169 N   0  0  0  0  0  0  0  0  0  0  0  0
  147.5760  142.7202  153.9690 C   0  0  0  0  0  0  0  0  0  0  0  0
  146.4998  142.6133  155.0633 C   0  0  0  0  0  0  0  0  0  0  0  0
  145.5582  141.4013  154.9015 C   0  0  0  0  0  0  0  0  0  0  0  0
  146.2532  140.1177  155.1900 N   0  3  1  0  0  0  0  0  0  0  0  0
  145.3985  139.1623  155.9293 C   0  0  0  0  0  0  0  0  0  0  0  0
  146.8923  139.4755  154.0068 C   0  0  0  0  0  0  0  0  0  0  0  0
  147.7506  140.4206  153.1340 C   0  0  0  0  0  0  0  0  0  0  0  0
  151.3341  141.4865  158.4904 H   0  0  0  0  0  0  0  0  0  0  0  0
  150.1150  140.5443  157.6424 H   0  0  0  0  0  0  0  0  0  0  0  0
  149.7156  142.1451  158.2645 H   0  0  0  0  0  0  0  0  0  0  0  0
  151.7366  141.5401  156.0602 H   0  0  0  0  0  0  0  0  0  0  0  0
  152.3820  143.7634  156.0388 H   0  0  0  0  0  0  0  0  0  0  0  0
  150.7658  144.3423  156.3679 H   0  0  0  0  0  0  0  0  0  0  0  0
  153.3400  142.3557  158.4803 H   0  0  0  0  0  0  0  0  0  0  0  0
  153.3604  143.5517  160.9333 H   0  0  0  0  0  0  0  0  0  0  0  0
  151.5073  145.5926  160.6458 H   0  0  0  0  0  0  0  0  0  0  0  0
  149.1861  142.9866  155.6161 H   0  0  0  0  0  0  0  0  0  0  0  0
  148.1887  143.6072  154.1334 H   0  0  0  0  0  0  0  0  0  0  0  0
  147.0978  142.9030  153.0062 H   0  0  0  0  0  0  0  0  0  0  0  0
  146.9715  142.5820  156.0464 H   0  0  0  0  0  0  0  0  0  0  0  0
  145.9034  143.5260  155.0485 H   0  0  0  0  0  0  0  0  0  0  0  0
  144.7387  141.5341  155.6092 H   0  0  0  0  0  0  0  0  0  0  0  0
  145.0978  141.3800  153.9127 H   0  0  0  0  0  0  0  0  0  0  0  0
  144.5254  138.8809  155.3389 H   0  0  0  0  0  0  0  0  0  0  0  0
  145.0533  139.5970  156.8680 H   0  0  0  0  0  0  0  0  0  0  0  0
  145.9539  138.2559  156.1729 H   0  0  0  0  0  0  0  0  0  0  0  0
  147.5272  138.6690  154.3764 H   0  0  0  0  0  0  0  0  0  0  0  0
  146.1306  139.0038  153.3842 H   0  0  0  0  0  0  0  0  0  0  0  0
  147.1178  140.8481  152.3558 H   0  0  0  0  0  0  0  0  0  0  0  0
  148.5006  139.8462  152.5874 H   0  0  0  0  0  0  0  0  0  0  0  0
  147.0045  140.3530  155.8230 H   0  0  0  0  0  0  0  0  0  0  0  0
  1  2  1  0  0  0  0
  1 20  1  0  0  0  0
  1 21  1  0  0  0  0
  1 22  1  0  0  0  0
  2  3  1  0  0  0  0
  2  9  1  0  0  0  0
  2 23  1  0  0  0  0
  3  4  1  0  0  0  0
  3 24  1  0  0  0  0
  3 25  1  0  0  0  0
  4  8  1  0  0  0  0
  4  5  1  0  0  0  0
  5  6  2  0  0  0  0
  5 26  1  0  0  0  0
  6  7  1  0  0  0  0
  6 27  1  0  0  0  0
  7  8  2  0  0  0  0
  7 28  1  0  0  0  0
  9 10  1  0  0  0  0
  9 29  1  0  0  0  0
 10 11  2  0  0  0  0
 10 12  1  0  0  0  0
 12 19  1  0  0  0  0
 12 13  1  0  0  0  0
 13 14  1  0  0  0  0
 13 30  1  0  0  0  0
 13 31  1  0  0  0  0
 14 15  1  0  0  0  0
 14 32  1  0  0  0  0
 14 33  1  0  0  0  0
 15 16  1  0  0  0  0
 15 34  1  0  0  0  0
 15 35  1  0  0  0  0
 16 17  1  0  0  0  0
 16 18  1  0  0  0  0
 16 43  1  0  0  0  0
 17 36  1  0  0  0  0
 17 37  1  0  0  0  0
 17 38  1  0  0  0  0
 18 19  1  0  0  0  0
 18 39  1  0  0  0  0
 18 40  1  0  0  0  0
 19 41  1  0  0  0  0
 19 42  1  0  0  0  0
M  CHG  1  16   1
M  END
> <s_m_source_file>
AV-unprocessed.smi

> <i_m_source_file_index>
1752

> <i_lp_mmshare_version>
43012

> <i_f3d_flags>
0

> <s_epik_input>
bjFbY0hdW2NIXVtjSF1uMVtDSDJdW0NAQEhdKFtDSDNdKVtOSF1DKD1PKU4yW0NIMl1bQ0gyXVtDSDJdTihbQ0gzXSlbQ0gyXVtDSDJdMg==

> <s_epik_cmdline>
J2VwaWtfcHl0aG9uJywgJy1waCcsICc3LjAnLCAnLXRuJywgJzgnLCAnLW1hJywgJzIwMCcsICctbWV0YWxfYmluZGluZycsICctaW1hZScsICc8aW5maWxlLm1hZT4nLCAnLW9tYWUnLCAnPG91dGZpbGUubWFlPic=

> <r_lp_tautomer_probability>
1

> <r_epik_Ionization_Penalty>
0.00208423

> <r_epik_Ionization_Penalty_Charging>
0.00203643

> <r_epik_Ionization_Penalty_Neutral>
4.77939e-05

> <r_epik_State_Penalty>
0.00139278

> <r_epik_Charging_Adjusted_Penalty>
0.00342922

> <i_epik_Tot_Q>
1

> <i_epik_Tot_abs_Q>
1

> <r_epik_Metal_State_Penalty>
-0

> <b_epik_Metal_Only>
0

> <s_lp_Force_Field>
OPLS_2005

> <r_lp_Energy>
39.6128

> <b_lp_Chiralities_Consistent>
1

> <s_lp_Variant>
AV-unprocessed.smi:1752-3

> <Gold.Version>
5.8.1

> <Gold.Id.Protein>
6NUR|6NUR_protein|mol2

> <Gold.PLP.Fitness>
40.2681

> <Gold.PLP.PLP>
-36.7294

> <Gold.PLP.part.hbond>
-2.0000

> <Gold.PLP.part.metal>
0.0000

> <Gold.PLP.part.buried>
-0.1561

> <Gold.PLP.part.nonpolar>
-35.4761

> <Gold.PLP.part.repulsive>
0.3863

> <Gold.PLP.ligand.clash>
0.0000

> <Gold.PLP.ligand.torsion>
1.0032

> <Gold.PLP.Chemscore.Hbond>
1.8400

> <Gold.PLP.Chemscore.CHOScore>
0.0000

> <Gold.PLP.Chemscore.Metal>
0.0000

> <Gold.Chemscore.Hbonds>
donor molecule, donor type, donor heavy atom, donor atom, acceptor molecule, acceptor atom, score
      L1  H     9    29       P1  8028  1.00
      P1  H  7989  7998       L1    11  1.00

> <Gold.PLP.Chemscore.Internal.Correction>
0.0253

> <Gold.Rescore>
     Score         DG    S(hbond)    S(metal)    S(lipo)     H(rot)  DE(clash)    DE(int)     intcor
     14.66     -17.58       1.60        0.00      88.66       1.41       2.03       0.89       ----

> <Gold.Chemscore.Fitness>
14.6611

> <Gold.Chemscore.DG>
-17.5823

> <Gold.Chemscore.ZeroCoef>
-5.4800

> <Gold.Chemscore.Hbond>
1.6002

> <Gold.Chemscore.Metal>
0.0000

> <Gold.Chemscore.Lipo>
88.6629

> <Gold.Chemscore.Internal_Hbond>
0.0000

> <Gold.Chemscore.DEClash>
2.0283

> <Gold.Chemscore.DEInternal>
0.8929

> <Gold.Chemscore.Rot>
1.4125

> <Gold.Chemscore.Internal.Correction>
   9.000000E+99

> <Gold.Chemscore.Hbonds>
donor molecule, donor type, donor heavy atom, donor atom, acceptor molecule, acceptor atom, score
      L1  H     9    29       P1  8028  0.96
      P1  H  7989  7998       L1    11  0.43

> <Gold.Chemscore.Hbond.Weighted>
-5.3447

> <Gold.Chemscore.Metal.Weighted>
-0.0000

> <Gold.Chemscore.Lipo.Weighted>
-10.3736

> <Gold.Chemscore.Internal_Hbond.Weighted>
0.0000

> <Gold.Chemscore.DEClash.Weighted>
2.0283

> <Gold.Chemscore.DEInternal.Weighted>
0.8929

> <Gold.Chemscore.Rot.Weighted>
3.6160

> <Gold.Chemscore.Internal.Correction.Weighted>
   9.000000E+99

> <Gold.Protein.RotatedTorsions>
[ 6907 6896 6895 6894 ] final   43.25 input  -60.11 | X-H torsion
[ 7974 7965 7964 7962 ] final   92.31 input  175.53 | X-H torsion
[ 8008 7997 7996 7995 ] final  -28.05 input   59.86 | X-H torsion
[ 10167 10162 10161 10158 ] final  -43.46 input  -65.29 | X-H torsion
[ 10718 10713 10712 10709 ] final  170.33 input   66.30 | X-H torsion
[ 10763 10752 10751 10750 ] final  107.78 input  -60.55 | X-H torsion
[ 11005 11000 10999 10996 ] final -156.60 input  -57.11 | X-H torsion

> <Gold.Protein.ActiveResidues>
 VAL166  LYS551  ARG553  GLY616  TRP617  ASP618  TYR619  PRO620  LYS621  CYS622 
 ASP623  PHE694  ASN695  SER759  ASP760  ASP761  ALA762  ILE779  LEU786  VAL792 
 PHE793  MET794  SER795  GLU796  ALA797  LYS798  CYS799  TRP800  GLU811  SER814 

> <Gold.Protein.RotatedAtoms>
  152.2179  134.8440  160.0489 H   0  0  0  0  0  0  0  0  0  0  0  0  # atno 6907 bound_to 6896
  151.9235  133.3586  159.3913 H   0  0  0  0  0  0  0  0  0  0  0  0  # atno 6908 bound_to 6896
  150.6992  134.4536  159.5392 H   0  0  0  0  0  0  0  0  0  0  0  0  # atno 6909 bound_to 6896
  145.4939  139.2276  143.2814 H   0  0  0  0  0  0  0  0  0  0  0  0  # atno 7974 bound_to 7965
  154.4349  140.1856  156.1029 H   0  0  0  0  0  0  0  0  0  0  0  0  # atno 8008 bound_to 7997
  156.0278  140.3334  155.7081 H   0  0  0  0  0  0  0  0  0  0  0  0  # atno 8009 bound_to 7997
  155.5883  140.0628  157.2756 H   0  0  0  0  0  0  0  0  0  0  0  0  # atno 8010 bound_to 7997
  140.6933  143.2982  151.3355 H   0  0  0  0  0  0  0  0  0  0  0  0  # atno 10167 bound_to 10162
  157.0097  131.0200  151.2807 H   0  0  0  0  0  0  0  0  0  0  0  0  # atno 10718 bound_to 10713
  153.4115  135.3833  155.2053 H   0  0  0  0  0  0  0  0  0  0  0  0  # atno 10763 bound_to 10752
  154.8738  135.3795  154.4495 H   0  0  0  0  0  0  0  0  0  0  0  0  # atno 10764 bound_to 10752
  153.5004  135.7088  153.5897 H   0  0  0  0  0  0  0  0  0  0  0  0  # atno 10765 bound_to 10752
  140.6738  134.4219  157.5230 H   0  0  0  0  0  0  0  0  0  0  0  0  # atno 11005 bound_to 11000
  146.2267  140.5735  142.8993 LP  0  0  0  0  0  0  0  0  0  0  0  0  # atno 17320 bound_to 7965
  144.7818  140.5855  143.6600 LP  0  0  0  0  0  0  0  0  0  0  0  0  # atno 17321 bound_to 7965
  139.6359  144.0632  152.2515 LP  0  0  0  0  0  0  0  0  0  0  0  0  # atno 17342 bound_to 10162
  140.0121  144.6216  150.7638 LP  0  0  0  0  0  0  0  0  0  0  0  0  # atno 17343 bound_to 10162
  157.5329  130.8070  149.7938 LP  0  0  0  0  0  0  0  0  0  0  0  0  # atno 17370 bound_to 10713
  156.0140  130.3821  150.2169 LP  0  0  0  0  0  0  0  0  0  0  0  0  # atno 17371 bound_to 10713
  139.8973  134.8639  156.2050 LP  0  0  0  0  0  0  0  0  0  0  0  0  # atno 17394 bound_to 11000
  141.0371  133.6957  156.1532 LP  0  0  0  0  0  0  0  0  0  0  0  0  # atno 17395 bound_to 11000

$$$$
