AV-unprocessed.smi:670|AV-procd|sdf|3270|dock9
  -GOLD-   22720 0223D 1   1.00000     0.00000
 Structure written by MMmdl.
 45 46  0  0  0  0  0  0  0  0  1 V2000
  151.6480  144.2592  158.4325 C   0  0  0  0  0  0  0  0  0  0  0  0
  152.4857  143.6798  159.5832 C   0  0  1  0  0  0  0  0  0  0  0  0
  151.9215  144.0818  160.9612 C   0  0  0  0  0  0  0  0  0  0  0  0
  152.7838  143.5298  162.1075 C   0  0  0  0  0  0  0  0  0  0  0  0
  152.9491  142.0071  161.9984 C   0  0  0  0  0  0  0  0  0  0  0  0
  153.5155  141.6061  160.6271 C   0  0  0  0  0  0  0  0  0  0  0  0
  152.6444  142.1464  159.4716 C   0  0  1  0  0  0  0  0  0  0  0  0
  151.3493  141.5578  159.5104 O   0  0  0  0  0  0  0  0  0  0  0  0
  150.9574  140.9003  158.3145 C   0  0  0  0  0  0  0  0  0  0  0  0
  151.1776  139.3915  158.4920 C   0  0  0  0  0  0  0  0  0  0  0  0
  149.9126  138.6649  158.4987 N   0  0  0  0  0  0  0  0  0  0  0  0
  149.6786  137.5244  159.1645 C   0  0  0  0  0  0  0  0  0  0  0  0
  150.5396  136.9430  159.8269 O   0  0  0  0  0  0  0  0  0  0  0  0
  148.2553  136.9602  159.0453 C   0  0  0  0  0  0  0  0  0  0  0  0
  148.0206  135.7761  159.8846 N   0  0  0  0  0  0  0  0  0  0  0  0
  148.0251  134.5781  159.1861 N   0  0  0  0  0  0  0  0  0  0  0  0
  147.8456  133.4652  159.8136 C   0  0  0  0  0  0  0  0  0  0  0  0
  147.8617  132.3017  159.0843 O   0  0  0  0  0  0  0  0  0  0  0  0
  147.6327  133.4382  161.2443 C   0  0  0  0  0  0  0  0  0  0  0  0
  147.6247  134.6109  161.9149 C   0  0  0  0  0  0  0  0  0  0  0  0
  147.8272  135.8913  161.2346 C   0  0  0  0  0  0  0  0  0  0  0  0
  147.8258  136.9730  161.8215 O   0  0  0  0  0  0  0  0  0  0  0  0
  148.7325  131.9509  159.1890 H   0  0  0  0  0  0  0  0  0  0  0  0
  150.6231  143.8879  158.4584 H   0  0  0  0  0  0  0  0  0  0  0  0
  152.0743  143.9943  157.4647 H   0  0  0  0  0  0  0  0  0  0  0  0
  151.6070  145.3474  158.4876 H   0  0  0  0  0  0  0  0  0  0  0  0
  153.4818  144.1167  159.4992 H   0  0  0  0  0  0  0  0  0  0  0  0
  151.8669  145.1681  161.0396 H   0  0  0  0  0  0  0  0  0  0  0  0
  150.8997  143.7149  161.0658 H   0  0  0  0  0  0  0  0  0  0  0  0
  153.7651  144.0053  162.0877 H   0  0  0  0  0  0  0  0  0  0  0  0
  152.3351  143.7869  163.0673 H   0  0  0  0  0  0  0  0  0  0  0  0
  153.6055  141.6469  162.7908 H   0  0  0  0  0  0  0  0  0  0  0  0
  151.9843  141.5220  162.1524 H   0  0  0  0  0  0  0  0  0  0  0  0
  154.5265  142.0029  160.5281 H   0  0  0  0  0  0  0  0  0  0  0  0
  153.6162  140.5228  160.5722 H   0  0  0  0  0  0  0  0  0  0  0  0
  153.1217  141.9165  158.5172 H   0  0  0  0  0  0  0  0  0  0  0  0
  149.9042  141.1022  158.1164 H   0  0  0  0  0  0  0  0  0  0  0  0
  151.5211  141.2617  157.4548 H   0  0  0  0  0  0  0  0  0  0  0  0
  151.7916  139.0075  157.6772 H   0  0  0  0  0  0  0  0  0  0  0  0
  151.7255  139.1947  159.4148 H   0  0  0  0  0  0  0  0  0  0  0  0
  149.1508  139.0752  157.9781 H   0  0  0  0  0  0  0  0  0  0  0  0
  147.5353  137.7425  159.2935 H   0  0  0  0  0  0  0  0  0  0  0  0
  148.0736  136.7186  157.9965 H   0  0  0  0  0  0  0  0  0  0  0  0
  147.4830  132.4989  161.7559 H   0  0  0  0  0  0  0  0  0  0  0  0
  147.4655  134.6056  162.9832 H   0  0  0  0  0  0  0  0  0  0  0  0
  1  2  1  0  0  0  0
  1 24  1  0  0  0  0
  1 25  1  0  0  0  0
  1 26  1  0  0  0  0
  2  7  1  0  0  0  0
  2  3  1  0  0  0  0
  2 27  1  0  0  0  0
  3  4  1  0  0  0  0
  3 28  1  0  0  0  0
  3 29  1  0  0  0  0
  4  5  1  0  0  0  0
  4 30  1  0  0  0  0
  4 31  1  0  0  0  0
  5  6  1  0  0  0  0
  5 32  1  0  0  0  0
  5 33  1  0  0  0  0
  6  7  1  0  0  0  0
  6 34  1  0  0  0  0
  6 35  1  0  0  0  0
  7  8  1  0  0  0  0
  7 36  1  0  0  0  0
  8  9  1  0  0  0  0
  9 10  1  0  0  0  0
  9 37  1  0  0  0  0
  9 38  1  0  0  0  0
 10 11  1  0  0  0  0
 10 39  1  0  0  0  0
 10 40  1  0  0  0  0
 11 12  1  0  0  0  0
 11 41  1  0  0  0  0
 12 13  2  0  0  0  0
 12 14  1  0  0  0  0
 14 42  1  0  0  0  0
 14 43  1  0  0  0  0
 14 15  1  0  0  0  0
 15 16  1  0  0  0  0
 15 21  1  0  0  0  0
 16 17  2  0  0  0  0
 17 18  1  0  0  0  0
 17 19  1  0  0  0  0
 18 23  1  0  0  0  0
 19 44  1  0  0  0  0
 19 20  2  0  0  0  0
 20 45  1  0  0  0  0
 20 21  1  0  0  0  0
 21 22  2  0  0  0  0
M  END
> <s_m_source_file>
AV-unprocessed.smi

> <i_m_source_file_index>
670

> <i_lp_mmshare_version>
43012

> <i_f3d_flags>
0

> <s_epik_input>
W0NIM11bQ0BASF0xW0NIMl1bQ0gyXVtDSDJdW0NIMl1bQ0BIXTFPW0NIMl1bQ0gyXVtOSF1DKD1PKVtDSDJdbjJbbkhdYyg9TylbY0hdW2NIXWMyPU8=

> <s_epik_cmdline>
J2VwaWtfcHl0aG9uJywgJy1waCcsICc3LjAnLCAnLXRuJywgJzgnLCAnLW1hJywgJzIwMCcsICctbWV0YWxfYmluZGluZycsICctaW1hZScsICc8aW5maWxlLm1hZT4nLCAnLW9tYWUnLCAnPG91dGZpbGUubWFlPic=

> <r_lp_tautomer_probability>
0.9996

> <r_epik_Ionization_Penalty>
2.12726

> <r_epik_Ionization_Penalty_Charging>
3.83395e-08

> <r_epik_Ionization_Penalty_Neutral>
2.12726

> <r_epik_State_Penalty>
1.70432

> <r_epik_Charging_Adjusted_Penalty>
1.70432

> <i_epik_Tot_Q>
0

> <i_epik_Tot_abs_Q>
0

> <r_epik_Metal_State_Penalty>
1.70432

> <b_epik_Metal_Only>
0

> <s_lp_Force_Field>
OPLS_2005

> <r_lp_Energy>
19.8416

> <b_lp_Chiralities_Consistent>
1

> <s_lp_Variant>
AV-unprocessed.smi:670-6

> <Gold.Version>
5.8.1

> <Gold.Id.Protein>
6NUR|6NUR_protein|mol2

> <Gold.PLP.Fitness>
54.4682

> <Gold.PLP.PLP>
-49.8272

> <Gold.PLP.part.hbond>
-3.8416

> <Gold.PLP.part.metal>
0.0000

> <Gold.PLP.part.buried>
-5.1715

> <Gold.PLP.part.nonpolar>
-41.2760

> <Gold.PLP.part.repulsive>
0.1584

> <Gold.PLP.ligand.clash>
0.0000

> <Gold.PLP.ligand.torsion>
1.8146

> <Gold.PLP.Chemscore.Hbond>
2.7360

> <Gold.PLP.Chemscore.CHOScore>
0.0000

> <Gold.PLP.Chemscore.Metal>
0.0000

> <Gold.Chemscore.Hbonds>
donor molecule, donor type, donor heavy atom, donor atom, acceptor molecule, acceptor atom, score
      P1  H  6896  6908       L1    13  1.00
      P1  H  6931  6943       L1    22  1.00
      P1  H  6934  6947       L1    22  0.20

> <Gold.PLP.Chemscore.Internal.Correction>
0.0621

> <Gold.Rescore>
     Score         DG    S(hbond)    S(metal)    S(lipo)     H(rot)  DE(clash)    DE(int)     intcor
     17.63     -19.32       2.70        0.00     108.75       3.09       0.01       1.68       ----

> <Gold.Chemscore.Fitness>
17.6276

> <Gold.Chemscore.DG>
-19.3187

> <Gold.Chemscore.ZeroCoef>
-5.4800

> <Gold.Chemscore.Hbond>
2.7024

> <Gold.Chemscore.Metal>
0.0000

> <Gold.Chemscore.Lipo>
108.7453

> <Gold.Chemscore.Internal_Hbond>
0.0000

> <Gold.Chemscore.DEClash>
0.0092

> <Gold.Chemscore.DEInternal>
1.6820

> <Gold.Chemscore.Rot>
3.0901

> <Gold.Chemscore.Internal.Correction>
   9.000000E+99

> <Gold.Chemscore.Hbonds>
donor molecule, donor type, donor heavy atom, donor atom, acceptor molecule, acceptor atom, score
      P1  H  6896  6908       L1    13  0.99
      P1  H  6931  6943       L1    22  0.99
      P1  H  6934  6947       L1    22  0.20

> <Gold.Chemscore.Hbond.Weighted>
-9.0261

> <Gold.Chemscore.Metal.Weighted>
-0.0000

> <Gold.Chemscore.Lipo.Weighted>
-12.7232

> <Gold.Chemscore.Internal_Hbond.Weighted>
0.0000

> <Gold.Chemscore.DEClash.Weighted>
0.0092

> <Gold.Chemscore.DEInternal.Weighted>
1.6820

> <Gold.Chemscore.Rot.Weighted>
7.9106

> <Gold.Chemscore.Internal.Correction.Weighted>
   9.000000E+99

> <Gold.Protein.RotatedTorsions>
[ 6907 6896 6895 6894 ] final -137.46 input  -60.11 | X-H torsion
[ 7974 7965 7964 7962 ] final  -81.33 input  175.53 | X-H torsion
[ 8008 7997 7996 7995 ] final   36.85 input   59.86 | X-H torsion
[ 10167 10162 10161 10158 ] final    4.08 input  -65.29 | X-H torsion
[ 10718 10713 10712 10709 ] final  -98.24 input   66.30 | X-H torsion
[ 10763 10752 10751 10750 ] final  102.47 input  -60.55 | X-H torsion
[ 11005 11000 10999 10996 ] final   85.88 input  -57.11 | X-H torsion

> <Gold.Protein.ActiveResidues>
 VAL166  LYS551  ARG553  GLY616  TRP617  ASP618  TYR619  PRO620  LYS621  CYS622 
 ASP623  PHE694  ASN695  SER759  ASP760  ASP761  ALA762  ILE779  LEU786  VAL792 
 PHE793  MET794  SER795  GLU796  ALA797  LYS798  CYS799  TRP800  GLU811  SER814 

> <Gold.Protein.RotatedAtoms>
  151.0227  133.5861  159.2669 H   0  0  0  0  0  0  0  0  0  0  0  0  # atno 6907 bound_to 6896
  151.2972  135.0758  159.9235 H   0  0  0  0  0  0  0  0  0  0  0  0  # atno 6908 bound_to 6896
  152.5327  133.9915  159.7907 H   0  0  0  0  0  0  0  0  0  0  0  0  # atno 6909 bound_to 6896
  145.5480  140.9500  143.1514 H   0  0  0  0  0  0  0  0  0  0  0  0  # atno 7974 bound_to 7965
  155.1941  140.3310  155.4354 H   0  0  0  0  0  0  0  0  0  0  0  0  # atno 8008 bound_to 7997
  156.2431  140.1905  156.6982 H   0  0  0  0  0  0  0  0  0  0  0  0  # atno 8009 bound_to 7997
  154.6186  140.0598  156.9572 H   0  0  0  0  0  0  0  0  0  0  0  0  # atno 8010 bound_to 7997
  140.6553  143.7443  150.7643 H   0  0  0  0  0  0  0  0  0  0  0  0  # atno 10167 bound_to 10162
  156.0102  130.5229  150.6493 H   0  0  0  0  0  0  0  0  0  0  0  0  # atno 10718 bound_to 10713
  153.3401  135.4009  155.1564 H   0  0  0  0  0  0  0  0  0  0  0  0  # atno 10763 bound_to 10752
  154.8641  135.3631  154.5357 H   0  0  0  0  0  0  0  0  0  0  0  0  # atno 10764 bound_to 10752
  153.5802  135.7077  153.5526 H   0  0  0  0  0  0  0  0  0  0  0  0  # atno 10765 bound_to 10752
  139.8959  134.8317  156.2643 H   0  0  0  0  0  0  0  0  0  0  0  0  # atno 11005 bound_to 11000
  144.7543  139.7113  143.7260 LP  0  0  0  0  0  0  0  0  0  0  0  0  # atno 17320 bound_to 7965
  146.1936  139.5189  142.9789 LP  0  0  0  0  0  0  0  0  0  0  0  0  # atno 17321 bound_to 7965
  140.1102  143.4706  152.2375 LP  0  0  0  0  0  0  0  0  0  0  0  0  # atno 17342 bound_to 10162
  139.5774  144.7494  151.3728 LP  0  0  0  0  0  0  0  0  0  0  0  0  # atno 17343 bound_to 10162
  157.4258  131.0843  151.1087 LP  0  0  0  0  0  0  0  0  0  0  0  0  # atno 17370 bound_to 10713
  157.1675  130.6253  149.5630 LP  0  0  0  0  0  0  0  0  0  0  0  0  # atno 17371 bound_to 10713
  141.0142  133.7078  156.1161 LP  0  0  0  0  0  0  0  0  0  0  0  0  # atno 17394 bound_to 11000
  140.7325  134.4239  157.5564 LP  0  0  0  0  0  0  0  0  0  0  0  0  # atno 17395 bound_to 11000

$$$$
