AV-unprocessed.smi:334|AV-procd|sdf|2363|dock1
  -GOLD-   2262022273D 1   1.00000     0.00000
 Structure written by MMmdl.
 44 46  0  0  0  0  0  0  0  0  3 V2000
  150.7862  140.2725  158.5485 C   0  0  0  0  0  0  0  0  0  0  0  0
  151.0987  141.5183  157.7028 C   0  0  1  0  0  0  0  0  0  0  0  0
  150.1505  141.5680  156.5908 N   0  0  0  0  0  0  0  0  0  0  0  0
  150.2945  140.9605  155.4029 C   0  0  0  0  0  0  0  0  0  0  0  0
  151.2447  140.2291  155.1225 O   0  0  0  0  0  0  0  0  0  0  0  0
  149.1828  141.2170  154.3773 C   0  0  0  0  0  0  0  0  0  0  0  0
  147.8395  141.1945  154.9796 N   0  0  0  0  0  0  0  0  0  0  0  0
  146.9746  142.2610  154.6632 C   0  0  0  0  0  0  0  0  0  0  0  0
  145.7270  142.3439  155.1654 C   0  0  0  0  0  0  0  0  0  0  0  0
  144.8545  143.4492  154.8349 N   0  3  0  0  0  0  0  0  0  0  0  0
  145.0597  144.0707  153.7971 O   0  0  0  0  0  0  0  0  0  0  0  0
  143.9374  143.7338  155.5996 O   0  5  0  0  0  0  0  0  0  0  0  0
  145.2869  141.2869  156.0555 C   0  0  0  0  0  0  0  0  0  0  0  0
  146.1102  140.2661  156.3647 C   0  0  0  0  0  0  0  0  0  0  0  0
  147.4688  140.1795  155.8195 C   0  0  0  0  0  0  0  0  0  0  0  0
  148.2275  139.2514  156.1010 O   0  0  0  0  0  0  0  0  0  0  0  0
  151.0162  142.8366  158.5128 C   0  0  2  0  0  0  0  0  0  0  0  0
  151.4452  144.0931  157.7113 C   0  0  0  0  0  0  0  0  0  0  0  0
  152.5097  144.7435  158.6110 C   0  0  1  0  0  0  0  0  0  0  0  0
  151.8427  145.3098  159.8776 C   0  0  0  0  0  0  0  0  0  0  0  0
  151.4924  144.0377  160.6715 C   0  0  0  0  0  0  0  0  0  0  0  0
  151.9667  142.9099  159.7349 C   0  0  2  0  0  0  0  0  0  0  0  0
  153.2370  143.5203  159.1508 C   0  0  0  0  0  0  0  0  0  0  0  0
  151.5132  140.1303  159.3468 H   0  0  0  0  0  0  0  0  0  0  0  0
  150.8071  139.3708  157.9351 H   0  0  0  0  0  0  0  0  0  0  0  0
  149.7984  140.3391  159.0057 H   0  0  0  0  0  0  0  0  0  0  0  0
  152.1153  141.4121  157.3213 H   0  0  0  0  0  0  0  0  0  0  0  0
  149.3308  142.1419  156.7261 H   0  0  0  0  0  0  0  0  0  0  0  0
  149.3793  142.1773  153.8991 H   0  0  0  0  0  0  0  0  0  0  0  0
  149.2409  140.4804  153.5733 H   0  0  0  0  0  0  0  0  0  0  0  0
  147.3974  142.9998  153.9981 H   0  0  0  0  0  0  0  0  0  0  0  0
  144.2947  141.3069  156.4817 H   0  0  0  0  0  0  0  0  0  0  0  0
  145.7624  139.4904  157.0311 H   0  0  0  0  0  0  0  0  0  0  0  0
  149.9845  142.9586  158.8473 H   0  0  0  0  0  0  0  0  0  0  0  0
  151.8940  143.8275  156.7533 H   0  0  0  0  0  0  0  0  0  0  0  0
  150.6077  144.7608  157.5064 H   0  0  0  0  0  0  0  0  0  0  0  0
  153.1416  145.4628  158.0894 H   0  0  0  0  0  0  0  0  0  0  0  0
  152.5396  145.9329  160.4398 H   0  0  0  0  0  0  0  0  0  0  0  0
  150.9639  145.9128  159.6469 H   0  0  0  0  0  0  0  0  0  0  0  0
  152.0423  144.0127  161.6131 H   0  0  0  0  0  0  0  0  0  0  0  0
  150.4296  143.9697  160.9064 H   0  0  0  0  0  0  0  0  0  0  0  0
  152.1158  141.9656  160.2568 H   0  0  0  0  0  0  0  0  0  0  0  0
  153.6984  142.9107  158.3723 H   0  0  0  0  0  0  0  0  0  0  0  0
  153.9876  143.7624  159.9054 H   0  0  0  0  0  0  0  0  0  0  0  0
  1  2  1  0  0  0  0
  1 24  1  0  0  0  0
  1 25  1  0  0  0  0
  1 26  1  0  0  0  0
  2  3  1  0  0  0  0
  2 17  1  0  0  0  0
  2 27  1  0  0  0  0
  3  4  1  0  0  0  0
  3 28  1  0  0  0  0
  4  5  2  0  0  0  0
  4  6  1  0  0  0  0
  6  7  1  0  0  0  0
  6 29  1  0  0  0  0
  6 30  1  0  0  0  0
  7 15  1  0  0  0  0
  7  8  1  0  0  0  0
  8  9  2  0  0  0  0
  8 31  1  0  0  0  0
  9 10  1  0  0  0  0
  9 13  1  0  0  0  0
 10 11  2  0  0  0  0
 10 12  1  0  0  0  0
 13 14  2  0  0  0  0
 13 32  1  0  0  0  0
 14 15  1  0  0  0  0
 14 33  1  0  0  0  0
 15 16  2  0  0  0  0
 17 22  1  0  0  0  0
 17 18  1  0  0  0  0
 17 34  1  0  0  0  0
 18 19  1  0  0  0  0
 18 35  1  0  0  0  0
 18 36  1  0  0  0  0
 19 23  1  0  0  0  0
 19 20  1  0  0  0  0
 19 37  1  0  0  0  0
 20 21  1  0  0  0  0
 20 38  1  0  0  0  0
 20 39  1  0  0  0  0
 21 22  1  0  0  0  0
 21 40  1  0  0  0  0
 21 41  1  0  0  0  0
 22 23  1  0  0  0  0
 22 42  1  0  0  0  0
 23 43  1  0  0  0  0
 23 44  1  0  0  0  0
M  CHG  1  10   1
M  CHG  1  12  -1
M  END
> <s_m_source_file>
AV-unprocessed.smi

> <i_m_source_file_index>
334

> <i_lp_mmshare_version>
43012

> <i_f3d_flags>
0

> <s_epik_input>
W0NIMl0xW0NIMl1bQ0BIXShbQ0gyXTIpW0NAQEhdKFtDSDJdW0NAQEhdMTIpW0NASF0oW0NIM10pW05IXUMoPU8pW0NIMl1uM1tjSF1jKFtOK10oPU8pW08tXSlbY0hdW2NIXWMzPU8=

> <s_epik_cmdline>
J2VwaWtfcHl0aG9uJywgJy1waCcsICc3LjAnLCAnLXRuJywgJzgnLCAnLW1hJywgJzIwMCcsICctbWV0YWxfYmluZGluZycsICctaW1hZScsICc8aW5maWxlLm1hZT4nLCAnLW9tYWUnLCAnPG91dGZpbGUubWFlPic=

> <r_lp_tautomer_probability>
1

> <r_epik_Ionization_Penalty>
2.17081e-08

> <r_epik_Ionization_Penalty_Charging>
8.1195e-11

> <r_epik_Ionization_Penalty_Neutral>
2.16269e-08

> <r_epik_State_Penalty>
-0

> <r_epik_Charging_Adjusted_Penalty>
8.1195e-11

> <i_epik_Tot_Q>
0

> <i_epik_Tot_abs_Q>
2

> <r_epik_Metal_State_Penalty>
-0

> <b_epik_Metal_Only>
0

> <s_lp_Force_Field>
OPLS_2005

> <r_lp_Energy>
62.172

> <b_lp_Chiralities_Consistent>
1

> <s_lp_Variant>
AV-unprocessed.smi:334-2

> <Gold.Version>
5.8.1

> <Gold.Id.Protein>
6NUR|6NUR_protein|mol2

> <Gold.PLP.Fitness>
48.1093

> <Gold.PLP.PLP>
-46.3385

> <Gold.PLP.part.hbond>
-1.0000

> <Gold.PLP.part.metal>
0.0000

> <Gold.PLP.part.buried>
-4.9029

> <Gold.PLP.part.nonpolar>
-41.4951

> <Gold.PLP.part.repulsive>
0.3729

> <Gold.PLP.ligand.clash>
0.0000

> <Gold.PLP.ligand.torsion>
0.9926

> <Gold.PLP.Chemscore.Hbond>
1.0000

> <Gold.PLP.Chemscore.CHOScore>
0.2405

> <Gold.PLP.Chemscore.Metal>
0.0000

> <Gold.Chemscore.Hbonds>
donor molecule, donor type, donor heavy atom, donor atom, acceptor molecule, acceptor atom, score
      P1  H  7989  7998       L1     5  0.95
      L1  C     8    31       P1  8028  0.21

> <Gold.PLP.Chemscore.Internal.Correction>
0.0347

> <Gold.Rescore>
     Score         DG    S(hbond)    S(metal)    S(lipo)     H(rot)  DE(clash)    DE(int)     intcor
     15.35     -17.52       0.85        0.00     117.03       1.75       0.01       2.16       ----

> <Gold.Chemscore.Fitness>
15.3526

> <Gold.Chemscore.DG>
-17.5234

> <Gold.Chemscore.ZeroCoef>
-5.4800

> <Gold.Chemscore.Hbond>
0.8457

> <Gold.Chemscore.Metal>
0.0000

> <Gold.Chemscore.Lipo>
117.0255

> <Gold.Chemscore.Internal_Hbond>
0.0000

> <Gold.Chemscore.DEClash>
0.0140

> <Gold.Chemscore.DEInternal>
2.1568

> <Gold.Chemscore.Rot>
1.7474

> <Gold.Chemscore.Internal.Correction>
   9.000000E+99

> <Gold.Chemscore.Hbonds>
donor molecule, donor type, donor heavy atom, donor atom, acceptor molecule, acceptor atom, score
      P1  H  7989  7998       L1     5  0.21

> <Gold.Chemscore.Hbond.Weighted>
-2.8247

> <Gold.Chemscore.Metal.Weighted>
-0.0000

> <Gold.Chemscore.Lipo.Weighted>
-13.6920

> <Gold.Chemscore.Internal_Hbond.Weighted>
0.0000

> <Gold.Chemscore.DEClash.Weighted>
0.0140

> <Gold.Chemscore.DEInternal.Weighted>
2.1568

> <Gold.Chemscore.Rot.Weighted>
4.4733

> <Gold.Chemscore.Internal.Correction.Weighted>
   9.000000E+99

> <Gold.Protein.RotatedTorsions>
[ 6907 6896 6895 6894 ] final  -50.30 input  -60.11 | X-H torsion
[ 7974 7965 7964 7962 ] final  120.32 input  175.53 | X-H torsion
[ 8008 7997 7996 7995 ] final -145.41 input   59.86 | X-H torsion
[ 10167 10162 10161 10158 ] final  -92.99 input  -65.29 | X-H torsion
[ 10718 10713 10712 10709 ] final  114.05 input   66.30 | X-H torsion
[ 10763 10752 10751 10750 ] final -119.44 input  -60.55 | X-H torsion
[ 11005 11000 10999 10996 ] final  -61.40 input  -57.11 | X-H torsion

> <Gold.Protein.ActiveResidues>
 VAL166  LYS551  ARG553  GLY616  TRP617  ASP618  TYR619  PRO620  LYS621  CYS622 
 ASP623  PHE694  ASN695  SER759  ASP760  ASP761  ALA762  ILE779  LEU786  VAL792 
 PHE793  MET794  SER795  GLU796  ALA797  LYS798  CYS799  TRP800  GLU811  SER814 

> <Gold.Protein.RotatedAtoms>
  150.8721  134.8097  159.7162 H   0  0  0  0  0  0  0  0  0  0  0  0  # atno 6907 bound_to 6896
  152.4722  134.4930  159.9711 H   0  0  0  0  0  0  0  0  0  0  0  0  # atno 6908 bound_to 6896
  151.5017  133.3464  159.2905 H   0  0  0  0  0  0  0  0  0  0  0  0  # atno 6909 bound_to 6896
  145.1326  139.3318  143.4657 H   0  0  0  0  0  0  0  0  0  0  0  0  # atno 7974 bound_to 7965
  155.5427  140.0609  157.2866 H   0  0  0  0  0  0  0  0  0  0  0  0  # atno 8008 bound_to 7997
  154.4447  140.1916  156.0651 H   0  0  0  0  0  0  0  0  0  0  0  0  # atno 8009 bound_to 7997
  156.0573  140.3277  155.7424 H   0  0  0  0  0  0  0  0  0  0  0  0  # atno 8010 bound_to 7997
  140.3292  143.3005  151.9961 H   0  0  0  0  0  0  0  0  0  0  0  0  # atno 10167 bound_to 10162
  157.6303  131.0993  150.7130 H   0  0  0  0  0  0  0  0  0  0  0  0  # atno 10718 bound_to 10713
  154.8617  135.4238  154.2300 H   0  0  0  0  0  0  0  0  0  0  0  0  # atno 10763 bound_to 10752
  153.3287  135.6987  153.6973 H   0  0  0  0  0  0  0  0  0  0  0  0  # atno 10764 bound_to 10752
  153.5998  135.3539  155.2915 H   0  0  0  0  0  0  0  0  0  0  0  0  # atno 10765 bound_to 10752
  141.1323  133.6630  156.5370 H   0  0  0  0  0  0  0  0  0  0  0  0  # atno 11005 bound_to 11000
  146.3512  140.1330  142.8596 LP  0  0  0  0  0  0  0  0  0  0  0  0  # atno 17320 bound_to 7965
  145.0619  140.9094  143.4933 LP  0  0  0  0  0  0  0  0  0  0  0  0  # atno 17321 bound_to 7965
  139.4859  144.6249  151.7184 LP  0  0  0  0  0  0  0  0  0  0  0  0  # atno 17342 bound_to 10162
  140.5413  144.0574  150.6089 LP  0  0  0  0  0  0  0  0  0  0  0  0  # atno 17343 bound_to 10162
  156.7471  130.4757  149.5465 LP  0  0  0  0  0  0  0  0  0  0  0  0  # atno 17370 bound_to 10713
  156.1502  130.6305  151.0585 LP  0  0  0  0  0  0  0  0  0  0  0  0  # atno 17371 bound_to 10713
  140.4170  134.7221  157.4868 LP  0  0  0  0  0  0  0  0  0  0  0  0  # atno 17394 bound_to 11000
  140.0387  134.6300  155.9010 LP  0  0  0  0  0  0  0  0  0  0  0  0  # atno 17395 bound_to 11000

$$$$
