AV-unprocessed.smi:3276|AV-procd|sdf|12534|dock7
  -GOLD-   2272018453D 1   1.00000     0.00000
 Structure written by MMmdl.
 39 40  0  0  0  0  0  0  0  0  1 V2000
  150.1296  142.8234  157.8024 C   0  0  0  0  0  0  0  0  0  0  0  0
  150.4823  141.6236  156.9495 C   0  0  0  0  0  0  0  0  0  0  0  0
  150.0923  141.5390  155.5960 C   0  0  0  0  0  0  0  0  0  0  0  0
  150.4069  140.4688  154.8348 N   0  0  0  0  0  0  0  0  0  0  0  0
  151.1120  139.4807  155.4325 C   0  0  0  0  0  0  0  0  0  0  0  0
  151.4548  138.2842  154.5628 C   0  0  0  0  0  0  0  0  0  0  0  0
  151.5046  139.5584  156.7933 C   0  0  0  0  0  0  0  0  0  0  0  0
  152.2369  138.5153  157.3791 N   0  0  0  0  0  0  0  0  0  0  0  0
  151.7836  137.9100  158.6234 C   0  0  0  0  0  0  0  0  0  0  0  0
  150.3772  137.3212  158.4751 C   0  0  0  0  0  0  0  0  0  0  0  0
  150.0320  136.6635  159.6825 O   0  0  0  0  0  0  0  0  0  0  0  0
  148.6696  136.2740  159.7346 C   0  0  0  0  0  0  0  0  0  0  0  0
  148.2652  136.0080  161.1914 C   0  0  2  0  0  0  0  0  0  0  0  0
  147.2891  134.8459  161.3938 C   0  0  0  0  0  0  0  0  0  0  0  0
  146.5732  135.2657  162.6575 C   0  0  0  0  0  0  0  0  0  0  0  0
  146.4614  136.7738  162.4568 C   0  0  0  0  0  0  0  0  0  0  0  0
  147.6484  137.1565  161.7690 O   0  0  0  0  0  0  0  0  0  0  0  0
  151.1864  140.6382  157.5490 N   0  0  0  0  0  0  0  0  0  0  0  0
  149.6538  143.6031  157.2068 H   0  0  0  0  0  0  0  0  0  0  0  0
  151.0267  143.2432  158.2586 H   0  0  0  0  0  0  0  0  0  0  0  0
  149.4415  142.5328  158.5968 H   0  0  0  0  0  0  0  0  0  0  0  0
  149.5279  142.3281  155.1211 H   0  0  0  0  0  0  0  0  0  0  0  0
  151.0535  137.3694  154.9996 H   0  0  0  0  0  0  0  0  0  0  0  0
  152.5363  138.1787  154.4744 H   0  0  0  0  0  0  0  0  0  0  0  0
  151.0416  138.3883  153.5586 H   0  0  0  0  0  0  0  0  0  0  0  0
  152.8808  137.9911  156.8045 H   0  0  0  0  0  0  0  0  0  0  0  0
  152.4817  137.1192  158.9005 H   0  0  0  0  0  0  0  0  0  0  0  0
  151.7959  138.6492  159.4254 H   0  0  0  0  0  0  0  0  0  0  0  0
  149.6556  138.1052  158.2389 H   0  0  0  0  0  0  0  0  0  0  0  0
  150.3643  136.6042  157.6532 H   0  0  0  0  0  0  0  0  0  0  0  0
  148.0419  137.0643  159.3203 H   0  0  0  0  0  0  0  0  0  0  0  0
  148.5109  135.3791  159.1311 H   0  0  0  0  0  0  0  0  0  0  0  0
  149.1638  135.8125  161.7786 H   0  0  0  0  0  0  0  0  0  0  0  0
  146.5730  134.7817  160.5735 H   0  0  0  0  0  0  0  0  0  0  0  0
  147.7895  133.8813  161.4836 H   0  0  0  0  0  0  0  0  0  0  0  0
  145.6061  134.7791  162.7860 H   0  0  0  0  0  0  0  0  0  0  0  0
  147.1887  135.0447  163.5304 H   0  0  0  0  0  0  0  0  0  0  0  0
  145.6036  137.0093  161.8254 H   0  0  0  0  0  0  0  0  0  0  0  0
  146.3503  137.3157  163.3960 H   0  0  0  0  0  0  0  0  0  0  0  0
  1  2  1  0  0  0  0
  1 19  1  0  0  0  0
  1 20  1  0  0  0  0
  1 21  1  0  0  0  0
  2 18  1  0  0  0  0
  2  3  2  0  0  0  0
  3  4  1  0  0  0  0
  3 22  1  0  0  0  0
  4  5  2  0  0  0  0
  5  6  1  0  0  0  0
  5  7  1  0  0  0  0
  6 23  1  0  0  0  0
  6 24  1  0  0  0  0
  6 25  1  0  0  0  0
  7  8  1  0  0  0  0
  7 18  2  0  0  0  0
  8  9  1  0  0  0  0
  8 26  1  0  0  0  0
  9 10  1  0  0  0  0
  9 27  1  0  0  0  0
  9 28  1  0  0  0  0
 10 11  1  0  0  0  0
 10 29  1  0  0  0  0
 10 30  1  0  0  0  0
 11 12  1  0  0  0  0
 12 13  1  0  0  0  0
 12 31  1  0  0  0  0
 12 32  1  0  0  0  0
 13 17  1  0  0  0  0
 13 14  1  0  0  0  0
 13 33  1  0  0  0  0
 14 15  1  0  0  0  0
 14 34  1  0  0  0  0
 14 35  1  0  0  0  0
 15 16  1  0  0  0  0
 15 36  1  0  0  0  0
 15 37  1  0  0  0  0
 16 17  1  0  0  0  0
 16 38  1  0  0  0  0
 16 39  1  0  0  0  0
M  END
> <s_m_source_file>
AV-unprocessed.smi

> <i_m_source_file_index>
3276

> <i_lp_mmshare_version>
43012

> <i_f3d_flags>
0

> <s_epik_input>
W0NIM11jMVtjSF1uYyhbQ0gzXSljKG4xKVtOSF1bQ0gyXVtDSDJdT1tDSDJdW0NAQEhdMltDSDJdW0NIMl1bQ0gyXU8y

> <s_epik_cmdline>
J2VwaWtfcHl0aG9uJywgJy1waCcsICc3LjAnLCAnLXRuJywgJzgnLCAnLW1hJywgJzIwMCcsICctbWV0YWxfYmluZGluZycsICctaW1hZScsICc8aW5maWxlLm1hZT4nLCAnLW9tYWUnLCAnPG91dGZpbGUubWFlPic=

> <r_lp_tautomer_probability>
1

> <r_epik_Ionization_Penalty>
0.000506

> <r_epik_Ionization_Penalty_Charging>
0

> <r_epik_Ionization_Penalty_Neutral>
0.000506

> <r_epik_State_Penalty>
-0

> <r_epik_Charging_Adjusted_Penalty>
0

> <i_epik_Tot_Q>
0

> <i_epik_Tot_abs_Q>
0

> <r_epik_Metal_State_Penalty>
-0

> <b_epik_Metal_Only>
0

> <s_lp_Force_Field>
OPLS_2005

> <r_lp_Energy>
26.3084

> <b_lp_Chiralities_Consistent>
1

> <s_lp_Variant>
AV-unprocessed.smi:3276-1

> <Gold.Version>
5.8.1

> <Gold.Id.Protein>
6NUR|6NUR_protein|mol2

> <Gold.PLP.Fitness>
47.3598

> <Gold.PLP.PLP>
-35.1964

> <Gold.PLP.part.hbond>
-4.0000

> <Gold.PLP.part.metal>
0.0000

> <Gold.PLP.part.buried>
-4.3331

> <Gold.PLP.part.nonpolar>
-25.8493

> <Gold.PLP.part.repulsive>
0.1726

> <Gold.PLP.ligand.clash>
0.0000

> <Gold.PLP.ligand.torsion>
1.0770

> <Gold.PLP.Chemscore.Hbond>
3.7360

> <Gold.PLP.Chemscore.CHOScore>
0.9994

> <Gold.PLP.Chemscore.Metal>
0.0000

> <Gold.Chemscore.Hbonds>
donor molecule, donor type, donor heavy atom, donor atom, acceptor molecule, acceptor atom, score
      P1  H  6896  6908       L1    11  1.00
      P1  H  6931  6943       L1    17  1.00
      P1  H  6934  6947       L1    17  0.62
      P1  H  7989  7998       L1     4  0.90
      L1  C     3    22       P1  8028  1.00

> <Gold.PLP.Chemscore.Internal.Correction>
0.1112

> <Gold.Rescore>
     Score         DG    S(hbond)    S(metal)    S(lipo)     H(rot)  DE(clash)    DE(int)     intcor
     18.10     -19.14       2.57        0.00      80.13       1.68       0.02       1.02       ----

> <Gold.Chemscore.Fitness>
18.0954

> <Gold.Chemscore.DG>
-19.1386

> <Gold.Chemscore.ZeroCoef>
-5.4800

> <Gold.Chemscore.Hbond>
2.5718

> <Gold.Chemscore.Metal>
0.0000

> <Gold.Chemscore.Lipo>
80.1250

> <Gold.Chemscore.Internal_Hbond>
0.0000

> <Gold.Chemscore.DEClash>
0.0227

> <Gold.Chemscore.DEInternal>
1.0205

> <Gold.Chemscore.Rot>
1.6820

> <Gold.Chemscore.Internal.Correction>
   9.000000E+99

> <Gold.Chemscore.Hbonds>
donor molecule, donor type, donor heavy atom, donor atom, acceptor molecule, acceptor atom, score
      P1  H  6896  6908       L1    11  0.22
      P1  H  6931  6943       L1    17  0.33
      P1  H  6934  6947       L1    17  0.27
      P1  H  7989  7998       L1     4  0.14

> <Gold.Chemscore.Hbond.Weighted>
-8.5898

> <Gold.Chemscore.Metal.Weighted>
-0.0000

> <Gold.Chemscore.Lipo.Weighted>
-9.3746

> <Gold.Chemscore.Internal_Hbond.Weighted>
0.0000

> <Gold.Chemscore.DEClash.Weighted>
0.0227

> <Gold.Chemscore.DEInternal.Weighted>
1.0205

> <Gold.Chemscore.Rot.Weighted>
4.3058

> <Gold.Chemscore.Internal.Correction.Weighted>
   9.000000E+99

> <Gold.Protein.RotatedTorsions>
[ 6907 6896 6895 6894 ] final -165.03 input  -60.11 | X-H torsion
[ 7974 7965 7964 7962 ] final   29.01 input  175.53 | X-H torsion
[ 8008 7997 7996 7995 ] final  -53.83 input   59.86 | X-H torsion
[ 10167 10162 10161 10158 ] final   12.03 input  -65.29 | X-H torsion
[ 10718 10713 10712 10709 ] final  -41.04 input   66.30 | X-H torsion
[ 10763 10752 10751 10750 ] final  177.36 input  -60.55 | X-H torsion
[ 11005 11000 10999 10996 ] final  -68.71 input  -57.11 | X-H torsion

> <Gold.Protein.ActiveResidues>
 VAL166  LYS551  ARG553  GLY616  TRP617  ASP618  TYR619  PRO620  LYS621  CYS622 
 ASP623  PHE694  ASN695  SER759  ASP760  ASP761  ALA762  ILE779  LEU786  VAL792 
 PHE793  MET794  SER795  GLU796  ALA797  LYS798  CYS799  TRP800  GLU811  SER814 

> <Gold.Protein.RotatedAtoms>
  151.4212  133.3698  159.2756 H   0  0  0  0  0  0  0  0  0  0  0  0  # atno 6907 bound_to 6896
  150.9292  134.8709  159.7551 H   0  0  0  0  0  0  0  0  0  0  0  0  # atno 6908 bound_to 6896
  152.5020  134.4155  159.9515 H   0  0  0  0  0  0  0  0  0  0  0  0  # atno 6909 bound_to 6896
  146.1696  139.6979  142.8977 H   0  0  0  0  0  0  0  0  0  0  0  0  # atno 7974 bound_to 7965
  154.4145  140.1190  156.5218 H   0  0  0  0  0  0  0  0  0  0  0  0  # atno 8008 bound_to 7997
  155.6695  140.3496  155.4793 H   0  0  0  0  0  0  0  0  0  0  0  0  # atno 8009 bound_to 7997
  155.9645  140.1129  157.0856 H   0  0  0  0  0  0  0  0  0  0  0  0  # atno 8010 bound_to 7997
  140.6094  143.8440  150.7049 H   0  0  0  0  0  0  0  0  0  0  0  0  # atno 10167 bound_to 10162
  156.2747  130.4210  149.8400 H   0  0  0  0  0  0  0  0  0  0  0  0  # atno 10718 bound_to 10713
  154.4934  135.2780  155.1478 H   0  0  0  0  0  0  0  0  0  0  0  0  # atno 10763 bound_to 10752
  154.3141  135.6223  153.5482 H   0  0  0  0  0  0  0  0  0  0  0  0  # atno 10764 bound_to 10752
  152.9891  135.5727  154.5361 H   0  0  0  0  0  0  0  0  0  0  0  0  # atno 10765 bound_to 10752
  141.1538  133.6747  156.6488 H   0  0  0  0  0  0  0  0  0  0  0  0  # atno 11005 bound_to 11000
  145.4375  141.0420  143.2876 LP  0  0  0  0  0  0  0  0  0  0  0  0  # atno 17320 bound_to 7965
  144.8143  139.5905  143.7015 LP  0  0  0  0  0  0  0  0  0  0  0  0  # atno 17321 bound_to 7965
  140.2004  143.3963  152.1795 LP  0  0  0  0  0  0  0  0  0  0  0  0  # atno 17342 bound_to 10162
  139.5349  144.7199  151.4926 LP  0  0  0  0  0  0  0  0  0  0  0  0  # atno 17343 bound_to 10162
  156.5869  130.8490  151.3398 LP  0  0  0  0  0  0  0  0  0  0  0  0  # atno 17370 bound_to 10713
  157.7295  130.9672  150.1791 LP  0  0  0  0  0  0  0  0  0  0  0  0  # atno 17371 bound_to 10713
  140.3336  134.7908  157.4345 LP  0  0  0  0  0  0  0  0  0  0  0  0  # atno 17394 bound_to 11000
  140.0996  134.5490  155.8365 LP  0  0  0  0  0  0  0  0  0  0  0  0  # atno 17395 bound_to 11000

$$$$
