AV-unprocessed.smi:1088|AV-procd|sdf|4730|dock6
  -GOLD-   22720 3263D 1   1.00000     0.00000
 Structure written by MMmdl.
 48 49  0  0  0  0  0  0  0  0  2 V2000
  145.2844  130.6575  151.2600 C   0  0  0  0  0  0  0  0  0  0  0  0
  144.6363  131.6672  150.5063 O   0  0  0  0  0  0  0  0  0  0  0  0
  144.0329  132.6536  151.3262 C   0  0  0  0  0  0  0  0  0  0  0  0
  145.0817  133.1951  152.3077 C   0  0  0  0  0  0  0  0  0  0  0  0
  144.4565  133.8077  153.5059 N   0  3  2  0  0  0  0  0  0  0  0  0
  143.4337  134.8463  153.2406 C   0  0  0  0  0  0  0  0  0  0  0  0
  143.4736  135.8169  154.4292 C   0  0  0  0  0  0  0  0  0  0  0  0
  144.4460  135.1845  155.4242 C   0  0  0  0  0  0  0  0  0  0  0  0
  145.3720  134.3343  154.5465 C   0  0  2  0  0  0  0  0  0  0  0  0
  146.5647  135.1412  153.9678 C   0  0  0  0  0  0  0  0  0  0  0  0
  147.6055  135.3750  154.9617 N   0  0  0  0  0  0  0  0  0  0  0  0
  148.7071  134.6238  155.1279 C   0  0  0  0  0  0  0  0  0  0  0  0
  148.9543  133.6446  154.4252 O   0  0  0  0  0  0  0  0  0  0  0  0
  149.6840  135.0033  156.2539 C   0  0  0  0  0  0  0  0  0  0  0  0
  150.4685  136.2222  156.0046 N   0  0  0  0  0  0  0  0  0  0  0  0
  150.4109  136.8289  154.7630 C   0  0  0  0  0  0  0  0  0  0  0  0
  151.1127  137.9376  154.4423 C   0  0  0  0  0  0  0  0  0  0  0  0
  151.9909  138.5759  155.4154 C   0  0  0  0  0  0  0  0  0  0  0  0
  152.6651  139.5735  155.1571 O   0  0  0  0  0  0  0  0  0  0  0  0
  152.0184  137.9450  156.6824 N   0  0  0  0  0  0  0  0  0  0  0  0
  152.8743  138.4940  157.7137 C   0  0  0  0  0  0  0  0  0  0  0  0
  151.2942  136.7762  157.0065 C   0  0  0  0  0  0  0  0  0  0  0  0
  151.3823  136.2410  158.1140 O   0  0  0  0  0  0  0  0  0  0  0  0
  145.7300  129.9265  150.5856 H   0  0  0  0  0  0  0  0  0  0  0  0
  144.5790  130.1331  151.9058 H   0  0  0  0  0  0  0  0  0  0  0  0
  146.0809  131.0753  151.8771 H   0  0  0  0  0  0  0  0  0  0  0  0
  143.6647  133.4694  150.7027 H   0  0  0  0  0  0  0  0  0  0  0  0
  143.1744  132.2420  151.8584 H   0  0  0  0  0  0  0  0  0  0  0  0
  145.7294  132.3746  152.6195 H   0  0  0  0  0  0  0  0  0  0  0  0
  145.7147  133.9268  151.8040 H   0  0  0  0  0  0  0  0  0  0  0  0
  143.6488  135.3816  152.3145 H   0  0  0  0  0  0  0  0  0  0  0  0
  142.4540  134.3788  153.1365 H   0  0  0  0  0  0  0  0  0  0  0  0
  143.8541  136.7856  154.1025 H   0  0  0  0  0  0  0  0  0  0  0  0
  142.4886  135.9805  154.8673 H   0  0  0  0  0  0  0  0  0  0  0  0
  144.9633  135.9224  156.0379 H   0  0  0  0  0  0  0  0  0  0  0  0
  143.8935  134.5321  156.1019 H   0  0  0  0  0  0  0  0  0  0  0  0
  145.7606  133.4924  155.1210 H   0  0  0  0  0  0  0  0  0  0  0  0
  147.0135  134.6278  153.1166 H   0  0  0  0  0  0  0  0  0  0  0  0
  146.2289  136.1111  153.5995 H   0  0  0  0  0  0  0  0  0  0  0  0
  147.4805  136.1668  155.5759 H   0  0  0  0  0  0  0  0  0  0  0  0
  149.1075  135.1268  157.1717 H   0  0  0  0  0  0  0  0  0  0  0  0
  150.3463  134.1569  156.4432 H   0  0  0  0  0  0  0  0  0  0  0  0
  149.7770  136.3911  154.0055 H   0  0  0  0  0  0  0  0  0  0  0  0
  151.0262  138.3566  153.4504 H   0  0  0  0  0  0  0  0  0  0  0  0
  152.3294  138.4757  158.6591 H   0  0  0  0  0  0  0  0  0  0  0  0
  153.1326  139.5287  157.4892 H   0  0  0  0  0  0  0  0  0  0  0  0
  153.7655  137.8663  157.7529 H   0  0  0  0  0  0  0  0  0  0  0  0
  143.9588  133.0593  153.9676 H   0  0  0  0  0  0  0  0  0  0  0  0
  1  2  1  0  0  0  0
  1 24  1  0  0  0  0
  1 25  1  0  0  0  0
  1 26  1  0  0  0  0
  2  3  1  0  0  0  0
  3  4  1  0  0  0  0
  3 27  1  0  0  0  0
  3 28  1  0  0  0  0
  4  5  1  0  0  0  0
  4 29  1  0  0  0  0
  4 30  1  0  0  0  0
  5  9  1  0  0  0  0
  5  6  1  0  0  0  0
  5 48  1  0  0  0  0
  6  7  1  0  0  0  0
  6 31  1  0  0  0  0
  6 32  1  0  0  0  0
  7  8  1  0  0  0  0
  7 33  1  0  0  0  0
  7 34  1  0  0  0  0
  8  9  1  0  0  0  0
  8 35  1  0  0  0  0
  8 36  1  0  0  0  0
  9 10  1  0  0  0  0
  9 37  1  0  0  0  0
 10 11  1  0  0  0  0
 10 38  1  0  0  0  0
 10 39  1  0  0  0  0
 11 12  1  0  0  0  0
 11 40  1  0  0  0  0
 12 13  2  0  0  0  0
 12 14  1  0  0  0  0
 14 15  1  0  0  0  0
 14 41  1  0  0  0  0
 14 42  1  0  0  0  0
 15 22  1  0  0  0  0
 15 16  1  0  0  0  0
 16 17  2  0  0  0  0
 16 43  1  0  0  0  0
 17 18  1  0  0  0  0
 17 44  1  0  0  0  0
 18 19  2  0  0  0  0
 18 20  1  0  0  0  0
 20 21  1  0  0  0  0
 20 22  1  0  0  0  0
 21 45  1  0  0  0  0
 21 46  1  0  0  0  0
 21 47  1  0  0  0  0
 22 23  2  0  0  0  0
M  CHG  1   5   1
M  END
> <s_m_source_file>
AV-unprocessed.smi

> <i_m_source_file_index>
1088

> <i_lp_mmshare_version>
43012

> <i_f3d_flags>
0

> <s_epik_input>
W0NIM11PW0NIMl1bQ0gyXU4xW0NIMl1bQ0gyXVtDSDJdW0NASF0xW0NIMl1bTkhdQyg9TylbQ0gyXW4yW2NIXVtjSF1jKD1PKW4oW0NIM10pYzI9Tw==

> <s_epik_cmdline>
J2VwaWtfcHl0aG9uJywgJy1waCcsICc3LjAnLCAnLXRuJywgJzgnLCAnLW1hJywgJzIwMCcsICctbWV0YWxfYmluZGluZycsICctaW1hZScsICc8aW5maWxlLm1hZT4nLCAnLW9tYWUnLCAnPG91dGZpbGUubWFlPic=

> <r_lp_tautomer_probability>
1

> <r_epik_Ionization_Penalty>
0.0127388

> <r_epik_Ionization_Penalty_Charging>
0.0127387

> <r_epik_Ionization_Penalty_Neutral>
8.26414e-08

> <r_epik_State_Penalty>
0.00987716

> <r_epik_Charging_Adjusted_Penalty>
0.0226159

> <i_epik_Tot_Q>
1

> <i_epik_Tot_abs_Q>
1

> <r_epik_Metal_State_Penalty>
0.00987836

> <b_epik_Metal_Only>
0

> <s_lp_Force_Field>
OPLS_2005

> <r_lp_Energy>
40.6263

> <b_lp_Chiralities_Consistent>
1

> <s_lp_Variant>
AV-unprocessed.smi:1088-3

> <Gold.Version>
5.8.1

> <Gold.Id.Protein>
6NUR|6NUR_protein|mol2

> <Gold.PLP.Fitness>
41.2841

> <Gold.PLP.PLP>
-28.5622

> <Gold.PLP.part.hbond>
-3.7917

> <Gold.PLP.part.metal>
0.0000

> <Gold.PLP.part.buried>
-5.9130

> <Gold.PLP.part.nonpolar>
-19.6162

> <Gold.PLP.part.repulsive>
0.2498

> <Gold.PLP.ligand.clash>
0.0000

> <Gold.PLP.ligand.torsion>
0.6065

> <Gold.PLP.Chemscore.Hbond>
3.5798

> <Gold.PLP.Chemscore.CHOScore>
1.0000

> <Gold.PLP.Chemscore.Metal>
0.0000

> <Gold.Chemscore.Hbonds>
donor molecule, donor type, donor heavy atom, donor atom, acceptor molecule, acceptor atom, score
      L1  H     5    48       P1 10957  2.00
      P1  H  6896  6907       L1    23  0.42
      P1  H  7989  7998       L1    19  0.17
      P1  H  7997  8009       L1    19  1.00
      L1  C    16    43       P1  7948  1.00

> <Gold.PLP.Chemscore.Internal.Correction>
0.1955

> <Gold.Rescore>
     Score         DG    S(hbond)    S(metal)    S(lipo)     H(rot)  DE(clash)    DE(int)     intcor
     13.55     -14.09       2.72        0.00      52.26       2.57       0.00       0.53       ----

> <Gold.Chemscore.Fitness>
13.5550

> <Gold.Chemscore.DG>
-14.0896

> <Gold.Chemscore.ZeroCoef>
-5.4800

> <Gold.Chemscore.Hbond>
2.7164

> <Gold.Chemscore.Metal>
0.0000

> <Gold.Chemscore.Lipo>
52.2550

> <Gold.Chemscore.Internal_Hbond>
0.0000

> <Gold.Chemscore.DEClash>
0.0000

> <Gold.Chemscore.DEInternal>
0.5346

> <Gold.Chemscore.Rot>
2.5692

> <Gold.Chemscore.Internal.Correction>
   9.000000E+99

> <Gold.Chemscore.Hbonds>
donor molecule, donor type, donor heavy atom, donor atom, acceptor molecule, acceptor atom, score
      L1  H     5    48       P1 10957  0.95
      P1  H  6896  6907       L1    23  0.41
      P1  H  7989  7998       L1    19  0.14
      P1  H  7997  8009       L1    19  0.93

> <Gold.Chemscore.Hbond.Weighted>
-9.0729

> <Gold.Chemscore.Metal.Weighted>
-0.0000

> <Gold.Chemscore.Lipo.Weighted>
-6.1138

> <Gold.Chemscore.Internal_Hbond.Weighted>
0.0000

> <Gold.Chemscore.DEClash.Weighted>
0.0000

> <Gold.Chemscore.DEInternal.Weighted>
0.5346

> <Gold.Chemscore.Rot.Weighted>
6.5772

> <Gold.Chemscore.Internal.Correction.Weighted>
   9.000000E+99

> <Gold.Protein.RotatedTorsions>
[ 6907 6896 6895 6894 ] final  -28.94 input  -60.11 | X-H torsion
[ 7974 7965 7964 7962 ] final  -67.42 input  175.53 | X-H torsion
[ 8008 7997 7996 7995 ] final -135.21 input   59.86 | X-H torsion
[ 10167 10162 10161 10158 ] final   90.31 input  -65.29 | X-H torsion
[ 10718 10713 10712 10709 ] final  168.03 input   66.30 | X-H torsion
[ 10763 10752 10751 10750 ] final    3.64 input  -60.55 | X-H torsion
[ 11005 11000 10999 10996 ] final   25.55 input  -57.11 | X-H torsion

> <Gold.Protein.ActiveResidues>
 VAL166  LYS551  ARG553  GLY616  TRP617  ASP618  TYR619  PRO620  LYS621  CYS622 
 ASP623  PHE694  ASN695  SER759  ASP760  ASP761  ALA762  ILE779  LEU786  VAL792 
 PHE793  MET794  SER795  GLU796  ALA797  LYS798  CYS799  TRP800  GLU811  SER814 

> <Gold.Protein.RotatedAtoms>
  151.1260  135.0105  159.8560 H   0  0  0  0  0  0  0  0  0  0  0  0  # atno 6907 bound_to 6896
  152.5449  134.1666  159.8590 H   0  0  0  0  0  0  0  0  0  0  0  0  # atno 6908 bound_to 6896
  151.1728  133.4728  159.2627 H   0  0  0  0  0  0  0  0  0  0  0  0  # atno 6909 bound_to 6896
  145.7294  140.9003  143.0588 H   0  0  0  0  0  0  0  0  0  0  0  0  # atno 7974 bound_to 7965
  155.3748  140.0490  157.3045 H   0  0  0  0  0  0  0  0  0  0  0  0  # atno 8008 bound_to 7997
  154.5112  140.2192  155.9116 H   0  0  0  0  0  0  0  0  0  0  0  0  # atno 8009 bound_to 7997
  156.1584  140.3121  155.8771 H   0  0  0  0  0  0  0  0  0  0  0  0  # atno 8010 bound_to 7997
  139.8486  144.6605  150.9196 H   0  0  0  0  0  0  0  0  0  0  0  0  # atno 10167 bound_to 10162
  157.0430  131.0292  151.2707 H   0  0  0  0  0  0  0  0  0  0  0  0  # atno 10718 bound_to 10713
  153.2808  135.6940  153.7387 H   0  0  0  0  0  0  0  0  0  0  0  0  # atno 10763 bound_to 10752
  153.6375  135.3399  155.3062 H   0  0  0  0  0  0  0  0  0  0  0  0  # atno 10764 bound_to 10752
  154.8494  135.4423  154.1861 H   0  0  0  0  0  0  0  0  0  0  0  0  # atno 10765 bound_to 10752
  140.3467  134.2274  155.7684 H   0  0  0  0  0  0  0  0  0  0  0  0  # atno 11005 bound_to 11000
  144.6896  139.9310  143.7471 LP  0  0  0  0  0  0  0  0  0  0  0  0  # atno 17320 bound_to 7965
  146.0552  139.3549  143.0615 LP  0  0  0  0  0  0  0  0  0  0  0  0  # atno 17321 bound_to 7965
  140.7790  143.3847  151.1414 LP  0  0  0  0  0  0  0  0  0  0  0  0  # atno 17342 bound_to 10162
  139.7487  143.8811  152.3071 LP  0  0  0  0  0  0  0  0  0  0  0  0  # atno 17343 bound_to 10162
  157.5090  130.7926  149.7684 LP  0  0  0  0  0  0  0  0  0  0  0  0  # atno 17370 bound_to 10713
  156.0032  130.3869  150.2528 LP  0  0  0  0  0  0  0  0  0  0  0  0  # atno 17371 bound_to 10713
  141.2024  133.7939  157.0394 LP  0  0  0  0  0  0  0  0  0  0  0  0  # atno 17394 bound_to 11000
  140.0737  134.9688  157.1509 LP  0  0  0  0  0  0  0  0  0  0  0  0  # atno 17395 bound_to 11000

$$$$
