AV-unprocessed.smi:27|AV-procd|sdf|187|dock10
  -GOLD-   2262015453D 1   1.00000     0.00000
 Structure written by MMmdl.
 53 56  0  0  0  0  0  0  0  0  1 V2000
  150.6933  136.4523  156.6074 O   0  0  0  0  0  0  0  0  0  0  0  0
  150.5534  136.5500  155.3892 C   0  0  0  0  0  0  0  0  0  0  0  0
  151.2267  137.7142  154.6378 C   0  0  0  0  0  0  0  0  0  0  0  0
  150.7984  139.0597  155.0914 N   0  0  0  0  0  0  0  0  0  0  0  0
  149.6513  139.6430  154.4994 C   0  0  0  0  0  0  0  0  0  0  0  0
  148.9969  139.0427  153.6460 O   0  0  0  0  0  0  0  0  0  0  0  0
  149.3235  140.9880  154.9563 C   0  0  0  0  0  0  0  0  0  0  0  0
  148.2381  141.6100  154.4655 F   0  0  0  0  0  0  0  0  0  0  0  0
  150.0955  141.6245  155.8614 C   0  0  0  0  0  0  0  0  0  0  0  0
  151.2275  141.0528  156.4177 N   0  0  0  0  0  0  0  0  0  0  0  0
  152.1485  141.7902  157.3693 C   0  0  2  0  0  0  0  0  0  0  0  0
  152.3980  141.1096  158.7178 C   0  0  0  0  0  0  0  0  0  0  0  0
  152.8492  142.3032  159.5271 C   0  0  0  0  0  0  0  0  0  0  0  0
  151.9074  143.3927  159.0147 C   0  0  0  0  0  0  0  0  0  0  0  0
  151.5624  143.0191  157.6811 O   0  0  0  0  0  0  0  0  0  0  0  0
  151.5925  139.7398  156.0458 C   0  0  0  0  0  0  0  0  0  0  0  0
  152.5939  139.2053  156.5276 O   0  0  0  0  0  0  0  0  0  0  0  0
  149.8308  135.6828  154.6624 N   0  0  0  0  0  0  0  0  0  0  0  0
  149.1234  134.5007  155.1428 C   0  0  0  0  0  0  0  0  0  0  0  0
  150.0979  133.3954  155.5378 C   0  0  0  0  0  0  0  0  0  0  0  0
  149.8985  132.0558  155.1258 C   0  0  0  0  0  0  0  0  0  0  0  0
  150.8119  131.0521  155.5011 C   0  0  0  0  0  0  0  0  0  0  0  0
  151.9285  131.3758  156.2945 C   0  0  0  0  0  0  0  0  0  0  0  0
  152.1290  132.7038  156.7159 C   0  0  0  0  0  0  0  0  0  0  0  0
  151.2165  133.7087  156.3401 C   0  0  0  0  0  0  0  0  0  0  0  0
  148.1003  133.9885  154.1347 C   0  0  0  0  0  0  0  0  0  0  0  0
  148.5050  133.4769  152.8800 C   0  0  0  0  0  0  0  0  0  0  0  0
  147.5470  133.0035  151.9629 C   0  0  0  0  0  0  0  0  0  0  0  0
  146.1788  133.0331  152.2938 C   0  0  0  0  0  0  0  0  0  0  0  0
  145.7694  133.5338  153.5443 C   0  0  0  0  0  0  0  0  0  0  0  0
  146.7270  134.0085  154.4615 C   0  0  0  0  0  0  0  0  0  0  0  0
  152.3078  137.5939  154.7211 H   0  0  0  0  0  0  0  0  0  0  0  0
  151.0310  137.5884  153.5718 H   0  0  0  0  0  0  0  0  0  0  0  0
  149.7786  142.6126  156.1510 H   0  0  0  0  0  0  0  0  0  0  0  0
  153.0791  141.9419  156.8179 H   0  0  0  0  0  0  0  0  0  0  0  0
  151.4717  140.7343  159.1517 H   0  0  0  0  0  0  0  0  0  0  0  0
  153.1346  140.3096  158.6402 H   0  0  0  0  0  0  0  0  0  0  0  0
  152.7752  142.1473  160.6037 H   0  0  0  0  0  0  0  0  0  0  0  0
  153.8839  142.5516  159.2864 H   0  0  0  0  0  0  0  0  0  0  0  0
  150.9962  143.4258  159.6123 H   0  0  0  0  0  0  0  0  0  0  0  0
  152.3673  144.3807  159.0432 H   0  0  0  0  0  0  0  0  0  0  0  0
  149.7803  135.8510  153.6684 H   0  0  0  0  0  0  0  0  0  0  0  0
  148.5861  134.7859  156.0496 H   0  0  0  0  0  0  0  0  0  0  0  0
  149.0451  131.7836  154.5220 H   0  0  0  0  0  0  0  0  0  0  0  0
  150.6537  130.0329  155.1814 H   0  0  0  0  0  0  0  0  0  0  0  0
  152.6288  130.6057  156.5824 H   0  0  0  0  0  0  0  0  0  0  0  0
  152.9833  132.9523  157.3284 H   0  0  0  0  0  0  0  0  0  0  0  0
  151.3792  134.7246  156.6694 H   0  0  0  0  0  0  0  0  0  0  0  0
  149.5514  133.4414  152.6141 H   0  0  0  0  0  0  0  0  0  0  0  0
  147.8623  132.6163  151.0053 H   0  0  0  0  0  0  0  0  0  0  0  0
  145.4445  132.6698  151.5902 H   0  0  0  0  0  0  0  0  0  0  0  0
  144.7203  133.5532  153.8004 H   0  0  0  0  0  0  0  0  0  0  0  0
  146.4027  134.3901  155.4187 H   0  0  0  0  0  0  0  0  0  0  0  0
  1  2  2  0  0  0  0
  2  3  1  0  0  0  0
  2 18  1  0  0  0  0
  3  4  1  0  0  0  0
  3 32  1  0  0  0  0
  3 33  1  0  0  0  0
  4 16  1  0  0  0  0
  4  5  1  0  0  0  0
  5  6  2  0  0  0  0
  5  7  1  0  0  0  0
  7  8  1  0  0  0  0
  7  9  2  0  0  0  0
  9 10  1  0  0  0  0
  9 34  1  0  0  0  0
 10 11  1  0  0  0  0
 10 16  1  0  0  0  0
 11 15  1  0  0  0  0
 11 12  1  0  0  0  0
 11 35  1  0  0  0  0
 12 13  1  0  0  0  0
 12 36  1  0  0  0  0
 12 37  1  0  0  0  0
 13 14  1  0  0  0  0
 13 38  1  0  0  0  0
 13 39  1  0  0  0  0
 14 15  1  0  0  0  0
 14 40  1  0  0  0  0
 14 41  1  0  0  0  0
 16 17  2  0  0  0  0
 18 19  1  0  0  0  0
 18 42  1  0  0  0  0
 19 20  1  0  0  0  0
 19 26  1  0  0  0  0
 19 43  1  0  0  0  0
 20 25  1  0  0  0  0
 20 21  2  0  0  0  0
 21 22  1  0  0  0  0
 21 44  1  0  0  0  0
 22 23  2  0  0  0  0
 22 45  1  0  0  0  0
 23 24  1  0  0  0  0
 23 46  1  0  0  0  0
 24 25  2  0  0  0  0
 24 47  1  0  0  0  0
 25 48  1  0  0  0  0
 26 31  1  0  0  0  0
 26 27  2  0  0  0  0
 27 28  1  0  0  0  0
 27 49  1  0  0  0  0
 28 29  2  0  0  0  0
 28 50  1  0  0  0  0
 29 30  1  0  0  0  0
 29 51  1  0  0  0  0
 30 31  2  0  0  0  0
 30 52  1  0  0  0  0
 31 53  1  0  0  0  0
M  END
> <s_m_source_file>
AV-unprocessed.smi

> <i_m_source_file_index>
27

> <i_lp_mmshare_version>
43012

> <i_f3d_flags>
0

> <s_epik_input>
W2NIXTFbY0hdW2NIXVtjSF1bY0hdYzFbQ0hdKGMyW2NIXVtjSF1bY0hdW2NIXVtjSF0yKVtOSF1DKD1PKVtDSDJdbjNjKD1PKWMoRilbY0hdbihjMz1PKVtDQEBIXTRbQ0gyXVtDSDJdW0NIMl1PNA==

> <s_epik_cmdline>
J2VwaWtfcHl0aG9uJywgJy1waCcsICc3LjAnLCAnLXRuJywgJzgnLCAnLW1hJywgJzIwMCcsICctbWV0YWxfYmluZGluZycsICctaW1hZScsICc8aW5maWxlLm1hZT4nLCAnLW9tYWUnLCAnPG91dGZpbGUubWFlPic=

> <r_lp_tautomer_probability>
1

> <r_epik_Ionization_Penalty>
5.29953e-08

> <r_epik_Ionization_Penalty_Charging>
3.6115e-09

> <r_epik_Ionization_Penalty_Neutral>
4.93838e-08

> <r_epik_State_Penalty>
-0

> <r_epik_Charging_Adjusted_Penalty>
3.6115e-09

> <i_epik_Tot_Q>
0

> <i_epik_Tot_abs_Q>
0

> <r_epik_Metal_State_Penalty>
-0

> <b_epik_Metal_Only>
0

> <s_epik_Chemistry_Notes>
This compound contains an acetal/aminal-like group ( X-CH(R)-Y where X, Y are N, S, or O) that may be acid/base labile, releasing an aldehyde.

> <s_lp_Force_Field>
OPLS_2005

> <r_lp_Energy>
32.38

> <b_lp_Chiralities_Consistent>
1

> <s_lp_Variant>
AV-unprocessed.smi:27-1

> <Gold.Version>
5.8.1

> <Gold.Id.Protein>
6NUR|6NUR_protein|mol2

> <Gold.PLP.Fitness>
57.1762

> <Gold.PLP.PLP>
-49.6126

> <Gold.PLP.part.hbond>
-1.9949

> <Gold.PLP.part.metal>
0.0000

> <Gold.PLP.part.buried>
-5.0122

> <Gold.PLP.part.nonpolar>
-43.8387

> <Gold.PLP.part.repulsive>
2.6373

> <Gold.PLP.ligand.clash>
0.0000

> <Gold.PLP.ligand.torsion>
0.8115

> <Gold.PLP.Chemscore.Hbond>
2.0000

> <Gold.PLP.Chemscore.CHOScore>
1.0000

> <Gold.PLP.Chemscore.Metal>
0.0000

> <Gold.Chemscore.Hbonds>
donor molecule, donor type, donor heavy atom, donor atom, acceptor molecule, acceptor atom, score
      L1  H    18    42       P1  7948  0.80
      P1  H  7997  8010       L1    17  1.00
      L1  C     9    34       P1  8028  1.00

> <Gold.PLP.Chemscore.Internal.Correction>
0.1867

> <Gold.Rescore>
     Score         DG    S(hbond)    S(metal)    S(lipo)     H(rot)  DE(clash)    DE(int)     intcor
     10.99     -17.82       1.56        0.00     108.44       2.16       1.48       5.35       ----

> <Gold.Chemscore.Fitness>
10.9868

> <Gold.Chemscore.DG>
-17.8245

> <Gold.Chemscore.ZeroCoef>
-5.4800

> <Gold.Chemscore.Hbond>
1.5560

> <Gold.Chemscore.Metal>
0.0000

> <Gold.Chemscore.Lipo>
108.4423

> <Gold.Chemscore.Internal_Hbond>
0.0000

> <Gold.Chemscore.DEClash>
1.4841

> <Gold.Chemscore.DEInternal>
5.3535

> <Gold.Chemscore.Rot>
2.1642

> <Gold.Chemscore.Internal.Correction>
   9.000000E+99

> <Gold.Chemscore.Hbonds>
donor molecule, donor type, donor heavy atom, donor atom, acceptor molecule, acceptor atom, score
      L1  H    18    42       P1  7948  0.11
      P1  H  7997  8010       L1    17  0.98

> <Gold.Chemscore.Hbond.Weighted>
-5.1972

> <Gold.Chemscore.Metal.Weighted>
-0.0000

> <Gold.Chemscore.Lipo.Weighted>
-12.6878

> <Gold.Chemscore.Internal_Hbond.Weighted>
0.0000

> <Gold.Chemscore.DEClash.Weighted>
1.4841

> <Gold.Chemscore.DEInternal.Weighted>
5.3535

> <Gold.Chemscore.Rot.Weighted>
5.5404

> <Gold.Chemscore.Internal.Correction.Weighted>
   9.000000E+99

> <Gold.Protein.RotatedTorsions>
[ 6907 6896 6895 6894 ] final  -25.95 input  -60.11 | X-H torsion
[ 7974 7965 7964 7962 ] final -101.72 input  175.53 | X-H torsion
[ 8008 7997 7996 7995 ] final   64.14 input   59.86 | X-H torsion
[ 10167 10162 10161 10158 ] final  -58.48 input  -65.29 | X-H torsion
[ 10718 10713 10712 10709 ] final  -46.08 input   66.30 | X-H torsion
[ 10763 10752 10751 10750 ] final  -98.54 input  -60.55 | X-H torsion
[ 11005 11000 10999 10996 ] final  -41.72 input  -57.11 | X-H torsion

> <Gold.Protein.ActiveResidues>
 VAL166  LYS551  ARG553  GLY616  TRP617  ASP618  TYR619  PRO620  LYS621  CYS622 
 ASP623  PHE694  ASN695  SER759  ASP760  ASP761  ALA762  ILE779  LEU786  VAL792 
 PHE793  MET794  SER795  GLU796  ALA797  LYS798  CYS799  TRP800  GLU811  SER814 

> <Gold.Protein.RotatedAtoms>
  151.1679  135.0304  159.8738 H   0  0  0  0  0  0  0  0  0  0  0  0  # atno 6907 bound_to 6896
  152.5450  134.1204  159.8407 H   0  0  0  0  0  0  0  0  0  0  0  0  # atno 6908 bound_to 6896
  151.1307  133.4992  159.2631 H   0  0  0  0  0  0  0  0  0  0  0  0  # atno 6909 bound_to 6896
  145.2780  140.9318  143.2948 H   0  0  0  0  0  0  0  0  0  0  0  0  # atno 7974 bound_to 7965
  155.6413  140.3497  155.4716 H   0  0  0  0  0  0  0  0  0  0  0  0  # atno 8008 bound_to 7997
  155.9924  140.1196  157.0649 H   0  0  0  0  0  0  0  0  0  0  0  0  # atno 8009 bound_to 7997
  154.4223  140.1117  156.5570 H   0  0  0  0  0  0  0  0  0  0  0  0  # atno 8010 bound_to 7997
  140.6194  143.2414  151.5517 H   0  0  0  0  0  0  0  0  0  0  0  0  # atno 10167 bound_to 10162
  156.2218  130.4166  149.8983 H   0  0  0  0  0  0  0  0  0  0  0  0  # atno 10718 bound_to 10713
  154.7423  135.5005  153.9143 H   0  0  0  0  0  0  0  0  0  0  0  0  # atno 10763 bound_to 10752
  153.1055  135.6696  153.9602 H   0  0  0  0  0  0  0  0  0  0  0  0  # atno 10764 bound_to 10752
  153.9376  135.3071  155.3423 H   0  0  0  0  0  0  0  0  0  0  0  0  # atno 10765 bound_to 10752
  141.0266  133.6838  156.2497 H   0  0  0  0  0  0  0  0  0  0  0  0  # atno 11005 bound_to 11000
  144.9277  139.4335  143.6510 LP  0  0  0  0  0  0  0  0  0  0  0  0  # atno 17320 bound_to 7965
  146.3225  139.8172  142.8934 LP  0  0  0  0  0  0  0  0  0  0  0  0  # atno 17321 bound_to 7965
  139.5426  144.2607  152.1380 LP  0  0  0  0  0  0  0  0  0  0  0  0  # atno 17342 bound_to 10162
  140.1823  144.4832  150.6521 LP  0  0  0  0  0  0  0  0  0  0  0  0  # atno 17343 bound_to 10162
  156.6627  130.8788  151.3550 LP  0  0  0  0  0  0  0  0  0  0  0  0  # atno 17370 bound_to 10713
  157.7091  130.9419  150.1029 LP  0  0  0  0  0  0  0  0  0  0  0  0  # atno 17371 bound_to 10713
  140.6481  134.5096  157.5575 LP  0  0  0  0  0  0  0  0  0  0  0  0  # atno 17394 bound_to 11000
  139.9180  134.8207  156.1303 LP  0  0  0  0  0  0  0  0  0  0  0  0  # atno 17395 bound_to 11000

$$$$
