AV-unprocessed.smi:1244|AV-procd|sdf|5222|dock6
  -GOLD-   22720 4323D 1   1.00000     0.00000
 Structure written by MMmdl.
 54 56  0  0  0  0  0  0  0  0  1 V2000
  148.1318  145.3311  161.1870 C   0  0  0  0  0  0  0  0  0  0  0  0
  146.8942  145.4346  160.2897 C   0  0  2  0  0  0  0  0  0  0  0  0
  146.7994  144.2662  159.2893 C   0  0  0  0  0  0  0  0  0  0  0  0
  145.6653  144.4147  158.3801 N   0  0  0  0  0  0  0  0  0  0  0  0
  145.5744  143.3242  157.4108 C   0  0  0  0  0  0  0  0  0  0  0  0
  146.6520  143.3463  156.3101 C   0  0  0  0  0  0  0  0  0  0  0  0
  147.9170  142.8000  156.7860 N   0  0  0  0  0  0  0  0  0  0  0  0
  148.6422  141.8704  156.1485 C   0  0  0  0  0  0  0  0  0  0  0  0
  148.3235  141.3823  155.0642 O   0  0  0  0  0  0  0  0  0  0  0  0
  149.7339  141.5350  156.8556 N   0  0  0  0  0  0  0  0  0  0  0  0
  150.7171  140.5598  156.5275 C   0  0  0  0  0  0  0  0  0  0  0  0
  150.7532  139.9302  155.2599 C   0  0  0  0  0  0  0  0  0  0  0  0
  151.7726  139.0026  154.9829 C   0  0  0  0  0  0  0  0  0  0  0  0
  152.7277  138.7440  155.9812 C   0  0  0  0  0  0  0  0  0  0  0  0
  152.7149  139.3460  157.1878 N   0  0  0  0  0  0  0  0  0  0  0  0
  151.7383  140.2446  157.4649 C   0  0  0  0  0  0  0  0  0  0  0  0
  151.7320  140.8317  158.7487 N   0  0  0  0  0  0  0  0  0  0  0  0
  152.6801  140.2177  159.6762 C   0  0  0  0  0  0  0  0  0  0  0  0
  153.2821  141.3558  160.5038 C   0  0  0  0  0  0  0  0  0  0  0  0
  153.1454  142.5632  159.5851 C   0  0  0  0  0  0  0  0  0  0  0  0
  151.8209  142.2856  158.8778 C   0  0  0  0  0  0  0  0  0  0  0  0
  145.7655  145.7047  157.7069 C   0  0  0  0  0  0  0  0  0  0  0  0
  145.8521  146.8733  158.7070 C   0  0  2  0  0  0  0  0  0  0  0  0
  146.0332  148.2244  158.0080 C   0  0  0  0  0  0  0  0  0  0  0  0
  146.9655  146.6624  159.5704 O   0  0  0  0  0  0  0  0  0  0  0  0
  148.1156  144.4118  161.7730 H   0  0  0  0  0  0  0  0  0  0  0  0
  148.1787  146.1685  161.8837 H   0  0  0  0  0  0  0  0  0  0  0  0
  149.0487  145.3373  160.5972 H   0  0  0  0  0  0  0  0  0  0  0  0
  146.0043  145.4466  160.9211 H   0  0  0  0  0  0  0  0  0  0  0  0
  147.7255  144.2025  158.7159 H   0  0  0  0  0  0  0  0  0  0  0  0
  146.7141  143.3360  159.8498 H   0  0  0  0  0  0  0  0  0  0  0  0
  145.6621  142.3777  157.9458 H   0  0  0  0  0  0  0  0  0  0  0  0
  144.5834  143.3179  156.9543 H   0  0  0  0  0  0  0  0  0  0  0  0
  146.3445  142.7466  155.4542 H   0  0  0  0  0  0  0  0  0  0  0  0
  146.8010  144.3631  155.9428 H   0  0  0  0  0  0  0  0  0  0  0  0
  148.2560  143.1430  157.6729 H   0  0  0  0  0  0  0  0  0  0  0  0
  149.8134  141.9385  157.7776 H   0  0  0  0  0  0  0  0  0  0  0  0
  150.0267  140.1565  154.4942 H   0  0  0  0  0  0  0  0  0  0  0  0
  151.8243  138.5060  154.0253 H   0  0  0  0  0  0  0  0  0  0  0  0
  153.5261  138.0385  155.8054 H   0  0  0  0  0  0  0  0  0  0  0  0
  152.1870  139.4831  160.3133 H   0  0  0  0  0  0  0  0  0  0  0  0
  153.4685  139.7025  159.1240 H   0  0  0  0  0  0  0  0  0  0  0  0
  152.6890  141.5118  161.4060 H   0  0  0  0  0  0  0  0  0  0  0  0
  154.3116  141.1618  160.8056 H   0  0  0  0  0  0  0  0  0  0  0  0
  153.1520  143.5130  160.1205 H   0  0  0  0  0  0  0  0  0  0  0  0
  153.9600  142.5742  158.8594 H   0  0  0  0  0  0  0  0  0  0  0  0
  151.7402  142.8312  157.9376 H   0  0  0  0  0  0  0  0  0  0  0  0
  150.9908  142.6138  159.5039 H   0  0  0  0  0  0  0  0  0  0  0  0
  146.6437  145.7146  157.0591 H   0  0  0  0  0  0  0  0  0  0  0  0
  144.8997  145.8497  157.0594 H   0  0  0  0  0  0  0  0  0  0  0  0
  144.9410  146.9091  159.3071 H   0  0  0  0  0  0  0  0  0  0  0  0
  145.1965  148.4365  157.3420 H   0  0  0  0  0  0  0  0  0  0  0  0
  146.9477  148.2424  157.4144 H   0  0  0  0  0  0  0  0  0  0  0  0
  146.0925  149.0341  158.7357 H   0  0  0  0  0  0  0  0  0  0  0  0
  1  2  1  0  0  0  0
  1 26  1  0  0  0  0
  1 27  1  0  0  0  0
  1 28  1  0  0  0  0
  2 25  1  0  0  0  0
  2  3  1  0  0  0  0
  2 29  1  0  0  0  0
  3  4  1  0  0  0  0
  3 30  1  0  0  0  0
  3 31  1  0  0  0  0
  4  5  1  0  0  0  0
  4 22  1  0  0  0  0
  5  6  1  0  0  0  0
  5 32  1  0  0  0  0
  5 33  1  0  0  0  0
  6  7  1  0  0  0  0
  6 34  1  0  0  0  0
  6 35  1  0  0  0  0
  7  8  1  0  0  0  0
  7 36  1  0  0  0  0
  8  9  2  0  0  0  0
  8 10  1  0  0  0  0
 10 11  1  0  0  0  0
 10 37  1  0  0  0  0
 11 16  1  0  0  0  0
 11 12  2  0  0  0  0
 12 13  1  0  0  0  0
 12 38  1  0  0  0  0
 13 14  2  0  0  0  0
 13 39  1  0  0  0  0
 14 15  1  0  0  0  0
 14 40  1  0  0  0  0
 15 16  2  0  0  0  0
 16 17  1  0  0  0  0
 17 21  1  0  0  0  0
 17 18  1  0  0  0  0
 18 19  1  0  0  0  0
 18 41  1  0  0  0  0
 18 42  1  0  0  0  0
 19 20  1  0  0  0  0
 19 43  1  0  0  0  0
 19 44  1  0  0  0  0
 20 21  1  0  0  0  0
 20 45  1  0  0  0  0
 20 46  1  0  0  0  0
 21 47  1  0  0  0  0
 21 48  1  0  0  0  0
 22 23  1  0  0  0  0
 22 49  1  0  0  0  0
 22 50  1  0  0  0  0
 23 24  1  0  0  0  0
 23 25  1  0  0  0  0
 23 51  1  0  0  0  0
 24 52  1  0  0  0  0
 24 53  1  0  0  0  0
 24 54  1  0  0  0  0
M  END
> <s_m_source_file>
AV-unprocessed.smi

> <i_m_source_file_index>
1244

> <i_lp_mmshare_version>
43012

> <i_f3d_flags>
0

> <s_epik_input>
W0NIM11bQ0BASF0xW0NIMl1OKFtDSDJdW0NASF0oTzEpW0NIM10pW0NIMl1bQ0gyXVtOSF1DKD1PKVtOSF1jMltjSF1bY0hdW2NIXW5jMk4zW0NIMl1bQ0gyXVtDSDJdW0NIMl0z

> <s_epik_cmdline>
J2VwaWtfcHl0aG9uJywgJy1waCcsICc3LjAnLCAnLXRuJywgJzgnLCAnLW1hJywgJzIwMCcsICctbWV0YWxfYmluZGluZycsICctaW1hZScsICc8aW5maWxlLm1hZT4nLCAnLW9tYWUnLCAnPG91dGZpbGUubWFlPic=

> <r_lp_tautomer_probability>
1

> <r_epik_Ionization_Penalty>
0.363951

> <r_epik_Ionization_Penalty_Charging>
0

> <r_epik_Ionization_Penalty_Neutral>
0.363951

> <r_epik_State_Penalty>
0.349372

> <r_epik_Charging_Adjusted_Penalty>
0.349372

> <i_epik_Tot_Q>
0

> <i_epik_Tot_abs_Q>
0

> <r_epik_Metal_State_Penalty>
0.333054

> <b_epik_Metal_Only>
0

> <s_lp_Force_Field>
OPLS_2005

> <r_lp_Energy>
48.0273

> <b_lp_Chiralities_Consistent>
1

> <s_lp_Variant>
AV-unprocessed.smi:1244-2

> <Gold.Version>
5.8.1

> <Gold.Id.Protein>
6NUR|6NUR_protein|mol2

> <Gold.PLP.Fitness>
44.4349

> <Gold.PLP.PLP>
-41.9354

> <Gold.PLP.part.hbond>
-1.9952

> <Gold.PLP.part.metal>
0.0000

> <Gold.PLP.part.buried>
-4.4163

> <Gold.PLP.part.nonpolar>
-34.8982

> <Gold.PLP.part.repulsive>
0.3588

> <Gold.PLP.ligand.clash>
0.0000

> <Gold.PLP.ligand.torsion>
0.3219

> <Gold.PLP.Chemscore.Hbond>
1.0000

> <Gold.PLP.Chemscore.CHOScore>
0.0000

> <Gold.PLP.Chemscore.Metal>
0.0000

> <Gold.Chemscore.Hbonds>
donor molecule, donor type, donor heavy atom, donor atom, acceptor molecule, acceptor atom, score
      P1  H  7997  8009       L1    15  0.50

> <Gold.PLP.Chemscore.Internal.Correction>
0.1432

> <Gold.Rescore>
     Score         DG    S(hbond)    S(metal)    S(lipo)     H(rot)  DE(clash)    DE(int)     intcor
     12.87     -15.27       0.75        0.00      96.17       1.55       0.48       1.92       ----

> <Gold.Chemscore.Fitness>
12.8709

> <Gold.Chemscore.DG>
-15.2744

> <Gold.Chemscore.ZeroCoef>
-5.4800

> <Gold.Chemscore.Hbond>
0.7500

> <Gold.Chemscore.Metal>
0.0000

> <Gold.Chemscore.Lipo>
96.1733

> <Gold.Chemscore.Internal_Hbond>
0.0000

> <Gold.Chemscore.DEClash>
0.4831

> <Gold.Chemscore.DEInternal>
1.9204

> <Gold.Chemscore.Rot>
1.5479

> <Gold.Chemscore.Internal.Correction>
   9.000000E+99

> <Gold.Chemscore.Hbonds>
donor molecule, donor type, donor heavy atom, donor atom, acceptor molecule, acceptor atom, score
      P1  H  7997  8009       L1    15  0.02

> <Gold.Chemscore.Hbond.Weighted>
-2.5049

> <Gold.Chemscore.Metal.Weighted>
-0.0000

> <Gold.Chemscore.Lipo.Weighted>
-11.2523

> <Gold.Chemscore.Internal_Hbond.Weighted>
0.0000

> <Gold.Chemscore.DEClash.Weighted>
0.4831

> <Gold.Chemscore.DEInternal.Weighted>
1.9204

> <Gold.Chemscore.Rot.Weighted>
3.9627

> <Gold.Chemscore.Internal.Correction.Weighted>
   9.000000E+99

> <Gold.Protein.RotatedTorsions>
[ 6907 6896 6895 6894 ] final  -30.70 input  -60.11 | X-H torsion
[ 7974 7965 7964 7962 ] final  140.30 input  175.53 | X-H torsion
[ 8008 7997 7996 7995 ] final  166.70 input   59.86 | X-H torsion
[ 10167 10162 10161 10158 ] final   68.83 input  -65.29 | X-H torsion
[ 10718 10713 10712 10709 ] final   45.93 input   66.30 | X-H torsion
[ 10763 10752 10751 10750 ] final -154.78 input  -60.55 | X-H torsion
[ 11005 11000 10999 10996 ] final  109.09 input  -57.11 | X-H torsion

> <Gold.Protein.ActiveResidues>
 VAL166  LYS551  ARG553  GLY616  TRP617  ASP618  TYR619  PRO620  LYS621  CYS622 
 ASP623  PHE694  ASN695  SER759  ASP760  ASP761  ALA762  ILE779  LEU786  VAL792 
 PHE793  MET794  SER795  GLU796  ALA797  LYS798  CYS799  TRP800  GLU811  SER814 

> <Gold.Protein.RotatedAtoms>
  151.1020  134.9978  159.8453 H   0  0  0  0  0  0  0  0  0  0  0  0  # atno 6907 bound_to 6896
  152.5437  134.1938  159.8695 H   0  0  0  0  0  0  0  0  0  0  0  0  # atno 6908 bound_to 6896
  151.1982  133.4582  159.2629 H   0  0  0  0  0  0  0  0  0  0  0  0  # atno 6909 bound_to 6896
  144.9199  139.5181  143.5668 H   0  0  0  0  0  0  0  0  0  0  0  0  # atno 7974 bound_to 7965
  156.1696  140.1636  156.8470 H   0  0  0  0  0  0  0  0  0  0  0  0  # atno 8008 bound_to 7997
  154.5243  140.0771  156.8264 H   0  0  0  0  0  0  0  0  0  0  0  0  # atno 8009 bound_to 7997
  155.3539  140.3391  155.4242 H   0  0  0  0  0  0  0  0  0  0  0  0  # atno 8010 bound_to 7997
  140.0744  144.5125  150.7205 H   0  0  0  0  0  0  0  0  0  0  0  0  # atno 10167 bound_to 10162
  157.4428  130.8091  149.7711 H   0  0  0  0  0  0  0  0  0  0  0  0  # atno 10718 bound_to 10713
  154.7834  135.3182  154.7940 H   0  0  0  0  0  0  0  0  0  0  0  0  # atno 10763 bound_to 10752
  153.8646  135.6850  153.4784 H   0  0  0  0  0  0  0  0  0  0  0  0  # atno 10764 bound_to 10752
  153.1477  135.4712  154.9529 H   0  0  0  0  0  0  0  0  0  0  0  0  # atno 10765 bound_to 10752
  139.8856  134.9449  156.6073 H   0  0  0  0  0  0  0  0  0  0  0  0  # atno 11005 bound_to 11000
  146.3200  139.8071  142.8953 LP  0  0  0  0  0  0  0  0  0  0  0  0  # atno 17320 bound_to 7965
  145.3313  141.0267  143.3445 LP  0  0  0  0  0  0  0  0  0  0  0  0  # atno 17321 bound_to 7965
  140.7109  143.2504  151.4583 LP  0  0  0  0  0  0  0  0  0  0  0  0  # atno 17342 bound_to 10162
  139.5816  144.1696  152.1976 LP  0  0  0  0  0  0  0  0  0  0  0  0  # atno 17343 bound_to 10162
  155.9955  130.3911  150.2815 LP  0  0  0  0  0  0  0  0  0  0  0  0  # atno 17370 bound_to 10713
  157.0981  131.0188  151.3096 LP  0  0  0  0  0  0  0  0  0  0  0  0  # atno 17371 bound_to 10713
  140.7838  133.8638  155.8590 LP  0  0  0  0  0  0  0  0  0  0  0  0  # atno 17394 bound_to 11000
  140.9737  134.1497  157.4555 LP  0  0  0  0  0  0  0  0  0  0  0  0  # atno 17395 bound_to 11000

$$$$
