AV-unprocessed.smi:881|AV-procd|sdf|4035|dock4
  -GOLD-   22720 1523D 1   1.00000     0.00000
 Structure written by MMmdl.
 32 33  0  0  0  0  0  0  0  0  1 V2000
  150.8279  140.8562  156.5042 O   0  0  0  0  0  0  0  0  0  0  0  0
  150.1184  141.8339  156.2654 C   0  0  0  0  0  0  0  0  0  0  0  0
  149.0866  141.8539  155.4032 N   0  0  0  0  0  0  0  0  0  0  0  0
  148.6011  140.7987  154.5861 C   0  0  0  0  0  0  0  0  0  0  0  0
  149.1004  139.5526  154.6031 N   0  0  0  0  0  0  0  0  0  0  0  0
  148.4469  138.7186  153.7051 N   0  0  0  0  0  0  0  0  0  0  0  0
  147.4819  139.3672  153.0469 C   0  0  0  0  0  0  0  0  0  0  0  0
  147.2772  141.0611  153.4596 S   0  0  0  0  0  0  0  0  0  0  0  0
  150.2845  143.0303  156.8493 N   0  0  0  0  0  0  0  0  0  0  0  0
  151.3147  143.3610  157.8319 C   0  0  0  0  0  0  0  0  0  0  0  0
  151.4309  142.2104  158.8534 C   0  0  0  0  0  0  0  0  0  0  0  0
  152.4514  142.4349  159.9826 C   0  0  0  0  0  0  0  0  0  0  0  0
  151.9611  143.4400  161.0374 C   0  0  0  0  0  0  0  0  0  0  0  0
  152.2485  144.9186  160.7241 C   0  0  0  0  0  0  0  0  0  0  0  0
  152.1501  145.3408  159.2476 C   0  0  0  0  0  0  0  0  0  0  0  0
  150.9793  144.7306  158.4586 C   0  0  0  0  0  0  0  0  0  0  0  0
  148.5918  142.7293  155.3179 H   0  0  0  0  0  0  0  0  0  0  0  0
  146.8868  138.8447  152.3128 H   0  0  0  0  0  0  0  0  0  0  0  0
  149.6519  143.7739  156.5930 H   0  0  0  0  0  0  0  0  0  0  0  0
  152.2675  143.4581  157.3078 H   0  0  0  0  0  0  0  0  0  0  0  0
  150.4523  141.9969  159.2856 H   0  0  0  0  0  0  0  0  0  0  0  0
  151.7176  141.3034  158.3191 H   0  0  0  0  0  0  0  0  0  0  0  0
  152.6052  141.4769  160.4804 H   0  0  0  0  0  0  0  0  0  0  0  0
  153.4255  142.7221  159.5849 H   0  0  0  0  0  0  0  0  0  0  0  0
  150.8910  143.3023  161.1975 H   0  0  0  0  0  0  0  0  0  0  0  0
  152.4253  143.2040  161.9956 H   0  0  0  0  0  0  0  0  0  0  0  0
  151.5678  145.5300  161.3177 H   0  0  0  0  0  0  0  0  0  0  0  0
  153.2487  145.1693  161.0792 H   0  0  0  0  0  0  0  0  0  0  0  0
  152.0657  146.4277  159.2186 H   0  0  0  0  0  0  0  0  0  0  0  0
  153.0880  145.1157  158.7386 H   0  0  0  0  0  0  0  0  0  0  0  0
  150.7382  145.4220  157.6494 H   0  0  0  0  0  0  0  0  0  0  0  0
  150.0824  144.6732  159.0769 H   0  0  0  0  0  0  0  0  0  0  0  0
  1  2  2  0  0  0  0
  2  3  1  0  0  0  0
  2  9  1  0  0  0  0
  3  4  1  0  0  0  0
  3 17  1  0  0  0  0
  4  8  1  0  0  0  0
  4  5  2  0  0  0  0
  5  6  1  0  0  0  0
  6  7  2  0  0  0  0
  7  8  1  0  0  0  0
  7 18  1  0  0  0  0
  9 10  1  0  0  0  0
  9 19  1  0  0  0  0
 10 16  1  0  0  0  0
 10 11  1  0  0  0  0
 10 20  1  0  0  0  0
 11 12  1  0  0  0  0
 11 21  1  0  0  0  0
 11 22  1  0  0  0  0
 12 13  1  0  0  0  0
 12 23  1  0  0  0  0
 12 24  1  0  0  0  0
 13 14  1  0  0  0  0
 13 25  1  0  0  0  0
 13 26  1  0  0  0  0
 14 15  1  0  0  0  0
 14 27  1  0  0  0  0
 14 28  1  0  0  0  0
 15 16  1  0  0  0  0
 15 29  1  0  0  0  0
 15 30  1  0  0  0  0
 16 31  1  0  0  0  0
 16 32  1  0  0  0  0
M  END
> <s_m_source_file>
AV-unprocessed.smi

> <i_m_source_file_index>
881

> <i_lp_mmshare_version>
43012

> <i_f3d_flags>
0

> <s_epik_input>
czFbY0hdbm5jMVtOSF1DKD1PKVtOSF1bQ0hdMltDSDJdW0NIMl1bQ0gyXVtDSDJdW0NIMl1bQ0gyXTI=

> <s_epik_cmdline>
J2VwaWtfcHl0aG9uJywgJy1waCcsICc3LjAnLCAnLXRuJywgJzgnLCAnLW1hJywgJzIwMCcsICctbWV0YWxfYmluZGluZycsICctaW1hZScsICc8aW5maWxlLm1hZT4nLCAnLW9tYWUnLCAnPG91dGZpbGUubWFlPic=

> <r_lp_tautomer_probability>
1

> <r_epik_Ionization_Penalty>
0.000320184

> <r_epik_Ionization_Penalty_Charging>
0

> <r_epik_Ionization_Penalty_Neutral>
0.000320184

> <r_epik_State_Penalty>
-0

> <r_epik_Charging_Adjusted_Penalty>
0

> <i_epik_Tot_Q>
0

> <i_epik_Tot_abs_Q>
0

> <r_epik_Metal_State_Penalty>
0.170162

> <b_epik_Metal_Only>
0

> <s_lp_Force_Field>
OPLS_2005

> <r_lp_Energy>
13.8906

> <b_lp_Chiralities_Consistent>
1

> <s_lp_Variant>
AV-unprocessed.smi:881-1

> <Gold.Version>
5.8.1

> <Gold.Id.Protein>
6NUR|6NUR_protein|mol2

> <Gold.PLP.Fitness>
38.9751

> <Gold.PLP.PLP>
-33.8339

> <Gold.PLP.part.hbond>
-1.9065

> <Gold.PLP.part.metal>
0.0000

> <Gold.PLP.part.buried>
-4.8465

> <Gold.PLP.part.nonpolar>
-28.2481

> <Gold.PLP.part.repulsive>
0.5258

> <Gold.PLP.ligand.clash>
0.0000

> <Gold.PLP.ligand.torsion>
0.1734

> <Gold.PLP.Chemscore.Hbond>
1.8247

> <Gold.PLP.Chemscore.CHOScore>
0.0000

> <Gold.PLP.Chemscore.Metal>
0.0000

> <Gold.Chemscore.Hbonds>
donor molecule, donor type, donor heavy atom, donor atom, acceptor molecule, acceptor atom, score
      L1  H     3    17       P1  8028  0.82
      L1  H     9    19       P1  8028  0.99

> <Gold.PLP.Chemscore.Internal.Correction>
0.0137

> <Gold.Rescore>
     Score         DG    S(hbond)    S(metal)    S(lipo)     H(rot)  DE(clash)    DE(int)     intcor
     16.03     -20.09       1.82        0.00      94.75       1.00       1.22       2.84       ----

> <Gold.Chemscore.Fitness>
16.0324

> <Gold.Chemscore.DG>
-20.0928

> <Gold.Chemscore.ZeroCoef>
-5.4800

> <Gold.Chemscore.Hbond>
1.8225

> <Gold.Chemscore.Metal>
0.0000

> <Gold.Chemscore.Lipo>
94.7494

> <Gold.Chemscore.Internal_Hbond>
0.0000

> <Gold.Chemscore.DEClash>
1.2186

> <Gold.Chemscore.DEInternal>
2.8418

> <Gold.Chemscore.Rot>
1.0000

> <Gold.Chemscore.Internal.Correction>
   9.000000E+99

> <Gold.Chemscore.Hbonds>
donor molecule, donor type, donor heavy atom, donor atom, acceptor molecule, acceptor atom, score
      L1  H     3    17       P1  8028  0.76
      L1  H     9    19       P1  8028  0.91

> <Gold.Chemscore.Hbond.Weighted>
-6.0871

> <Gold.Chemscore.Metal.Weighted>
-0.0000

> <Gold.Chemscore.Lipo.Weighted>
-11.0857

> <Gold.Chemscore.Internal_Hbond.Weighted>
0.0000

> <Gold.Chemscore.DEClash.Weighted>
1.2186

> <Gold.Chemscore.DEInternal.Weighted>
2.8418

> <Gold.Chemscore.Rot.Weighted>
2.5600

> <Gold.Chemscore.Internal.Correction.Weighted>
   9.000000E+99

> <Gold.Protein.RotatedTorsions>
[ 6907 6896 6895 6894 ] final -101.74 input  -60.11 | X-H torsion
[ 7974 7965 7964 7962 ] final -105.20 input  175.53 | X-H torsion
[ 8008 7997 7996 7995 ] final -148.69 input   59.86 | X-H torsion
[ 10167 10162 10161 10158 ] final  118.84 input  -65.29 | X-H torsion
[ 10718 10713 10712 10709 ] final   58.10 input   66.30 | X-H torsion
[ 10763 10752 10751 10750 ] final  -40.02 input  -60.55 | X-H torsion
[ 11005 11000 10999 10996 ] final -120.83 input  -57.11 | X-H torsion

> <Gold.Protein.ActiveResidues>
 VAL166  LYS551  ARG553  GLY616  TRP617  ASP618  TYR619  PRO620  LYS621  CYS622 
 ASP623  PHE694  ASN695  SER759  ASP760  ASP761  ALA762  ILE779  LEU786  VAL792 
 PHE793  MET794  SER795  GLU796  ALA797  LYS798  CYS799  TRP800  GLU811  SER814 

> <Gold.Protein.RotatedAtoms>
  150.7167  134.0687  159.3856 H   0  0  0  0  0  0  0  0  0  0  0  0  # atno 6907 bound_to 6896
  151.8669  135.0501  160.0484 H   0  0  0  0  0  0  0  0  0  0  0  0  # atno 6908 bound_to 6896
  152.2673  133.5315  159.5454 H   0  0  0  0  0  0  0  0  0  0  0  0  # atno 6909 bound_to 6896
  145.2335  140.9179  143.3191 H   0  0  0  0  0  0  0  0  0  0  0  0  # atno 7974 bound_to 7965
  155.5956  140.0657  157.2747 H   0  0  0  0  0  0  0  0  0  0  0  0  # atno 8008 bound_to 7997
  154.4293  140.1827  156.1167 H   0  0  0  0  0  0  0  0  0  0  0  0  # atno 8009 bound_to 7997
  156.0199  140.3318  155.7031 H   0  0  0  0  0  0  0  0  0  0  0  0  # atno 8010 bound_to 7997
  139.6085  144.7076  151.2899 H   0  0  0  0  0  0  0  0  0  0  0  0  # atno 10167 bound_to 10162
  157.5569  130.8807  149.9050 H   0  0  0  0  0  0  0  0  0  0  0  0  # atno 10718 bound_to 10713
  153.9390  135.6763  153.4744 H   0  0  0  0  0  0  0  0  0  0  0  0  # atno 10763 bound_to 10752
  153.0941  135.4860  154.8742 H   0  0  0  0  0  0  0  0  0  0  0  0  # atno 10764 bound_to 10752
  154.7387  135.3155  154.8724 H   0  0  0  0  0  0  0  0  0  0  0  0  # atno 10765 bound_to 10752
  141.0115  134.0258  157.3408 H   0  0  0  0  0  0  0  0  0  0  0  0  # atno 11005 bound_to 11000
  144.9655  139.3935  143.6335 LP  0  0  0  0  0  0  0  0  0  0  0  0  # atno 17320 bound_to 7965
  146.3347  139.8728  142.8837 LP  0  0  0  0  0  0  0  0  0  0  0  0  # atno 17321 bound_to 7965
  140.7302  143.6887  150.7940 LP  0  0  0  0  0  0  0  0  0  0  0  0  # atno 17342 bound_to 10162
  140.0477  143.5282  152.2688 LP  0  0  0  0  0  0  0  0  0  0  0  0  # atno 17343 bound_to 10162
  156.0627  130.3697  150.0947 LP  0  0  0  0  0  0  0  0  0  0  0  0  # atno 17370 bound_to 10713
  156.9115  130.9653  151.3562 LP  0  0  0  0  0  0  0  0  0  0  0  0  # atno 17371 bound_to 10713
  139.9092  135.0186  156.7620 LP  0  0  0  0  0  0  0  0  0  0  0  0  # atno 17394 bound_to 11000
  140.6726  133.9546  155.7865 LP  0  0  0  0  0  0  0  0  0  0  0  0  # atno 17395 bound_to 11000

$$$$
