AV-unprocessed.smi:1697|AV-procd|sdf|6812|dock2
  -GOLD-   22720 7593D 1   1.00000     0.00000
 Structure written by MMmdl.
 53 55  0  0  0  0  0  0  0  0  1 V2000
  142.7388  146.5372  154.4475 C   0  0  0  0  0  0  0  0  0  0  0  0
  143.4273  145.1963  154.1573 C   0  0  0  0  0  0  0  0  0  0  0  0
  143.9900  144.6232  155.3305 O   0  0  0  0  0  0  0  0  0  0  0  0
  144.5988  143.3498  155.1511 C   0  0  0  0  0  0  0  0  0  0  0  0
  145.2446  142.8993  156.4712 C   0  0  0  0  0  0  0  0  0  0  0  0
  146.0578  141.6118  156.2560 C   0  0  0  0  0  0  0  0  0  0  0  0
  147.0967  141.7618  155.2346 N   0  0  0  0  0  0  0  0  0  0  0  0
  147.8800  140.5294  155.1170 C   0  0  0  0  0  0  0  0  0  0  0  0
  149.3042  140.6929  154.5482 C   0  0  1  0  0  0  0  0  0  0  0  0
  149.2009  141.1159  153.2027 O   0  0  0  0  0  0  0  0  0  0  0  0
  150.1132  141.7331  155.3460 C   0  0  0  0  0  0  0  0  0  0  0  0
  150.7921  141.1529  156.4913 N   0  0  0  0  0  0  0  0  0  0  0  0
  151.0877  139.8529  156.6821 C   0  0  0  0  0  0  0  0  0  0  0  0
  151.7139  139.5291  157.8095 N   0  0  0  0  0  0  0  0  0  0  0  0
  151.8392  140.7640  158.4225 C   0  0  0  0  0  0  0  0  0  0  0  0
  152.4169  141.1168  159.6617 C   0  0  0  0  0  0  0  0  0  0  0  0
  152.4327  142.4609  160.0975 C   0  0  0  0  0  0  0  0  0  0  0  0
  153.0621  142.7947  161.4385 C   0  0  0  0  0  0  0  0  0  0  0  0
  151.8657  143.4773  159.2873 C   0  0  0  0  0  0  0  0  0  0  0  0
  151.8708  144.9281  159.7353 C   0  0  0  0  0  0  0  0  0  0  0  0
  151.2855  143.1422  158.0459 C   0  0  0  0  0  0  0  0  0  0  0  0
  151.2734  141.8009  157.6240 C   0  0  0  0  0  0  0  0  0  0  0  0
  146.4817  142.1566  153.9618 C   0  0  0  0  0  0  0  0  0  0  0  0
  145.6830  143.4671  154.0696 C   0  0  0  0  0  0  0  0  0  0  0  0
  142.3825  146.9951  153.5245 H   0  0  0  0  0  0  0  0  0  0  0  0
  143.4290  147.2356  154.9211 H   0  0  0  0  0  0  0  0  0  0  0  0
  141.8786  146.4155  155.1056 H   0  0  0  0  0  0  0  0  0  0  0  0
  142.7408  144.4962  153.6789 H   0  0  0  0  0  0  0  0  0  0  0  0
  144.2403  145.3624  153.4503 H   0  0  0  0  0  0  0  0  0  0  0  0
  143.8741  142.5976  154.8322 H   0  0  0  0  0  0  0  0  0  0  0  0
  145.8994  143.6847  156.8512 H   0  0  0  0  0  0  0  0  0  0  0  0
  144.4807  142.7365  157.2316 H   0  0  0  0  0  0  0  0  0  0  0  0
  146.5150  141.3270  157.2045 H   0  0  0  0  0  0  0  0  0  0  0  0
  145.3840  140.7980  155.9829 H   0  0  0  0  0  0  0  0  0  0  0  0
  147.9644  140.0571  156.0971 H   0  0  0  0  0  0  0  0  0  0  0  0
  147.3270  139.8203  154.4989 H   0  0  0  0  0  0  0  0  0  0  0  0
  149.8463  139.7488  154.5710 H   0  0  0  0  0  0  0  0  0  0  0  0
  149.4036  140.3810  152.6440 H   0  0  0  0  0  0  0  0  0  0  0  0
  150.8522  142.2179  154.7067 H   0  0  0  0  0  0  0  0  0  0  0  0
  149.4532  142.5218  155.7095 H   0  0  0  0  0  0  0  0  0  0  0  0
  150.8282  139.1016  155.9505 H   0  0  0  0  0  0  0  0  0  0  0  0
  152.8488  140.3421  160.2781 H   0  0  0  0  0  0  0  0  0  0  0  0
  152.3269  143.2493  162.1028 H   0  0  0  0  0  0  0  0  0  0  0  0
  153.8907  143.4912  161.3088 H   0  0  0  0  0  0  0  0  0  0  0  0
  153.4496  141.9016  161.9299 H   0  0  0  0  0  0  0  0  0  0  0  0
  151.3988  145.5747  158.9951 H   0  0  0  0  0  0  0  0  0  0  0  0
  152.8922  145.2790  159.8833 H   0  0  0  0  0  0  0  0  0  0  0  0
  151.3262  145.0397  160.6729 H   0  0  0  0  0  0  0  0  0  0  0  0
  150.8526  143.9064  157.4173 H   0  0  0  0  0  0  0  0  0  0  0  0
  147.2436  142.2927  153.1964 H   0  0  0  0  0  0  0  0  0  0  0  0
  145.8256  141.3609  153.6056 H   0  0  0  0  0  0  0  0  0  0  0  0
  145.2285  143.7099  153.1087 H   0  0  0  0  0  0  0  0  0  0  0  0
  146.3606  144.2876  154.3107 H   0  0  0  0  0  0  0  0  0  0  0  0
  1  2  1  0  0  0  0
  1 25  1  0  0  0  0
  1 26  1  0  0  0  0
  1 27  1  0  0  0  0
  2  3  1  0  0  0  0
  2 28  1  0  0  0  0
  2 29  1  0  0  0  0
  3  4  1  0  0  0  0
  4 24  1  0  0  0  0
  4  5  1  0  0  0  0
  4 30  1  0  0  0  0
  5  6  1  0  0  0  0
  5 31  1  0  0  0  0
  5 32  1  0  0  0  0
  6  7  1  0  0  0  0
  6 33  1  0  0  0  0
  6 34  1  0  0  0  0
  7  8  1  0  0  0  0
  7 23  1  0  0  0  0
  8  9  1  0  0  0  0
  8 35  1  0  0  0  0
  8 36  1  0  0  0  0
  9 10  1  0  0  0  0
  9 11  1  0  0  0  0
  9 37  1  0  0  0  0
 10 38  1  0  0  0  0
 11 12  1  0  0  0  0
 11 39  1  0  0  0  0
 11 40  1  0  0  0  0
 12 22  1  0  0  0  0
 12 13  1  0  0  0  0
 13 14  2  0  0  0  0
 13 41  1  0  0  0  0
 14 15  1  0  0  0  0
 15 22  2  0  0  0  0
 15 16  1  0  0  0  0
 16 17  2  0  0  0  0
 16 42  1  0  0  0  0
 17 18  1  0  0  0  0
 17 19  1  0  0  0  0
 18 43  1  0  0  0  0
 18 44  1  0  0  0  0
 18 45  1  0  0  0  0
 19 20  1  0  0  0  0
 19 21  2  0  0  0  0
 20 46  1  0  0  0  0
 20 47  1  0  0  0  0
 20 48  1  0  0  0  0
 21 22  1  0  0  0  0
 21 49  1  0  0  0  0
 23 24  1  0  0  0  0
 23 50  1  0  0  0  0
 23 51  1  0  0  0  0
 24 52  1  0  0  0  0
 24 53  1  0  0  0  0
M  END
> <s_m_source_file>
AV-unprocessed.smi

> <i_m_source_file_index>
1697

> <i_lp_mmshare_version>
43012

> <i_f3d_flags>
0

> <s_epik_input>
W0NIM11bQ0gyXU9bQ0hdMVtDSDJdW0NIMl1OKFtDSDJdW0NIMl0xKVtDSDJdW0NASF0oW09IXSlbQ0gyXW4oW2NIXW4yKWMoYzIzKVtjSF1jKFtDSDNdKWMoW2NIXTMpW0NIM10=

> <s_epik_cmdline>
J2VwaWtfcHl0aG9uJywgJy1waCcsICc3LjAnLCAnLXRuJywgJzgnLCAnLW1hJywgJzIwMCcsICctbWV0YWxfYmluZGluZycsICctaW1hZScsICc8aW5maWxlLm1hZT4nLCAnLW9tYWUnLCAnPG91dGZpbGUubWFlPic=

> <r_epik_Ionization_Penalty>
1.9836

> <r_epik_Ionization_Penalty_Charging>
0

> <r_epik_Ionization_Penalty_Neutral>
1.9836

> <r_epik_State_Penalty>
2.07269

> <r_epik_Charging_Adjusted_Penalty>
2.07269

> <i_epik_Tot_Q>
0

> <i_epik_Tot_abs_Q>
0

> <r_epik_Metal_State_Penalty>
2.00215

> <b_epik_Metal_Only>
0

> <s_lp_Force_Field>
OPLS_2005

> <r_lp_Energy>
35.1996

> <b_lp_Chiralities_Consistent>
1

> <s_lp_Variant>
AV-unprocessed.smi:1697-10

> <Gold.Version>
5.8.1

> <Gold.Id.Protein>
6NUR|6NUR_protein|mol2

> <Gold.PLP.Fitness>
57.7934

> <Gold.PLP.PLP>
-53.7024

> <Gold.PLP.part.hbond>
-2.3302

> <Gold.PLP.part.metal>
0.0000

> <Gold.PLP.part.buried>
-6.9452

> <Gold.PLP.part.nonpolar>
-44.0350

> <Gold.PLP.part.repulsive>
0.2065

> <Gold.PLP.ligand.clash>
0.0000

> <Gold.PLP.ligand.torsion>
0.8584

> <Gold.PLP.Chemscore.Hbond>
1.7840

> <Gold.PLP.Chemscore.CHOScore>
0.0000

> <Gold.PLP.Chemscore.Metal>
0.0000

> <Gold.Chemscore.Hbonds>
donor molecule, donor type, donor heavy atom, donor atom, acceptor molecule, acceptor atom, score
      L1  H    10    38       P1  7957  0.80
      P1  H  8011  8017       L1    10  1.00

> <Gold.PLP.Chemscore.Internal.Correction>
0.4558

> <Gold.Rescore>
     Score         DG    S(hbond)    S(metal)    S(lipo)     H(rot)  DE(clash)    DE(int)     intcor
     19.36     -20.28       1.36        0.00     135.70       2.19       0.00       0.92       ----

> <Gold.Chemscore.Fitness>
19.3597

> <Gold.Chemscore.DG>
-20.2849

> <Gold.Chemscore.ZeroCoef>
-5.4800

> <Gold.Chemscore.Hbond>
1.3610

> <Gold.Chemscore.Metal>
0.0000

> <Gold.Chemscore.Lipo>
135.6962

> <Gold.Chemscore.Internal_Hbond>
0.0000

> <Gold.Chemscore.DEClash>
0.0048

> <Gold.Chemscore.DEInternal>
0.9204

> <Gold.Chemscore.Rot>
2.1943

> <Gold.Chemscore.Internal.Correction>
   9.000000E+99

> <Gold.Chemscore.Hbonds>
donor molecule, donor type, donor heavy atom, donor atom, acceptor molecule, acceptor atom, score
      L1  H    10    38       P1  7957  0.74
      P1  H  8011  8017       L1    10  0.34

> <Gold.Chemscore.Hbond.Weighted>
-4.5459

> <Gold.Chemscore.Metal.Weighted>
-0.0000

> <Gold.Chemscore.Lipo.Weighted>
-15.8765

> <Gold.Chemscore.Internal_Hbond.Weighted>
0.0000

> <Gold.Chemscore.DEClash.Weighted>
0.0048

> <Gold.Chemscore.DEInternal.Weighted>
0.9204

> <Gold.Chemscore.Rot.Weighted>
5.6174

> <Gold.Chemscore.Internal.Correction.Weighted>
   9.000000E+99

> <Gold.Protein.RotatedTorsions>
[ 6907 6896 6895 6894 ] final  -50.79 input  -60.11 | X-H torsion
[ 7974 7965 7964 7962 ] final  -25.31 input  175.53 | X-H torsion
[ 8008 7997 7996 7995 ] final  -82.06 input   59.86 | X-H torsion
[ 10167 10162 10161 10158 ] final -170.43 input  -65.29 | X-H torsion
[ 10718 10713 10712 10709 ] final -115.12 input   66.30 | X-H torsion
[ 10763 10752 10751 10750 ] final -170.86 input  -60.55 | X-H torsion
[ 11005 11000 10999 10996 ] final   -6.33 input  -57.11 | X-H torsion

> <Gold.Protein.ActiveResidues>
 VAL166  LYS551  ARG553  GLY616  TRP617  ASP618  TYR619  PRO620  LYS621  CYS622 
 ASP623  PHE694  ASN695  SER759  ASP760  ASP761  ALA762  ILE779  LEU786  VAL792 
 PHE793  MET794  SER795  GLU796  ALA797  LYS798  CYS799  TRP800  GLU811  SER814 

> <Gold.Protein.RotatedAtoms>
  150.8673  134.8039  159.7128 H   0  0  0  0  0  0  0  0  0  0  0  0  # atno 6907 bound_to 6896
  152.4690  134.5003  159.9732 H   0  0  0  0  0  0  0  0  0  0  0  0  # atno 6908 bound_to 6896
  151.5097  133.3449  159.2918 H   0  0  0  0  0  0  0  0  0  0  0  0  # atno 6909 bound_to 6896
  146.1499  140.4868  142.8615 H   0  0  0  0  0  0  0  0  0  0  0  0  # atno 7974 bound_to 7965
  154.6047  140.0638  156.9415 H   0  0  0  0  0  0  0  0  0  0  0  0  # atno 8008 bound_to 7997
  155.2073  140.3320  155.4316 H   0  0  0  0  0  0  0  0  0  0  0  0  # atno 8009 bound_to 7997
  156.2340  140.1854  156.7152 H   0  0  0  0  0  0  0  0  0  0  0  0  # atno 8010 bound_to 7997
  139.5862  144.1313  152.1578 H   0  0  0  0  0  0  0  0  0  0  0  0  # atno 10167 bound_to 10162
  156.0874  130.6063  150.8864 H   0  0  0  0  0  0  0  0  0  0  0  0  # atno 10718 bound_to 10713
  154.6368  135.2893  155.0151 H   0  0  0  0  0  0  0  0  0  0  0  0  # atno 10763 bound_to 10752
  154.1292  135.6536  153.4922 H   0  0  0  0  0  0  0  0  0  0  0  0  # atno 10764 bound_to 10752
  153.0306  135.5306  154.7219 H   0  0  0  0  0  0  0  0  0  0  0  0  # atno 10765 bound_to 10752
  140.7009  133.8991  155.8682 H   0  0  0  0  0  0  0  0  0  0  0  0  # atno 11005 bound_to 11000
  144.7892  140.5997  143.6553 LP  0  0  0  0  0  0  0  0  0  0  0  0  # atno 17320 bound_to 7965
  145.4847  139.1493  143.3742 LP  0  0  0  0  0  0  0  0  0  0  0  0  # atno 17321 bound_to 7965
  140.0877  144.5647  150.7077 LP  0  0  0  0  0  0  0  0  0  0  0  0  # atno 17342 bound_to 10162
  140.7133  143.2523  151.4512 LP  0  0  0  0  0  0  0  0  0  0  0  0  # atno 17343 bound_to 10162
  157.6013  131.0941  150.8955 LP  0  0  0  0  0  0  0  0  0  0  0  0  # atno 17370 bound_to 10713
  156.9112  130.5281  149.5280 LP  0  0  0  0  0  0  0  0  0  0  0  0  # atno 17371 bound_to 10713
  141.0165  134.0949  157.4167 LP  0  0  0  0  0  0  0  0  0  0  0  0  # atno 17394 bound_to 11000
  139.8897  135.0107  156.6695 LP  0  0  0  0  0  0  0  0  0  0  0  0  # atno 17395 bound_to 11000

$$$$
