AV-unprocessed.smi:3318|AV-procd|sdf|12762|dock9
  -GOLD-   2272019103D 1   1.00000     0.00000
 Structure written by MMmdl.
 45 46  0  0  0  0  0  0  0  0  3 V2000
  144.7577  144.1735  154.0153 C   0  0  0  0  0  0  0  0  0  0  0  0
  145.9076  143.2780  153.5412 C   0  0  0  0  0  0  0  0  0  0  0  0
  146.2383  142.1665  154.5528 C   0  0  0  0  0  0  0  0  0  0  0  0
  146.0765  140.8061  153.9786 N   0  3  2  0  0  0  0  0  0  0  0  0
  145.8858  139.7724  155.0291 C   0  0  0  0  0  0  0  0  0  0  0  0
  145.5860  138.3957  154.4105 C   0  0  0  0  0  0  0  0  0  0  0  0
  146.6965  137.9609  153.4398 C   0  0  1  0  0  0  0  0  0  0  0  0
  146.3531  136.6563  152.8281 N   0  3  0  0  0  0  0  0  0  0  0  0
  146.1512  135.5415  153.7796 C   0  0  0  0  0  0  0  0  0  0  0  0
  146.7026  134.2183  153.2254 C   0  0  0  0  0  0  0  0  0  0  0  0
  145.6639  133.4154  152.4625 C   0  0  0  0  0  0  0  0  0  0  0  0
  146.0291  132.2542  151.7482 C   0  0  0  0  0  0  0  0  0  0  0  0
  145.0244  131.5476  151.0588 C   0  0  0  0  0  0  0  0  0  0  0  0
  143.7020  132.0292  151.1069 C   0  0  0  0  0  0  0  0  0  0  0  0
  143.4408  133.1997  151.8465 C   0  0  0  0  0  0  0  0  0  0  0  0
  144.3973  133.8849  152.5100 N   0  0  0  0  0  0  0  0  0  0  0  0
  146.8952  139.0647  152.3826 C   0  0  0  0  0  0  0  0  0  0  0  0
  147.1674  140.4294  153.0404 C   0  0  0  0  0  0  0  0  0  0  0  0
  144.5448  144.9524  153.2829 H   0  0  0  0  0  0  0  0  0  0  0  0
  145.0015  144.6621  154.9590 H   0  0  0  0  0  0  0  0  0  0  0  0
  143.8433  143.5978  154.1618 H   0  0  0  0  0  0  0  0  0  0  0  0
  145.6403  142.8332  152.5819 H   0  0  0  0  0  0  0  0  0  0  0  0
  146.7804  143.9042  153.3590 H   0  0  0  0  0  0  0  0  0  0  0  0
  147.2482  142.2881  154.9477 H   0  0  0  0  0  0  0  0  0  0  0  0
  145.5614  142.2759  155.4015 H   0  0  0  0  0  0  0  0  0  0  0  0
  146.7775  139.7186  155.6558 H   0  0  0  0  0  0  0  0  0  0  0  0
  145.0581  140.0568  155.6803 H   0  0  0  0  0  0  0  0  0  0  0  0
  145.4724  137.6559  155.2040 H   0  0  0  0  0  0  0  0  0  0  0  0
  144.6290  138.4358  153.8873 H   0  0  0  0  0  0  0  0  0  0  0  0
  147.6195  137.8375  154.0090 H   0  0  0  0  0  0  0  0  0  0  0  0
  145.4852  136.7758  152.3244 H   0  0  0  0  0  0  0  0  0  0  0  0
  146.6525  135.7694  154.7200 H   0  0  0  0  0  0  0  0  0  0  0  0
  145.0881  135.4362  154.0010 H   0  0  0  0  0  0  0  0  0  0  0  0
  147.5603  134.4127  152.5797 H   0  0  0  0  0  0  0  0  0  0  0  0
  147.0775  133.6069  154.0475 H   0  0  0  0  0  0  0  0  0  0  0  0
  147.0519  131.9068  151.7304 H   0  0  0  0  0  0  0  0  0  0  0  0
  145.2634  130.6524  150.5040 H   0  0  0  0  0  0  0  0  0  0  0  0
  142.9060  131.5120  150.5918 H   0  0  0  0  0  0  0  0  0  0  0  0
  142.4380  133.5963  151.9067 H   0  0  0  0  0  0  0  0  0  0  0  0
  147.7290  138.8210  151.7241 H   0  0  0  0  0  0  0  0  0  0  0  0
  146.0102  139.1367  151.7488 H   0  0  0  0  0  0  0  0  0  0  0  0
  147.2709  141.1793  152.2571 H   0  0  0  0  0  0  0  0  0  0  0  0
  148.1169  140.4030  153.5773 H   0  0  0  0  0  0  0  0  0  0  0  0
  145.2190  140.8271  153.4450 H   0  0  0  0  0  0  0  0  0  0  0  0
  147.0718  136.3994  152.1666 H   0  0  0  0  0  0  0  0  0  0  0  0
  1  2  1  0  0  0  0
  1 19  1  0  0  0  0
  1 20  1  0  0  0  0
  1 21  1  0  0  0  0
  2  3  1  0  0  0  0
  2 22  1  0  0  0  0
  2 23  1  0  0  0  0
  3  4  1  0  0  0  0
  3 24  1  0  0  0  0
  3 25  1  0  0  0  0
  4 18  1  0  0  0  0
  4  5  1  0  0  0  0
  4 44  1  0  0  0  0
  5  6  1  0  0  0  0
  5 26  1  0  0  0  0
  5 27  1  0  0  0  0
  6  7  1  0  0  0  0
  6 28  1  0  0  0  0
  6 29  1  0  0  0  0
  7  8  1  0  0  0  0
  7 17  1  0  0  0  0
  7 30  1  0  0  0  0
  8  9  1  0  0  0  0
  8 31  1  0  0  0  0
  8 45  1  0  0  0  0
  9 10  1  0  0  0  0
  9 32  1  0  0  0  0
  9 33  1  0  0  0  0
 10 11  1  0  0  0  0
 10 34  1  0  0  0  0
 10 35  1  0  0  0  0
 11 16  1  0  0  0  0
 11 12  2  0  0  0  0
 12 13  1  0  0  0  0
 12 36  1  0  0  0  0
 13 14  2  0  0  0  0
 13 37  1  0  0  0  0
 14 15  1  0  0  0  0
 14 38  1  0  0  0  0
 15 16  2  0  0  0  0
 15 39  1  0  0  0  0
 17 18  1  0  0  0  0
 17 40  1  0  0  0  0
 17 41  1  0  0  0  0
 18 42  1  0  0  0  0
 18 43  1  0  0  0  0
M  CHG  1   4   1
M  CHG  1   8   1
M  END
> <s_m_source_file>
AV-unprocessed.smi

> <i_m_source_file_index>
3318

> <i_lp_mmshare_version>
43012

> <i_f3d_flags>
0

> <s_epik_input>
W0NIM11bQ0gyXVtDSDJdTjFbQ0gyXVtDSDJdW0NIXShbQ0gyXVtDSDJdMSlbTkhdW0NIMl1bQ0gyXWMyW2NIXVtjSF1bY0hdW2NIXW4y

> <s_epik_cmdline>
J2VwaWtfcHl0aG9uJywgJy1waCcsICc3LjAnLCAnLXRuJywgJzgnLCAnLW1hJywgJzIwMCcsICctbWV0YWxfYmluZGluZycsICctaW1hZScsICc8aW5maWxlLm1hZT4nLCAnLW9tYWUnLCAnPG91dGZpbGUubWFlPic=

> <r_epik_Ionization_Penalty>
0.0638186

> <r_epik_Ionization_Penalty_Charging>
0.0628538

> <r_epik_Ionization_Penalty_Neutral>
0.000964829

> <r_epik_State_Penalty>
0.0518488

> <r_epik_Charging_Adjusted_Penalty>
0.114703

> <i_epik_Tot_Q>
2

> <i_epik_Tot_abs_Q>
2

> <r_epik_Metal_State_Penalty>
0.0535981

> <b_epik_Metal_Only>
0

> <s_lp_Force_Field>
OPLS_2005

> <r_lp_Energy>
28.1617

> <b_lp_Chiralities_Consistent>
1

> <s_lp_Variant>
AV-unprocessed.smi:3318-1

> <Gold.Version>
5.8.1

> <Gold.Id.Protein>
6NUR|6NUR_protein|mol2

> <Gold.PLP.Fitness>
46.3036

> <Gold.PLP.PLP>
-33.4094

> <Gold.PLP.part.hbond>
-2.0000

> <Gold.PLP.part.metal>
0.0000

> <Gold.PLP.part.buried>
-3.4849

> <Gold.PLP.part.nonpolar>
-28.0886

> <Gold.PLP.part.repulsive>
0.1176

> <Gold.PLP.ligand.clash>
0.0000

> <Gold.PLP.ligand.torsion>
1.0552

> <Gold.PLP.Chemscore.Hbond>
3.9840

> <Gold.PLP.Chemscore.CHOScore>
1.0000

> <Gold.PLP.Chemscore.Metal>
0.0000

> <Gold.Chemscore.Hbonds>
donor molecule, donor type, donor heavy atom, donor atom, acceptor molecule, acceptor atom, score
      L1  H     4    44       P1 10175  2.00
      L1  H     8    45       P1  7948  1.89
      L1  C    15    39       P1 10186  0.13

> <Gold.PLP.Chemscore.Internal.Correction>
0.0527

> <Gold.Rescore>
     Score         DG    S(hbond)    S(metal)    S(lipo)     H(rot)  DE(clash)    DE(int)     intcor
     16.61     -17.74       1.93        0.00      83.78       1.55       0.13       1.01       ----

> <Gold.Chemscore.Fitness>
16.6062

> <Gold.Chemscore.DG>
-17.7367

> <Gold.Chemscore.ZeroCoef>
-5.4800

> <Gold.Chemscore.Hbond>
1.9254

> <Gold.Chemscore.Metal>
0.0000

> <Gold.Chemscore.Lipo>
83.7795

> <Gold.Chemscore.Internal_Hbond>
0.0000

> <Gold.Chemscore.DEClash>
0.1254

> <Gold.Chemscore.DEInternal>
1.0052

> <Gold.Chemscore.Rot>
1.5532

> <Gold.Chemscore.Internal.Correction>
   9.000000E+99

> <Gold.Chemscore.Hbonds>
donor molecule, donor type, donor heavy atom, donor atom, acceptor molecule, acceptor atom, score
      L1  H     4    44       P1 10175  0.82
      L1  H     8    45       P1  7948  0.91

> <Gold.Chemscore.Hbond.Weighted>
-6.4308

> <Gold.Chemscore.Metal.Weighted>
-0.0000

> <Gold.Chemscore.Lipo.Weighted>
-9.8022

> <Gold.Chemscore.Internal_Hbond.Weighted>
0.0000

> <Gold.Chemscore.DEClash.Weighted>
0.1254

> <Gold.Chemscore.DEInternal.Weighted>
1.0052

> <Gold.Chemscore.Rot.Weighted>
3.9762

> <Gold.Chemscore.Internal.Correction.Weighted>
   9.000000E+99

> <Gold.Protein.RotatedTorsions>
[ 6907 6896 6895 6894 ] final  -52.26 input  -60.11 | X-H torsion
[ 7974 7965 7964 7962 ] final  -80.04 input  175.53 | X-H torsion
[ 8008 7997 7996 7995 ] final -107.70 input   59.86 | X-H torsion
[ 10167 10162 10161 10158 ] final  145.67 input  -65.29 | X-H torsion
[ 10718 10713 10712 10709 ] final  -42.54 input   66.30 | X-H torsion
[ 10763 10752 10751 10750 ] final   59.92 input  -60.55 | X-H torsion
[ 11005 11000 10999 10996 ] final  -15.95 input  -57.11 | X-H torsion

> <Gold.Protein.ActiveResidues>
 VAL166  LYS551  ARG553  GLY616  TRP617  ASP618  TYR619  PRO620  LYS621  CYS622 
 ASP623  PHE694  ASN695  SER759  ASP760  ASP761  ALA762  ILE779  LEU786  VAL792 
 PHE793  MET794  SER795  GLU796  ALA797  LYS798  CYS799  TRP800  GLU811  SER814 

> <Gold.Protein.RotatedAtoms>
  150.8535  134.7866  159.7026 H   0  0  0  0  0  0  0  0  0  0  0  0  # atno 6907 bound_to 6896
  152.4593  134.5218  159.9794 H   0  0  0  0  0  0  0  0  0  0  0  0  # atno 6908 bound_to 6896
  151.5334  133.3407  159.2958 H   0  0  0  0  0  0  0  0  0  0  0  0  # atno 6909 bound_to 6896
  145.5652  140.9475  143.1425 H   0  0  0  0  0  0  0  0  0  0  0  0  # atno 7974 bound_to 7965
  154.9333  140.0404  157.2059 H   0  0  0  0  0  0  0  0  0  0  0  0  # atno 8008 bound_to 7997
  154.8139  140.2872  155.5812 H   0  0  0  0  0  0  0  0  0  0  0  0  # atno 8009 bound_to 7997
  156.2974  140.2531  156.3033 H   0  0  0  0  0  0  0  0  0  0  0  0  # atno 8010 bound_to 7997
  139.4921  144.5885  151.6730 H   0  0  0  0  0  0  0  0  0  0  0  0  # atno 10167 bound_to 10162
  156.2585  130.4194  149.8569 H   0  0  0  0  0  0  0  0  0  0  0  0  # atno 10718 bound_to 10713
  152.9907  135.5554  154.5791 H   0  0  0  0  0  0  0  0  0  0  0  0  # atno 10763 bound_to 10752
  154.5176  135.2806  155.1292 H   0  0  0  0  0  0  0  0  0  0  0  0  # atno 10764 bound_to 10752
  154.2659  135.6372  153.5344 H   0  0  0  0  0  0  0  0  0  0  0  0  # atno 10765 bound_to 10752
  140.8018  133.8208  155.9477 H   0  0  0  0  0  0  0  0  0  0  0  0  # atno 11005 bound_to 11000
  144.7464  139.7310  143.7290 LP  0  0  0  0  0  0  0  0  0  0  0  0  # atno 17320 bound_to 7965
  146.1823  139.5021  142.9858 LP  0  0  0  0  0  0  0  0  0  0  0  0  # atno 17321 bound_to 7965
  140.5506  144.0431  150.6125 LP  0  0  0  0  0  0  0  0  0  0  0  0  # atno 17342 bound_to 10162
  140.3484  143.2977  152.0513 LP  0  0  0  0  0  0  0  0  0  0  0  0  # atno 17343 bound_to 10162
  156.6093  130.8580  151.3450 LP  0  0  0  0  0  0  0  0  0  0  0  0  # atno 17370 bound_to 10713
  157.7241  130.9599  150.1562 LP  0  0  0  0  0  0  0  0  0  0  0  0  # atno 17371 bound_to 10713
  140.9287  134.2050  157.4879 LP  0  0  0  0  0  0  0  0  0  0  0  0  # atno 17394 bound_to 11000
  139.8721  134.9823  156.5152 LP  0  0  0  0  0  0  0  0  0  0  0  0  # atno 17395 bound_to 11000

$$$$
