#       Name:                AV-unprocessed.smi:1940
#       Creating user name   scv26
#       Creation time:       Fri Mar 27 09:58:47 2020


#       File generated by GOLD software.
#

@<TRIPOS>MOLECULE
AV-unprocessed.smi:1940
    55    57     1
SMALL
NO_CHARGES


@<TRIPOS>ATOM
      1 ****        -4.7647  -2.0125  -3.1980 C.3            1 S1                 0.0000
      2 ****        -4.3255  -1.4075  -1.8568 C.3            1 S1                 0.0000
      3 ****        -2.8665  -1.3054  -1.8317 N.am           1 S1                 0.0000
      4 ****        -2.1602  -0.3779  -1.1695 C.2            1 S1                 0.0000
      5 ****        -2.6717   0.5309  -0.5163 O.2            1 S1                 0.0000
      6 ****        -0.8396  -0.5682  -1.3303 N.am           1 S1                 0.0000
      7 ****         0.2357   0.1448  -0.7339 C.ar           1 S1                 0.0000
      8 ****         1.5144   0.0174  -1.3184 C.ar           1 S1                 0.0000
      9 ****         2.6154   0.6886  -0.7481 C.ar           1 S1                 0.0000
     10 ****         2.4217   1.4757   0.4097 C.ar           1 S1                 0.0000
     11 ****         3.4539   2.1756   1.0482 N.3            1 S1                 0.0000
     12 ****         4.4725   1.2966   1.6176 C.3            1 S1                 0.0000
     13 ****         5.4765   2.0977   2.4648 C.3            1 S1                 0.0000
     14 ****         6.0850   3.2506   1.6501 C.3            1 S1                 0.0000
     15 ****         4.9700   4.1248   1.0539 C.3            1 S1                 0.0000
     16 ****         3.9804   3.2728   0.2404 C.3            1 S1                 0.0000
     17 ****         1.1856   1.5654   0.9465 N.pl3          1 S1                 1.0000
     18 ****         0.1050   0.9396   0.4316 C.ar           1 S1                 0.0000
     19 ****        -4.8693  -2.2184  -0.6572 C.3            1 S1                 0.0000
     20 ****        -4.2829  -3.6236  -0.4649 C.3            1 S1                 0.0000
     21 ****        -4.4427  -3.8239   1.0248 C.3            1 S1                 0.0000
     22 ****        -4.1307  -2.4285   1.5526 C.3            1 S1                 0.0000
     23 ****        -4.6428  -1.5313   0.5730 O.3            1 S1                 0.0000
     24 ****        -5.8514  -2.0743  -3.2627 H              1 S1                 0.0000
     25 ****        -4.3669  -3.0187  -3.3334 H              1 S1                 0.0000
     26 ****        -4.4208  -1.4042  -4.0350 H              1 S1                 0.0000
     27 ****        -4.7513  -0.4037  -1.8067 H              1 S1                 0.0000
     28 ****        -2.3586  -2.0083  -2.3479 H              1 S1                 0.0000
     29 ****        -0.5727  -1.3007  -1.9717 H              1 S1                 0.0000
     30 ****         1.6546  -0.5886  -2.2018 H              1 S1                 0.0000
     31 ****         3.5941   0.5955  -1.1959 H              1 S1                 0.0000
     32 ****         3.9960   0.5324   2.2332 H              1 S1                 0.0000
     33 ****         4.9994   0.7790   0.8148 H              1 S1                 0.0000
     34 ****         4.9734   2.4986   3.3460 H              1 S1                 0.0000
     35 ****         6.2655   1.4402   2.8307 H              1 S1                 0.0000
     36 ****         6.7421   3.8525   2.2785 H              1 S1                 0.0000
     37 ****         6.7038   2.8467   0.8476 H              1 S1                 0.0000
     38 ****         4.4368   4.6351   1.8572 H              1 S1                 0.0000
     39 ****         5.3999   4.9034   0.4235 H              1 S1                 0.0000
     40 ****         4.4797   2.8698  -0.6420 H              1 S1                 0.0000
     41 ****         3.1587   3.8968  -0.1136 H              1 S1                 0.0000
     42 ****        -0.8106   1.0919   0.9829 H              1 S1                 0.0000
     43 ****        -5.9525  -2.3086  -0.7522 H              1 S1                 0.0000
     44 ****        -4.7993  -4.3817  -1.0540 H              1 S1                 0.0000
     45 ****        -3.2244  -3.6594  -0.7227 H              1 S1                 0.0000
     46 ****        -5.4726  -4.0953   1.2605 H              1 S1                 0.0000
     47 ****        -3.7827  -4.5917   1.4292 H              1 S1                 0.0000
     48 ****        -4.5677  -2.2422   2.5338 H              1 S1                 0.0000
     49 ****        -3.0523  -2.2816   1.6268 H              1 S1                 0.0000
     50 ****         1.0616   2.1314   1.7863 H              1 S1                 0.0000
     51 ****        -3.6672   0.6063  -0.4587 LP             1 S1                 0.0000
     52 ****        -2.0919   1.1942  -0.0431 LP             1 S1                 0.0000
     53 ****         3.0425   2.6243   1.8416 LP             1 S1                 0.0000
     54 ****        -5.5056  -1.1446   0.8987 LP             1 S1                 0.0000
     55 ****        -3.9831  -0.7949   0.4230 LP             1 S1                 0.0000
@<TRIPOS>BOND
    1    1    2 1     
    2    1   24 1     
    3    1   25 1     
    4    1   26 1     
    5    2    3 1     
    6    2   19 1     
    7    2   27 1     
    8    3    4 am    
    9    3   28 1     
   10    4    5 2     
   11    4    6 am    
   12    6    7 1     
   13    6   29 1     
   14    7   18 ar    
   15    7    8 ar    
   16    8    9 ar    
   17    8   30 1     
   18    9   10 ar    
   19    9   31 1     
   20   10   11 1     
   21   10   17 ar    
   22   11   16 1     
   23   11   12 1     
   24   12   13 1     
   25   12   32 1     
   26   12   33 1     
   27   13   14 1     
   28   13   34 1     
   29   13   35 1     
   30   14   15 1     
   31   14   36 1     
   32   14   37 1     
   33   15   16 1     
   34   15   38 1     
   35   15   39 1     
   36   16   40 1     
   37   16   41 1     
   38   17   18 ar    
   39   17   50 1     
   40   18   42 1     
   41   19   23 1     
   42   19   20 1     
   43   19   43 1     
   44   20   21 1     
   45   20   44 1     
   46   20   45 1     
   47   21   22 1     
   48   21   46 1     
   49   21   47 1     
   50   22   23 1     
   51   22   48 1     
   52   22   49 1     
   53    5   51 1     
   54    5   52 1     
   55   11   53 1     
   56   23   54 1     
   57   23   55 1     
@<TRIPOS>SUBSTRUCTURE
      1 S1             1
@<TRIPOS>SET
LONE_PAIRS      STATIC     ATOMS    <user>   **** ""
5 51 52 53 54 55
DONOR_HYDROGENS      STATIC     ATOMS    <user>   **** ""
3 28 29 50
ATOM$BLUE        STATIC     ATOMS    COLORGROUP SYSTEM
5 51 52 53 54 55
ATOM$RED        STATIC     ATOMS    COLORGROUP SYSTEM
3 28 29 50
