AV-unprocessed.smi:3056|AV-procd|sdf|11653|dock10
  -GOLD-   2272017 53D 1   1.00000     0.00000
 Structure written by MMmdl.
 47 48  0  0  0  0  0  0  0  0  1 V2000
  153.8732  141.8315  162.1055 C   0  0  0  0  0  0  0  0  0  0  0  0
  153.4637  141.3448  160.7455 C   0  0  0  0  0  0  0  0  0  0  0  0
  154.1408  140.4150  159.9064 C   0  0  0  0  0  0  0  0  0  0  0  0
  153.5098  140.1987  158.7640 N   0  0  0  0  0  0  0  0  0  0  0  0
  152.4083  140.9772  158.8311 N   0  0  0  0  0  0  0  0  0  0  0  0
  151.4623  140.9958  157.7224 C   0  0  2  0  0  0  0  0  0  0  0  0
  152.0409  140.1886  156.5448 C   0  0  0  0  0  0  0  0  0  0  0  0
  151.0742  142.4453  157.3259 C   0  0  2  0  0  0  0  0  0  0  0  0
  150.1183  143.1139  158.3368 C   0  0  0  0  0  0  0  0  0  0  0  0
  150.4218  142.4112  156.0153 N   0  0  0  0  0  0  0  0  0  0  0  0
  149.3639  141.3917  155.8830 C   0  0  0  0  0  0  0  0  0  0  0  0
  148.4893  141.5242  154.6191 C   0  0  0  0  0  0  0  0  0  0  0  0
  149.0296  141.4628  153.5131 O   0  0  0  0  0  0  0  0  0  0  0  0
  147.1536  141.7034  154.7544 N   0  0  0  0  0  0  0  0  0  0  0  0
  146.2663  141.9978  153.6270 C   0  0  0  0  0  0  0  0  0  0  0  0
  145.7370  143.4322  153.8072 C   0  0  0  0  0  0  0  0  0  0  0  0
  145.0714  143.5483  155.0643 O   0  0  0  0  0  0  0  0  0  0  0  0
  145.8960  143.2184  156.1826 C   0  0  1  0  0  0  0  0  0  0  0  0
  145.0664  143.3944  157.4589 C   0  0  0  0  0  0  0  0  0  0  0  0
  146.4087  141.7744  156.0140 C   0  0  0  0  0  0  0  0  0  0  0  0
  152.3598  141.6836  160.0161 C   0  0  0  0  0  0  0  0  0  0  0  0
  154.8417  141.4306  162.4051 H   0  0  0  0  0  0  0  0  0  0  0  0
  153.1535  141.5382  162.8698 H   0  0  0  0  0  0  0  0  0  0  0  0
  153.9520  142.9183  162.1368 H   0  0  0  0  0  0  0  0  0  0  0  0
  155.0679  139.8936  160.0934 H   0  0  0  0  0  0  0  0  0  0  0  0
  150.5576  140.4841  158.0581 H   0  0  0  0  0  0  0  0  0  0  0  0
  151.3174  140.0811  155.7368 H   0  0  0  0  0  0  0  0  0  0  0  0
  152.3218  139.1836  156.8612 H   0  0  0  0  0  0  0  0  0  0  0  0
  152.9292  140.6671  156.1311 H   0  0  0  0  0  0  0  0  0  0  0  0
  151.9912  143.0335  157.2840 H   0  0  0  0  0  0  0  0  0  0  0  0
  150.5726  143.2011  159.3236 H   0  0  0  0  0  0  0  0  0  0  0  0
  149.1983  142.5393  158.4483 H   0  0  0  0  0  0  0  0  0  0  0  0
  149.8430  144.1236  158.0339 H   0  0  0  0  0  0  0  0  0  0  0  0
  150.0626  143.3298  155.7968 H   0  0  0  0  0  0  0  0  0  0  0  0
  149.8362  140.4093  155.8609 H   0  0  0  0  0  0  0  0  0  0  0  0
  148.7411  141.4215  156.7758 H   0  0  0  0  0  0  0  0  0  0  0  0
  146.7598  141.9063  152.6587 H   0  0  0  0  0  0  0  0  0  0  0  0
  145.4392  141.2866  153.6147 H   0  0  0  0  0  0  0  0  0  0  0  0
  146.5521  144.1556  153.7509 H   0  0  0  0  0  0  0  0  0  0  0  0
  145.0348  143.6793  153.0111 H   0  0  0  0  0  0  0  0  0  0  0  0
  146.7416  143.9080  156.2176 H   0  0  0  0  0  0  0  0  0  0  0  0
  145.6577  143.1651  158.3457 H   0  0  0  0  0  0  0  0  0  0  0  0
  144.1957  142.7383  157.4570 H   0  0  0  0  0  0  0  0  0  0  0  0
  144.7106  144.4206  157.5536 H   0  0  0  0  0  0  0  0  0  0  0  0
  145.5666  141.0818  155.9696 H   0  0  0  0  0  0  0  0  0  0  0  0
  146.9865  141.4659  156.8837 H   0  0  0  0  0  0  0  0  0  0  0  0
  151.5486  142.3606  160.2411 H   0  0  0  0  0  0  0  0  0  0  0  0
  1  2  1  0  0  0  0
  1 22  1  0  0  0  0
  1 23  1  0  0  0  0
  1 24  1  0  0  0  0
  2 21  2  0  0  0  0
  2  3  1  0  0  0  0
  3  4  2  0  0  0  0
  3 25  1  0  0  0  0
  4  5  1  0  0  0  0
  5  6  1  0  0  0  0
  5 21  1  0  0  0  0
  6  7  1  0  0  0  0
  6  8  1  0  0  0  0
  6 26  1  0  0  0  0
  7 27  1  0  0  0  0
  7 28  1  0  0  0  0
  7 29  1  0  0  0  0
  8  9  1  0  0  0  0
  8 10  1  0  0  0  0
  8 30  1  0  0  0  0
  9 31  1  0  0  0  0
  9 32  1  0  0  0  0
  9 33  1  0  0  0  0
 10 11  1  0  0  0  0
 10 34  1  0  0  0  0
 11 12  1  0  0  0  0
 11 35  1  0  0  0  0
 11 36  1  0  0  0  0
 12 13  2  0  0  0  0
 12 14  1  0  0  0  0
 14 20  1  0  0  0  0
 14 15  1  0  0  0  0
 15 16  1  0  0  0  0
 15 37  1  0  0  0  0
 15 38  1  0  0  0  0
 16 17  1  0  0  0  0
 16 39  1  0  0  0  0
 16 40  1  0  0  0  0
 17 18  1  0  0  0  0
 18 19  1  0  0  0  0
 18 20  1  0  0  0  0
 18 41  1  0  0  0  0
 19 42  1  0  0  0  0
 19 43  1  0  0  0  0
 19 44  1  0  0  0  0
 20 45  1  0  0  0  0
 20 46  1  0  0  0  0
 21 47  1  0  0  0  0
M  END
> <s_m_source_file>
AV-unprocessed.smi

> <i_m_source_file_index>
3056

> <i_lp_mmshare_version>
43012

> <i_f3d_flags>
0

> <s_epik_input>
W0NIM11jMVtjSF1ubihbY0hdMSlbQ0BIXShbQ0gzXSlbQ0BIXShbQ0gzXSlbTkhdW0NIMl1DKD1PKU4yW0NIMl1bQ0gyXU9bQ0BASF0oW0NIM10pW0NIMl0y

> <s_epik_cmdline>
J2VwaWtfcHl0aG9uJywgJy1waCcsICc3LjAnLCAnLXRuJywgJzgnLCAnLW1hJywgJzIwMCcsICctbWV0YWxfYmluZGluZycsICctaW1hZScsICc8aW5maWxlLm1hZT4nLCAnLW9tYWUnLCAnPG91dGZpbGUubWFlPic=

> <r_lp_tautomer_probability>
1

> <r_epik_Ionization_Penalty>
0.667689

> <r_epik_Ionization_Penalty_Charging>
0

> <r_epik_Ionization_Penalty_Neutral>
0.667689

> <r_epik_State_Penalty>
0.684601

> <r_epik_Charging_Adjusted_Penalty>
0.684601

> <i_epik_Tot_Q>
0

> <i_epik_Tot_abs_Q>
0

> <r_epik_Metal_State_Penalty>
0.681448

> <b_epik_Metal_Only>
0

> <s_lp_Force_Field>
OPLS_2005

> <r_lp_Energy>
29.7123

> <b_lp_Chiralities_Consistent>
1

> <s_lp_Variant>
AV-unprocessed.smi:3056-9

> <Gold.Version>
5.8.1

> <Gold.Id.Protein>
6NUR|6NUR_protein|mol2

> <Gold.PLP.Fitness>
46.4855

> <Gold.PLP.PLP>
-39.1608

> <Gold.PLP.part.hbond>
-3.9721

> <Gold.PLP.part.metal>
0.0000

> <Gold.PLP.part.buried>
-4.0415

> <Gold.PLP.part.nonpolar>
-33.5697

> <Gold.PLP.part.repulsive>
2.4105

> <Gold.PLP.ligand.clash>
0.0000

> <Gold.PLP.ligand.torsion>
0.5888

> <Gold.PLP.Chemscore.Hbond>
2.8080

> <Gold.PLP.Chemscore.CHOScore>
0.0000

> <Gold.PLP.Chemscore.Metal>
0.0000

> <Gold.Chemscore.Hbonds>
donor molecule, donor type, donor heavy atom, donor atom, acceptor molecule, acceptor atom, score
      L1  H    10    34       P1  8028  1.00
      P1  H  7997  8008       L1     4  0.94
      P1  H  8011  8017       L1    13  0.85

> <Gold.PLP.Chemscore.Internal.Correction>
0.0782

> <Gold.Rescore>
     Score         DG    S(hbond)    S(metal)    S(lipo)     H(rot)  DE(clash)    DE(int)     intcor
     17.98     -19.47       2.47        0.00      85.90       1.68       0.03       1.46       ----

> <Gold.Chemscore.Fitness>
17.9805

> <Gold.Chemscore.DG>
-19.4735

> <Gold.Chemscore.ZeroCoef>
-5.4800

> <Gold.Chemscore.Hbond>
2.4678

> <Gold.Chemscore.Metal>
0.0000

> <Gold.Chemscore.Lipo>
85.8966

> <Gold.Chemscore.Internal_Hbond>
0.0000

> <Gold.Chemscore.DEClash>
0.0312

> <Gold.Chemscore.DEInternal>
1.4618

> <Gold.Chemscore.Rot>
1.6793

> <Gold.Chemscore.Internal.Correction>
   9.000000E+99

> <Gold.Chemscore.Hbonds>
donor molecule, donor type, donor heavy atom, donor atom, acceptor molecule, acceptor atom, score
      L1  H    10    34       P1  8028  1.00
      P1  H  7997  8008       L1     4  0.78
      P1  H  8011  8017       L1    13  0.83

> <Gold.Chemscore.Hbond.Weighted>
-8.2426

> <Gold.Chemscore.Metal.Weighted>
-0.0000

> <Gold.Chemscore.Lipo.Weighted>
-10.0499

> <Gold.Chemscore.Internal_Hbond.Weighted>
0.0000

> <Gold.Chemscore.DEClash.Weighted>
0.0312

> <Gold.Chemscore.DEInternal.Weighted>
1.4618

> <Gold.Chemscore.Rot.Weighted>
4.2990

> <Gold.Chemscore.Internal.Correction.Weighted>
   9.000000E+99

> <Gold.Protein.RotatedTorsions>
[ 6907 6896 6895 6894 ] final  123.96 input  -60.11 | X-H torsion
[ 7974 7965 7964 7962 ] final -158.04 input  175.53 | X-H torsion
[ 8008 7997 7996 7995 ] final  -94.84 input   59.86 | X-H torsion
[ 10167 10162 10161 10158 ] final  104.73 input  -65.29 | X-H torsion
[ 10718 10713 10712 10709 ] final -178.74 input   66.30 | X-H torsion
[ 10763 10752 10751 10750 ] final -122.39 input  -60.55 | X-H torsion
[ 11005 11000 10999 10996 ] final  108.30 input  -57.11 | X-H torsion

> <Gold.Protein.ActiveResidues>
 VAL166  LYS551  ARG553  GLY616  TRP617  ASP618  TYR619  PRO620  LYS621  CYS622 
 ASP623  PHE694  ASN695  SER759  ASP760  ASP761  ALA762  ILE779  LEU786  VAL792 
 PHE793  MET794  SER795  GLU796  ALA797  LYS798  CYS799  TRP800  GLU811  SER814 

> <Gold.Protein.RotatedAtoms>
  152.4118  133.6975  159.6404 H   0  0  0  0  0  0  0  0  0  0  0  0  # atno 6907 bound_to 6896
  150.7998  133.8610  159.3241 H   0  0  0  0  0  0  0  0  0  0  0  0  # atno 6908 bound_to 6896
  151.6351  135.1020  160.0181 H   0  0  0  0  0  0  0  0  0  0  0  0  # atno 6909 bound_to 6896
  144.7522  140.3884  143.6039 H   0  0  0  0  0  0  0  0  0  0  0  0  # atno 7974 bound_to 7965
  154.7536  140.0485  157.0914 H   0  0  0  0  0  0  0  0  0  0  0  0  # atno 8008 bound_to 7997
  155.0026  140.3126  155.4842 H   0  0  0  0  0  0  0  0  0  0  0  0  # atno 8009 bound_to 7997
  156.2890  140.2198  156.5136 H   0  0  0  0  0  0  0  0  0  0  0  0  # atno 8010 bound_to 7997
  139.7152  144.7069  151.0961 H   0  0  0  0  0  0  0  0  0  0  0  0  # atno 10167 bound_to 10162
  156.8487  130.9711  151.3094 H   0  0  0  0  0  0  0  0  0  0  0  0  # atno 10718 bound_to 10713
  154.8688  135.4134  154.2774 H   0  0  0  0  0  0  0  0  0  0  0  0  # atno 10763 bound_to 10752
  153.3673  135.7006  153.6670 H   0  0  0  0  0  0  0  0  0  0  0  0  # atno 10764 bound_to 10752
  153.5547  135.3622  155.2746 H   0  0  0  0  0  0  0  0  0  0  0  0  # atno 10765 bound_to 10752
  139.8842  134.9426  156.5952 H   0  0  0  0  0  0  0  0  0  0  0  0  # atno 11005 bound_to 11000
  145.6903  139.1637  143.2650 LP  0  0  0  0  0  0  0  0  0  0  0  0  # atno 17320 bound_to 7965
  146.1488  140.6955  142.9332 LP  0  0  0  0  0  0  0  0  0  0  0  0  # atno 17321 bound_to 7965
  140.7742  143.5239  150.9504 LP  0  0  0  0  0  0  0  0  0  0  0  0  # atno 17342 bound_to 10162
  139.8925  143.6936  152.3143 LP  0  0  0  0  0  0  0  0  0  0  0  0  # atno 17343 bound_to 10162
  157.6315  130.8733  149.9283 LP  0  0  0  0  0  0  0  0  0  0  0  0  # atno 17370 bound_to 10713
  156.0840  130.3670  150.0524 LP  0  0  0  0  0  0  0  0  0  0  0  0  # atno 17371 bound_to 10713
  140.7926  133.8570  155.8658 LP  0  0  0  0  0  0  0  0  0  0  0  0  # atno 17394 bound_to 11000
  140.9664  134.1588  157.4612 LP  0  0  0  0  0  0  0  0  0  0  0  0  # atno 17395 bound_to 11000

$$$$
