#       Name:                AV-unprocessed.smi:2936
#       Creating user name   scv26
#       Creation time:       Fri Mar 27 16:15:06 2020


#       File generated by GOLD software.
#

@<TRIPOS>MOLECULE
AV-unprocessed.smi:2936
    29    30     1
SMALL
NO_CHARGES


@<TRIPOS>ATOM
      1 ****        -3.1203   2.9975  -0.0149 O.2            1 S1                 0.0000
      2 ****        -2.8927   1.7888  -0.0130 C.2            1 S1                 0.0000
      3 ****        -3.8969   0.8596  -0.0180 N.pl3          1 S1                -1.0000
      4 ****        -3.5815  -0.5521  -0.0164 N.2            1 S1                 0.0000
      5 ****        -2.3718  -0.9528  -0.0092 C.2            1 S1                 0.0000
      6 ****        -1.2276  -0.0166  -0.0023 C.2            1 S1                 0.0000
      7 ****         0.0665  -0.5150   0.0063 N.pl3          1 S1                 0.0000
      8 ****         0.8183  -0.7729   1.2251 C.3            1 S1                 0.0000
      9 ****         2.1676  -0.0338   1.1840 C.3            1 S1                 0.0000
     10 ****         2.8799  -0.4053   0.0066 O.3            1 S1                 0.0000
     11 ****         2.1684  -0.0693  -1.1820 C.3            1 S1                 0.0000
     12 ****         0.8201  -0.8109  -1.2026 C.3            1 S1                 0.0000
     13 ****        -1.5037   1.3131  -0.0048 C.2            1 S1                 0.0000
     14 ****        -0.2327   2.4907  -0.0003 Cl             1 S1                 0.0000
     15 ****        -2.1163  -2.0157  -0.0074 H              1 S1                 0.0000
     16 ****         0.2411  -0.4569   2.0949 H              1 S1                 0.0000
     17 ****         0.9782  -1.8474   1.3208 H              1 S1                 0.0000
     18 ****         2.0235   1.0470   1.2087 H              1 S1                 0.0000
     19 ****         2.7649  -0.2941   2.0575 H              1 S1                 0.0000
     20 ****         2.0227   1.0101  -1.2384 H              1 S1                 0.0000
     21 ****         2.7672  -0.3545  -2.0468 H              1 S1                 0.0000
     22 ****         0.9809  -1.8877  -1.2645 H              1 S1                 0.0000
     23 ****         0.2443  -0.5224  -2.0827 H              1 S1                 0.0000
     24 ****        -2.3618   3.6492  -0.0109 LP             1 S1                 0.0000
     25 ****        -4.0639   3.3286  -0.0205 LP             1 S1                 0.0000
     26 ****        -4.8516   1.1572  -0.0228 LP             1 S1                 0.0000
     27 ****        -4.3231  -1.2229  -0.0210 LP             1 S1                 0.0000
     28 ****         3.0336  -1.3933   0.0215 LP             1 S1                 0.0000
     29 ****         3.7603   0.0689  -0.0002 LP             1 S1                 0.0000
@<TRIPOS>BOND
    1    1    2 2     
    2    2   13 1     
    3    2    3 1     
    4    3    4 1     
    5    4    5 2     
    6    5    6 1     
    7    5   15 1     
    8    6    7 1     
    9    6   13 2     
   10    7   12 1     
   11    7    8 1     
   12    8    9 1     
   13    8   16 1     
   14    8   17 1     
   15    9   10 1     
   16    9   18 1     
   17    9   19 1     
   18   10   11 1     
   19   11   12 1     
   20   11   20 1     
   21   11   21 1     
   22   12   22 1     
   23   12   23 1     
   24   13   14 1     
   25    1   24 1     
   26    1   25 1     
   27    3   26 1     
   28    4   27 1     
   29   10   28 1     
   30   10   29 1     
@<TRIPOS>SUBSTRUCTURE
      1 S1             1
@<TRIPOS>SET
LONE_PAIRS      STATIC     ATOMS    <user>   **** ""
6 24 25 26 27 28 29
ATOM$BLUE        STATIC     ATOMS    COLORGROUP SYSTEM
6 24 25 26 27 28 29
