AV-unprocessed.smi:69|AV-procd|sdf|643|dock6
  -GOLD-   2262016533D 1   1.00000     0.00000
 Structure written by MMmdl.
 32 34  0  0  0  0  0  0  0  0  1 V2000
  150.7678  134.2228  156.8330 N   0  0  0  0  0  0  0  0  0  0  0  0
  150.5550  135.5433  156.9179 C   0  0  0  0  0  0  0  0  0  0  0  0
  150.0481  136.0405  158.0703 N   0  0  0  0  0  0  0  0  0  0  0  0
  149.8250  137.3542  158.1786 C   0  0  0  0  0  0  0  0  0  0  0  0
  150.0337  138.3146  157.2740 N   0  0  0  0  0  0  0  0  0  0  0  0
  150.5454  137.8116  156.1124 C   0  0  0  0  0  0  0  0  0  0  0  0
  150.8348  136.4423  155.8576 C   0  0  0  0  0  0  0  0  0  0  0  0
  151.3449  136.2970  154.5748 N   0  0  0  0  0  0  0  0  0  0  0  0
  151.3540  137.5141  154.1010 C   0  0  0  0  0  0  0  0  0  0  0  0
  150.8850  138.4869  154.9572 N   0  0  0  0  0  0  0  0  0  0  0  0
  150.7696  139.9542  154.6948 C   0  0  2  0  0  0  0  0  0  0  0  0
  151.4084  140.6318  155.7326 O   0  0  0  0  0  0  0  0  0  0  0  0
  150.6321  141.7600  156.1179 C   0  0  2  0  0  0  0  0  0  0  0  0
  150.9691  142.1537  157.5641 C   0  0  0  0  0  0  0  0  0  0  0  0
  150.3319  143.3688  157.8969 O   0  0  0  0  0  0  0  0  0  0  0  0
  149.2007  141.2511  155.9394 C   0  0  1  0  0  0  0  0  0  0  0  0
  148.2536  142.2988  155.8383 O   0  0  0  0  0  0  0  0  0  0  0  0
  149.2950  140.3933  154.6790 C   0  0  1  0  0  0  0  0  0  0  0  0
  148.9986  141.1302  153.5060 O   0  0  0  0  0  0  0  0  0  0  0  0
  151.2909  140.1136  153.7493 H   0  0  0  0  0  0  0  0  0  0  0  0
  150.8204  142.5828  155.4250 H   0  0  0  0  0  0  0  0  0  0  0  0
  148.9278  140.6186  156.7843 H   0  0  0  0  0  0  0  0  0  0  0  0
  148.6261  139.5326  154.7276 H   0  0  0  0  0  0  0  0  0  0  0  0
  151.1445  133.8284  155.9830 H   0  0  0  0  0  0  0  0  0  0  0  0
  150.5501  133.6253  157.6173 H   0  0  0  0  0  0  0  0  0  0  0  0
  149.4213  137.6834  159.1247 H   0  0  0  0  0  0  0  0  0  0  0  0
  151.7018  137.7365  153.1026 H   0  0  0  0  0  0  0  0  0  0  0  0
  150.6031  141.3943  158.2556 H   0  0  0  0  0  0  0  0  0  0  0  0
  152.0464  142.2343  157.7125 H   0  0  0  0  0  0  0  0  0  0  0  0
  149.8377  143.6641  157.1474 H   0  0  0  0  0  0  0  0  0  0  0  0
  148.7090  143.0910  155.5968 H   0  0  0  0  0  0  0  0  0  0  0  0
  149.4318  140.7148  152.7759 H   0  0  0  0  0  0  0  0  0  0  0  0
  1  2  1  0  0  0  0
  1 24  1  0  0  0  0
  1 25  1  0  0  0  0
  2  7  1  0  0  0  0
  2  3  2  0  0  0  0
  3  4  1  0  0  0  0
  4  5  2  0  0  0  0
  4 26  1  0  0  0  0
  5  6  1  0  0  0  0
  6 10  1  0  0  0  0
  6  7  2  0  0  0  0
  7  8  1  0  0  0  0
  8  9  2  0  0  0  0
  9 10  1  0  0  0  0
  9 27  1  0  0  0  0
 10 11  1  0  0  0  0
 11 20  1  0  0  0  0
 11 18  1  0  0  0  0
 11 12  1  0  0  0  0
 12 13  1  0  0  0  0
 13 21  1  0  0  0  0
 13 14  1  0  0  0  0
 13 16  1  0  0  0  0
 14 15  1  0  0  0  0
 14 28  1  0  0  0  0
 14 29  1  0  0  0  0
 15 30  1  0  0  0  0
 16 22  1  0  0  0  0
 16 17  1  0  0  0  0
 16 18  1  0  0  0  0
 17 31  1  0  0  0  0
 18 23  1  0  0  0  0
 18 19  1  0  0  0  0
 19 32  1  0  0  0  0
M  END
> <s_m_source_file>
AV-unprocessed.smi

> <i_m_source_file_index>
69

> <i_lp_mmshare_version>
43012

> <i_f3d_flags>
0

> <s_epik_input>
bjFbY0hdbmMoW05IMl0pYyhjMTIpbltjSF1uMltDQEBIXTNPW0NASF0oW0NIMl1bT0hdKVtDQEBIXShbT0hdKVtDQEhdM1tPSF0=

> <s_epik_cmdline>
J2VwaWtfcHl0aG9uJywgJy1waCcsICc3LjAnLCAnLXRuJywgJzgnLCAnLW1hJywgJzIwMCcsICctbWV0YWxfYmluZGluZycsICctaW1hZScsICc8aW5maWxlLm1hZT4nLCAnLW9tYWUnLCAnPG91dGZpbGUubWFlPic=

> <r_lp_tautomer_probability>
1

> <r_epik_Ionization_Penalty>
0.000428445

> <r_epik_Ionization_Penalty_Charging>
0

> <r_epik_Ionization_Penalty_Neutral>
0.000428445

> <r_epik_State_Penalty>
-0

> <r_epik_Charging_Adjusted_Penalty>
0

> <i_epik_Tot_Q>
0

> <i_epik_Tot_abs_Q>
0

> <r_epik_Metal_State_Penalty>
-0

> <b_epik_Metal_Only>
0

> <s_epik_Chemistry_Notes>
This compound contains an acetal/aminal-like group ( X-CH(R)-Y where X, Y are N, S, or O) that may be acid/base labile, releasing an aldehyde.

> <s_lp_Force_Field>
OPLS_2005

> <r_lp_Energy>
38.6476

> <b_lp_Chiralities_Consistent>
1

> <s_lp_Variant>
AV-unprocessed.smi:69-1

> <Gold.Version>
5.8.1

> <Gold.Id.Protein>
6NUR|6NUR_protein|mol2

> <Gold.PLP.Fitness>
42.7683

> <Gold.PLP.PLP>
-26.6911

> <Gold.PLP.part.hbond>
-7.4018

> <Gold.PLP.part.metal>
0.0000

> <Gold.PLP.part.buried>
-2.0461

> <Gold.PLP.part.nonpolar>
-20.4523

> <Gold.PLP.part.repulsive>
0.5272

> <Gold.PLP.ligand.clash>
0.0000

> <Gold.PLP.ligand.torsion>
0.1491

> <Gold.PLP.Chemscore.Hbond>
4.7437

> <Gold.PLP.Chemscore.CHOScore>
0.7105

> <Gold.PLP.Chemscore.Metal>
0.0000

> <Gold.Chemscore.Hbonds>
donor molecule, donor type, donor heavy atom, donor atom, acceptor molecule, acceptor atom, score
      L1  H    15    30       P1  8028  0.96
      L1  H    17    31       P1  8028  1.00
      L1  H    19    32       P1  7957  1.00
      P1  H  6896  6908       L1     3  0.68
      P1  H 10752 10765       L1     8  1.00
      L1  C     9    27       P1  7949  0.68

> <Gold.PLP.Chemscore.Internal.Correction>
0.0128

> <Gold.Rescore>
     Score         DG    S(hbond)    S(metal)    S(lipo)     H(rot)  DE(clash)    DE(int)     intcor
     11.46     -12.91       4.26        0.00      30.15       4.03       1.32       0.13       ----

> <Gold.Chemscore.Fitness>
11.4579

> <Gold.Chemscore.DG>
-12.9091

> <Gold.Chemscore.ZeroCoef>
-5.4800

> <Gold.Chemscore.Hbond>
4.2554

> <Gold.Chemscore.Metal>
0.0000

> <Gold.Chemscore.Lipo>
30.1471

> <Gold.Chemscore.Internal_Hbond>
0.0000

> <Gold.Chemscore.DEClash>
1.3216

> <Gold.Chemscore.DEInternal>
0.1295

> <Gold.Chemscore.Rot>
4.0277

> <Gold.Chemscore.Internal.Correction>
   9.000000E+99

> <Gold.Chemscore.Hbonds>
donor molecule, donor type, donor heavy atom, donor atom, acceptor molecule, acceptor atom, score
      L1  H    15    30       P1  8028  0.86
      L1  H    17    31       P1  8028  0.95
      L1  H    19    32       P1  7957  0.99
      P1  H  6896  6908       L1     3  0.36
      P1  H 10752 10765       L1     8  0.59

> <Gold.Chemscore.Hbond.Weighted>
-14.2129

> <Gold.Chemscore.Metal.Weighted>
-0.0000

> <Gold.Chemscore.Lipo.Weighted>
-3.5272

> <Gold.Chemscore.Internal_Hbond.Weighted>
0.0000

> <Gold.Chemscore.DEClash.Weighted>
1.3216

> <Gold.Chemscore.DEInternal.Weighted>
0.1295

> <Gold.Chemscore.Rot.Weighted>
10.3110

> <Gold.Chemscore.Internal.Correction.Weighted>
   9.000000E+99

> <Gold.Protein.RotatedTorsions>
[ 6907 6896 6895 6894 ] final -176.83 input  -60.11 | X-H torsion
[ 7974 7965 7964 7962 ] final  -91.76 input  175.53 | X-H torsion
[ 8008 7997 7996 7995 ] final  138.46 input   59.86 | X-H torsion
[ 10167 10162 10161 10158 ] final  173.12 input  -65.29 | X-H torsion
[ 10718 10713 10712 10709 ] final  -16.64 input   66.30 | X-H torsion
[ 10763 10752 10751 10750 ] final  162.56 input  -60.55 | X-H torsion
[ 11005 11000 10999 10996 ] final  120.56 input  -57.11 | X-H torsion

> <Gold.Protein.ActiveResidues>
 VAL166  LYS551  ARG553  GLY616  TRP617  ASP618  TYR619  PRO620  LYS621  CYS622 
 ASP623  PHE694  ASN695  SER759  ASP760  ASP761  ALA762  ILE779  LEU786  VAL792 
 PHE793  MET794  SER795  GLU796  ALA797  LYS798  CYS799  TRP800  GLU811  SER814 

> <Gold.Protein.RotatedAtoms>
  151.6111  133.3347  159.3067 H   0  0  0  0  0  0  0  0  0  0  0  0  # atno 6907 bound_to 6896
  150.8156  134.7339  159.6738 H   0  0  0  0  0  0  0  0  0  0  0  0  # atno 6908 bound_to 6896
  152.4252  134.5887  160.0020 H   0  0  0  0  0  0  0  0  0  0  0  0  # atno 6909 bound_to 6896
  145.4089  140.9543  143.2245 H   0  0  0  0  0  0  0  0  0  0  0  0  # atno 7974 bound_to 7965
  156.2997  140.2393  156.4078 H   0  0  0  0  0  0  0  0  0  0  0  0  # atno 8008 bound_to 7997
  154.8469  140.0426  157.1598 H   0  0  0  0  0  0  0  0  0  0  0  0  # atno 8009 bound_to 7997
  154.9042  140.2981  155.5305 H   0  0  0  0  0  0  0  0  0  0  0  0  # atno 8010 bound_to 7997
  139.5098  144.3297  152.0123 H   0  0  0  0  0  0  0  0  0  0  0  0  # atno 10167 bound_to 10162
  156.5848  130.4783  149.6304 H   0  0  0  0  0  0  0  0  0  0  0  0  # atno 10718 bound_to 10713
  154.2802  135.2763  155.2700 H   0  0  0  0  0  0  0  0  0  0  0  0  # atno 10763 bound_to 10752
  154.5225  135.5752  153.6695 H   0  0  0  0  0  0  0  0  0  0  0  0  # atno 10764 bound_to 10752
  152.9930  135.6208  154.2961 H   0  0  0  0  0  0  0  0  0  0  0  0  # atno 10765 bound_to 10752
  139.9190  134.9635  156.7825 H   0  0  0  0  0  0  0  0  0  0  0  0  # atno 11005 bound_to 11000
  144.8322  139.5609  143.6938 LP  0  0  0  0  0  0  0  0  0  0  0  0  # atno 17320 bound_to 7965
  146.2715  139.6646  142.9293 LP  0  0  0  0  0  0  0  0  0  0  0  0  # atno 17321 bound_to 7965
  140.2737  144.3936  150.6142 LP  0  0  0  0  0  0  0  0  0  0  0  0  # atno 17342 bound_to 10162
  140.6069  143.2168  151.6962 LP  0  0  0  0  0  0  0  0  0  0  0  0  # atno 17343 bound_to 10162
  156.2600  130.6957  151.1722 LP  0  0  0  0  0  0  0  0  0  0  0  0  # atno 17370 bound_to 10713
  157.7318  131.0605  150.5661 LP  0  0  0  0  0  0  0  0  0  0  0  0  # atno 17371 bound_to 10713
  140.6532  133.9712  155.7766 LP  0  0  0  0  0  0  0  0  0  0  0  0  # atno 17394 bound_to 11000
  141.0694  134.0229  157.3548 LP  0  0  0  0  0  0  0  0  0  0  0  0  # atno 17395 bound_to 11000

$$$$
