AV-unprocessed.smi:21|AV-procd|sdf|155|dock4
  -GOLD-   2262015383D 1   1.00000     0.00000
 Structure written by MMmdl.
 61 64  0  0  0  0  0  0  0  0  1 V2000
  146.7826  132.0917  151.9047 C   0  0  0  0  0  0  0  0  0  0  0  0
  147.2421  131.4121  153.0619 O   0  0  0  0  0  0  0  0  0  0  0  0
  148.6150  131.6434  153.3442 C   0  0  1  0  0  0  0  0  0  0  0  0
  148.9538  133.1331  153.1784 C   0  0  0  0  0  0  0  0  0  0  0  0
  149.4100  133.5881  154.5743 C   0  0  2  0  0  0  0  0  0  0  0  0
  150.4138  134.7614  154.5464 C   0  0  0  0  0  0  0  0  0  0  0  0
  150.0874  135.8035  155.5245 N   0  0  0  0  0  0  0  0  0  0  0  0
  148.7156  135.8607  156.0152 C   0  0  0  0  0  0  0  0  0  0  0  0
  150.9432  136.8427  155.7557 C   0  0  0  0  0  0  0  0  0  0  0  0
  151.8813  137.1261  154.8124 N   0  0  0  0  0  0  0  0  0  0  0  0
  152.7405  138.1341  154.9740 C   0  0  0  0  0  0  0  0  0  0  0  0
  152.8446  138.9814  155.9960 N   0  0  0  0  0  0  0  0  0  0  0  0
  151.9207  138.7080  156.9590 C   0  0  0  0  0  0  0  0  0  0  0  0
  150.9414  137.6703  156.9235 C   0  0  0  0  0  0  0  0  0  0  0  0
  150.1783  137.7245  158.0866 N   0  0  0  0  0  0  0  0  0  0  0  0
  150.6763  138.7212  158.7635 C   0  0  0  0  0  0  0  0  0  0  0  0
  151.7306  139.3661  158.1621 N   0  0  0  0  0  0  0  0  0  0  0  0
  152.4628  140.5029  158.6955 C   0  0  0  0  0  0  0  0  0  0  0  0
  151.6263  141.8110  158.6626 C   0  0  2  0  0  0  0  0  0  0  0  0
  151.4985  142.3465  157.2187 C   0  0  0  0  0  0  0  0  0  0  0  0
  150.2200  142.9057  156.9980 O   0  0  0  0  0  0  0  0  0  0  0  0
  152.2111  142.8934  159.6061 C   0  0  2  0  0  0  0  0  0  0  0  0
  152.3885  142.4569  161.0501 C   0  0  0  0  0  0  0  0  0  0  0  0
  152.4883  143.7877  161.7857 C   0  0  0  0  0  0  0  0  0  0  0  0
  151.6703  144.6929  161.0550 O   0  0  0  0  0  0  0  0  0  0  0  0
  151.3152  144.1230  159.7995 C   0  0  0  0  0  0  0  0  0  0  0  0
  149.9101  132.3780  155.2075 N   0  0  0  0  0  0  0  0  0  0  0  0
  150.0379  132.4789  156.6552 C   0  0  0  0  0  0  0  0  0  0  0  0
  148.9557  131.3607  154.8134 C   0  0  0  0  0  0  0  0  0  0  0  0
  149.2513  131.0573  152.6782 H   0  0  0  0  0  0  0  0  0  0  0  0
  148.5194  133.9094  155.1177 H   0  0  0  0  0  0  0  0  0  0  0  0
  145.7240  131.8809  151.7551 H   0  0  0  0  0  0  0  0  0  0  0  0
  147.3172  131.7698  151.0105 H   0  0  0  0  0  0  0  0  0  0  0  0
  146.8971  133.1711  152.0109 H   0  0  0  0  0  0  0  0  0  0  0  0
  149.7616  133.2370  152.4535 H   0  0  0  0  0  0  0  0  0  0  0  0
  148.1097  133.7229  152.8189 H   0  0  0  0  0  0  0  0  0  0  0  0
  151.4091  134.3948  154.7961 H   0  0  0  0  0  0  0  0  0  0  0  0
  150.5088  135.1531  153.5338 H   0  0  0  0  0  0  0  0  0  0  0  0
  148.6942  136.0488  157.0889 H   0  0  0  0  0  0  0  0  0  0  0  0
  148.1988  134.9171  155.8374 H   0  0  0  0  0  0  0  0  0  0  0  0
  148.1563  136.6453  155.5048 H   0  0  0  0  0  0  0  0  0  0  0  0
  153.4447  138.2821  154.1687 H   0  0  0  0  0  0  0  0  0  0  0  0
  150.2856  139.0140  159.7268 H   0  0  0  0  0  0  0  0  0  0  0  0
  152.7979  140.2653  159.7052 H   0  0  0  0  0  0  0  0  0  0  0  0
  153.3785  140.6043  158.1117 H   0  0  0  0  0  0  0  0  0  0  0  0
  150.6156  141.5934  159.0137 H   0  0  0  0  0  0  0  0  0  0  0  0
  152.2295  143.1304  157.0231 H   0  0  0  0  0  0  0  0  0  0  0  0
  151.6780  141.5533  156.4924 H   0  0  0  0  0  0  0  0  0  0  0  0
  150.3005  143.5964  156.3579 H   0  0  0  0  0  0  0  0  0  0  0  0
  153.1790  143.2247  159.2256 H   0  0  0  0  0  0  0  0  0  0  0  0
  151.5146  141.9014  161.3934 H   0  0  0  0  0  0  0  0  0  0  0  0
  153.2720  141.8395  161.2088 H   0  0  0  0  0  0  0  0  0  0  0  0
  152.1732  143.7137  162.8266 H   0  0  0  0  0  0  0  0  0  0  0  0
  153.5148  144.1557  161.7673 H   0  0  0  0  0  0  0  0  0  0  0  0
  151.4289  144.8534  158.9982 H   0  0  0  0  0  0  0  0  0  0  0  0
  150.2644  143.8334  159.8442 H   0  0  0  0  0  0  0  0  0  0  0  0
  150.3586  131.5263  157.0776 H   0  0  0  0  0  0  0  0  0  0  0  0
  149.0896  132.7528  157.1191 H   0  0  0  0  0  0  0  0  0  0  0  0
  150.7810  133.2263  156.9318 H   0  0  0  0  0  0  0  0  0  0  0  0
  148.0508  131.4508  155.4174 H   0  0  0  0  0  0  0  0  0  0  0  0
  149.3537  130.3565  154.9619 H   0  0  0  0  0  0  0  0  0  0  0  0
  1  2  1  0  0  0  0
  1 32  1  0  0  0  0
  1 33  1  0  0  0  0
  1 34  1  0  0  0  0
  2  3  1  0  0  0  0
  3 30  1  0  0  0  0
  3 29  1  0  0  0  0
  3  4  1  0  0  0  0
  4  5  1  0  0  0  0
  4 35  1  0  0  0  0
  4 36  1  0  0  0  0
  5 31  1  0  0  0  0
  5  6  1  0  0  0  0
  5 27  1  0  0  0  0
  6  7  1  0  0  0  0
  6 37  1  0  0  0  0
  6 38  1  0  0  0  0
  7  8  1  0  0  0  0
  7  9  1  0  0  0  0
  8 39  1  0  0  0  0
  8 40  1  0  0  0  0
  8 41  1  0  0  0  0
  9 14  1  0  0  0  0
  9 10  2  0  0  0  0
 10 11  1  0  0  0  0
 11 12  2  0  0  0  0
 11 42  1  0  0  0  0
 12 13  1  0  0  0  0
 13 17  1  0  0  0  0
 13 14  2  0  0  0  0
 14 15  1  0  0  0  0
 15 16  2  0  0  0  0
 16 17  1  0  0  0  0
 16 43  1  0  0  0  0
 17 18  1  0  0  0  0
 18 19  1  0  0  0  0
 18 44  1  0  0  0  0
 18 45  1  0  0  0  0
 19 20  1  0  0  0  0
 19 22  1  0  0  0  0
 19 46  1  0  0  0  0
 20 21  1  0  0  0  0
 20 47  1  0  0  0  0
 20 48  1  0  0  0  0
 21 49  1  0  0  0  0
 22 26  1  0  0  0  0
 22 23  1  0  0  0  0
 22 50  1  0  0  0  0
 23 24  1  0  0  0  0
 23 51  1  0  0  0  0
 23 52  1  0  0  0  0
 24 25  1  0  0  0  0
 24 53  1  0  0  0  0
 24 54  1  0  0  0  0
 25 26  1  0  0  0  0
 26 55  1  0  0  0  0
 26 56  1  0  0  0  0
 27 28  1  0  0  0  0
 27 29  1  0  0  0  0
 28 57  1  0  0  0  0
 28 58  1  0  0  0  0
 28 59  1  0  0  0  0
 29 60  1  0  0  0  0
 29 61  1  0  0  0  0
M  END
> <s_m_source_file>
AV-unprocessed.smi

> <i_m_source_file_index>
21

> <i_lp_mmshare_version>
43012

> <i_f3d_flags>
0

> <s_epik_input>
W0NIM11PW0NASF0xW0NIMl1bQ0BIXShOKFtDSDNdKVtDSDJdMSlbQ0gyXU4oW0NIM10pYyhuW2NIXW4yKWMoYzIzKW5bY0hdbjNbQ0gyXVtDQEhdKFtDSDJdW09IXSlbQ0BASF00W0NIMl1bQ0gyXU9bQ0gyXTQ=

> <s_epik_cmdline>
J2VwaWtfcHl0aG9uJywgJy1waCcsICc3LjAnLCAnLXRuJywgJzgnLCAnLW1hJywgJzIwMCcsICctbWV0YWxfYmluZGluZycsICctaW1hZScsICc8aW5maWxlLm1hZT4nLCAnLW9tYWUnLCAnPG91dGZpbGUubWFlPic=

> <r_lp_tautomer_probability>
1

> <r_epik_Ionization_Penalty>
2.17574

> <r_epik_Ionization_Penalty_Charging>
0

> <r_epik_Ionization_Penalty_Neutral>
2.17574

> <r_epik_State_Penalty>
2.31336

> <r_epik_Charging_Adjusted_Penalty>
2.31336

> <i_epik_Tot_Q>
0

> <i_epik_Tot_abs_Q>
0

> <r_epik_Metal_State_Penalty>
2.31025

> <b_epik_Metal_Only>
0

> <s_lp_Force_Field>
OPLS_2005

> <r_lp_Energy>
70.8096

> <b_lp_Chiralities_Consistent>
1

> <s_lp_Variant>
AV-unprocessed.smi:21-35

> <Gold.Version>
5.8.1

> <Gold.Id.Protein>
6NUR|6NUR_protein|mol2

> <Gold.PLP.Fitness>
52.4638

> <Gold.PLP.PLP>
-47.9960

> <Gold.PLP.part.hbond>
-3.0000

> <Gold.PLP.part.metal>
0.0000

> <Gold.PLP.part.buried>
-9.2569

> <Gold.PLP.part.nonpolar>
-37.6207

> <Gold.PLP.part.repulsive>
0.8419

> <Gold.PLP.ligand.clash>
0.9379

> <Gold.PLP.ligand.torsion>
2.0475

> <Gold.PLP.Chemscore.Hbond>
2.8476

> <Gold.PLP.Chemscore.CHOScore>
0.0000

> <Gold.PLP.Chemscore.Metal>
0.0000

> <Gold.Chemscore.Hbonds>
donor molecule, donor type, donor heavy atom, donor atom, acceptor molecule, acceptor atom, score
      L1  H    21    49       P1  8028  0.56
      P1  H  7997  8009       L1    12  0.96
      P1  H 10752 10764       L1    10  0.91

> <Gold.PLP.Chemscore.Internal.Correction>
0.9580

> <Gold.Rescore>
     Score         DG    S(hbond)    S(metal)    S(lipo)     H(rot)  DE(clash)    DE(int)     intcor
     13.95     -17.09       1.82        0.00     113.11       3.00       1.10       2.04       ----

> <Gold.Chemscore.Fitness>
13.9542

> <Gold.Chemscore.DG>
-17.0927

> <Gold.Chemscore.ZeroCoef>
-5.4800

> <Gold.Chemscore.Hbond>
1.8163

> <Gold.Chemscore.Metal>
0.0000

> <Gold.Chemscore.Lipo>
113.1118

> <Gold.Chemscore.Internal_Hbond>
0.0000

> <Gold.Chemscore.DEClash>
1.1012

> <Gold.Chemscore.DEInternal>
2.0374

> <Gold.Chemscore.Rot>
3.0031

> <Gold.Chemscore.Internal.Correction>
   9.000000E+99

> <Gold.Chemscore.Hbonds>
donor molecule, donor type, donor heavy atom, donor atom, acceptor molecule, acceptor atom, score
      L1  H    21    49       P1  8028  0.56
      P1  H  7997  8009       L1    12  0.82
      P1  H 10752 10764       L1    10  0.25

> <Gold.Chemscore.Hbond.Weighted>
-6.0666

> <Gold.Chemscore.Metal.Weighted>
-0.0000

> <Gold.Chemscore.Lipo.Weighted>
-13.2341

> <Gold.Chemscore.Internal_Hbond.Weighted>
0.0000

> <Gold.Chemscore.DEClash.Weighted>
1.1012

> <Gold.Chemscore.DEInternal.Weighted>
2.0374

> <Gold.Chemscore.Rot.Weighted>
7.6880

> <Gold.Chemscore.Internal.Correction.Weighted>
   9.000000E+99

> <Gold.Protein.RotatedTorsions>
[ 6907 6896 6895 6894 ] final   33.81 input  -60.11 | X-H torsion
[ 7974 7965 7964 7962 ] final   37.47 input  175.53 | X-H torsion
[ 8008 7997 7996 7995 ] final  179.71 input   59.86 | X-H torsion
[ 10167 10162 10161 10158 ] final -159.32 input  -65.29 | X-H torsion
[ 10718 10713 10712 10709 ] final  132.47 input   66.30 | X-H torsion
[ 10763 10752 10751 10750 ] final  -53.25 input  -60.55 | X-H torsion
[ 11005 11000 10999 10996 ] final -112.12 input  -57.11 | X-H torsion

> <Gold.Protein.ActiveResidues>
 VAL166  LYS551  ARG553  GLY616  TRP617  ASP618  TYR619  PRO620  LYS621  CYS622 
 ASP623  PHE694  ASN695  SER759  ASP760  ASP761  ALA762  ILE779  LEU786  VAL792 
 PHE793  MET794  SER795  GLU796  ALA797  LYS798  CYS799  TRP800  GLU811  SER814 

> <Gold.Protein.RotatedAtoms>
  152.0937  134.9389  160.0571 H   0  0  0  0  0  0  0  0  0  0  0  0  # atno 6907 bound_to 6896
  152.0631  133.4066  159.4434 H   0  0  0  0  0  0  0  0  0  0  0  0  # atno 6908 bound_to 6896
  150.6837  134.3098  159.4785 H   0  0  0  0  0  0  0  0  0  0  0  0  # atno 6909 bound_to 6896
  146.1135  139.5890  142.9337 H   0  0  0  0  0  0  0  0  0  0  0  0  # atno 7974 bound_to 7965
  156.0403  140.1302  157.0163 H   0  0  0  0  0  0  0  0  0  0  0  0  # atno 8008 bound_to 7997
  154.4388  140.1031  156.6297 H   0  0  0  0  0  0  0  0  0  0  0  0  # atno 8009 bound_to 7997
  155.5677  140.3466  155.4509 H   0  0  0  0  0  0  0  0  0  0  0  0  # atno 8010 bound_to 7997
  139.6624  143.9889  152.2233 H   0  0  0  0  0  0  0  0  0  0  0  0  # atno 10167 bound_to 10162
  157.4868  131.1088  150.9609 H   0  0  0  0  0  0  0  0  0  0  0  0  # atno 10718 bound_to 10713
  154.1558  135.6483  153.4974 H   0  0  0  0  0  0  0  0  0  0  0  0  # atno 10763 bound_to 10752
  153.0124  135.5349  154.6761 H   0  0  0  0  0  0  0  0  0  0  0  0  # atno 10764 bound_to 10752
  154.6062  135.2949  155.0454 H   0  0  0  0  0  0  0  0  0  0  0  0  # atno 10765 bound_to 10752
  141.0694  133.9405  157.2515 H   0  0  0  0  0  0  0  0  0  0  0  0  # atno 11005 bound_to 11000
  145.5615  141.0404  143.2223 LP  0  0  0  0  0  0  0  0  0  0  0  0  # atno 17320 bound_to 7965
  144.7532  139.7141  143.7264 LP  0  0  0  0  0  0  0  0  0  0  0  0  # atno 17321 bound_to 7965
  139.9632  144.6544  150.8060 LP  0  0  0  0  0  0  0  0  0  0  0  0  # atno 17342 bound_to 10162
  140.7585  143.3109  151.2847 LP  0  0  0  0  0  0  0  0  0  0  0  0  # atno 17343 bound_to 10162
  157.0324  130.5716  149.5345 LP  0  0  0  0  0  0  0  0  0  0  0  0  # atno 17370 bound_to 10713
  156.0151  130.5245  150.8110 LP  0  0  0  0  0  0  0  0  0  0  0  0  # atno 17371 bound_to 10713
  139.9508  135.0175  156.8989 LP  0  0  0  0  0  0  0  0  0  0  0  0  # atno 17394 bound_to 11000
  140.5705  134.0448  155.7429 LP  0  0  0  0  0  0  0  0  0  0  0  0  # atno 17395 bound_to 11000

$$$$
