AV-unprocessed.smi:2095|AV-procd|sdf|8559|dock2
  -GOLD-   2272011283D 1   1.00000     0.00000
 Structure written by MMmdl.
 42 43  0  0  0  0  0  0  0  0  2 V2000
  152.8893  142.5180  161.6462 C   0  0  0  0  0  0  0  0  0  0  0  0
  153.6714  142.2719  160.3434 C   0  0  1  0  0  0  0  0  0  0  0  0
  153.9858  140.7844  160.1132 C   0  0  0  0  0  0  0  0  0  0  0  0
  152.7303  140.0201  159.6801 C   0  0  0  0  0  0  0  0  0  0  0  0
  152.0847  140.6870  158.4574 C   0  0  0  0  0  0  0  0  0  0  0  0
  151.7450  142.1143  158.7224 N   0  3  2  0  0  0  0  0  0  0  0  0
  150.9093  142.7013  157.6228 C   0  0  1  0  0  0  0  0  0  0  0  0
  151.1256  144.2302  157.5792 C   0  0  0  0  0  0  0  0  0  0  0  0
  151.1452  142.0667  156.2239 C   0  0  0  0  0  0  0  0  0  0  0  0
  149.9908  142.2043  155.3381 N   0  0  0  0  0  0  0  0  0  0  0  0
  149.6904  141.3891  154.3144 C   0  0  0  0  0  0  0  0  0  0  0  0
  150.3811  140.4212  153.9961 O   0  0  0  0  0  0  0  0  0  0  0  0
  148.4241  141.7260  153.5228 C   0  0  0  0  0  0  0  0  0  0  0  0
  147.3798  142.2455  154.3866 N   0  0  0  0  0  0  0  0  0  0  0  0
  146.4233  143.1485  154.1611 C   0  0  0  0  0  0  0  0  0  0  0  0
  145.6683  143.3394  155.2321 N   0  0  0  0  0  0  0  0  0  0  0  0
  146.2230  142.4793  156.1651 N   0  0  0  0  0  0  0  0  0  0  0  0
  147.2383  141.8268  155.6689 N   0  0  0  0  0  0  0  0  0  0  0  0
  152.9643  142.8832  159.1141 C   0  0  0  0  0  0  0  0  0  0  0  0
  151.8970  142.0676  161.6182 H   0  0  0  0  0  0  0  0  0  0  0  0
  152.7595  143.5850  161.8292 H   0  0  0  0  0  0  0  0  0  0  0  0
  153.4181  142.1023  162.5043 H   0  0  0  0  0  0  0  0  0  0  0  0
  154.6252  142.7883  160.4596 H   0  0  0  0  0  0  0  0  0  0  0  0
  154.7453  140.6929  159.3354 H   0  0  0  0  0  0  0  0  0  0  0  0
  154.4126  140.3371  161.0117 H   0  0  0  0  0  0  0  0  0  0  0  0
  152.9907  138.9879  159.4440 H   0  0  0  0  0  0  0  0  0  0  0  0
  152.0132  139.9743  160.5003 H   0  0  0  0  0  0  0  0  0  0  0  0
  152.7615  140.6292  157.6033 H   0  0  0  0  0  0  0  0  0  0  0  0
  151.1961  140.1199  158.1842 H   0  0  0  0  0  0  0  0  0  0  0  0
  149.8634  142.5143  157.8721 H   0  0  0  0  0  0  0  0  0  0  0  0
  150.4364  144.7157  156.8890 H   0  0  0  0  0  0  0  0  0  0  0  0
  152.1396  144.4732  157.2593 H   0  0  0  0  0  0  0  0  0  0  0  0
  150.9676  144.7033  158.5470 H   0  0  0  0  0  0  0  0  0  0  0  0
  152.0397  142.4849  155.7590 H   0  0  0  0  0  0  0  0  0  0  0  0
  151.3142  140.9937  156.3160 H   0  0  0  0  0  0  0  0  0  0  0  0
  149.3663  142.9763  155.5229 H   0  0  0  0  0  0  0  0  0  0  0  0
  148.6349  142.4677  152.7508 H   0  0  0  0  0  0  0  0  0  0  0  0
  148.0642  140.8284  153.0177 H   0  0  0  0  0  0  0  0  0  0  0  0
  146.2826  143.6621  153.2215 H   0  0  0  0  0  0  0  0  0  0  0  0
  152.7174  143.9144  159.3642 H   0  0  0  0  0  0  0  0  0  0  0  0
  153.6524  142.9163  158.2677 H   0  0  0  0  0  0  0  0  0  0  0  0
  151.1552  142.1231  159.5425 H   0  0  0  0  0  0  0  0  0  0  0  0
  1  2  1  0  0  0  0
  1 20  1  0  0  0  0
  1 21  1  0  0  0  0
  1 22  1  0  0  0  0
  2 19  1  0  0  0  0
  2  3  1  0  0  0  0
  2 23  1  0  0  0  0
  3  4  1  0  0  0  0
  3 24  1  0  0  0  0
  3 25  1  0  0  0  0
  4  5  1  0  0  0  0
  4 26  1  0  0  0  0
  4 27  1  0  0  0  0
  5  6  1  0  0  0  0
  5 28  1  0  0  0  0
  5 29  1  0  0  0  0
  6  7  1  0  0  0  0
  6 19  1  0  0  0  0
  6 42  1  0  0  0  0
  7  8  1  0  0  0  0
  7  9  1  0  0  0  0
  7 30  1  0  0  0  0
  8 31  1  0  0  0  0
  8 32  1  0  0  0  0
  8 33  1  0  0  0  0
  9 10  1  0  0  0  0
  9 34  1  0  0  0  0
  9 35  1  0  0  0  0
 10 11  1  0  0  0  0
 10 36  1  0  0  0  0
 11 12  2  0  0  0  0
 11 13  1  0  0  0  0
 13 14  1  0  0  0  0
 13 37  1  0  0  0  0
 13 38  1  0  0  0  0
 14 18  1  0  0  0  0
 14 15  1  0  0  0  0
 15 16  2  0  0  0  0
 15 39  1  0  0  0  0
 16 17  1  0  0  0  0
 17 18  2  0  0  0  0
 19 40  1  0  0  0  0
 19 41  1  0  0  0  0
M  CHG  1   6   1
M  END
> <s_m_source_file>
AV-unprocessed.smi

> <i_m_source_file_index>
2095

> <i_lp_mmshare_version>
43012

> <i_f3d_flags>
0

> <s_epik_input>
W0NIM11bQ0BASF0xW0NIMl1bQ0gyXVtDSDJdTihbQ0gyXTEpW0NASF0oW0NIM10pW0NIMl1bTkhdQyg9TylbQ0gyXW4yW2NIXW5ubjI=

> <s_epik_cmdline>
J2VwaWtfcHl0aG9uJywgJy1waCcsICc3LjAnLCAnLXRuJywgJzgnLCAnLW1hJywgJzIwMCcsICctbWV0YWxfYmluZGluZycsICctaW1hZScsICc8aW5maWxlLm1hZT4nLCAnLW9tYWUnLCAnPG91dGZpbGUubWFlPic=

> <r_lp_tautomer_probability>
1

> <r_epik_Ionization_Penalty>
0.00268321

> <r_epik_Ionization_Penalty_Charging>
0.00267875

> <r_epik_Ionization_Penalty_Neutral>
4.46125e-06

> <r_epik_State_Penalty>
0.00186642

> <r_epik_Charging_Adjusted_Penalty>
0.00454517

> <i_epik_Tot_Q>
1

> <i_epik_Tot_abs_Q>
1

> <r_epik_Metal_State_Penalty>
-0

> <b_epik_Metal_Only>
0

> <s_lp_Force_Field>
OPLS_2005

> <r_lp_Energy>
29.9009

> <b_lp_Chiralities_Consistent>
1

> <s_lp_Variant>
AV-unprocessed.smi:2095-6

> <Gold.Version>
5.8.1

> <Gold.Id.Protein>
6NUR|6NUR_protein|mol2

> <Gold.PLP.Fitness>
41.9664

> <Gold.PLP.PLP>
-39.9184

> <Gold.PLP.part.hbond>
-2.0000

> <Gold.PLP.part.metal>
0.0000

> <Gold.PLP.part.buried>
-2.7564

> <Gold.PLP.part.nonpolar>
-35.5513

> <Gold.PLP.part.repulsive>
0.7754

> <Gold.PLP.ligand.clash>
0.0747

> <Gold.PLP.ligand.torsion>
1.9841

> <Gold.PLP.Chemscore.Hbond>
2.0000

> <Gold.PLP.Chemscore.CHOScore>
0.0000

> <Gold.PLP.Chemscore.Metal>
0.0000

> <Gold.Chemscore.Hbonds>
donor molecule, donor type, donor heavy atom, donor atom, acceptor molecule, acceptor atom, score
      L1  H    10    36       P1  8028  1.00
      P1  H  7989  7998       L1    12  0.60

> <Gold.PLP.Chemscore.Internal.Correction>
0.0909

> <Gold.Rescore>
     Score         DG    S(hbond)    S(metal)    S(lipo)     H(rot)  DE(clash)    DE(int)     intcor
     11.67     -15.18       1.60        0.00      95.00       2.64       0.29       3.22       ----

> <Gold.Chemscore.Fitness>
11.6749

> <Gold.Chemscore.DG>
-15.1819

> <Gold.Chemscore.ZeroCoef>
-5.4800

> <Gold.Chemscore.Hbond>
1.6033

> <Gold.Chemscore.Metal>
0.0000

> <Gold.Chemscore.Lipo>
95.0026

> <Gold.Chemscore.Internal_Hbond>
0.0000

> <Gold.Chemscore.DEClash>
0.2904

> <Gold.Chemscore.DEInternal>
3.2166

> <Gold.Chemscore.Rot>
2.6439

> <Gold.Chemscore.Internal.Correction>
   9.000000E+99

> <Gold.Chemscore.Hbonds>
donor molecule, donor type, donor heavy atom, donor atom, acceptor molecule, acceptor atom, score
      L1  H    10    36       P1  8028  0.99
      P1  H  7989  7998       L1    12  0.42

> <Gold.Chemscore.Hbond.Weighted>
-5.3551

> <Gold.Chemscore.Metal.Weighted>
-0.0000

> <Gold.Chemscore.Lipo.Weighted>
-11.1153

> <Gold.Chemscore.Internal_Hbond.Weighted>
0.0000

> <Gold.Chemscore.DEClash.Weighted>
0.2904

> <Gold.Chemscore.DEInternal.Weighted>
3.2166

> <Gold.Chemscore.Rot.Weighted>
6.7685

> <Gold.Chemscore.Internal.Correction.Weighted>
   9.000000E+99

> <Gold.Protein.RotatedTorsions>
[ 6907 6896 6895 6894 ] final   87.35 input  -60.11 | X-H torsion
[ 7974 7965 7964 7962 ] final -152.58 input  175.53 | X-H torsion
[ 8008 7997 7996 7995 ] final  -61.35 input   59.86 | X-H torsion
[ 10167 10162 10161 10158 ] final  -56.74 input  -65.29 | X-H torsion
[ 10718 10713 10712 10709 ] final   -3.77 input   66.30 | X-H torsion
[ 10763 10752 10751 10750 ] final   54.32 input  -60.55 | X-H torsion
[ 11005 11000 10999 10996 ] final  -96.12 input  -57.11 | X-H torsion

> <Gold.Protein.ActiveResidues>
 VAL166  LYS551  ARG553  GLY616  TRP617  ASP618  TYR619  PRO620  LYS621  CYS622 
 ASP623  PHE694  ASN695  SER759  ASP760  ASP761  ALA762  ILE779  LEU786  VAL792 
 PHE793  MET794  SER795  GLU796  ALA797  LYS798  CYS799  TRP800  GLU811  SER814 

> <Gold.Protein.RotatedAtoms>
  152.5409  134.2290  159.8817 H   0  0  0  0  0  0  0  0  0  0  0  0  # atno 6907 bound_to 6896
  151.2263  133.4468  159.2610 H   0  0  0  0  0  0  0  0  0  0  0  0  # atno 6908 bound_to 6896
  151.0757  134.9840  159.8387 H   0  0  0  0  0  0  0  0  0  0  0  0  # atno 6909 bound_to 6896
  144.7787  140.4643  143.5855 H   0  0  0  0  0  0  0  0  0  0  0  0  # atno 7974 bound_to 7965
  154.4444  140.1019  156.6417 H   0  0  0  0  0  0  0  0  0  0  0  0  # atno 8008 bound_to 7997
  155.5494  140.3485  155.4446 H   0  0  0  0  0  0  0  0  0  0  0  0  # atno 8009 bound_to 7997
  156.0540  140.1310  157.0007 H   0  0  0  0  0  0  0  0  0  0  0  0  # atno 8010 bound_to 7997
  140.6299  143.2455  151.5267 H   0  0  0  0  0  0  0  0  0  0  0  0  # atno 10167 bound_to 10162
  156.7712  130.5300  149.5767 H   0  0  0  0  0  0  0  0  0  0  0  0  # atno 10718 bound_to 10713
  152.9803  135.5749  154.4886 H   0  0  0  0  0  0  0  0  0  0  0  0  # atno 10763 bound_to 10752
  154.4424  135.2776  155.1841 H   0  0  0  0  0  0  0  0  0  0  0  0  # atno 10764 bound_to 10752
  154.3503  135.6210  153.5693 H   0  0  0  0  0  0  0  0  0  0  0  0  # atno 10765 bound_to 10752
  141.1421  133.8075  157.0528 H   0  0  0  0  0  0  0  0  0  0  0  0  # atno 11005 bound_to 11000
  145.6113  139.1513  143.3074 LP  0  0  0  0  0  0  0  0  0  0  0  0  # atno 17320 bound_to 7965
  146.1982  140.6229  142.9114 LP  0  0  0  0  0  0  0  0  0  0  0  0  # atno 17321 bound_to 7965
  139.5515  144.2384  152.1538 LP  0  0  0  0  0  0  0  0  0  0  0  0  # atno 17342 bound_to 10162
  140.1625  144.5012  150.6624 LP  0  0  0  0  0  0  0  0  0  0  0  0  # atno 17343 bound_to 10162
  156.1277  130.6155  151.0287 LP  0  0  0  0  0  0  0  0  0  0  0  0  # atno 17370 bound_to 10713
  157.6690  131.0865  150.7658 LP  0  0  0  0  0  0  0  0  0  0  0  0  # atno 17371 bound_to 10713
  140.0621  134.9749  157.1323 LP  0  0  0  0  0  0  0  0  0  0  0  0  # atno 17394 bound_to 11000
  140.3833  134.2263  155.7170 LP  0  0  0  0  0  0  0  0  0  0  0  0  # atno 17395 bound_to 11000

$$$$
