AV-unprocessed.smi:221|AV-procd|sdf|1686|dock5
  -GOLD-   2262020123D 1   1.00000     0.00000
 Structure written by MMmdl.
 50 53  0  0  0  0  0  0  0  0  1 V2000
  148.1583  138.3780  152.5711 N   0  0  0  0  0  0  0  0  0  0  0  0
  147.8808  138.4098  153.8765 C   0  0  0  0  0  0  0  0  0  0  0  0
  147.7137  137.3842  154.5341 O   0  0  0  0  0  0  0  0  0  0  0  0
  147.7989  139.7958  154.5324 C   0  0  2  0  0  0  0  0  0  0  0  0
  146.6282  140.6208  153.9819 C   0  0  0  0  0  0  0  0  0  0  0  0
  147.0543  142.0566  154.2664 C   0  0  1  0  0  0  0  0  0  0  0  0
  146.7663  142.3649  155.5318 F   0  0  0  0  0  0  0  0  0  0  0  0
  148.5734  142.0173  154.0822 C   0  0  0  0  0  0  0  0  0  0  0  0
  148.9732  140.6216  154.2424 N   0  0  0  0  0  0  0  0  0  0  0  0
  150.0535  140.4093  155.0259 C   0  0  0  0  0  0  0  0  0  0  0  0
  151.1536  139.8825  154.4351 N   0  0  0  0  0  0  0  0  0  0  0  0
  152.2511  139.6450  155.1602 C   0  0  0  0  0  0  0  0  0  0  0  0
  152.4549  139.8573  156.4626 N   0  0  0  0  0  0  0  0  0  0  0  0
  151.3477  140.3882  157.0568 C   0  0  0  0  0  0  0  0  0  0  0  0
  150.1142  140.6964  156.4184 C   0  0  0  0  0  0  0  0  0  0  0  0
  149.2203  141.2261  157.3412 N   0  0  0  0  0  0  0  0  0  0  0  0
  149.8868  141.2276  158.4633 C   0  0  0  0  0  0  0  0  0  0  0  0
  151.1696  140.7337  158.3841 N   0  0  0  0  0  0  0  0  0  0  0  0
  152.1266  140.6131  159.4690 C   0  0  0  0  0  0  0  0  0  0  0  0
  153.4211  141.4371  159.2547 C   0  0  2  0  0  0  0  0  0  0  0  0
  154.6344  140.8684  160.0361 C   0  0  0  0  0  0  0  0  0  0  0  0
  155.7876  140.7826  159.2243 O   0  0  0  0  0  0  0  0  0  0  0  0
  153.1362  142.9336  159.5468 C   0  0  2  0  0  0  0  0  0  0  0  0
  152.4408  143.2432  160.8601 C   0  0  0  0  0  0  0  0  0  0  0  0
  152.0048  144.6874  160.6353 C   0  0  0  0  0  0  0  0  0  0  0  0
  151.7036  144.7869  159.2463 O   0  0  0  0  0  0  0  0  0  0  0  0
  152.2488  143.6744  158.5407 C   0  0  0  0  0  0  0  0  0  0  0  0
  147.6789  139.6805  155.6114 H   0  0  0  0  0  0  0  0  0  0  0  0
  146.5610  142.7908  153.6291 H   0  0  0  0  0  0  0  0  0  0  0  0
  148.2188  137.4903  152.0941 H   0  0  0  0  0  0  0  0  0  0  0  0
  148.3027  139.2395  152.0647 H   0  0  0  0  0  0  0  0  0  0  0  0
  146.5246  140.4798  152.9044 H   0  0  0  0  0  0  0  0  0  0  0  0
  145.6748  140.3653  154.4457 H   0  0  0  0  0  0  0  0  0  0  0  0
  148.8329  142.3168  153.0664 H   0  0  0  0  0  0  0  0  0  0  0  0
  149.0819  142.7051  154.7603 H   0  0  0  0  0  0  0  0  0  0  0  0
  153.0857  139.2239  154.6192 H   0  0  0  0  0  0  0  0  0  0  0  0
  149.4548  141.5840  159.3872 H   0  0  0  0  0  0  0  0  0  0  0  0
  151.6259  140.9273  160.3855 H   0  0  0  0  0  0  0  0  0  0  0  0
  152.3693  139.5576  159.5975 H   0  0  0  0  0  0  0  0  0  0  0  0
  153.6655  141.3871  158.1923 H   0  0  0  0  0  0  0  0  0  0  0  0
  154.8977  141.4992  160.8827 H   0  0  0  0  0  0  0  0  0  0  0  0
  154.4078  139.8818  160.4411 H   0  0  0  0  0  0  0  0  0  0  0  0
  156.4801  141.2790  159.6330 H   0  0  0  0  0  0  0  0  0  0  0  0
  154.0942  143.4560  159.5833 H   0  0  0  0  0  0  0  0  0  0  0  0
  151.5634  142.6169  161.0150 H   0  0  0  0  0  0  0  0  0  0  0  0
  153.0944  143.1308  161.7256 H   0  0  0  0  0  0  0  0  0  0  0  0
  151.1501  144.9676  161.2513 H   0  0  0  0  0  0  0  0  0  0  0  0
  152.8242  145.3709  160.8625 H   0  0  0  0  0  0  0  0  0  0  0  0
  152.8057  144.0009  157.6621 H   0  0  0  0  0  0  0  0  0  0  0  0
  151.4174  143.0579  158.2008 H   0  0  0  0  0  0  0  0  0  0  0  0
  1  2  1  0  0  0  0
  1 30  1  0  0  0  0
  1 31  1  0  0  0  0
  2  3  2  0  0  0  0
  2  4  1  0  0  0  0
  4 28  1  0  0  0  0
  4  9  1  0  0  0  0
  4  5  1  0  0  0  0
  5  6  1  0  0  0  0
  5 32  1  0  0  0  0
  5 33  1  0  0  0  0
  6 29  1  0  0  0  0
  6  7  1  0  0  0  0
  6  8  1  0  0  0  0
  8  9  1  0  0  0  0
  8 34  1  0  0  0  0
  8 35  1  0  0  0  0
  9 10  1  0  0  0  0
 10 15  1  0  0  0  0
 10 11  2  0  0  0  0
 11 12  1  0  0  0  0
 12 13  2  0  0  0  0
 12 36  1  0  0  0  0
 13 14  1  0  0  0  0
 14 18  1  0  0  0  0
 14 15  2  0  0  0  0
 15 16  1  0  0  0  0
 16 17  2  0  0  0  0
 17 18  1  0  0  0  0
 17 37  1  0  0  0  0
 18 19  1  0  0  0  0
 19 20  1  0  0  0  0
 19 38  1  0  0  0  0
 19 39  1  0  0  0  0
 20 21  1  0  0  0  0
 20 23  1  0  0  0  0
 20 40  1  0  0  0  0
 21 22  1  0  0  0  0
 21 41  1  0  0  0  0
 21 42  1  0  0  0  0
 22 43  1  0  0  0  0
 23 27  1  0  0  0  0
 23 24  1  0  0  0  0
 23 44  1  0  0  0  0
 24 25  1  0  0  0  0
 24 45  1  0  0  0  0
 24 46  1  0  0  0  0
 25 26  1  0  0  0  0
 25 47  1  0  0  0  0
 25 48  1  0  0  0  0
 26 27  1  0  0  0  0
 27 49  1  0  0  0  0
 27 50  1  0  0  0  0
M  END
> <s_m_source_file>
AV-unprocessed.smi

> <i_m_source_file_index>
221

> <i_lp_mmshare_version>
43012

> <i_f3d_flags>
0

> <s_epik_input>
W05IMl1DKD1PKVtDQEBIXTFbQ0gyXVtDQEBIXShGKVtDSDJdTjFjKG5bY0hdbjIpYyhjMjMpbltjSF1uM1tDSDJdW0NASF0oW0NIMl1bT0hdKVtDQEBIXTRbQ0gyXVtDSDJdT1tDSDJdNA==

> <s_epik_cmdline>
J2VwaWtfcHl0aG9uJywgJy1waCcsICc3LjAnLCAnLXRuJywgJzgnLCAnLW1hJywgJzIwMCcsICctbWV0YWxfYmluZGluZycsICctaW1hZScsICc8aW5maWxlLm1hZT4nLCAnLW9tYWUnLCAnPG91dGZpbGUubWFlPic=

> <r_lp_tautomer_probability>
1

> <r_epik_Ionization_Penalty>
0.000818822

> <r_epik_Ionization_Penalty_Charging>
0

> <r_epik_Ionization_Penalty_Neutral>
0.000818822

> <r_epik_State_Penalty>
0.000440551

> <r_epik_Charging_Adjusted_Penalty>
0.000440551

> <i_epik_Tot_Q>
0

> <i_epik_Tot_abs_Q>
0

> <r_epik_Metal_State_Penalty>
-0

> <b_epik_Metal_Only>
0

> <s_lp_Force_Field>
OPLS_2005

> <r_lp_Energy>
52.3399

> <b_lp_Chiralities_Consistent>
1

> <s_lp_Variant>
AV-unprocessed.smi:221-1

> <Gold.Version>
5.8.1

> <Gold.Id.Protein>
6NUR|6NUR_protein|mol2

> <Gold.PLP.Fitness>
54.5442

> <Gold.PLP.PLP>
-46.4491

> <Gold.PLP.part.hbond>
-4.5343

> <Gold.PLP.part.metal>
0.0000

> <Gold.PLP.part.buried>
0.4433

> <Gold.PLP.part.nonpolar>
-42.9929

> <Gold.PLP.part.repulsive>
0.5575

> <Gold.PLP.ligand.clash>
0.0000

> <Gold.PLP.ligand.torsion>
1.1840

> <Gold.PLP.Chemscore.Hbond>
3.3765

> <Gold.PLP.Chemscore.CHOScore>
0.0000

> <Gold.PLP.Chemscore.Metal>
0.0000

> <Gold.Chemscore.Hbonds>
donor molecule, donor type, donor heavy atom, donor atom, acceptor molecule, acceptor atom, score
      L1  H     1    30       P1  7948  0.78
      L1  H     1    31       P1  7957  0.77
      P1  H  7989  7998       L1    11  0.78
      P1  H  7997  8009       L1    22  0.64
      P1  H  7997  8010       L1    13  0.40

> <Gold.PLP.Chemscore.Internal.Correction>
0.3337

> <Gold.Rescore>
     Score         DG    S(hbond)    S(metal)    S(lipo)     H(rot)  DE(clash)    DE(int)     intcor
     11.64     -15.44       2.37        0.00      98.92       3.72       2.46       1.35       ----

> <Gold.Chemscore.Fitness>
11.6362

> <Gold.Chemscore.DG>
-15.4445

> <Gold.Chemscore.ZeroCoef>
-5.4800

> <Gold.Chemscore.Hbond>
2.3698

> <Gold.Chemscore.Metal>
0.0000

> <Gold.Chemscore.Lipo>
98.9161

> <Gold.Chemscore.Internal_Hbond>
0.0000

> <Gold.Chemscore.DEClash>
2.4614

> <Gold.Chemscore.DEInternal>
1.3468

> <Gold.Chemscore.Rot>
3.7202

> <Gold.Chemscore.Internal.Correction>
   9.000000E+99

> <Gold.Chemscore.Hbonds>
donor molecule, donor type, donor heavy atom, donor atom, acceptor molecule, acceptor atom, score
      L1  H     1    30       P1  7948  0.73
      L1  H     1    31       P1  7957  0.76
      P1  H  7989  7998       L1    11  0.14
      P1  H  7997  8009       L1    22  0.58
      P1  H  7997  8010       L1    13  0.01

> <Gold.Chemscore.Hbond.Weighted>
-7.9150

> <Gold.Chemscore.Metal.Weighted>
-0.0000

> <Gold.Chemscore.Lipo.Weighted>
-11.5732

> <Gold.Chemscore.Internal_Hbond.Weighted>
0.0000

> <Gold.Chemscore.DEClash.Weighted>
2.4614

> <Gold.Chemscore.DEInternal.Weighted>
1.3468

> <Gold.Chemscore.Rot.Weighted>
9.5237

> <Gold.Chemscore.Internal.Correction.Weighted>
   9.000000E+99

> <Gold.Protein.RotatedTorsions>
[ 6907 6896 6895 6894 ] final  176.23 input  -60.11 | X-H torsion
[ 7974 7965 7964 7962 ] final    0.45 input  175.53 | X-H torsion
[ 8008 7997 7996 7995 ] final   95.72 input   59.86 | X-H torsion
[ 10167 10162 10161 10158 ] final   -7.96 input  -65.29 | X-H torsion
[ 10718 10713 10712 10709 ] final  115.33 input   66.30 | X-H torsion
[ 10763 10752 10751 10750 ] final -167.86 input  -60.55 | X-H torsion
[ 11005 11000 10999 10996 ] final  118.41 input  -57.11 | X-H torsion

> <Gold.Protein.ActiveResidues>
 VAL166  LYS551  ARG553  GLY616  TRP617  ASP618  TYR619  PRO620  LYS621  CYS622 
 ASP623  PHE694  ASN695  SER759  ASP760  ASP761  ALA762  ILE779  LEU786  VAL792 
 PHE793  MET794  SER795  GLU796  ALA797  LYS798  CYS799  TRP800  GLU811  SER814 

> <Gold.Protein.RotatedAtoms>
  151.7235  133.3315  159.3321 H   0  0  0  0  0  0  0  0  0  0  0  0  # atno 6907 bound_to 6896
  150.7643  134.6427  159.6255 H   0  0  0  0  0  0  0  0  0  0  0  0  # atno 6908 bound_to 6896
  152.3637  134.6837  160.0250 H   0  0  0  0  0  0  0  0  0  0  0  0  # atno 6909 bound_to 6896
  146.2434  140.1135  142.8343 H   0  0  0  0  0  0  0  0  0  0  0  0  # atno 7974 bound_to 7965
  156.0720  140.3282  155.7587 H   0  0  0  0  0  0  0  0  0  0  0  0  # atno 8008 bound_to 7997
  155.5291  140.0592  157.2910 H   0  0  0  0  0  0  0  0  0  0  0  0  # atno 8009 bound_to 7997
  154.4535  140.1930  156.0466 H   0  0  0  0  0  0  0  0  0  0  0  0  # atno 8010 bound_to 7997
  140.7045  143.6022  150.8786 H   0  0  0  0  0  0  0  0  0  0  0  0  # atno 10167 bound_to 10162
  157.6228  131.1011  150.7315 H   0  0  0  0  0  0  0  0  0  0  0  0  # atno 10718 bound_to 10713
  154.6688  135.2936  154.9770 H   0  0  0  0  0  0  0  0  0  0  0  0  # atno 10763 bound_to 10752
  154.0804  135.6605  153.4841 H   0  0  0  0  0  0  0  0  0  0  0  0  # atno 10764 bound_to 10752
  153.0474  135.5196  154.7674 H   0  0  0  0  0  0  0  0  0  0  0  0  # atno 10765 bound_to 10752
  139.9108  134.9620  156.7498 H   0  0  0  0  0  0  0  0  0  0  0  0  # atno 11005 bound_to 11000
  145.0467  140.8986  143.5020 LP  0  0  0  0  0  0  0  0  0  0  0  0  # atno 17320 bound_to 7965
  145.1225  139.2684  143.5581 LP  0  0  0  0  0  0  0  0  0  0  0  0  # atno 17321 bound_to 7965
  139.9746  143.6018  152.2962 LP  0  0  0  0  0  0  0  0  0  0  0  0  # atno 17342 bound_to 10162
  139.6617  144.7662  151.1949 LP  0  0  0  0  0  0  0  0  0  0  0  0  # atno 17343 bound_to 10162
  156.7669  130.4816  149.5426 LP  0  0  0  0  0  0  0  0  0  0  0  0  # atno 17370 bound_to 10713
  156.1383  130.6226  151.0431 LP  0  0  0  0  0  0  0  0  0  0  0  0  # atno 17371 bound_to 10713
  140.6782  133.9498  155.7895 LP  0  0  0  0  0  0  0  0  0  0  0  0  # atno 17394 bound_to 11000
  141.0529  134.0459  157.3760 LP  0  0  0  0  0  0  0  0  0  0  0  0  # atno 17395 bound_to 11000

$$$$
