AV-unprocessed.smi:3285|AV-procd|sdf|12585|dock3
  -GOLD-   2272018503D 1   1.00000     0.00000
 Structure written by MMmdl.
 45 46  0  0  0  0  0  0  0  0  2 V2000
  153.5931  137.8827  156.1363 C   0  0  0  0  0  0  0  0  0  0  0  0
  152.4618  138.8600  155.9923 C   0  0  0  0  0  0  0  0  0  0  0  0
  152.4738  139.9821  156.6914 N   0  0  0  0  0  0  0  0  0  0  0  0
  151.3031  140.6629  156.3436 O   0  0  0  0  0  0  0  0  0  0  0  0
  150.6223  139.9132  155.4397 C   0  0  0  0  0  0  0  0  0  0  0  0
  149.3322  140.4714  154.9418 C   0  0  0  0  0  0  0  0  0  0  0  0
  151.3010  138.7560  155.1730 C   0  0  0  0  0  0  0  0  0  0  0  0
  150.9226  137.6345  154.2441 C   0  0  0  0  0  0  0  0  0  0  0  0
  150.7457  136.3132  155.0030 C   0  0  0  0  0  0  0  0  0  0  0  0
  150.1861  135.2682  154.1209 N   0  3  0  0  0  0  0  0  0  0  0  0
  149.2146  134.3473  154.7570 C   0  0  1  0  0  0  0  0  0  0  0  0
  148.5952  133.4112  153.7058 C   0  0  0  0  0  0  0  0  0  0  0  0
  149.6050  132.3722  153.1930 C   0  0  0  0  0  0  0  0  0  0  0  0
  150.2250  131.5455  154.3377 C   0  0  1  0  0  0  0  0  0  0  0  0
  151.2165  130.5188  153.7620 C   0  0  0  0  0  0  0  0  0  0  0  0
  150.8655  132.4763  155.4013 C   0  0  2  0  0  0  0  0  0  0  0  0
  151.4468  131.7053  156.5999 C   0  0  0  0  0  0  0  0  0  0  0  0
  149.8410  133.5193  155.8990 C   0  0  0  0  0  0  0  0  0  0  0  0
  153.2754  136.9979  156.6881 H   0  0  0  0  0  0  0  0  0  0  0  0
  154.4392  138.3190  156.6688 H   0  0  0  0  0  0  0  0  0  0  0  0
  153.9526  137.5549  155.1610 H   0  0  0  0  0  0  0  0  0  0  0  0
  148.5389  139.7263  155.0040 H   0  0  0  0  0  0  0  0  0  0  0  0
  149.4235  140.7832  153.9013 H   0  0  0  0  0  0  0  0  0  0  0  0
  149.0259  141.3384  155.5281 H   0  0  0  0  0  0  0  0  0  0  0  0
  149.9995  137.8713  153.7137 H   0  0  0  0  0  0  0  0  0  0  0  0
  151.6821  137.5088  153.4716 H   0  0  0  0  0  0  0  0  0  0  0  0
  151.7086  135.9872  155.3955 H   0  0  0  0  0  0  0  0  0  0  0  0
  150.0814  136.4619  155.8555 H   0  0  0  0  0  0  0  0  0  0  0  0
  149.7084  135.7382  153.3653 H   0  0  0  0  0  0  0  0  0  0  0  0
  148.4109  134.9594  155.1686 H   0  0  0  0  0  0  0  0  0  0  0  0
  147.7442  132.8901  154.1469 H   0  0  0  0  0  0  0  0  0  0  0  0
  148.1955  133.9892  152.8716 H   0  0  0  0  0  0  0  0  0  0  0  0
  149.1064  131.7088  152.4853 H   0  0  0  0  0  0  0  0  0  0  0  0
  150.3947  132.8741  152.6323 H   0  0  0  0  0  0  0  0  0  0  0  0
  149.4184  130.9880  154.8167 H   0  0  0  0  0  0  0  0  0  0  0  0
  152.0905  131.0081  153.3310 H   0  0  0  0  0  0  0  0  0  0  0  0
  150.7503  129.9231  152.9764 H   0  0  0  0  0  0  0  0  0  0  0  0
  151.5632  129.8195  154.5223 H   0  0  0  0  0  0  0  0  0  0  0  0
  151.6907  133.0135  154.9318 H   0  0  0  0  0  0  0  0  0  0  0  0
  150.6885  131.0849  157.0789 H   0  0  0  0  0  0  0  0  0  0  0  0
  151.8373  132.3900  157.3530 H   0  0  0  0  0  0  0  0  0  0  0  0
  152.2724  131.0583  156.3051 H   0  0  0  0  0  0  0  0  0  0  0  0
  150.2976  134.1719  156.6427 H   0  0  0  0  0  0  0  0  0  0  0  0
  149.0405  132.9989  156.4269 H   0  0  0  0  0  0  0  0  0  0  0  0
  150.9419  134.7239  153.7301 H   0  0  0  0  0  0  0  0  0  0  0  0
  1  2  1  0  0  0  0
  1 19  1  0  0  0  0
  1 20  1  0  0  0  0
  1 21  1  0  0  0  0
  2  7  1  0  0  0  0
  2  3  2  0  0  0  0
  3  4  1  0  0  0  0
  4  5  1  0  0  0  0
  5  6  1  0  0  0  0
  5  7  2  0  0  0  0
  6 22  1  0  0  0  0
  6 23  1  0  0  0  0
  6 24  1  0  0  0  0
  7  8  1  0  0  0  0
  8  9  1  0  0  0  0
  8 25  1  0  0  0  0
  8 26  1  0  0  0  0
  9 10  1  0  0  0  0
  9 27  1  0  0  0  0
  9 28  1  0  0  0  0
 10 11  1  0  0  0  0
 10 29  1  0  0  0  0
 10 45  1  0  0  0  0
 11 18  1  0  0  0  0
 11 12  1  0  0  0  0
 11 30  1  0  0  0  0
 12 13  1  0  0  0  0
 12 31  1  0  0  0  0
 12 32  1  0  0  0  0
 13 14  1  0  0  0  0
 13 33  1  0  0  0  0
 13 34  1  0  0  0  0
 14 15  1  0  0  0  0
 14 16  1  0  0  0  0
 14 35  1  0  0  0  0
 15 36  1  0  0  0  0
 15 37  1  0  0  0  0
 15 38  1  0  0  0  0
 16 17  1  0  0  0  0
 16 18  1  0  0  0  0
 16 39  1  0  0  0  0
 17 40  1  0  0  0  0
 17 41  1  0  0  0  0
 17 42  1  0  0  0  0
 18 43  1  0  0  0  0
 18 44  1  0  0  0  0
M  CHG  1  10   1
M  END
> <s_m_source_file>
AV-unprocessed.smi

> <i_m_source_file_index>
3285

> <i_lp_mmshare_version>
43012

> <i_f3d_flags>
0

> <s_epik_input>
W0NIM11jMW5vYyhbQ0gzXSljMVtDSDJdW0NIMl1bTkhdW0NAQEhdMltDSDJdW0NIMl1bQ0BASF0oW0NIM10pW0NAQEhdKFtDSDNdKVtDSDJdMg==

> <s_epik_cmdline>
J2VwaWtfcHl0aG9uJywgJy1waCcsICc3LjAnLCAnLXRuJywgJzgnLCAnLW1hJywgJzIwMCcsICctbWV0YWxfYmluZGluZycsICctaW1hZScsICc8aW5maWxlLm1hZT4nLCAnLW9tYWUnLCAnPG91dGZpbGUubWFlPic=

> <r_lp_tautomer_probability>
1

> <r_epik_Ionization_Penalty>
0.000204615

> <r_epik_Ionization_Penalty_Charging>
0.000204615

> <r_epik_Ionization_Penalty_Neutral>
9.28663e-11

> <r_epik_State_Penalty>
-0

> <r_epik_Charging_Adjusted_Penalty>
0.000204615

> <i_epik_Tot_Q>
1

> <i_epik_Tot_abs_Q>
1

> <r_epik_Metal_State_Penalty>
-0

> <b_epik_Metal_Only>
0

> <s_lp_Force_Field>
OPLS_2005

> <r_lp_Energy>
13.8901

> <b_lp_Chiralities_Consistent>
1

> <s_lp_Variant>
AV-unprocessed.smi:3285-6

> <Gold.Version>
5.8.1

> <Gold.Id.Protein>
6NUR|6NUR_protein|mol2

> <Gold.PLP.Fitness>
37.9248

> <Gold.PLP.PLP>
-30.2467

> <Gold.PLP.part.hbond>
-2.5697

> <Gold.PLP.part.metal>
0.0000

> <Gold.PLP.part.buried>
-0.5205

> <Gold.PLP.part.nonpolar>
-27.4560

> <Gold.PLP.part.repulsive>
0.0638

> <Gold.PLP.ligand.clash>
0.0000

> <Gold.PLP.ligand.torsion>
0.2900

> <Gold.PLP.Chemscore.Hbond>
2.7500

> <Gold.PLP.Chemscore.CHOScore>
0.0000

> <Gold.PLP.Chemscore.Metal>
0.0000

> <Gold.Chemscore.Hbonds>
donor molecule, donor type, donor heavy atom, donor atom, acceptor molecule, acceptor atom, score
      L1  H    10    29       P1  7948  1.30
      P1  H  7997  8010       L1     3  0.50

> <Gold.PLP.Chemscore.Internal.Correction>
0.0081

> <Gold.Rescore>
     Score         DG    S(hbond)    S(metal)    S(lipo)     H(rot)  DE(clash)    DE(int)     intcor
     15.73     -17.51       1.75        0.00      82.34       1.35       1.44       0.34       ----

> <Gold.Chemscore.Fitness>
15.7311

> <Gold.Chemscore.DG>
-17.5097

> <Gold.Chemscore.ZeroCoef>
-5.4800

> <Gold.Chemscore.Hbond>
1.7493

> <Gold.Chemscore.Metal>
0.0000

> <Gold.Chemscore.Lipo>
82.3410

> <Gold.Chemscore.Internal_Hbond>
0.0000

> <Gold.Chemscore.DEClash>
1.4421

> <Gold.Chemscore.DEInternal>
0.3366

> <Gold.Chemscore.Rot>
1.3465

> <Gold.Chemscore.Internal.Correction>
   9.000000E+99

> <Gold.Chemscore.Hbonds>
donor molecule, donor type, donor heavy atom, donor atom, acceptor molecule, acceptor atom, score
      L1  H    10    29       P1  7948  0.06
      P1  H  7997  8010       L1     3  0.02

> <Gold.Chemscore.Hbond.Weighted>
-5.8428

> <Gold.Chemscore.Metal.Weighted>
-0.0000

> <Gold.Chemscore.Lipo.Weighted>
-9.6339

> <Gold.Chemscore.Internal_Hbond.Weighted>
0.0000

> <Gold.Chemscore.DEClash.Weighted>
1.4421

> <Gold.Chemscore.DEInternal.Weighted>
0.3366

> <Gold.Chemscore.Rot.Weighted>
3.4470

> <Gold.Chemscore.Internal.Correction.Weighted>
   9.000000E+99

> <Gold.Protein.RotatedTorsions>
[ 6907 6896 6895 6894 ] final   56.21 input  -60.11 | X-H torsion
[ 7974 7965 7964 7962 ] final   94.35 input  175.53 | X-H torsion
[ 8008 7997 7996 7995 ] final   73.98 input   59.86 | X-H torsion
[ 10167 10162 10161 10158 ] final -107.37 input  -65.29 | X-H torsion
[ 10718 10713 10712 10709 ] final -130.44 input   66.30 | X-H torsion
[ 10763 10752 10751 10750 ] final   57.93 input  -60.55 | X-H torsion
[ 11005 11000 10999 10996 ] final   29.95 input  -57.11 | X-H torsion

> <Gold.Protein.ActiveResidues>
 VAL166  LYS551  ARG553  GLY616  TRP617  ASP618  TYR619  PRO620  LYS621  CYS622 
 ASP623  PHE694  ASN695  SER759  ASP760  ASP761  ALA762  ILE779  LEU786  VAL792 
 PHE793  MET794  SER795  GLU796  ALA797  LYS798  CYS799  TRP800  GLU811  SER814 

> <Gold.Protein.RotatedAtoms>
  152.3614  134.6866  160.0205 H   0  0  0  0  0  0  0  0  0  0  0  0  # atno 6907 bound_to 6896
  151.7188  133.3308  159.3318 H   0  0  0  0  0  0  0  0  0  0  0  0  # atno 6908 bound_to 6896
  150.7608  134.6401  159.6277 H   0  0  0  0  0  0  0  0  0  0  0  0  # atno 6909 bound_to 6896
  145.4667  139.2284  143.2957 H   0  0  0  0  0  0  0  0  0  0  0  0  # atno 7974 bound_to 7965
  155.7916  140.3479  155.5352 H   0  0  0  0  0  0  0  0  0  0  0  0  # atno 8008 bound_to 7997
  155.8628  140.0974  157.1622 H   0  0  0  0  0  0  0  0  0  0  0  0  # atno 8009 bound_to 7997
  154.4013  140.1355  156.3969 H   0  0  0  0  0  0  0  0  0  0  0  0  # atno 8010 bound_to 7997
  140.1777  143.3992  152.1306 H   0  0  0  0  0  0  0  0  0  0  0  0  # atno 10167 bound_to 10162
  156.2144  130.6939  151.0686 H   0  0  0  0  0  0  0  0  0  0  0  0  # atno 10718 bound_to 10713
  152.9860  135.5624  154.5469 H   0  0  0  0  0  0  0  0  0  0  0  0  # atno 10763 bound_to 10752
  154.4914  135.2793  155.1496 H   0  0  0  0  0  0  0  0  0  0  0  0  # atno 10764 bound_to 10752
  154.2964  135.6316  153.5459 H   0  0  0  0  0  0  0  0  0  0  0  0  # atno 10765 bound_to 10752
  140.2996  134.2772  155.7757 H   0  0  0  0  0  0  0  0  0  0  0  0  # atno 11005 bound_to 11000
  146.2420  140.5441  142.8930 LP  0  0  0  0  0  0  0  0  0  0  0  0  # atno 17320 bound_to 7965
  144.7970  140.6141  143.6503 LP  0  0  0  0  0  0  0  0  0  0  0  0  # atno 17321 bound_to 7965
  139.5310  144.7158  151.5057 LP  0  0  0  0  0  0  0  0  0  0  0  0  # atno 17342 bound_to 10162
  140.6540  143.8637  150.6816 LP  0  0  0  0  0  0  0  0  0  0  0  0  # atno 17343 bound_to 10162
  157.7055  131.0758  150.6679 LP  0  0  0  0  0  0  0  0  0  0  0  0  # atno 17370 bound_to 10713
  156.6740  130.4547  149.5648 LP  0  0  0  0  0  0  0  0  0  0  0  0  # atno 17371 bound_to 10713
  141.2131  133.7637  156.9746 LP  0  0  0  0  0  0  0  0  0  0  0  0  # atno 17394 bound_to 11000
  140.1122  134.9470  157.2081 LP  0  0  0  0  0  0  0  0  0  0  0  0  # atno 17395 bound_to 11000

$$$$
