#       Name:                AV-unprocessed.smi:2448
#       Creating user name   scv26
#       Creation time:       Fri Mar 27 13:28:47 2020


#       File generated by GOLD software.
#

@<TRIPOS>MOLECULE
AV-unprocessed.smi:2448
    41    42     1
SMALL
NO_CHARGES


@<TRIPOS>ATOM
      1 ****        -1.9611   1.1543  -2.3504 O.3            1 S1                 0.0000
      2 ****        -1.7843   0.8064  -0.9883 C.3            1 S1                 0.0000
      3 ****        -0.2731   0.7864  -0.6832 C.3            1 S1                 0.0000
      4 ****         0.4163  -0.3007  -1.3844 N.3            1 S1                 0.0000
      5 ****         1.8510  -0.4416  -1.0964 C.3            1 S1                 0.0000
      6 ****         2.1164  -1.2679   0.1887 C.3            1 S1                 0.0000
      7 ****         1.7573  -0.5733   1.4900 C.ar           1 S1                 0.0000
      8 ****         2.4791   0.5568   1.9263 C.ar           1 S1                 0.0000
      9 ****         2.0995   1.1706   3.1369 C.ar           1 S1                 0.0000
     10 ****         1.0784   0.7306   3.9032 N.ar           1 S1                 0.0000
     11 ****         0.3957  -0.3560   3.4829 C.ar           1 S1                 0.0000
     12 ****         0.6948  -1.0443   2.2902 C.ar           1 S1                 0.0000
     13 ****         2.5589  -1.0774  -2.3116 C.3            1 S1                 0.0000
     14 ****         2.3314  -0.3443  -3.4021 F              1 S1                 0.0000
     15 ****         3.8760  -1.1201  -2.1099 F              1 S1                 0.0000
     16 ****         2.1132  -2.3161  -2.5257 F              1 S1                 0.0000
     17 ****        -2.4953  -0.5261  -0.6908 C.3            1 S1                 0.0000
     18 ****        -4.0044  -0.2639  -0.6874 C.3            1 S1                 0.0000
     19 ****        -4.2699   1.4094  -0.0505 S.3            1 S1                 0.0000
     20 ****        -2.5157   1.8591  -0.1372 C.3            1 S1                 0.0000
     21 ****        -1.5818   0.4735  -2.8847 H              1 S1                 0.0000
     22 ****         0.1702   1.7455  -0.9544 H              1 S1                 0.0000
     23 ****        -0.1465   0.6892   0.3914 H              1 S1                 0.0000
     24 ****         0.2901  -0.1799  -2.3844 H              1 S1                 0.0000
     25 ****         2.2898   0.5496  -0.9726 H              1 S1                 0.0000
     26 ****         1.5945  -2.2240   0.1290 H              1 S1                 0.0000
     27 ****         3.1760  -1.5155   0.2523 H              1 S1                 0.0000
     28 ****         3.3028   0.9484   1.3474 H              1 S1                 0.0000
     29 ****         2.6301   2.0389   3.4984 H              1 S1                 0.0000
     30 ****        -0.4148  -0.6869   4.1152 H              1 S1                 0.0000
     31 ****         0.1138  -1.9058   1.9955 H              1 S1                 0.0000
     32 ****        -2.2288  -1.3097  -1.4010 H              1 S1                 0.0000
     33 ****        -2.1959  -0.8791   0.2973 H              1 S1                 0.0000
     34 ****        -4.3935  -0.3045  -1.7051 H              1 S1                 0.0000
     35 ****        -4.5479  -1.0000  -0.0949 H              1 S1                 0.0000
     36 ****        -2.1342   1.8451   0.8846 H              1 S1                 0.0000
     37 ****        -2.3865   2.8741  -0.5150 H              1 S1                 0.0000
     38 ****        -1.5053   2.0242  -2.5384 LP             1 S1                 0.0000
     39 ****        -2.9367   1.2385  -2.5533 LP             1 S1                 0.0000
     40 ****        -0.0031  -1.1417  -1.0426 LP             1 S1                 0.0000
     41 ****         0.8354   1.1947   4.7550 LP             1 S1                 0.0000
@<TRIPOS>BOND
    1    1    2 1     
    2    1   21 1     
    3    2   20 1     
    4    2    3 1     
    5    2   17 1     
    6    3    4 1     
    7    3   22 1     
    8    3   23 1     
    9    4    5 1     
   10    4   24 1     
   11    5    6 1     
   12    5   13 1     
   13    5   25 1     
   14    6    7 1     
   15    6   26 1     
   16    6   27 1     
   17    7   12 ar    
   18    7    8 ar    
   19    8    9 ar    
   20    8   28 1     
   21    9   10 ar    
   22    9   29 1     
   23   10   11 ar    
   24   11   12 ar    
   25   11   30 1     
   26   12   31 1     
   27   13   14 1     
   28   13   15 1     
   29   13   16 1     
   30   17   18 1     
   31   17   32 1     
   32   17   33 1     
   33   18   19 1     
   34   18   34 1     
   35   18   35 1     
   36   19   20 1     
   37   20   36 1     
   38   20   37 1     
   39    1   38 1     
   40    1   39 1     
   41    4   40 1     
   42   10   41 1     
@<TRIPOS>SUBSTRUCTURE
      1 S1             1
@<TRIPOS>SET
LONE_PAIRS      STATIC     ATOMS    <user>   **** ""
4 38 39 40 41
DONOR_HYDROGENS      STATIC     ATOMS    <user>   **** ""
2 21 24
ATOM$BLUE        STATIC     ATOMS    COLORGROUP SYSTEM
4 38 39 40 41
ATOM$RED        STATIC     ATOMS    COLORGROUP SYSTEM
2 21 24
