AV-unprocessed.smi:4|AV-procd|sdf|36|dock6
  -GOLD-   2262015153D 1   1.00000     0.00000
 Structure written by MMmdl.
 42 43  0  0  0  0  0  0  0  0  2 V2000
  151.3582  143.3231  160.2248 C   0  0  0  0  0  0  0  0  0  0  0  0
  151.8360  143.5024  158.7582 C   0  0  0  0  0  0  0  0  0  0  0  0
  151.0510  144.7215  158.2129 C   0  0  0  0  0  0  0  0  0  0  0  0
  153.3480  143.8305  158.8578 C   0  0  0  0  0  0  0  0  0  0  0  0
  151.6104  142.2956  157.8794 N   0  0  0  0  0  0  0  0  0  0  0  0
  150.7327  142.3825  156.7672 C   0  0  0  0  0  0  0  0  0  0  0  0
  150.4676  141.3514  155.9329 C   0  0  0  0  0  0  0  0  0  0  0  0
  149.5296  141.4331  154.7283 C   0  0  0  0  0  0  0  0  0  0  0  0
  148.2394  142.0522  155.0313 N   0  0  0  0  0  0  0  0  0  0  0  0
  147.1469  141.5576  154.1988 C   0  0  0  0  0  0  0  0  0  0  0  0
  145.8091  142.1798  154.6108 C   0  0  0  0  0  0  0  0  0  0  0  0
  144.8728  141.1207  154.5639 O   0  0  0  0  0  0  0  0  0  0  0  0
  145.7809  142.9672  155.9337 C   0  0  0  0  0  0  0  0  0  0  0  0
  144.8872  144.0154  155.2694 C   0  0  0  0  0  0  0  0  0  0  0  0
  145.3580  143.4798  153.9169 C   0  0  0  0  0  0  0  0  0  0  0  0
  151.1338  140.0821  156.2147 C   0  0  0  0  0  0  0  0  0  0  0  0
  150.9197  139.1047  155.4979 O   0  0  0  0  0  0  0  0  0  0  0  0
  151.9789  140.0294  157.2788 N   0  5  0  0  0  0  0  0  0  0  0  0
  152.2348  141.0881  158.1038 C   0  0  0  0  0  0  0  0  0  0  0  0
  153.0189  140.9642  159.0434 O   0  0  0  0  0  0  0  0  0  0  0  0
  151.5562  144.2173  160.8171 H   0  0  0  0  0  0  0  0  0  0  0  0
  151.8743  142.5030  160.7262 H   0  0  0  0  0  0  0  0  0  0  0  0
  150.2830  143.1496  160.2878 H   0  0  0  0  0  0  0  0  0  0  0  0
  149.9926  144.4859  158.0969 H   0  0  0  0  0  0  0  0  0  0  0  0
  151.4155  145.0739  157.2496 H   0  0  0  0  0  0  0  0  0  0  0  0
  151.1215  145.5719  158.8919 H   0  0  0  0  0  0  0  0  0  0  0  0
  153.5345  144.6203  159.5862 H   0  0  0  0  0  0  0  0  0  0  0  0
  153.7773  144.1823  157.9213 H   0  0  0  0  0  0  0  0  0  0  0  0
  153.9192  142.9568  159.1739 H   0  0  0  0  0  0  0  0  0  0  0  0
  150.2620  143.3322  156.5997 H   0  0  0  0  0  0  0  0  0  0  0  0
  150.0244  141.9961  153.9355 H   0  0  0  0  0  0  0  0  0  0  0  0
  149.3797  140.4213  154.3493 H   0  0  0  0  0  0  0  0  0  0  0  0
  148.3138  143.0570  154.9076 H   0  0  0  0  0  0  0  0  0  0  0  0
  147.3543  141.7564  153.1461 H   0  0  0  0  0  0  0  0  0  0  0  0
  147.0953  140.4722  154.2923 H   0  0  0  0  0  0  0  0  0  0  0  0
  144.7206  140.9273  153.6515 H   0  0  0  0  0  0  0  0  0  0  0  0
  145.3134  142.4459  156.7699 H   0  0  0  0  0  0  0  0  0  0  0  0
  146.7566  143.3677  156.2136 H   0  0  0  0  0  0  0  0  0  0  0  0
  143.8256  143.8383  155.4474 H   0  0  0  0  0  0  0  0  0  0  0  0
  145.1676  145.0492  155.4730 H   0  0  0  0  0  0  0  0  0  0  0  0
  146.1908  144.0531  153.5058 H   0  0  0  0  0  0  0  0  0  0  0  0
  144.5622  143.3542  153.1819 H   0  0  0  0  0  0  0  0  0  0  0  0
  1  2  1  0  0  0  0
  1 21  1  0  0  0  0
  1 22  1  0  0  0  0
  1 23  1  0  0  0  0
  2  3  1  0  0  0  0
  2  4  1  0  0  0  0
  2  5  1  0  0  0  0
  3 24  1  0  0  0  0
  3 25  1  0  0  0  0
  3 26  1  0  0  0  0
  4 27  1  0  0  0  0
  4 28  1  0  0  0  0
  4 29  1  0  0  0  0
  5 19  1  0  0  0  0
  5  6  1  0  0  0  0
  6  7  2  0  0  0  0
  6 30  1  0  0  0  0
  7  8  1  0  0  0  0
  7 16  1  0  0  0  0
  8  9  1  0  0  0  0
  8 31  1  0  0  0  0
  8 32  1  0  0  0  0
  9 10  1  0  0  0  0
  9 33  1  0  0  0  0
 10 11  1  0  0  0  0
 10 34  1  0  0  0  0
 10 35  1  0  0  0  0
 11 15  1  0  0  0  0
 11 12  1  0  0  0  0
 11 13  1  0  0  0  0
 12 36  1  0  0  0  0
 13 14  1  0  0  0  0
 13 37  1  0  0  0  0
 13 38  1  0  0  0  0
 14 15  1  0  0  0  0
 14 39  1  0  0  0  0
 14 40  1  0  0  0  0
 15 41  1  0  0  0  0
 15 42  1  0  0  0  0
 16 17  2  0  0  0  0
 16 18  1  0  0  0  0
 18 19  1  0  0  0  0
 19 20  2  0  0  0  0
M  CHG  1  18  -1
M  END
> <s_m_source_file>
AV-unprocessed.smi

> <i_m_source_file_index>
4

> <i_lp_mmshare_version>
43012

> <i_f3d_flags>
0

> <s_epik_input>
W0NIM11DKFtDSDNdKShbQ0gzXSluMVtjSF1jKGMoPU8pW25IXWMxPU8pW0NIMl1bTkhdW0NIMl1DMihbT0hdKVtDSDJdW0NIMl1bQ0gyXTI=

> <s_epik_cmdline>
J2VwaWtfcHl0aG9uJywgJy1waCcsICc3LjAnLCAnLXRuJywgJzgnLCAnLW1hJywgJzIwMCcsICctbWV0YWxfYmluZGluZycsICctaW1hZScsICc8aW5maWxlLm1hZT4nLCAnLW9tYWUnLCAnPG91dGZpbGUubWFlPic=

> <r_lp_tautomer_probability>
0.999537

> <r_epik_Ionization_Penalty>
6.25758

> <r_epik_Ionization_Penalty_Charging>
1.60838e-06

> <r_epik_Ionization_Penalty_Neutral>
6.25758

> <r_epik_State_Penalty>
6.1746

> <r_epik_Charging_Adjusted_Penalty>
6.1746

> <i_epik_Tot_Q>
-1

> <i_epik_Tot_abs_Q>
1

> <r_epik_Metal_State_Penalty>
2.58365

> <b_epik_Metal_Only>
1

> <s_lp_Force_Field>
OPLS_2005

> <r_lp_Energy>
44.4869

> <b_lp_Chiralities_Consistent>
1

> <s_lp_Variant>
AV-unprocessed.smi:4-4

> <Gold.Version>
5.8.1

> <Gold.Id.Protein>
6NUR|6NUR_protein|mol2

> <Gold.PLP.Fitness>
44.8553

> <Gold.PLP.PLP>
-38.1311

> <Gold.PLP.part.hbond>
-2.0000

> <Gold.PLP.part.metal>
0.0000

> <Gold.PLP.part.buried>
-4.8002

> <Gold.PLP.part.nonpolar>
-31.5512

> <Gold.PLP.part.repulsive>
0.0187

> <Gold.PLP.ligand.clash>
0.0000

> <Gold.PLP.ligand.torsion>
1.1967

> <Gold.PLP.Chemscore.Hbond>
2.0000

> <Gold.PLP.Chemscore.CHOScore>
1.0000

> <Gold.PLP.Chemscore.Metal>
0.0000

> <Gold.Chemscore.Hbonds>
donor molecule, donor type, donor heavy atom, donor atom, acceptor molecule, acceptor atom, score
      L1  H     9    33       P1  8028  0.96
      L1  H    12    36       P1 10175  0.96
      L1  C     6    30       P1  8028  1.00

> <Gold.PLP.Chemscore.Internal.Correction>
0.1176

> <Gold.Rescore>
     Score         DG    S(hbond)    S(metal)    S(lipo)     H(rot)  DE(clash)    DE(int)     intcor
     13.84     -16.33       1.84        0.00      92.63       2.40       0.01       2.49       ----

> <Gold.Chemscore.Fitness>
13.8352

> <Gold.Chemscore.DG>
-16.3278

> <Gold.Chemscore.ZeroCoef>
-5.4800

> <Gold.Chemscore.Hbond>
1.8413

> <Gold.Chemscore.Metal>
0.0000

> <Gold.Chemscore.Lipo>
92.6275

> <Gold.Chemscore.Internal_Hbond>
0.0000

> <Gold.Chemscore.DEClash>
0.0074

> <Gold.Chemscore.DEInternal>
2.4852

> <Gold.Chemscore.Rot>
2.3983

> <Gold.Chemscore.Internal.Correction>
   9.000000E+99

> <Gold.Chemscore.Hbonds>
donor molecule, donor type, donor heavy atom, donor atom, acceptor molecule, acceptor atom, score
      L1  H     9    33       P1  8028  0.92
      L1  H    12    36       P1 10175  0.75

> <Gold.Chemscore.Hbond.Weighted>
-6.1499

> <Gold.Chemscore.Metal.Weighted>
-0.0000

> <Gold.Chemscore.Lipo.Weighted>
-10.8374

> <Gold.Chemscore.Internal_Hbond.Weighted>
0.0000

> <Gold.Chemscore.DEClash.Weighted>
0.0074

> <Gold.Chemscore.DEInternal.Weighted>
2.4852

> <Gold.Chemscore.Rot.Weighted>
6.1395

> <Gold.Chemscore.Internal.Correction.Weighted>
   9.000000E+99

> <Gold.Protein.RotatedTorsions>
[ 6907 6896 6895 6894 ] final    0.23 input  -60.11 | X-H torsion
[ 7974 7965 7964 7962 ] final  -62.90 input  175.53 | X-H torsion
[ 8008 7997 7996 7995 ] final   14.17 input   59.86 | X-H torsion
[ 10167 10162 10161 10158 ] final   96.14 input  -65.29 | X-H torsion
[ 10718 10713 10712 10709 ] final  179.94 input   66.30 | X-H torsion
[ 10763 10752 10751 10750 ] final -172.70 input  -60.55 | X-H torsion
[ 11005 11000 10999 10996 ] final -154.77 input  -57.11 | X-H torsion

> <Gold.Protein.ActiveResidues>
 VAL166  LYS551  ARG553  GLY616  TRP617  ASP618  TYR619  PRO620  LYS621  CYS622 
 ASP623  PHE694  ASN695  SER759  ASP760  ASP761  ALA762  ILE779  LEU786  VAL792 
 PHE793  MET794  SER795  GLU796  ALA797  LYS798  CYS799  TRP800  GLU811  SER814 

> <Gold.Protein.RotatedAtoms>
  151.5730  135.1061  159.9999 H   0  0  0  0  0  0  0  0  0  0  0  0  # atno 6907 bound_to 6896
  152.4391  133.7411  159.6652 H   0  0  0  0  0  0  0  0  0  0  0  0  # atno 6908 bound_to 6896
  150.8294  133.8048  159.3128 H   0  0  0  0  0  0  0  0  0  0  0  0  # atno 6909 bound_to 6896
  145.7856  140.8738  143.0307 H   0  0  0  0  0  0  0  0  0  0  0  0  # atno 7974 bound_to 7965
  154.8447  140.2920  155.5636 H   0  0  0  0  0  0  0  0  0  0  0  0  # atno 8008 bound_to 7997
  156.3013  140.2507  156.3327 H   0  0  0  0  0  0  0  0  0  0  0  0  # atno 8009 bound_to 7997
  154.9087  140.0389  157.1923 H   0  0  0  0  0  0  0  0  0  0  0  0  # atno 8010 bound_to 7997
  139.7923  144.6847  150.9876 H   0  0  0  0  0  0  0  0  0  0  0  0  # atno 10167 bound_to 10162
  156.8684  130.9775  151.3076 H   0  0  0  0  0  0  0  0  0  0  0  0  # atno 10718 bound_to 10713
  154.6163  135.2870  155.0376 H   0  0  0  0  0  0  0  0  0  0  0  0  # atno 10763 bound_to 10752
  154.1588  135.6491  153.4984 H   0  0  0  0  0  0  0  0  0  0  0  0  # atno 10764 bound_to 10752
  153.0216  135.5373  154.6935 H   0  0  0  0  0  0  0  0  0  0  0  0  # atno 10765 bound_to 10752
  140.6938  134.4012  157.5217 H   0  0  0  0  0  0  0  0  0  0  0  0  # atno 11005 bound_to 11000
  144.6789  140.0050  143.7484 LP  0  0  0  0  0  0  0  0  0  0  0  0  # atno 17320 bound_to 7965
  146.0030  139.3106  143.0916 LP  0  0  0  0  0  0  0  0  0  0  0  0  # atno 17321 bound_to 7965
  140.7820  143.4368  151.0611 LP  0  0  0  0  0  0  0  0  0  0  0  0  # atno 17342 bound_to 10162
  139.8044  143.8038  152.3166 LP  0  0  0  0  0  0  0  0  0  0  0  0  # atno 17343 bound_to 10162
  157.6210  130.8655  149.9109 LP  0  0  0  0  0  0  0  0  0  0  0  0  # atno 17370 bound_to 10713
  156.0739  130.3681  150.0717 LP  0  0  0  0  0  0  0  0  0  0  0  0  # atno 17371 bound_to 10713
  139.8916  134.8776  156.2312 LP  0  0  0  0  0  0  0  0  0  0  0  0  # atno 17394 bound_to 11000
  141.0220  133.7036  156.1284 LP  0  0  0  0  0  0  0  0  0  0  0  0  # atno 17395 bound_to 11000

$$$$
