AV-unprocessed.smi:2331|AV-procd|sdf|9316|dock2
  -GOLD-   2272012533D 1   1.00000     0.00000
 Structure written by MMmdl.
 50 51  0  0  0  0  0  0  0  0  2 V2000
  151.2076  137.4694  158.6633 C   0  0  0  0  0  0  0  0  0  0  0  0
  150.5773  137.7334  157.2739 C   0  0  0  0  0  0  0  0  0  0  0  0
  151.6463  137.3591  156.2248 C   0  0  0  0  0  0  0  0  0  0  0  0
  149.3507  136.7975  157.0901 C   0  0  0  0  0  0  0  0  0  0  0  0
  148.6440  136.5308  158.3415 N   0  0  0  0  0  0  0  0  0  0  0  0
  148.6049  135.3556  158.9918 C   0  0  0  0  0  0  0  0  0  0  0  0
  149.1066  134.3277  158.5383 O   0  0  0  0  0  0  0  0  0  0  0  0
  147.8913  135.4022  160.1404 N   0  0  0  0  0  0  0  0  0  0  0  0
  147.8075  136.6134  160.9659 C   0  0  0  0  0  0  0  0  0  0  0  0
  147.7933  136.1245  162.4077 C   0  0  0  0  0  0  0  0  0  0  0  0
  147.1039  134.7771  162.3069 C   0  0  0  0  0  0  0  0  0  0  0  0
  147.5238  134.2118  160.9358 C   0  0  1  0  0  0  0  0  0  0  0  0
  146.4229  133.3080  160.2849 C   0  0  0  0  0  0  0  0  0  0  0  0
  146.8525  132.7882  158.8972 C   0  0  0  0  0  0  0  0  0  0  0  0
  145.9616  132.1416  161.1823 C   0  0  0  0  0  0  0  0  0  0  0  0
  145.2916  134.1070  160.0004 O   0  0  0  0  0  0  0  0  0  0  0  0
  150.1597  139.2061  157.0831 C   0  0  0  0  0  0  0  0  0  0  0  0
  149.1875  139.8380  157.9017 C   0  0  0  0  0  0  0  0  0  0  0  0
  148.8336  141.1809  157.6605 C   0  0  0  0  0  0  0  0  0  0  0  0
  149.4196  141.8627  156.6546 N   0  3  0  0  0  0  0  0  0  0  0  0
  150.3493  141.3114  155.8476 C   0  0  0  0  0  0  0  0  0  0  0  0
  150.7401  139.9712  156.0408 C   0  0  0  0  0  0  0  0  0  0  0  0
  151.4890  136.4217  158.7748 H   0  0  0  0  0  0  0  0  0  0  0  0
  150.5238  137.6993  159.4800 H   0  0  0  0  0  0  0  0  0  0  0  0
  152.1122  138.0601  158.8125 H   0  0  0  0  0  0  0  0  0  0  0  0
  151.9787  136.3277  156.3493 H   0  0  0  0  0  0  0  0  0  0  0  0
  152.5260  137.9979  156.3113 H   0  0  0  0  0  0  0  0  0  0  0  0
  151.2745  137.4506  155.2045 H   0  0  0  0  0  0  0  0  0  0  0  0
  148.6255  137.2620  156.4215 H   0  0  0  0  0  0  0  0  0  0  0  0
  149.6430  135.8678  156.5985 H   0  0  0  0  0  0  0  0  0  0  0  0
  148.1641  137.3116  158.7649 H   0  0  0  0  0  0  0  0  0  0  0  0
  148.6361  137.3066  160.8083 H   0  0  0  0  0  0  0  0  0  0  0  0
  146.8799  137.1354  160.7275 H   0  0  0  0  0  0  0  0  0  0  0  0
  148.8158  135.9899  162.7635 H   0  0  0  0  0  0  0  0  0  0  0  0
  147.2869  136.8127  163.0849 H   0  0  0  0  0  0  0  0  0  0  0  0
  147.3631  134.1135  163.1325 H   0  0  0  0  0  0  0  0  0  0  0  0
  146.0270  134.9434  162.3437 H   0  0  0  0  0  0  0  0  0  0  0  0
  148.4291  133.6221  161.0960 H   0  0  0  0  0  0  0  0  0  0  0  0
  147.6723  132.0730  158.9640 H   0  0  0  0  0  0  0  0  0  0  0  0
  147.1779  133.6043  158.2506 H   0  0  0  0  0  0  0  0  0  0  0  0
  146.0318  132.2779  158.3911 H   0  0  0  0  0  0  0  0  0  0  0  0
  146.7937  131.4890  161.4451 H   0  0  0  0  0  0  0  0  0  0  0  0
  145.2140  131.5279  160.6784 H   0  0  0  0  0  0  0  0  0  0  0  0
  145.5122  132.4931  162.1110 H   0  0  0  0  0  0  0  0  0  0  0  0
  145.0986  134.0394  159.0779 H   0  0  0  0  0  0  0  0  0  0  0  0
  148.6972  139.3206  158.7117 H   0  0  0  0  0  0  0  0  0  0  0  0
  148.1022  141.7260  158.2393 H   0  0  0  0  0  0  0  0  0  0  0  0
  150.7482  141.9527  155.0752 H   0  0  0  0  0  0  0  0  0  0  0  0
  151.4791  139.5379  155.3833 H   0  0  0  0  0  0  0  0  0  0  0  0
  149.1488  142.8340  156.4979 H   0  0  0  0  0  0  0  0  0  0  0  0
  1  2  1  0  0  0  0
  1 23  1  0  0  0  0
  1 24  1  0  0  0  0
  1 25  1  0  0  0  0
  2  3  1  0  0  0  0
  2  4  1  0  0  0  0
  2 17  1  0  0  0  0
  3 26  1  0  0  0  0
  3 27  1  0  0  0  0
  3 28  1  0  0  0  0
  4  5  1  0  0  0  0
  4 29  1  0  0  0  0
  4 30  1  0  0  0  0
  5  6  1  0  0  0  0
  5 31  1  0  0  0  0
  6  7  2  0  0  0  0
  6  8  1  0  0  0  0
  8 12  1  0  0  0  0
  8  9  1  0  0  0  0
  9 10  1  0  0  0  0
  9 32  1  0  0  0  0
  9 33  1  0  0  0  0
 10 11  1  0  0  0  0
 10 34  1  0  0  0  0
 10 35  1  0  0  0  0
 11 12  1  0  0  0  0
 11 36  1  0  0  0  0
 11 37  1  0  0  0  0
 12 13  1  0  0  0  0
 12 38  1  0  0  0  0
 13 14  1  0  0  0  0
 13 15  1  0  0  0  0
 13 16  1  0  0  0  0
 14 39  1  0  0  0  0
 14 40  1  0  0  0  0
 14 41  1  0  0  0  0
 15 42  1  0  0  0  0
 15 43  1  0  0  0  0
 15 44  1  0  0  0  0
 16 45  1  0  0  0  0
 17 22  1  0  0  0  0
 17 18  2  0  0  0  0
 18 19  1  0  0  0  0
 18 46  1  0  0  0  0
 19 20  2  0  0  0  0
 19 47  1  0  0  0  0
 20 21  1  0  0  0  0
 20 50  1  0  0  0  0
 21 22  2  0  0  0  0
 21 48  1  0  0  0  0
 22 49  1  0  0  0  0
M  CHG  1  20   1
M  END
> <s_m_source_file>
AV-unprocessed.smi

> <i_m_source_file_index>
2331

> <i_lp_mmshare_version>
43012

> <i_f3d_flags>
0

> <s_epik_input>
W2NIXTFbY0hdbltjSF1bY0hdYzFDKFtDSDNdKShbQ0gzXSlbQ0gyXVtOSF1DKD1PKU4yW0NIMl1bQ0gyXVtDSDJdW0NASF0yQyhbQ0gzXSkoW0NIM10pW09IXQ==

> <s_epik_cmdline>
J2VwaWtfcHl0aG9uJywgJy1waCcsICc3LjAnLCAnLXRuJywgJzgnLCAnLW1hJywgJzIwMCcsICctbWV0YWxfYmluZGluZycsICctaW1hZScsICc8aW5maWxlLm1hZT4nLCAnLW9tYWUnLCAnPG91dGZpbGUubWFlPic=

> <r_epik_Ionization_Penalty>
1.40501

> <r_epik_Ionization_Penalty_Charging>
1.40494

> <r_epik_Ionization_Penalty_Neutral>
7.00889e-05

> <r_epik_State_Penalty>
1.48741

> <r_epik_Charging_Adjusted_Penalty>
2.89235

> <i_epik_Tot_Q>
1

> <i_epik_Tot_abs_Q>
1

> <r_epik_Metal_State_Penalty>
1.54092

> <b_epik_Metal_Only>
0

> <s_lp_Force_Field>
OPLS_2005

> <r_lp_Energy>
55.517

> <b_lp_Chiralities_Consistent>
1

> <s_lp_Variant>
AV-unprocessed.smi:2331-3

> <Gold.Version>
5.8.1

> <Gold.Id.Protein>
6NUR|6NUR_protein|mol2

> <Gold.PLP.Fitness>
36.2666

> <Gold.PLP.PLP>
-28.4598

> <Gold.PLP.part.hbond>
-2.0000

> <Gold.PLP.part.metal>
0.0000

> <Gold.PLP.part.buried>
-3.3329

> <Gold.PLP.part.nonpolar>
-23.4042

> <Gold.PLP.part.repulsive>
0.1163

> <Gold.PLP.ligand.clash>
0.0410

> <Gold.PLP.ligand.torsion>
0.8184

> <Gold.PLP.Chemscore.Hbond>
3.0000

> <Gold.PLP.Chemscore.CHOScore>
0.0000

> <Gold.PLP.Chemscore.Metal>
0.0000

> <Gold.Chemscore.Hbonds>
donor molecule, donor type, donor heavy atom, donor atom, acceptor molecule, acceptor atom, score
      L1  H    20    50       P1  8028  1.76
      P1  H  6896  6909       L1     7  1.00

> <Gold.PLP.Chemscore.Internal.Correction>
0.4845

> <Gold.Rescore>
     Score         DG    S(hbond)    S(metal)    S(lipo)     H(rot)  DE(clash)    DE(int)     intcor
     13.64     -15.97       1.98        0.00      77.26       2.02       0.02       2.31       ----

> <Gold.Chemscore.Fitness>
13.6376

> <Gold.Chemscore.DG>
-15.9703

> <Gold.Chemscore.ZeroCoef>
-5.4800

> <Gold.Chemscore.Hbond>
1.9821

> <Gold.Chemscore.Metal>
0.0000

> <Gold.Chemscore.Lipo>
77.2591

> <Gold.Chemscore.Internal_Hbond>
0.0000

> <Gold.Chemscore.DEClash>
0.0202

> <Gold.Chemscore.DEInternal>
2.3125

> <Gold.Chemscore.Rot>
2.0192

> <Gold.Chemscore.Internal.Correction>
   9.000000E+99

> <Gold.Chemscore.Hbonds>
donor molecule, donor type, donor heavy atom, donor atom, acceptor molecule, acceptor atom, score
      L1  H    20    50       P1  8028  0.85
      P1  H  6896  6909       L1     7  0.55

> <Gold.Chemscore.Hbond.Weighted>
-6.6201

> <Gold.Chemscore.Metal.Weighted>
-0.0000

> <Gold.Chemscore.Lipo.Weighted>
-9.0393

> <Gold.Chemscore.Internal_Hbond.Weighted>
0.0000

> <Gold.Chemscore.DEClash.Weighted>
0.0202

> <Gold.Chemscore.DEInternal.Weighted>
2.3125

> <Gold.Chemscore.Rot.Weighted>
5.1691

> <Gold.Chemscore.Internal.Correction.Weighted>
   9.000000E+99

> <Gold.Protein.RotatedTorsions>
[ 6907 6896 6895 6894 ] final   21.13 input  -60.11 | X-H torsion
[ 7974 7965 7964 7962 ] final   72.27 input  175.53 | X-H torsion
[ 8008 7997 7996 7995 ] final  153.75 input   59.86 | X-H torsion
[ 10167 10162 10161 10158 ] final  122.40 input  -65.29 | X-H torsion
[ 10718 10713 10712 10709 ] final -132.00 input   66.30 | X-H torsion
[ 10763 10752 10751 10750 ] final   59.10 input  -60.55 | X-H torsion
[ 11005 11000 10999 10996 ] final  171.19 input  -57.11 | X-H torsion

> <Gold.Protein.ActiveResidues>
 VAL166  LYS551  ARG553  GLY616  TRP617  ASP618  TYR619  PRO620  LYS621  CYS622 
 ASP623  PHE694  ASN695  SER759  ASP760  ASP761  ALA762  ILE779  LEU786  VAL792 
 PHE793  MET794  SER795  GLU796  ALA797  LYS798  CYS799  TRP800  GLU811  SER814 

> <Gold.Protein.RotatedAtoms>
  151.9071  135.0354  160.0511 H   0  0  0  0  0  0  0  0  0  0  0  0  # atno 6907 bound_to 6896
  152.2310  133.5054  159.5224 H   0  0  0  0  0  0  0  0  0  0  0  0  # atno 6908 bound_to 6896
  150.7025  134.1133  159.4050 H   0  0  0  0  0  0  0  0  0  0  0  0  # atno 6909 bound_to 6896
  145.7555  139.2778  143.1406 H   0  0  0  0  0  0  0  0  0  0  0  0  # atno 7974 bound_to 7965
  156.2566  140.1985  156.6539 H   0  0  0  0  0  0  0  0  0  0  0  0  # atno 8008 bound_to 7997
  154.6516  140.0571  156.9987 H   0  0  0  0  0  0  0  0  0  0  0  0  # atno 8009 bound_to 7997
  155.1410  140.3242  155.4455 H   0  0  0  0  0  0  0  0  0  0  0  0  # atno 8010 bound_to 7997
  139.5861  144.7007  151.3406 H   0  0  0  0  0  0  0  0  0  0  0  0  # atno 10167 bound_to 10162
  156.2301  130.7032  151.0849 H   0  0  0  0  0  0  0  0  0  0  0  0  # atno 10718 bound_to 10713
  152.9886  135.5583  154.5659 H   0  0  0  0  0  0  0  0  0  0  0  0  # atno 10763 bound_to 10752
  154.5069  135.2800  155.1377 H   0  0  0  0  0  0  0  0  0  0  0  0  # atno 10764 bound_to 10752
  154.2784  135.6349  153.5390 H   0  0  0  0  0  0  0  0  0  0  0  0  # atno 10765 bound_to 10752
  140.3163  134.7474  157.4030 H   0  0  0  0  0  0  0  0  0  0  0  0  # atno 11005 bound_to 11000
  146.0315  140.8253  142.9873 LP  0  0  0  0  0  0  0  0  0  0  0  0  # atno 17320 bound_to 7965
  144.6841  140.2776  143.7297 LP  0  0  0  0  0  0  0  0  0  0  0  0  # atno 17321 bound_to 7965
  140.7132  143.7335  150.7606 LP  0  0  0  0  0  0  0  0  0  0  0  0  # atno 17342 bound_to 10162
  140.0880  143.4905  152.2494 LP  0  0  0  0  0  0  0  0  0  0  0  0  # atno 17343 bound_to 10162
  157.7129  131.0725  150.6435 LP  0  0  0  0  0  0  0  0  0  0  0  0  # atno 17370 bound_to 10713
  156.6502  130.4483  149.5722 LP  0  0  0  0  0  0  0  0  0  0  0  0  # atno 17371 bound_to 10713
  140.0980  134.5511  155.8380 LP  0  0  0  0  0  0  0  0  0  0  0  0  # atno 17394 bound_to 11000
  141.2097  133.6686  156.6455 LP  0  0  0  0  0  0  0  0  0  0  0  0  # atno 17395 bound_to 11000

$$$$
