AV-unprocessed.smi:1950|AV-procd|sdf|7880|dock3
  -GOLD-   2272010 33D 1   1.00000     0.00000
 Structure written by MMmdl.
 32 33  0  0  0  0  0  0  0  0  2 V2000
  148.7375  141.0238  154.0761 C   0  0  0  0  0  0  0  0  0  0  0  0
  149.6455  139.9517  154.6828 C   0  0  0  0  0  0  0  0  0  0  0  0
  150.8499  140.1941  154.7649 O   0  0  0  0  0  0  0  0  0  0  0  0
  149.1023  138.7846  155.1056 N   0  0  0  0  0  0  0  0  0  0  0  0
  149.8902  137.7325  155.7588 C   0  0  0  0  0  0  0  0  0  0  0  0
  149.4845  137.6516  157.2417 C   0  0  0  0  0  0  0  0  0  0  0  0
  147.9667  137.4183  157.3975 C   0  0  0  0  0  0  0  0  0  0  0  0
  147.5967  137.5223  158.8066 N   0  0  0  0  0  0  0  0  0  0  0  0
  148.1348  136.8261  159.8186 C   0  0  0  0  0  0  0  0  0  0  0  0
  149.0254  136.0029  159.5952 O   0  0  0  0  0  0  0  0  0  0  0  0
  147.6079  137.1273  161.0275 N   0  5  0  0  0  0  0  0  0  0  0  0
  146.6754  136.3284  161.5723 C   0  0  0  0  0  0  0  0  0  0  0  0
  145.3685  136.6360  161.5560 N   0  0  0  0  0  0  0  0  0  0  0  0
  144.5748  135.6811  162.1769 N   0  0  0  0  0  0  0  0  0  0  0  0
  145.3080  134.6757  162.6540 C   0  0  0  0  0  0  0  0  0  0  0  0
  147.0343  134.8065  162.3930 S   0  0  0  0  0  0  0  0  0  0  0  0
  147.1552  138.4188  156.5429 C   0  0  0  0  0  0  0  0  0  0  0  0
  147.6703  138.4597  155.0933 C   0  0  0  0  0  0  0  0  0  0  0  0
  147.9653  141.3241  154.7847 H   0  0  0  0  0  0  0  0  0  0  0  0
  148.2620  140.6570  153.1661 H   0  0  0  0  0  0  0  0  0  0  0  0
  149.3135  141.9125  153.8159 H   0  0  0  0  0  0  0  0  0  0  0  0
  149.6988  136.7786  155.2651 H   0  0  0  0  0  0  0  0  0  0  0  0
  150.9655  137.8974  155.6784 H   0  0  0  0  0  0  0  0  0  0  0  0
  150.0380  136.8524  157.7359 H   0  0  0  0  0  0  0  0  0  0  0  0
  149.7697  138.5795  157.7402 H   0  0  0  0  0  0  0  0  0  0  0  0
  147.7512  136.4080  157.0449 H   0  0  0  0  0  0  0  0  0  0  0  0
  146.8692  138.1828  159.0379 H   0  0  0  0  0  0  0  0  0  0  0  0
  144.8297  133.8544  163.1662 H   0  0  0  0  0  0  0  0  0  0  0  0
  146.0981  138.1512  156.5522 H   0  0  0  0  0  0  0  0  0  0  0  0
  147.2244  139.4177  156.9766 H   0  0  0  0  0  0  0  0  0  0  0  0
  147.0687  139.1530  154.5075 H   0  0  0  0  0  0  0  0  0  0  0  0
  147.5294  137.4855  154.6230 H   0  0  0  0  0  0  0  0  0  0  0  0
  1  2  1  0  0  0  0
  1 19  1  0  0  0  0
  1 20  1  0  0  0  0
  1 21  1  0  0  0  0
  2  3  2  0  0  0  0
  2  4  1  0  0  0  0
  4 18  1  0  0  0  0
  4  5  1  0  0  0  0
  5  6  1  0  0  0  0
  5 22  1  0  0  0  0
  5 23  1  0  0  0  0
  6  7  1  0  0  0  0
  6 24  1  0  0  0  0
  6 25  1  0  0  0  0
  7  8  1  0  0  0  0
  7 17  1  0  0  0  0
  7 26  1  0  0  0  0
  8  9  1  0  0  0  0
  8 27  1  0  0  0  0
  9 10  2  0  0  0  0
  9 11  1  0  0  0  0
 11 12  1  0  0  0  0
 12 16  1  0  0  0  0
 12 13  2  0  0  0  0
 13 14  1  0  0  0  0
 14 15  2  0  0  0  0
 15 16  1  0  0  0  0
 15 28  1  0  0  0  0
 17 18  1  0  0  0  0
 17 29  1  0  0  0  0
 17 30  1  0  0  0  0
 18 31  1  0  0  0  0
 18 32  1  0  0  0  0
M  CHG  1  11  -1
M  END
> <s_m_source_file>
AV-unprocessed.smi

> <i_m_source_file_index>
1950

> <i_lp_mmshare_version>
43012

> <i_f3d_flags>
0

> <s_epik_input>
W0NIM11DKD1PKU4xW0NIMl1bQ0gyXVtDSF0oW0NIMl1bQ0gyXTEpW05IXUMoPU8pW05IXWMybm5bY0hdczI=

> <s_epik_cmdline>
J2VwaWtfcHl0aG9uJywgJy1waCcsICc3LjAnLCAnLXRuJywgJzgnLCAnLW1hJywgJzIwMCcsICctbWV0YWxfYmluZGluZycsICctaW1hZScsICc8aW5maWxlLm1hZT4nLCAnLW9tYWUnLCAnPG91dGZpbGUubWFlPic=

> <r_lp_tautomer_probability>
1

> <r_epik_Ionization_Penalty>
3.45176

> <r_epik_Ionization_Penalty_Charging>
3.40771

> <r_epik_Ionization_Penalty_Neutral>
0.0440522

> <r_epik_State_Penalty>
3.40583

> <r_epik_Charging_Adjusted_Penalty>
6.81354

> <i_epik_Tot_Q>
-1

> <i_epik_Tot_abs_Q>
1

> <r_epik_Metal_State_Penalty>
0.49593

> <b_epik_Metal_Only>
1

> <s_lp_Force_Field>
OPLS_2005

> <r_lp_Energy>
20.3266

> <b_lp_Chiralities_Consistent>
1

> <s_lp_Variant>
AV-unprocessed.smi:1950-2

> <Gold.Version>
5.8.1

> <Gold.Id.Protein>
6NUR|6NUR_protein|mol2

> <Gold.PLP.Fitness>
38.5935

> <Gold.PLP.PLP>
-24.3759

> <Gold.PLP.part.hbond>
-4.0000

> <Gold.PLP.part.metal>
0.0000

> <Gold.PLP.part.buried>
-4.5411

> <Gold.PLP.part.nonpolar>
-16.8282

> <Gold.PLP.part.repulsive>
0.2213

> <Gold.PLP.ligand.clash>
0.0000

> <Gold.PLP.ligand.torsion>
1.4678

> <Gold.PLP.Chemscore.Hbond>
5.7120

> <Gold.PLP.Chemscore.CHOScore>
0.0000

> <Gold.PLP.Chemscore.Metal>
0.0000

> <Gold.Chemscore.Hbonds>
donor molecule, donor type, donor heavy atom, donor atom, acceptor molecule, acceptor atom, score
      P1  H  6896  6909       L1    10  0.75
      P1  H  6931  6943       L1    11  1.82
      P1  H  6934  6947       L1    11  1.89
      P1  H  7989  7998       L1     3  1.00

> <Gold.PLP.Chemscore.Internal.Correction>
0.0173

> <Gold.Rescore>
     Score         DG    S(hbond)    S(metal)    S(lipo)     H(rot)  DE(clash)    DE(int)     intcor
     14.65     -17.30       3.19        0.00      31.84       1.00       0.10       2.55       ----

> <Gold.Chemscore.Fitness>
14.6469

> <Gold.Chemscore.DG>
-17.3024

> <Gold.Chemscore.ZeroCoef>
-5.4800

> <Gold.Chemscore.Hbond>
3.1908

> <Gold.Chemscore.Metal>
0.0000

> <Gold.Chemscore.Lipo>
31.8391

> <Gold.Chemscore.Internal_Hbond>
0.0000

> <Gold.Chemscore.DEClash>
0.1049

> <Gold.Chemscore.DEInternal>
2.5506

> <Gold.Chemscore.Rot>
1.0000

> <Gold.Chemscore.Internal.Correction>
   9.000000E+99

> <Gold.Chemscore.Hbonds>
donor molecule, donor type, donor heavy atom, donor atom, acceptor molecule, acceptor atom, score
      P1  H  6896  6909       L1    10  0.75
      P1  H  6931  6943       L1    11  0.38
      P1  H  6934  6947       L1    11  0.43
      P1  H  7989  7998       L1     3  0.97

> <Gold.Chemscore.Hbond.Weighted>
-10.6572

> <Gold.Chemscore.Metal.Weighted>
-0.0000

> <Gold.Chemscore.Lipo.Weighted>
-3.7252

> <Gold.Chemscore.Internal_Hbond.Weighted>
0.0000

> <Gold.Chemscore.DEClash.Weighted>
0.1049

> <Gold.Chemscore.DEInternal.Weighted>
2.5506

> <Gold.Chemscore.Rot.Weighted>
2.5600

> <Gold.Chemscore.Internal.Correction.Weighted>
   9.000000E+99

> <Gold.Protein.RotatedTorsions>
[ 6907 6896 6895 6894 ] final   68.37 input  -60.11 | X-H torsion
[ 7974 7965 7964 7962 ] final -126.48 input  175.53 | X-H torsion
[ 8008 7997 7996 7995 ] final -127.34 input   59.86 | X-H torsion
[ 10167 10162 10161 10158 ] final -125.70 input  -65.29 | X-H torsion
[ 10718 10713 10712 10709 ] final  -42.65 input   66.30 | X-H torsion
[ 10763 10752 10751 10750 ] final  -46.24 input  -60.55 | X-H torsion
[ 11005 11000 10999 10996 ] final   75.51 input  -57.11 | X-H torsion

> <Gold.Protein.ActiveResidues>
 VAL166  LYS551  ARG553  GLY616  TRP617  ASP618  TYR619  PRO620  LYS621  CYS622 
 ASP623  PHE694  ASN695  SER759  ASP760  ASP761  ALA762  ILE779  LEU786  VAL792 
 PHE793  MET794  SER795  GLU796  ALA797  LYS798  CYS799  TRP800  GLU811  SER814 

> <Gold.Protein.RotatedAtoms>
  152.4616  134.5172  159.9771 H   0  0  0  0  0  0  0  0  0  0  0  0  # atno 6907 bound_to 6896
  151.5219  133.3459  159.2911 H   0  0  0  0  0  0  0  0  0  0  0  0  # atno 6908 bound_to 6896
  150.8581  134.7955  159.7124 H   0  0  0  0  0  0  0  0  0  0  0  0  # atno 6909 bound_to 6896
  144.9868  140.7694  143.4578 H   0  0  0  0  0  0  0  0  0  0  0  0  # atno 7974 bound_to 7965
  155.2445  140.0430  157.2979 H   0  0  0  0  0  0  0  0  0  0  0  0  # atno 8008 bound_to 7997
  154.5807  140.2400  155.8027 H   0  0  0  0  0  0  0  0  0  0  0  0  # atno 8009 bound_to 7997
  156.2191  140.2975  155.9917 H   0  0  0  0  0  0  0  0  0  0  0  0  # atno 8010 bound_to 7997
  139.9793  143.5759  152.2384 H   0  0  0  0  0  0  0  0  0  0  0  0  # atno 10167 bound_to 10162
  156.2573  130.4193  149.8582 H   0  0  0  0  0  0  0  0  0  0  0  0  # atno 10718 bound_to 10713
  154.0417  135.6643  153.4791 H   0  0  0  0  0  0  0  0  0  0  0  0  # atno 10763 bound_to 10752
  153.0499  135.5091  154.7836 H   0  0  0  0  0  0  0  0  0  0  0  0  # atno 10764 bound_to 10752
  154.6814  135.3045  154.9574 H   0  0  0  0  0  0  0  0  0  0  0  0  # atno 10765 bound_to 10752
  139.9340  134.7524  156.1280 H   0  0  0  0  0  0  0  0  0  0  0  0  # atno 11005 bound_to 11000
  145.2342  139.2101  143.5027 LP  0  0  0  0  0  0  0  0  0  0  0  0  # atno 17320 bound_to 7965
  146.3422  140.2225  142.8591 LP  0  0  0  0  0  0  0  0  0  0  0  0  # atno 17321 bound_to 7965
  139.6422  144.7655  151.2317 LP  0  0  0  0  0  0  0  0  0  0  0  0  # atno 17342 bound_to 10162
  140.7494  143.6299  150.8433 LP  0  0  0  0  0  0  0  0  0  0  0  0  # atno 17343 bound_to 10162
  156.6109  130.8586  151.3454 LP  0  0  0  0  0  0  0  0  0  0  0  0  # atno 17370 bound_to 10713
  157.7237  130.9593  150.1545 LP  0  0  0  0  0  0  0  0  0  0  0  0  # atno 17371 bound_to 10713
  141.0944  133.6701  156.2613 LP  0  0  0  0  0  0  0  0  0  0  0  0  # atno 17394 bound_to 11000
  140.6125  134.5444  157.5535 LP  0  0  0  0  0  0  0  0  0  0  0  0  # atno 17395 bound_to 11000

$$$$
