#       Name:                AV-unprocessed.smi:910
#       Creating user name   scv26
#       Creation time:       Fri Mar 27 02:01:43 2020


#       File generated by GOLD software.
#

@<TRIPOS>MOLECULE
AV-unprocessed.smi:910
    53    54     1
SMALL
NO_CHARGES


@<TRIPOS>ATOM
      1 ****        -3.5945   3.0163  -1.3563 C.3            1 S1                 0.0000
      2 ****        -3.3930   1.5382  -1.4743 C.2            1 S1                 0.0000
      3 ****        -2.1293   0.9753  -1.5791 N.2            1 S1                 0.0000
      4 ****        -2.3526  -0.3373  -1.6640 C.2            1 S1                 0.0000
      5 ****        -1.3708  -1.3547  -1.7629 N.am           1 S1                 0.0000
      6 ****        -0.0395  -1.1938  -1.8337 C.2            1 S1                 0.0000
      7 ****         0.5353  -0.1134  -1.9714 O.2            1 S1                 0.0000
      8 ****         0.6011  -2.3672  -1.7238 N.am           1 S1                 0.0000
      9 ****         2.0496  -2.5241  -1.6361 C.3            1 S1                 0.0000
     10 ****         2.5397  -2.3574  -0.1893 C.3            1 S1                 0.0000
     11 ****         2.3732  -1.0012   0.1945 O.3            1 S1                 0.0000
     12 ****         2.6156  -0.7174   1.5664 C.3            1 S1                 0.0000
     13 ****         1.3782  -1.0738   2.4200 C.3            1 S1                 0.0000
     14 ****         0.1612  -0.2074   2.0533 C.3            1 S1                 0.0000
     15 ****         0.4893   1.2895   2.1564 C.3            1 S1                 0.0000
     16 ****         1.7219   1.6526   1.3130 C.3            1 S1                 0.0000
     17 ****         2.9425   0.7878   1.6906 C.3            1 S1                 0.0000
     18 ****         4.1896   1.1767   0.8814 C.3            1 S1                 0.0000
     19 ****        -3.6685  -0.6754  -1.6187 O.3            1 S1                 0.0000
     20 ****        -4.3180   0.5249  -1.5030 C.2            1 S1                 0.0000
     21 ****        -5.8071   0.5038  -1.4307 C.3            1 S1                 0.0000
     22 ****        -4.5340   3.2499  -0.8548 H              1 S1                 0.0000
     23 ****        -3.6170   3.4877  -2.3389 H              1 S1                 0.0000
     24 ****        -2.7917   3.4814  -0.7833 H              1 S1                 0.0000
     25 ****        -1.7146  -2.3018  -1.7078 H              1 S1                 0.0000
     26 ****         0.0473  -3.2056  -1.6284 H              1 S1                 0.0000
     27 ****         2.2967  -3.5249  -1.9905 H              1 S1                 0.0000
     28 ****         2.5601  -1.8251  -2.3007 H              1 S1                 0.0000
     29 ****         1.9908  -3.0330   0.4667 H              1 S1                 0.0000
     30 ****         3.5952  -2.6226  -0.1185 H              1 S1                 0.0000
     31 ****         3.4771  -1.2923   1.9109 H              1 S1                 0.0000
     32 ****         1.1242  -2.1285   2.3222 H              1 S1                 0.0000
     33 ****         1.6176  -0.9234   3.4734 H              1 S1                 0.0000
     34 ****        -0.1643  -0.4401   1.0394 H              1 S1                 0.0000
     35 ****        -0.6773  -0.4483   2.7070 H              1 S1                 0.0000
     36 ****        -0.3687   1.8803   1.8339 H              1 S1                 0.0000
     37 ****         0.6714   1.5515   3.1993 H              1 S1                 0.0000
     38 ****         1.4887   1.5253   0.2549 H              1 S1                 0.0000
     39 ****         1.9564   2.7089   1.4494 H              1 S1                 0.0000
     40 ****         3.1718   0.9865   2.7386 H              1 S1                 0.0000
     41 ****         4.0359   1.0249  -0.1875 H              1 S1                 0.0000
     42 ****         5.0532   0.5827   1.1814 H              1 S1                 0.0000
     43 ****         4.4430   2.2262   1.0332 H              1 S1                 0.0000
     44 ****        -6.2318   1.3871  -1.9080 H              1 S1                 0.0000
     45 ****        -6.1418   0.4855  -0.3935 H              1 S1                 0.0000
     46 ****        -6.2099  -0.3763  -1.9326 H              1 S1                 0.0000
     47 ****        -1.2481   1.4478  -1.5888 LP             1 S1                 0.0000
     48 ****         0.0035   0.7308  -2.0393 LP             1 S1                 0.0000
     49 ****         1.5337  -0.0802  -2.0152 LP             1 S1                 0.0000
     50 ****         1.4315  -0.7360  -0.0129 LP             1 S1                 0.0000
     51 ****         3.0030  -0.4476  -0.3502 LP             1 S1                 0.0000
     52 ****        -3.8581  -1.2591  -0.8292 LP             1 S1                 0.0000
     53 ****        -3.9427  -1.1480  -2.4562 LP             1 S1                 0.0000
@<TRIPOS>BOND
    1    1    2 1     
    2    1   22 1     
    3    1   23 1     
    4    1   24 1     
    5    2   20 2     
    6    2    3 1     
    7    3    4 2     
    8    4    5 1     
    9    4   19 1     
   10    5    6 am    
   11    5   25 1     
   12    6    7 2     
   13    6    8 am    
   14    8    9 1     
   15    8   26 1     
   16    9   10 1     
   17    9   27 1     
   18    9   28 1     
   19   10   11 1     
   20   10   29 1     
   21   10   30 1     
   22   11   12 1     
   23   12   17 1     
   24   12   13 1     
   25   12   31 1     
   26   13   14 1     
   27   13   32 1     
   28   13   33 1     
   29   14   15 1     
   30   14   34 1     
   31   14   35 1     
   32   15   16 1     
   33   15   36 1     
   34   15   37 1     
   35   16   17 1     
   36   16   38 1     
   37   16   39 1     
   38   17   18 1     
   39   17   40 1     
   40   18   41 1     
   41   18   42 1     
   42   18   43 1     
   43   19   20 1     
   44   20   21 1     
   45   21   44 1     
   46   21   45 1     
   47   21   46 1     
   48    3   47 1     
   49    7   48 1     
   50    7   49 1     
   51   11   50 1     
   52   11   51 1     
   53   19   52 1     
   54   19   53 1     
@<TRIPOS>SUBSTRUCTURE
      1 S1             1
@<TRIPOS>SET
LONE_PAIRS      STATIC     ATOMS    <user>   **** ""
7 47 48 49 50 51 52 53
DONOR_HYDROGENS      STATIC     ATOMS    <user>   **** ""
2 25 26
ATOM$BLUE        STATIC     ATOMS    COLORGROUP SYSTEM
7 47 48 49 50 51 52 53
ATOM$RED        STATIC     ATOMS    COLORGROUP SYSTEM
2 25 26
