AV-unprocessed.smi:1489|AV-procd|sdf|6027|dock2
  -GOLD-   22720 6133D 1   1.00000     0.00000
 Structure written by MMmdl.
 47 49  0  0  0  0  0  0  0  0  2 V2000
  146.2207  133.3051  153.7402 O   0  0  0  0  0  0  0  0  0  0  0  0
  147.0055  134.1389  153.2886 C   0  0  0  0  0  0  0  0  0  0  0  0
  147.9145  134.8180  154.0096 N   0  0  0  0  0  0  0  0  0  0  0  0
  148.1355  134.7772  155.4128 C   0  0  0  0  0  0  0  0  0  0  0  0
  149.3543  135.1514  156.0320 C   0  0  0  0  0  0  0  0  0  0  0  0
  149.4782  135.0589  157.4333 C   0  0  0  0  0  0  0  0  0  0  0  0
  148.3876  134.5863  158.1998 C   0  0  0  0  0  0  0  0  0  0  0  0
  148.4100  134.4653  159.5968 N   0  0  0  0  0  0  0  0  0  0  0  0
  148.0459  133.1481  160.0929 C   0  0  0  0  0  0  0  0  0  0  0  0
  147.7003  133.3402  161.5727 C   0  0  0  0  0  0  0  0  0  0  0  0
  147.4221  134.8402  161.7237 C   0  0  0  0  0  0  0  0  0  0  0  0
  147.5670  135.4099  160.3108 C   0  0  0  0  0  0  0  0  0  0  0  0
  147.2488  134.2265  157.5683 N   0  3  0  0  0  0  0  0  0  0  0  0
  147.0892  134.2979  156.2289 C   0  0  0  0  0  0  0  0  0  0  0  0
  147.0679  134.4698  151.9906 N   0  0  0  0  0  0  0  0  0  0  0  0
  146.2284  133.9097  150.9349 C   0  0  2  0  0  0  0  0  0  0  0  0
  144.8589  134.6162  150.9390 C   0  0  0  0  0  0  0  0  0  0  0  0
  143.9128  134.0215  149.8832 C   0  0  0  0  0  0  0  0  0  0  0  0
  143.7459  132.5053  150.0812 C   0  0  1  0  0  0  0  0  0  0  0  0
  142.9256  131.9826  149.0578 O   0  0  0  0  0  0  0  0  0  0  0  0
  145.1094  131.7935  150.0638 C   0  0  0  0  0  0  0  0  0  0  0  0
  146.0581  132.3861  151.1184 C   0  0  0  0  0  0  0  0  0  0  0  0
  148.5546  135.3967  153.4855 H   0  0  0  0  0  0  0  0  0  0  0  0
  150.2016  135.4955  155.4595 H   0  0  0  0  0  0  0  0  0  0  0  0
  150.4044  135.3478  157.9078 H   0  0  0  0  0  0  0  0  0  0  0  0
  147.1808  132.7590  159.5541 H   0  0  0  0  0  0  0  0  0  0  0  0
  148.8669  132.4423  159.9632 H   0  0  0  0  0  0  0  0  0  0  0  0
  146.8446  132.7301  161.8634 H   0  0  0  0  0  0  0  0  0  0  0  0
  148.5421  133.0519  162.2033 H   0  0  0  0  0  0  0  0  0  0  0  0
  146.4353  135.0418  162.1420 H   0  0  0  0  0  0  0  0  0  0  0  0
  148.1619  135.2877  162.3887 H   0  0  0  0  0  0  0  0  0  0  0  0
  148.0155  136.4037  160.3246 H   0  0  0  0  0  0  0  0  0  0  0  0
  146.5876  135.4892  159.8375 H   0  0  0  0  0  0  0  0  0  0  0  0
  146.1280  133.9767  155.8544 H   0  0  0  0  0  0  0  0  0  0  0  0
  147.7488  135.1592  151.7075 H   0  0  0  0  0  0  0  0  0  0  0  0
  146.7038  134.0981  149.9701 H   0  0  0  0  0  0  0  0  0  0  0  0
  144.3991  134.5256  151.9244 H   0  0  0  0  0  0  0  0  0  0  0  0
  144.9876  135.6836  150.7550 H   0  0  0  0  0  0  0  0  0  0  0  0
  142.9423  134.5162  149.9376 H   0  0  0  0  0  0  0  0  0  0  0  0
  144.3092  134.2249  148.8872 H   0  0  0  0  0  0  0  0  0  0  0  0
  143.2514  132.3169  151.0351 H   0  0  0  0  0  0  0  0  0  0  0  0
  142.0329  131.9640  149.3676 H   0  0  0  0  0  0  0  0  0  0  0  0
  144.9779  130.7261  150.2448 H   0  0  0  0  0  0  0  0  0  0  0  0
  145.5643  131.8864  149.0763 H   0  0  0  0  0  0  0  0  0  0  0  0
  147.0253  131.8861  151.0561 H   0  0  0  0  0  0  0  0  0  0  0  0
  145.6661  132.1759  152.1146 H   0  0  0  0  0  0  0  0  0  0  0  0
  146.4701  133.8835  158.1311 H   0  0  0  0  0  0  0  0  0  0  0  0
  1  2  2  0  0  0  0
  2  3  1  0  0  0  0
  2 15  1  0  0  0  0
  3  4  1  0  0  0  0
  3 23  1  0  0  0  0
  4 14  1  0  0  0  0
  4  5  2  0  0  0  0
  5  6  1  0  0  0  0
  5 24  1  0  0  0  0
  6  7  2  0  0  0  0
  6 25  1  0  0  0  0
  7  8  1  0  0  0  0
  7 13  1  0  0  0  0
  8 12  1  0  0  0  0
  8  9  1  0  0  0  0
  9 10  1  0  0  0  0
  9 26  1  0  0  0  0
  9 27  1  0  0  0  0
 10 11  1  0  0  0  0
 10 28  1  0  0  0  0
 10 29  1  0  0  0  0
 11 12  1  0  0  0  0
 11 30  1  0  0  0  0
 11 31  1  0  0  0  0
 12 32  1  0  0  0  0
 12 33  1  0  0  0  0
 13 14  2  0  0  0  0
 13 47  1  0  0  0  0
 14 34  1  0  0  0  0
 15 16  1  0  0  0  0
 15 35  1  0  0  0  0
 16 22  1  0  0  0  0
 16 17  1  0  0  0  0
 16 36  1  0  0  0  0
 17 18  1  0  0  0  0
 17 37  1  0  0  0  0
 17 38  1  0  0  0  0
 18 19  1  0  0  0  0
 18 39  1  0  0  0  0
 18 40  1  0  0  0  0
 19 20  1  0  0  0  0
 19 21  1  0  0  0  0
 19 41  1  0  0  0  0
 20 42  1  0  0  0  0
 21 22  1  0  0  0  0
 21 43  1  0  0  0  0
 21 44  1  0  0  0  0
 22 45  1  0  0  0  0
 22 46  1  0  0  0  0
M  CHG  1  13   1
M  END
> <s_m_source_file>
AV-unprocessed.smi

> <i_m_source_file_index>
1489

> <i_lp_mmshare_version>
43012

> <i_f3d_flags>
0

> <s_epik_input>
W0NIMl0xW0NIMl1bQ0BIXShbT0hdKVtDSDJdW0NIMl1bQ0BIXTFbTkhdQyg9TylbTkhdYzJbY0hdW2NIXWMobltjSF0yKU4zW0NIMl1bQ0gyXVtDSDJdW0NIMl0z

> <s_epik_cmdline>
J2VwaWtfcHl0aG9uJywgJy1waCcsICc3LjAnLCAnLXRuJywgJzgnLCAnLW1hJywgJzIwMCcsICctbWV0YWxfYmluZGluZycsICctaW1hZScsICc8aW5maWxlLm1hZT4nLCAnLW9tYWUnLCAnPG91dGZpbGUubWFlPic=

> <r_lp_tautomer_probability>
0.999994

> <r_epik_Ionization_Penalty>
1.08454

> <r_epik_Ionization_Penalty_Charging>
1.08452

> <r_epik_Ionization_Penalty_Neutral>
2.18252e-05

> <r_epik_State_Penalty>
1.14025

> <r_epik_Charging_Adjusted_Penalty>
2.22477

> <i_epik_Tot_Q>
1

> <i_epik_Tot_abs_Q>
1

> <r_epik_Metal_State_Penalty>
1.22975

> <b_epik_Metal_Only>
0

> <s_lp_Force_Field>
OPLS_2005

> <r_lp_Energy>
44.1541

> <b_lp_Chiralities_Consistent>
1

> <s_lp_Variant>
AV-unprocessed.smi:1489-3

> <Gold.Version>
5.8.1

> <Gold.Id.Protein>
6NUR|6NUR_protein|mol2

> <Gold.PLP.Fitness>
42.6591

> <Gold.PLP.PLP>
-32.4008

> <Gold.PLP.part.hbond>
-5.3587

> <Gold.PLP.part.metal>
0.0000

> <Gold.PLP.part.buried>
-1.9804

> <Gold.PLP.part.nonpolar>
-24.8713

> <Gold.PLP.part.repulsive>
0.1338

> <Gold.PLP.ligand.clash>
0.0000

> <Gold.PLP.ligand.torsion>
0.5034

> <Gold.PLP.Chemscore.Hbond>
3.7500

> <Gold.PLP.Chemscore.CHOScore>
0.0000

> <Gold.PLP.Chemscore.Metal>
0.0000

> <Gold.Chemscore.Hbonds>
donor molecule, donor type, donor heavy atom, donor atom, acceptor molecule, acceptor atom, score
      L1  H     3    23       P1  7948  0.96
      L1  H    15    35       P1  7948  1.00
      L1  H    20    42       P1 10952  0.58
      P1  H  6896  6909       L1     8  0.23
      P1  H 10785 10796       L1    20  1.00

> <Gold.PLP.Chemscore.Internal.Correction>
0.0152

> <Gold.Rescore>
     Score         DG    S(hbond)    S(metal)    S(lipo)     H(rot)  DE(clash)    DE(int)     intcor
     16.88     -20.15       2.74        0.00      84.37       1.69       0.19       3.09       ----

> <Gold.Chemscore.Fitness>
16.8754

> <Gold.Chemscore.DG>
-20.1537

> <Gold.Chemscore.ZeroCoef>
-5.4800

> <Gold.Chemscore.Hbond>
2.7352

> <Gold.Chemscore.Metal>
0.0000

> <Gold.Chemscore.Lipo>
84.3737

> <Gold.Chemscore.Internal_Hbond>
0.0000

> <Gold.Chemscore.DEClash>
0.1858

> <Gold.Chemscore.DEInternal>
3.0925

> <Gold.Chemscore.Rot>
1.6929

> <Gold.Chemscore.Internal.Correction>
   9.000000E+99

> <Gold.Chemscore.Hbonds>
donor molecule, donor type, donor heavy atom, donor atom, acceptor molecule, acceptor atom, score
      L1  H     3    23       P1  7948  0.88
      L1  H    15    35       P1  7948  0.67
      L1  H    20    42       P1 10952  0.55
      P1  H 10785 10796       L1    20  0.22

> <Gold.Chemscore.Hbond.Weighted>
-9.1357

> <Gold.Chemscore.Metal.Weighted>
-0.0000

> <Gold.Chemscore.Lipo.Weighted>
-9.8717

> <Gold.Chemscore.Internal_Hbond.Weighted>
0.0000

> <Gold.Chemscore.DEClash.Weighted>
0.1858

> <Gold.Chemscore.DEInternal.Weighted>
3.0925

> <Gold.Chemscore.Rot.Weighted>
4.3338

> <Gold.Chemscore.Internal.Correction.Weighted>
   9.000000E+99

> <Gold.Protein.RotatedTorsions>
[ 6907 6896 6895 6894 ] final   36.89 input  -60.11 | X-H torsion
[ 7974 7965 7964 7962 ] final  -40.82 input  175.53 | X-H torsion
[ 8008 7997 7996 7995 ] final   42.27 input   59.86 | X-H torsion
[ 10167 10162 10161 10158 ] final -171.94 input  -65.29 | X-H torsion
[ 10718 10713 10712 10709 ] final  -43.39 input   66.30 | X-H torsion
[ 10763 10752 10751 10750 ] final   47.89 input  -60.55 | X-H torsion
[ 11005 11000 10999 10996 ] final -110.71 input  -57.11 | X-H torsion

> <Gold.Protein.ActiveResidues>
 VAL166  LYS551  ARG553  GLY616  TRP617  ASP618  TYR619  PRO620  LYS621  CYS622 
 ASP623  PHE694  ASN695  SER759  ASP760  ASP761  ALA762  ILE779  LEU786  VAL792 
 PHE793  MET794  SER795  GLU796  ALA797  LYS798  CYS799  TRP800  GLU811  SER814 

> <Gold.Protein.RotatedAtoms>
  152.1359  134.9100  160.0556 H   0  0  0  0  0  0  0  0  0  0  0  0  # atno 6907 bound_to 6896
  152.0186  133.3885  159.4257 H   0  0  0  0  0  0  0  0  0  0  0  0  # atno 6908 bound_to 6896
  150.6860  134.3572  159.4978 H   0  0  0  0  0  0  0  0  0  0  0  0  # atno 6909 bound_to 6896
  146.0269  140.6781  142.9151 H   0  0  0  0  0  0  0  0  0  0  0  0  # atno 7974 bound_to 7965
  155.2834  140.3374  155.4257 H   0  0  0  0  0  0  0  0  0  0  0  0  # atno 8008 bound_to 7997
  156.2079  140.1758  156.7800 H   0  0  0  0  0  0  0  0  0  0  0  0  # atno 8009 bound_to 7997
  154.5646  140.0681  156.8856 H   0  0  0  0  0  0  0  0  0  0  0  0  # atno 8010 bound_to 7997
  139.5773  144.1503  152.1468 H   0  0  0  0  0  0  0  0  0  0  0  0  # atno 10167 bound_to 10162
  156.2495  130.4187  149.8667 H   0  0  0  0  0  0  0  0  0  0  0  0  # atno 10718 bound_to 10713
  152.9796  135.5962  154.3836 H   0  0  0  0  0  0  0  0  0  0  0  0  # atno 10763 bound_to 10752
  154.3499  135.2767  155.2380 H   0  0  0  0  0  0  0  0  0  0  0  0  # atno 10764 bound_to 10752
  154.4424  135.6010  153.6193 H   0  0  0  0  0  0  0  0  0  0  0  0  # atno 10765 bound_to 10752
  141.0776  133.9274  157.2357 H   0  0  0  0  0  0  0  0  0  0  0  0  # atno 11005 bound_to 11000
  144.7013  140.3665  143.7153 LP  0  0  0  0  0  0  0  0  0  0  0  0  # atno 17320 bound_to 7965
  145.7104  139.1683  143.2542 LP  0  0  0  0  0  0  0  0  0  0  0  0  # atno 17321 bound_to 7965
  140.1049  144.5508  150.6964 LP  0  0  0  0  0  0  0  0  0  0  0  0  # atno 17342 bound_to 10162
  140.7055  143.2464  151.4740 LP  0  0  0  0  0  0  0  0  0  0  0  0  # atno 17343 bound_to 10162
  156.6220  130.8630  151.3477 LP  0  0  0  0  0  0  0  0  0  0  0  0  # atno 17370 bound_to 10713
  157.7208  130.9556  150.1433 LP  0  0  0  0  0  0  0  0  0  0  0  0  # atno 17371 bound_to 10713
  139.9589  135.0159  156.9205 LP  0  0  0  0  0  0  0  0  0  0  0  0  # atno 17394 bound_to 11000
  140.5539  134.0600  155.7377 LP  0  0  0  0  0  0  0  0  0  0  0  0  # atno 17395 bound_to 11000

$$$$
