AV-unprocessed.smi:685|AV-procd|sdf|3336|dock2
  -GOLD-   22720 0303D 1   1.00000     0.00000
 Structure written by MMmdl.
 51 52  0  0  0  0  0  0  0  0  2 V2000
  148.7803  141.3465  156.7288 C   0  0  0  0  0  0  0  0  0  0  0  0
  149.8715  142.0102  157.5001 C   0  0  0  0  0  0  0  0  0  0  0  0
  150.1677  143.3355  157.4270 N   0  3  0  0  0  0  0  0  0  0  0  0
  151.1941  143.6263  158.2394 N   0  0  0  0  0  0  0  0  0  0  0  0
  151.6712  145.0074  158.3137 C   0  0  0  0  0  0  0  0  0  0  0  0
  151.6232  142.5009  158.8783 C   0  0  0  0  0  0  0  0  0  0  0  0
  152.7528  142.4576  159.8554 C   0  0  0  0  0  0  0  0  0  0  0  0
  150.7867  141.4771  158.4151 C   0  0  0  0  0  0  0  0  0  0  0  0
  150.8457  140.0334  158.8281 C   0  0  0  0  0  0  0  0  0  0  0  0
  150.4790  139.0616  157.6852 C   0  0  1  0  0  0  0  0  0  0  0  0
  151.6986  138.3094  157.1304 C   0  0  0  0  0  0  0  0  0  0  0  0
  149.4879  138.0915  158.1426 N   0  0  0  0  0  0  0  0  0  0  0  0
  149.6383  137.2715  159.1950 C   0  0  0  0  0  0  0  0  0  0  0  0
  150.6546  137.2492  159.8903 O   0  0  0  0  0  0  0  0  0  0  0  0
  148.4611  136.3430  159.5074 C   0  0  0  0  0  0  0  0  0  0  0  0
  148.0682  136.3543  160.9972 C   0  0  0  0  0  0  0  0  0  0  0  0
  146.9495  135.3531  161.3359 C   0  0  0  0  0  0  0  0  0  0  0  0
  146.1485  135.7359  162.5822 C   0  0  0  0  0  0  0  0  0  0  0  0
  145.4462  134.4442  163.0118 C   0  0  0  0  0  0  0  0  0  0  0  0
  146.2964  133.2906  162.4584 C   0  0  0  0  0  0  0  0  0  0  0  0
  147.4357  133.9369  161.6610 C   0  0  0  0  0  0  0  0  0  0  0  0
  148.2102  140.6793  157.3756 H   0  0  0  0  0  0  0  0  0  0  0  0
  149.2007  140.7609  155.9111 H   0  0  0  0  0  0  0  0  0  0  0  0
  148.0987  142.0877  156.3108 H   0  0  0  0  0  0  0  0  0  0  0  0
  151.9374  145.2406  159.3452 H   0  0  0  0  0  0  0  0  0  0  0  0
  150.8896  145.6923  157.9818 H   0  0  0  0  0  0  0  0  0  0  0  0
  152.5493  145.1150  157.6765 H   0  0  0  0  0  0  0  0  0  0  0  0
  153.2112  141.4691  159.8706 H   0  0  0  0  0  0  0  0  0  0  0  0
  152.3903  142.6889  160.8568 H   0  0  0  0  0  0  0  0  0  0  0  0
  153.5210  143.1825  159.5857 H   0  0  0  0  0  0  0  0  0  0  0  0
  151.8340  139.7853  159.2165 H   0  0  0  0  0  0  0  0  0  0  0  0
  150.1666  139.8831  159.6681 H   0  0  0  0  0  0  0  0  0  0  0  0
  150.0396  139.6293  156.8632 H   0  0  0  0  0  0  0  0  0  0  0  0
  152.4388  138.9973  156.7215 H   0  0  0  0  0  0  0  0  0  0  0  0
  151.4084  137.6315  156.3270 H   0  0  0  0  0  0  0  0  0  0  0  0
  152.1863  137.7164  157.9049 H   0  0  0  0  0  0  0  0  0  0  0  0
  148.6204  138.0461  157.6277 H   0  0  0  0  0  0  0  0  0  0  0  0
  147.6125  136.6532  158.8970 H   0  0  0  0  0  0  0  0  0  0  0  0
  148.7129  135.3275  159.1994 H   0  0  0  0  0  0  0  0  0  0  0  0
  148.9452  136.1491  161.6132 H   0  0  0  0  0  0  0  0  0  0  0  0
  147.7298  137.3540  161.2741 H   0  0  0  0  0  0  0  0  0  0  0  0
  146.2559  135.2962  160.4952 H   0  0  0  0  0  0  0  0  0  0  0  0
  146.8249  136.0611  163.3742 H   0  0  0  0  0  0  0  0  0  0  0  0
  145.4463  136.5487  162.3941 H   0  0  0  0  0  0  0  0  0  0  0  0
  145.3351  134.3891  164.0951 H   0  0  0  0  0  0  0  0  0  0  0  0
  144.4459  134.4029  162.5790 H   0  0  0  0  0  0  0  0  0  0  0  0
  146.6849  132.6552  163.2548 H   0  0  0  0  0  0  0  0  0  0  0  0
  145.6872  132.6612  161.8083 H   0  0  0  0  0  0  0  0  0  0  0  0
  147.6877  133.3658  160.7668 H   0  0  0  0  0  0  0  0  0  0  0  0
  148.3303  133.9850  162.2836 H   0  0  0  0  0  0  0  0  0  0  0  0
  149.7217  144.0530  156.8693 H   0  0  0  0  0  0  0  0  0  0  0  0
  1  2  1  0  0  0  0
  1 22  1  0  0  0  0
  1 23  1  0  0  0  0
  1 24  1  0  0  0  0
  2  8  1  0  0  0  0
  2  3  2  0  0  0  0
  3  4  1  0  0  0  0
  3 51  1  0  0  0  0
  4  5  1  0  0  0  0
  4  6  1  0  0  0  0
  5 25  1  0  0  0  0
  5 26  1  0  0  0  0
  5 27  1  0  0  0  0
  6  7  1  0  0  0  0
  6  8  2  0  0  0  0
  7 28  1  0  0  0  0
  7 29  1  0  0  0  0
  7 30  1  0  0  0  0
  8  9  1  0  0  0  0
  9 10  1  0  0  0  0
  9 31  1  0  0  0  0
  9 32  1  0  0  0  0
 10 11  1  0  0  0  0
 10 12  1  0  0  0  0
 10 33  1  0  0  0  0
 11 34  1  0  0  0  0
 11 35  1  0  0  0  0
 11 36  1  0  0  0  0
 12 13  1  0  0  0  0
 12 37  1  0  0  0  0
 13 14  2  0  0  0  0
 13 15  1  0  0  0  0
 15 16  1  0  0  0  0
 15 38  1  0  0  0  0
 15 39  1  0  0  0  0
 16 17  1  0  0  0  0
 16 40  1  0  0  0  0
 16 41  1  0  0  0  0
 17 21  1  0  0  0  0
 17 18  1  0  0  0  0
 17 42  1  0  0  0  0
 18 19  1  0  0  0  0
 18 43  1  0  0  0  0
 18 44  1  0  0  0  0
 19 20  1  0  0  0  0
 19 45  1  0  0  0  0
 19 46  1  0  0  0  0
 20 21  1  0  0  0  0
 20 47  1  0  0  0  0
 20 48  1  0  0  0  0
 21 49  1  0  0  0  0
 21 50  1  0  0  0  0
M  CHG  1   3   1
M  END
> <s_m_source_file>
AV-unprocessed.smi

> <i_m_source_file_index>
685

> <i_lp_mmshare_version>
43012

> <i_f3d_flags>
0

> <s_epik_input>
W0NIM11jMW5uKFtDSDNdKWMoW0NIM10pYzFbQ0gyXVtDQEhdKFtDSDNdKVtOSF1DKD1PKVtDSDJdW0NIMl1bQ0hdMltDSDJdW0NIMl1bQ0gyXVtDSDJdMg==

> <s_epik_cmdline>
J2VwaWtfcHl0aG9uJywgJy1waCcsICc3LjAnLCAnLXRuJywgJzgnLCAnLW1hJywgJzIwMCcsICctbWV0YWxfYmluZGluZycsICctaW1hZScsICc8aW5maWxlLm1hZT4nLCAnLW9tYWUnLCAnPG91dGZpbGUubWFlPic=

> <r_lp_tautomer_probability>
1

> <r_epik_Ionization_Penalty>
2.26429

> <r_epik_Ionization_Penalty_Charging>
2.26429

> <r_epik_Ionization_Penalty_Neutral>
2.3289e-07

> <r_epik_State_Penalty>
2.41237

> <r_epik_Charging_Adjusted_Penalty>
4.67666

> <i_epik_Tot_Q>
1

> <i_epik_Tot_abs_Q>
1

> <r_epik_Metal_State_Penalty>
2.42525

> <b_epik_Metal_Only>
0

> <s_lp_Force_Field>
OPLS_2005

> <r_lp_Energy>
28.4866

> <b_lp_Chiralities_Consistent>
1

> <s_lp_Variant>
AV-unprocessed.smi:685-4

> <Gold.Version>
5.8.1

> <Gold.Id.Protein>
6NUR|6NUR_protein|mol2

> <Gold.PLP.Fitness>
50.3761

> <Gold.PLP.PLP>
-44.0959

> <Gold.PLP.part.hbond>
-2.0000

> <Gold.PLP.part.metal>
0.0000

> <Gold.PLP.part.buried>
-6.4098

> <Gold.PLP.part.nonpolar>
-37.1353

> <Gold.PLP.part.repulsive>
0.0993

> <Gold.PLP.ligand.clash>
0.0000

> <Gold.PLP.ligand.torsion>
1.4990

> <Gold.PLP.Chemscore.Hbond>
3.0000

> <Gold.PLP.Chemscore.CHOScore>
0.0000

> <Gold.PLP.Chemscore.Metal>
0.0000

> <Gold.Chemscore.Hbonds>
donor molecule, donor type, donor heavy atom, donor atom, acceptor molecule, acceptor atom, score
      L1  H     3    51       P1  8028  2.00
      P1  H  6896  6907       L1    14  0.57

> <Gold.PLP.Chemscore.Internal.Correction>
0.2781

> <Gold.Rescore>
     Score         DG    S(hbond)    S(metal)    S(lipo)     H(rot)  DE(clash)    DE(int)     intcor
     17.05     -20.93       1.89        0.00     113.36       1.61       0.01       3.87       ----

> <Gold.Chemscore.Fitness>
17.0526

> <Gold.Chemscore.DG>
-20.9265

> <Gold.Chemscore.ZeroCoef>
-5.4800

> <Gold.Chemscore.Hbond>
1.8873

> <Gold.Chemscore.Metal>
0.0000

> <Gold.Chemscore.Lipo>
113.3594

> <Gold.Chemscore.Internal_Hbond>
0.0000

> <Gold.Chemscore.DEClash>
0.0089

> <Gold.Chemscore.DEInternal>
3.8650

> <Gold.Chemscore.Rot>
1.6095

> <Gold.Chemscore.Internal.Correction>
   9.000000E+99

> <Gold.Chemscore.Hbonds>
donor molecule, donor type, donor heavy atom, donor atom, acceptor molecule, acceptor atom, score
      L1  H     3    51       P1  8028  0.86
      P1  H  6896  6907       L1    14  0.23

> <Gold.Chemscore.Hbond.Weighted>
-6.3037

> <Gold.Chemscore.Metal.Weighted>
-0.0000

> <Gold.Chemscore.Lipo.Weighted>
-13.2630

> <Gold.Chemscore.Internal_Hbond.Weighted>
0.0000

> <Gold.Chemscore.DEClash.Weighted>
0.0089

> <Gold.Chemscore.DEInternal.Weighted>
3.8650

> <Gold.Chemscore.Rot.Weighted>
4.1202

> <Gold.Chemscore.Internal.Correction.Weighted>
   9.000000E+99

> <Gold.Protein.RotatedTorsions>
[ 6907 6896 6895 6894 ] final  -22.85 input  -60.11 | X-H torsion
[ 7974 7965 7964 7962 ] final  -96.54 input  175.53 | X-H torsion
[ 8008 7997 7996 7995 ] final   50.73 input   59.86 | X-H torsion
[ 10167 10162 10161 10158 ] final  -58.08 input  -65.29 | X-H torsion
[ 10718 10713 10712 10709 ] final  132.67 input   66.30 | X-H torsion
[ 10763 10752 10751 10750 ] final -149.58 input  -60.55 | X-H torsion
[ 11005 11000 10999 10996 ] final  115.87 input  -57.11 | X-H torsion

> <Gold.Protein.ActiveResidues>
 VAL166  LYS551  ARG553  GLY616  TRP617  ASP618  TYR619  PRO620  LYS621  CYS622 
 ASP623  PHE694  ASN695  SER759  ASP760  ASP761  ALA762  ILE779  LEU786  VAL792 
 PHE793  MET794  SER795  GLU796  ALA797  LYS798  CYS799  TRP800  GLU811  SER814 

> <Gold.Protein.RotatedAtoms>
  151.2125  135.0487  159.8916 H   0  0  0  0  0  0  0  0  0  0  0  0  # atno 6907 bound_to 6896
  152.5423  134.0729  159.8212 H   0  0  0  0  0  0  0  0  0  0  0  0  # atno 6908 bound_to 6896
  151.0884  133.5287  159.2648 H   0  0  0  0  0  0  0  0  0  0  0  0  # atno 6909 bound_to 6896
  145.3455  140.9467  143.2584 H   0  0  0  0  0  0  0  0  0  0  0  0  # atno 7974 bound_to 7965
  155.4236  140.3447  155.4273 H   0  0  0  0  0  0  0  0  0  0  0  0  # atno 8008 bound_to 7997
  156.1378  140.1533  156.8998 H   0  0  0  0  0  0  0  0  0  0  0  0  # atno 8009 bound_to 7997
  154.4946  140.0831  156.7649 H   0  0  0  0  0  0  0  0  0  0  0  0  # atno 8010 bound_to 7997
  140.6219  143.2423  151.5460 H   0  0  0  0  0  0  0  0  0  0  0  0  # atno 10167 bound_to 10162
  157.4848  131.1087  150.9634 H   0  0  0  0  0  0  0  0  0  0  0  0  # atno 10718 bound_to 10713
  154.8169  135.3305  154.7151 H   0  0  0  0  0  0  0  0  0  0  0  0  # atno 10763 bound_to 10752
  153.7790  135.6920  153.4896 H   0  0  0  0  0  0  0  0  0  0  0  0  # atno 10764 bound_to 10752
  153.1993  135.4522  155.0194 H   0  0  0  0  0  0  0  0  0  0  0  0  # atno 10765 bound_to 10752
  139.9023  134.9590  156.7112 H   0  0  0  0  0  0  0  0  0  0  0  0  # atno 11005 bound_to 11000
  144.8758  139.4974  143.6746 LP  0  0  0  0  0  0  0  0  0  0  0  0  # atno 17320 bound_to 7965
  146.2990  139.7366  142.9105 LP  0  0  0  0  0  0  0  0  0  0  0  0  # atno 17321 bound_to 7965
  139.5446  144.2556  152.1417 LP  0  0  0  0  0  0  0  0  0  0  0  0  # atno 17342 bound_to 10162
  140.1778  144.4873  150.6544 LP  0  0  0  0  0  0  0  0  0  0  0  0  # atno 17343 bound_to 10162
  157.0355  130.5728  149.5349 LP  0  0  0  0  0  0  0  0  0  0  0  0  # atno 17370 bound_to 10713
  156.0141  130.5234  150.8080 LP  0  0  0  0  0  0  0  0  0  0  0  0  # atno 17371 bound_to 10713
  140.7074  133.9253  155.8063 LP  0  0  0  0  0  0  0  0  0  0  0  0  # atno 17394 bound_to 11000
  141.0326  134.0735  157.3997 LP  0  0  0  0  0  0  0  0  0  0  0  0  # atno 17395 bound_to 11000

$$$$
