AV-unprocessed.smi:618|AV-procd|sdf|3077|dock2
  -GOLD-   22720 0 03D 1   1.00000     0.00000
 Structure written by MMmdl.
 41 43  0  0  0  0  0  0  0  0  2 V2000
  149.5538  134.9540  156.1855 O   0  0  0  0  0  0  0  0  0  0  0  0
  149.3262  135.2057  155.0031 C   0  0  0  0  0  0  0  0  0  0  0  0
  148.6347  134.3886  154.1961 N   0  0  0  0  0  0  0  0  0  0  0  0
  148.0706  133.0987  154.5861 C   0  0  0  0  0  0  0  0  0  0  0  0
  146.7549  132.7667  153.8527 C   0  0  1  0  0  0  0  0  0  0  0  0
  145.7387  133.9243  153.8477 C   0  0  0  0  0  0  0  0  0  0  0  0
  144.4958  133.5525  153.1254 N   0  3  1  0  0  0  0  0  0  0  0  0
  143.6390  134.7262  152.8462 C   0  0  0  0  0  0  0  0  0  0  0  0
  143.9464  135.1628  151.4017 C   0  0  0  0  0  0  0  0  0  0  0  0
  144.9182  134.1140  150.8483 C   0  0  0  0  0  0  0  0  0  0  0  0
  144.7549  132.9343  151.8065 C   0  0  1  0  0  0  0  0  0  0  0  0
  145.9088  131.9111  151.8255 C   0  0  0  0  0  0  0  0  0  0  0  0
  147.0456  132.4246  152.5038 O   0  0  0  0  0  0  0  0  0  0  0  0
  149.7143  136.3145  154.3499 N   0  0  0  0  0  0  0  0  0  0  0  0
  150.4628  137.4238  154.8313 C   0  0  0  0  0  0  0  0  0  0  0  0
  151.2718  137.4077  155.9941 C   0  0  0  0  0  0  0  0  0  0  0  0
  151.9711  138.5765  156.3520 C   0  0  0  0  0  0  0  0  0  0  0  0
  151.8427  139.7156  155.5342 C   0  0  0  0  0  0  0  0  0  0  0  0
  151.0852  139.7425  154.4180 N   0  0  0  0  0  0  0  0  0  0  0  0
  150.4176  138.6186  154.0812 C   0  0  0  0  0  0  0  0  0  0  0  0
  148.4862  134.6800  153.2410 H   0  0  0  0  0  0  0  0  0  0  0  0
  148.7996  132.3008  154.4345 H   0  0  0  0  0  0  0  0  0  0  0  0
  147.8845  133.1359  155.6596 H   0  0  0  0  0  0  0  0  0  0  0  0
  146.3131  131.9006  154.3492 H   0  0  0  0  0  0  0  0  0  0  0  0
  145.4850  134.2097  154.8691 H   0  0  0  0  0  0  0  0  0  0  0  0
  146.1801  134.8029  153.3747 H   0  0  0  0  0  0  0  0  0  0  0  0
  142.5967  134.4140  152.9199 H   0  0  0  0  0  0  0  0  0  0  0  0
  143.7852  135.5326  153.5667 H   0  0  0  0  0  0  0  0  0  0  0  0
  143.0282  135.1896  150.8136 H   0  0  0  0  0  0  0  0  0  0  0  0
  144.3879  136.1593  151.3668 H   0  0  0  0  0  0  0  0  0  0  0  0
  144.7042  133.8464  149.8131 H   0  0  0  0  0  0  0  0  0  0  0  0
  145.9395  134.4956  150.8891 H   0  0  0  0  0  0  0  0  0  0  0  0
  143.8437  132.4072  151.5174 H   0  0  0  0  0  0  0  0  0  0  0  0
  145.5867  130.9892  152.3122 H   0  0  0  0  0  0  0  0  0  0  0  0
  146.1919  131.6411  150.8079 H   0  0  0  0  0  0  0  0  0  0  0  0
  149.3961  136.3968  153.3955 H   0  0  0  0  0  0  0  0  0  0  0  0
  151.3826  136.5308  156.6115 H   0  0  0  0  0  0  0  0  0  0  0  0
  152.5950  138.5978  157.2332 H   0  0  0  0  0  0  0  0  0  0  0  0
  152.3660  140.6278  155.7801 H   0  0  0  0  0  0  0  0  0  0  0  0
  149.8239  138.6776  153.1805 H   0  0  0  0  0  0  0  0  0  0  0  0
  143.9927  132.8944  153.7035 H   0  0  0  0  0  0  0  0  0  0  0  0
  1  2  2  0  0  0  0
  2  3  1  0  0  0  0
  2 14  1  0  0  0  0
  3  4  1  0  0  0  0
  3 21  1  0  0  0  0
  4  5  1  0  0  0  0
  4 22  1  0  0  0  0
  4 23  1  0  0  0  0
  5 13  1  0  0  0  0
  5  6  1  0  0  0  0
  5 24  1  0  0  0  0
  6  7  1  0  0  0  0
  6 25  1  0  0  0  0
  6 26  1  0  0  0  0
  7 11  1  0  0  0  0
  7  8  1  0  0  0  0
  7 41  1  0  0  0  0
  8  9  1  0  0  0  0
  8 27  1  0  0  0  0
  8 28  1  0  0  0  0
  9 10  1  0  0  0  0
  9 29  1  0  0  0  0
  9 30  1  0  0  0  0
 10 11  1  0  0  0  0
 10 31  1  0  0  0  0
 10 32  1  0  0  0  0
 11 12  1  0  0  0  0
 11 33  1  0  0  0  0
 12 13  1  0  0  0  0
 12 34  1  0  0  0  0
 12 35  1  0  0  0  0
 14 15  1  0  0  0  0
 14 36  1  0  0  0  0
 15 20  1  0  0  0  0
 15 16  2  0  0  0  0
 16 17  1  0  0  0  0
 16 37  1  0  0  0  0
 17 18  2  0  0  0  0
 17 38  1  0  0  0  0
 18 19  1  0  0  0  0
 18 39  1  0  0  0  0
 19 20  2  0  0  0  0
 20 40  1  0  0  0  0
M  CHG  1   7   1
M  END
> <s_m_source_file>
AV-unprocessed.smi

> <i_m_source_file_index>
618

> <i_lp_mmshare_version>
43012

> <i_f3d_flags>
0

> <s_epik_input>
W2NIXTFuW2NIXVtjSF1bY0hdYzFbTkhdQyg9TylbTkhdW0NIMl1bQ0BIXShbQ0gyXTIpT1tDSDJdW0NAQEhdKE4yMylbQ0gyXVtDSDJdW0NIMl0z

> <s_epik_cmdline>
J2VwaWtfcHl0aG9uJywgJy1waCcsICc3LjAnLCAnLXRuJywgJzgnLCAnLW1hJywgJzIwMCcsICctbWV0YWxfYmluZGluZycsICctaW1hZScsICc8aW5maWxlLm1hZT4nLCAnLW9tYWUnLCAnPG91dGZpbGUubWFlPic=

> <r_epik_Ionization_Penalty>
0.111044

> <r_epik_Ionization_Penalty_Charging>
0.10673

> <r_epik_Ionization_Penalty_Neutral>
0.00431361

> <r_epik_State_Penalty>
0.0978747

> <r_epik_Charging_Adjusted_Penalty>
0.204605

> <i_epik_Tot_Q>
1

> <i_epik_Tot_abs_Q>
1

> <r_epik_Metal_State_Penalty>
0.0947591

> <b_epik_Metal_Only>
0

> <s_lp_Force_Field>
OPLS_2005

> <r_lp_Energy>
41.8914

> <b_lp_Chiralities_Consistent>
1

> <s_lp_Variant>
AV-unprocessed.smi:618-4

> <Gold.Version>
5.8.1

> <Gold.Id.Protein>
6NUR|6NUR_protein|mol2

> <Gold.PLP.Fitness>
46.4002

> <Gold.PLP.PLP>
-29.3669

> <Gold.PLP.part.hbond>
-4.8485

> <Gold.PLP.part.metal>
0.0000

> <Gold.PLP.part.buried>
-4.4786

> <Gold.PLP.part.nonpolar>
-21.7361

> <Gold.PLP.part.repulsive>
0.3159

> <Gold.PLP.ligand.clash>
0.0000

> <Gold.PLP.ligand.torsion>
0.3400

> <Gold.PLP.Chemscore.Hbond>
4.8480

> <Gold.PLP.Chemscore.CHOScore>
1.0556

> <Gold.PLP.Chemscore.Metal>
0.0000

> <Gold.Chemscore.Hbonds>
donor molecule, donor type, donor heavy atom, donor atom, acceptor molecule, acceptor atom, score
      L1  H     3    21       P1  7948  0.73
      L1  H     7    41       P1 10957  1.92
      L1  H    14    36       P1  7948  1.00
      P1  H  7989  7998       L1    19  1.00
      L1  C    20    40       P1  7948  0.13
      L1  C    20    40       P1  7957  1.00

> <Gold.PLP.Chemscore.Internal.Correction>
0.0025

> <Gold.Rescore>
     Score         DG    S(hbond)    S(metal)    S(lipo)     H(rot)  DE(clash)    DE(int)     intcor
     19.73     -21.13       3.42        0.00      63.90       1.27       0.00       1.40       ----

> <Gold.Chemscore.Fitness>
19.7294

> <Gold.Chemscore.DG>
-21.1282

> <Gold.Chemscore.ZeroCoef>
-5.4800

> <Gold.Chemscore.Hbond>
3.4165

> <Gold.Chemscore.Metal>
0.0000

> <Gold.Chemscore.Lipo>
63.9047

> <Gold.Chemscore.Internal_Hbond>
0.0000

> <Gold.Chemscore.DEClash>
0.0000

> <Gold.Chemscore.DEInternal>
1.3987

> <Gold.Chemscore.Rot>
1.2656

> <Gold.Chemscore.Internal.Correction>
   9.000000E+99

> <Gold.Chemscore.Hbonds>
donor molecule, donor type, donor heavy atom, donor atom, acceptor molecule, acceptor atom, score
      L1  H     3    21       P1  7948  0.39
      L1  H     7    41       P1 10957  0.78
      L1  H    14    36       P1  7948  0.76
      P1  H  7989  7998       L1    19  0.62

> <Gold.Chemscore.Hbond.Weighted>
-11.4112

> <Gold.Chemscore.Metal.Weighted>
-0.0000

> <Gold.Chemscore.Lipo.Weighted>
-7.4769

> <Gold.Chemscore.Internal_Hbond.Weighted>
0.0000

> <Gold.Chemscore.DEClash.Weighted>
0.0000

> <Gold.Chemscore.DEInternal.Weighted>
1.3987

> <Gold.Chemscore.Rot.Weighted>
3.2399

> <Gold.Chemscore.Internal.Correction.Weighted>
   9.000000E+99

> <Gold.Protein.RotatedTorsions>
[ 6907 6896 6895 6894 ] final -147.33 input  -60.11 | X-H torsion
[ 7974 7965 7964 7962 ] final  101.88 input  175.53 | X-H torsion
[ 8008 7997 7996 7995 ] final  165.10 input   59.86 | X-H torsion
[ 10167 10162 10161 10158 ] final -161.85 input  -65.29 | X-H torsion
[ 10718 10713 10712 10709 ] final  107.14 input   66.30 | X-H torsion
[ 10763 10752 10751 10750 ] final   -2.24 input  -60.55 | X-H torsion
[ 11005 11000 10999 10996 ] final  130.79 input  -57.11 | X-H torsion

> <Gold.Protein.ActiveResidues>
 VAL166  LYS551  ARG553  GLY616  TRP617  ASP618  TYR619  PRO620  LYS621  CYS622 
 ASP623  PHE694  ASN695  SER759  ASP760  ASP761  ALA762  ILE779  LEU786  VAL792 
 PHE793  MET794  SER795  GLU796  ALA797  LYS798  CYS799  TRP800  GLU811  SER814 

> <Gold.Protein.RotatedAtoms>
  151.1542  133.4887  159.2594 H   0  0  0  0  0  0  0  0  0  0  0  0  # atno 6907 bound_to 6896
  151.1522  135.0232  159.8683 H   0  0  0  0  0  0  0  0  0  0  0  0  # atno 6908 bound_to 6896
  152.5463  134.1424  159.8538 H   0  0  0  0  0  0  0  0  0  0  0  0  # atno 6909 bound_to 6896
  145.3665  139.2407  143.3478 H   0  0  0  0  0  0  0  0  0  0  0  0  # atno 7974 bound_to 7965
  156.1827  140.1679  156.8243 H   0  0  0  0  0  0  0  0  0  0  0  0  # atno 8008 bound_to 7997
  154.5379  140.0743  156.8492 H   0  0  0  0  0  0  0  0  0  0  0  0  # atno 8009 bound_to 7997
  155.3274  140.3377  155.4242 H   0  0  0  0  0  0  0  0  0  0  0  0  # atno 8010 bound_to 7997
  139.6435  144.0216  152.2109 H   0  0  0  0  0  0  0  0  0  0  0  0  # atno 10167 bound_to 10162
  157.6640  131.0866  150.6112 H   0  0  0  0  0  0  0  0  0  0  0  0  # atno 10718 bound_to 10713
  153.3555  135.6988  153.6754 H   0  0  0  0  0  0  0  0  0  0  0  0  # atno 10763 bound_to 10752
  153.5464  135.3562  155.2741 H   0  0  0  0  0  0  0  0  0  0  0  0  # atno 10764 bound_to 10752
  154.8660  135.4216  154.2800 H   0  0  0  0  0  0  0  0  0  0  0  0  # atno 10765 bound_to 10752
  139.9692  134.9582  156.9345 H   0  0  0  0  0  0  0  0  0  0  0  0  # atno 11005 bound_to 11000
  146.2904  140.4308  142.8741 LP  0  0  0  0  0  0  0  0  0  0  0  0  # atno 17320 bound_to 7965
  144.8608  140.7136  143.6108 LP  0  0  0  0  0  0  0  0  0  0  0  0  # atno 17321 bound_to 7965
  139.9912  144.6360  150.7813 LP  0  0  0  0  0  0  0  0  0  0  0  0  # atno 17342 bound_to 10162
  140.7503  143.2952  151.3223 LP  0  0  0  0  0  0  0  0  0  0  0  0  # atno 17343 bound_to 10162
  156.6413  130.4459  149.5751 LP  0  0  0  0  0  0  0  0  0  0  0  0  # atno 17370 bound_to 10713
  156.2207  130.6735  151.1365 LP  0  0  0  0  0  0  0  0  0  0  0  0  # atno 17371 bound_to 10713
  140.5329  134.0795  155.7320 LP  0  0  0  0  0  0  0  0  0  0  0  0  # atno 17394 bound_to 11000
  141.1372  133.9201  157.2407 LP  0  0  0  0  0  0  0  0  0  0  0  0  # atno 17395 bound_to 11000

$$$$
