AV-unprocessed.smi:1721|AV-procd|sdf|6936|dock3
  -GOLD-   22720 8143D 1   1.00000     0.00000
 Structure written by MMmdl.
 44 46  0  0  0  0  0  0  0  0  2 V2000
  151.6878  138.2511  154.4655 C   0  0  0  0  0  0  0  0  0  0  0  0
  150.2971  138.1458  154.1811 O   0  0  0  0  0  0  0  0  0  0  0  0
  149.5267  139.2928  154.2173 C   0  0  0  0  0  0  0  0  0  0  0  0
  150.1202  140.4558  154.5854 N   0  0  0  0  0  0  0  0  0  0  0  0
  149.3700  141.5755  154.6258 C   0  0  0  0  0  0  0  0  0  0  0  0
  147.9998  141.5953  154.3095 C   0  0  0  0  0  0  0  0  0  0  0  0
  147.3814  140.3904  153.9280 C   0  0  0  0  0  0  0  0  0  0  0  0
  148.1576  139.2062  153.8704 C   0  0  0  0  0  0  0  0  0  0  0  0
  147.6462  137.9270  153.5108 N   0  0  0  0  0  0  0  0  0  0  0  0
  146.4508  137.3758  153.7812 C   0  0  0  0  0  0  0  0  0  0  0  0
  145.5333  137.9132  154.4001 O   0  0  0  0  0  0  0  0  0  0  0  0
  146.3684  136.1340  153.2833 N   0  0  0  0  0  0  0  0  0  0  0  0
  145.2034  135.2631  153.4148 C   0  0  1  0  0  0  0  0  0  0  0  0
  143.9268  135.8665  152.8433 C   0  0  0  0  0  0  0  0  0  0  0  0
  143.0182  134.6454  152.6654 C   0  0  0  0  0  0  0  0  0  0  0  0
  143.9067  133.4713  152.4796 N   0  3  1  0  0  0  0  0  0  0  0  0
  143.6435  132.7052  151.2319 C   0  0  0  0  0  0  0  0  0  0  0  0
  144.8182  131.7731  150.8997 C   0  0  0  0  0  0  0  0  0  0  0  0
  146.1153  132.5664  150.6526 C   0  0  0  0  0  0  0  0  0  0  0  0
  146.1027  133.9458  151.3387 C   0  0  0  0  0  0  0  0  0  0  0  0
  145.3162  133.9172  152.6725 C   0  0  1  0  0  0  0  0  0  0  0  0
  152.1457  137.2646  154.3943 H   0  0  0  0  0  0  0  0  0  0  0  0
  151.8618  138.6237  155.4759 H   0  0  0  0  0  0  0  0  0  0  0  0
  152.1931  138.9023  153.7508 H   0  0  0  0  0  0  0  0  0  0  0  0
  149.8761  142.4821  154.9230 H   0  0  0  0  0  0  0  0  0  0  0  0
  147.4348  142.5142  154.3609 H   0  0  0  0  0  0  0  0  0  0  0  0
  146.3280  140.4068  153.6998 H   0  0  0  0  0  0  0  0  0  0  0  0
  148.2703  137.3675  152.9478 H   0  0  0  0  0  0  0  0  0  0  0  0
  147.1646  135.7654  152.7835 H   0  0  0  0  0  0  0  0  0  0  0  0
  145.0294  135.0656  154.4751 H   0  0  0  0  0  0  0  0  0  0  0  0
  143.4894  136.6270  153.4909 H   0  0  0  0  0  0  0  0  0  0  0  0
  144.1255  136.3244  151.8730 H   0  0  0  0  0  0  0  0  0  0  0  0
  142.4321  134.4802  153.5701 H   0  0  0  0  0  0  0  0  0  0  0  0
  142.3137  134.7867  151.8444 H   0  0  0  0  0  0  0  0  0  0  0  0
  142.7220  132.1347  151.3537 H   0  0  0  0  0  0  0  0  0  0  0  0
  143.4838  133.3899  150.3969 H   0  0  0  0  0  0  0  0  0  0  0  0
  144.9661  131.0800  151.7291 H   0  0  0  0  0  0  0  0  0  0  0  0
  144.5859  131.1593  150.0289 H   0  0  0  0  0  0  0  0  0  0  0  0
  146.9633  131.9798  151.0076 H   0  0  0  0  0  0  0  0  0  0  0  0
  146.2719  132.7057  149.5823 H   0  0  0  0  0  0  0  0  0  0  0  0
  147.1311  134.2728  151.4923 H   0  0  0  0  0  0  0  0  0  0  0  0
  145.6497  134.6776  150.6685 H   0  0  0  0  0  0  0  0  0  0  0  0
  145.8092  133.1969  153.3274 H   0  0  0  0  0  0  0  0  0  0  0  0
  143.7113  132.8459  153.2484 H   0  0  0  0  0  0  0  0  0  0  0  0
  1  2  1  0  0  0  0
  1 22  1  0  0  0  0
  1 23  1  0  0  0  0
  1 24  1  0  0  0  0
  2  3  1  0  0  0  0
  3  8  1  0  0  0  0
  3  4  2  0  0  0  0
  4  5  1  0  0  0  0
  5  6  2  0  0  0  0
  5 25  1  0  0  0  0
  6  7  1  0  0  0  0
  6 26  1  0  0  0  0
  7  8  2  0  0  0  0
  7 27  1  0  0  0  0
  8  9  1  0  0  0  0
  9 10  1  0  0  0  0
  9 28  1  0  0  0  0
 10 11  2  0  0  0  0
 10 12  1  0  0  0  0
 12 13  1  0  0  0  0
 12 29  1  0  0  0  0
 13 21  1  0  0  0  0
 13 14  1  0  0  0  0
 13 30  1  0  0  0  0
 14 15  1  0  0  0  0
 14 31  1  0  0  0  0
 14 32  1  0  0  0  0
 15 16  1  0  0  0  0
 15 33  1  0  0  0  0
 15 34  1  0  0  0  0
 16 21  1  0  0  0  0
 16 17  1  0  0  0  0
 16 44  1  0  0  0  0
 17 18  1  0  0  0  0
 17 35  1  0  0  0  0
 17 36  1  0  0  0  0
 18 19  1  0  0  0  0
 18 37  1  0  0  0  0
 18 38  1  0  0  0  0
 19 20  1  0  0  0  0
 19 39  1  0  0  0  0
 19 40  1  0  0  0  0
 20 21  1  0  0  0  0
 20 41  1  0  0  0  0
 20 42  1  0  0  0  0
 21 43  1  0  0  0  0
M  CHG  1  16   1
M  END
> <s_m_source_file>
AV-unprocessed.smi

> <i_m_source_file_index>
1721

> <i_lp_mmshare_version>
43012

> <i_f3d_flags>
0

> <s_epik_input>
W0NIM11PYzFuW2NIXVtjSF1bY0hdYzFbTkhdQyg9TylbTkhdW0NASF0oW0NIMl1bQ0gyXTIpW0NAQEhdKE4yMylbQ0gyXVtDSDJdW0NIMl1bQ0gyXTM=

> <s_epik_cmdline>
J2VwaWtfcHl0aG9uJywgJy1waCcsICc3LjAnLCAnLXRuJywgJzgnLCAnLW1hJywgJzIwMCcsICctbWV0YWxfYmluZGluZycsICctaW1hZScsICc8aW5maWxlLm1hZT4nLCAnLW9tYWUnLCAnPG91dGZpbGUubWFlPic=

> <r_lp_tautomer_probability>
1

> <r_epik_Ionization_Penalty>
0.00104793

> <r_epik_Ionization_Penalty_Charging>
0.000974069

> <r_epik_Ionization_Penalty_Neutral>
7.38649e-05

> <r_epik_State_Penalty>
0.000633842

> <r_epik_Charging_Adjusted_Penalty>
0.00160791

> <i_epik_Tot_Q>
1

> <i_epik_Tot_abs_Q>
1

> <r_epik_Metal_State_Penalty>
-0

> <b_epik_Metal_Only>
0

> <s_lp_Force_Field>
OPLS_2005

> <r_lp_Energy>
43.723

> <b_lp_Chiralities_Consistent>
1

> <s_lp_Variant>
AV-unprocessed.smi:1721-2

> <Gold.Version>
5.8.1

> <Gold.Id.Protein>
6NUR|6NUR_protein|mol2

> <Gold.PLP.Fitness>
51.1936

> <Gold.PLP.PLP>
-35.3929

> <Gold.PLP.part.hbond>
-3.8707

> <Gold.PLP.part.metal>
0.0000

> <Gold.PLP.part.buried>
-4.5212

> <Gold.PLP.part.nonpolar>
-27.9367

> <Gold.PLP.part.repulsive>
0.4507

> <Gold.PLP.ligand.clash>
0.0000

> <Gold.PLP.ligand.torsion>
0.2911

> <Gold.PLP.Chemscore.Hbond>
4.4599

> <Gold.PLP.Chemscore.CHOScore>
1.0000

> <Gold.PLP.Chemscore.Metal>
0.0000

> <Gold.Chemscore.Hbonds>
donor molecule, donor type, donor heavy atom, donor atom, acceptor molecule, acceptor atom, score
      L1  H     9    28       P1  7948  1.00
      L1  H    12    29       P1  7948  0.87
      L1  H    16    44       P1 10957  1.46
      P1  H  7989  7998       L1     4  0.93
      L1  C     5    25       P1  8028  0.95

> <Gold.PLP.Chemscore.Internal.Correction>
0.0032

> <Gold.Rescore>
     Score         DG    S(hbond)    S(metal)    S(lipo)     H(rot)  DE(clash)    DE(int)     intcor
     20.79     -21.69       2.98        0.00      80.82       1.25       0.63       0.27       ----

> <Gold.Chemscore.Fitness>
20.7937

> <Gold.Chemscore.DG>
-21.6939

> <Gold.Chemscore.ZeroCoef>
-5.4800

> <Gold.Chemscore.Hbond>
2.9794

> <Gold.Chemscore.Metal>
0.0000

> <Gold.Chemscore.Lipo>
80.8218

> <Gold.Chemscore.Internal_Hbond>
0.0000

> <Gold.Chemscore.DEClash>
0.6337

> <Gold.Chemscore.DEInternal>
0.2665

> <Gold.Chemscore.Rot>
1.2474

> <Gold.Chemscore.Internal.Correction>
   9.000000E+99

> <Gold.Chemscore.Hbonds>
donor molecule, donor type, donor heavy atom, donor atom, acceptor molecule, acceptor atom, score
      L1  H     9    28       P1  7948  1.00
      L1  H    12    29       P1  7948  0.81
      L1  H    16    44       P1 10957  0.40
      P1  H  7989  7998       L1     4  0.37

> <Gold.Chemscore.Hbond.Weighted>
-9.9512

> <Gold.Chemscore.Metal.Weighted>
-0.0000

> <Gold.Chemscore.Lipo.Weighted>
-9.4562

> <Gold.Chemscore.Internal_Hbond.Weighted>
0.0000

> <Gold.Chemscore.DEClash.Weighted>
0.6337

> <Gold.Chemscore.DEInternal.Weighted>
0.2665

> <Gold.Chemscore.Rot.Weighted>
3.1934

> <Gold.Chemscore.Internal.Correction.Weighted>
   9.000000E+99

> <Gold.Protein.RotatedTorsions>
[ 6907 6896 6895 6894 ] final  125.23 input  -60.11 | X-H torsion
[ 7974 7965 7964 7962 ] final   -9.24 input  175.53 | X-H torsion
[ 8008 7997 7996 7995 ] final -108.04 input   59.86 | X-H torsion
[ 10167 10162 10161 10158 ] final  -45.40 input  -65.29 | X-H torsion
[ 10718 10713 10712 10709 ] final   34.93 input   66.30 | X-H torsion
[ 10763 10752 10751 10750 ] final  -14.01 input  -60.55 | X-H torsion
[ 11005 11000 10999 10996 ] final  -30.84 input  -57.11 | X-H torsion

> <Gold.Protein.ActiveResidues>
 VAL166  LYS551  ARG553  GLY616  TRP617  ASP618  TYR619  PRO620  LYS621  CYS622 
 ASP623  PHE694  ASN695  SER759  ASP760  ASP761  ALA762  ILE779  LEU786  VAL792 
 PHE793  MET794  SER795  GLU796  ALA797  LYS798  CYS799  TRP800  GLU811  SER814 

> <Gold.Protein.RotatedAtoms>
  152.4009  133.6817  159.6315 H   0  0  0  0  0  0  0  0  0  0  0  0  # atno 6907 bound_to 6896
  150.7901  133.8792  159.3289 H   0  0  0  0  0  0  0  0  0  0  0  0  # atno 6908 bound_to 6896
  151.6558  135.0997  160.0221 H   0  0  0  0  0  0  0  0  0  0  0  0  # atno 6909 bound_to 6896
  146.2257  140.2587  142.8350 H   0  0  0  0  0  0  0  0  0  0  0  0  # atno 7974 bound_to 7965
  154.9384  140.0403  157.2084 H   0  0  0  0  0  0  0  0  0  0  0  0  # atno 8008 bound_to 7997
  154.8093  140.2865  155.5843 H   0  0  0  0  0  0  0  0  0  0  0  0  # atno 8009 bound_to 7997
  156.2970  140.2540  156.2978 H   0  0  0  0  0  0  0  0  0  0  0  0  # atno 8010 bound_to 7997
  140.6859  143.2881  151.3634 H   0  0  0  0  0  0  0  0  0  0  0  0  # atno 10167 bound_to 10162
  157.3164  130.7426  149.6757 H   0  0  0  0  0  0  0  0  0  0  0  0  # atno 10718 bound_to 10713
  153.5218  135.7015  153.5727 H   0  0  0  0  0  0  0  0  0  0  0  0  # atno 10763 bound_to 10752
  153.3773  135.3929  155.1831 H   0  0  0  0  0  0  0  0  0  0  0  0  # atno 10764 bound_to 10752
  154.8694  135.3826  154.4707 H   0  0  0  0  0  0  0  0  0  0  0  0  # atno 10765 bound_to 10752
  140.9417  133.7274  156.1086 H   0  0  0  0  0  0  0  0  0  0  0  0  # atno 11005 bound_to 11000
  144.9356  140.8022  143.5662 LP  0  0  0  0  0  0  0  0  0  0  0  0  # atno 17320 bound_to 7965
  145.2535  139.2022  143.4930 LP  0  0  0  0  0  0  0  0  0  0  0  0  # atno 17321 bound_to 7965
  139.6218  144.0892  152.2398 LP  0  0  0  0  0  0  0  0  0  0  0  0  # atno 17342 bound_to 10162
  140.0339  144.6059  150.7465 LP  0  0  0  0  0  0  0  0  0  0  0  0  # atno 17343 bound_to 10162
  155.9682  130.4236  150.4569 LP  0  0  0  0  0  0  0  0  0  0  0  0  # atno 17370 bound_to 10713
  157.2577  131.0560  151.2340 LP  0  0  0  0  0  0  0  0  0  0  0  0  # atno 17371 bound_to 10713
  140.7724  134.3817  157.5505 LP  0  0  0  0  0  0  0  0  0  0  0  0  # atno 17394 bound_to 11000
  139.8822  134.9030  156.2846 LP  0  0  0  0  0  0  0  0  0  0  0  0  # atno 17395 bound_to 11000

$$$$
