#       Name:                AV-unprocessed.smi:765
#       Creating user name   scv26
#       Creation time:       Fri Mar 27 01:05:24 2020


#       File generated by GOLD software.
#

@<TRIPOS>MOLECULE
AV-unprocessed.smi:765
    43    44     1
SMALL
NO_CHARGES


@<TRIPOS>ATOM
      1 ****        -2.0553  -1.7441   1.9030 C.3            1 S1                 0.0000
      2 ****        -1.5551  -1.0854   0.6102 C.3            1 S1                 0.0000
      3 ****        -1.9904  -1.8817  -0.6332 C.3            1 S1                 0.0000
      4 ****        -1.5031  -1.2193  -1.9301 C.3            1 S1                 0.0000
      5 ****        -1.9628   0.2477  -2.0153 C.3            1 S1                 0.0000
      6 ****        -1.5284   1.0802  -0.7888 C.3            1 S1                 0.0000
      7 ****        -2.1249   2.4249  -0.8979 C.1            1 S1                 0.0000
      8 ****        -2.5938   3.4793  -0.9849 N.1            1 S1                 0.0000
      9 ****        -0.0653   1.1610  -0.7887 N.am           1 S1                 0.0000
     10 ****         0.7104   1.8716   0.0471 C.2            1 S1                 0.0000
     11 ****         0.2638   2.6787   0.8625 O.2            1 S1                 0.0000
     12 ****         2.2187   1.5875  -0.0408 C.3            1 S1                 0.0000
     13 ****         3.0740   2.6027   0.7446 C.3            1 S1                 0.0000
     14 ****         2.4887   0.2132   0.3704 N.pl3          1 S1                 0.0000
     15 ****         2.7467  -0.8794  -0.4330 C.2            1 S1                 0.0000
     16 ****         2.8797  -1.9668   0.3819 C.2            1 S1                 0.0000
     17 ****         2.6748  -1.4385   1.6864 C.2            1 S1                 0.0000
     18 ****         2.4354  -0.1379   1.6768 N.2            1 S1                 0.0000
     19 ****        -2.0330   0.3787   0.4984 C.3            1 S1                 0.0000
     20 ****        -3.1446  -1.7794   1.9360 H              1 S1                 0.0000
     21 ****        -1.7122  -1.1954   2.7804 H              1 S1                 0.0000
     22 ****        -1.6859  -2.7663   1.9898 H              1 S1                 0.0000
     23 ****        -0.4651  -1.0914   0.6507 H              1 S1                 0.0000
     24 ****        -1.6064  -2.9010  -0.5777 H              1 S1                 0.0000
     25 ****        -3.0781  -1.9633  -0.6560 H              1 S1                 0.0000
     26 ****        -0.4152  -1.2745  -1.9828 H              1 S1                 0.0000
     27 ****        -1.8780  -1.7742  -2.7905 H              1 S1                 0.0000
     28 ****        -1.5806   0.7005  -2.9312 H              1 S1                 0.0000
     29 ****        -3.0504   0.2717  -2.1001 H              1 S1                 0.0000
     30 ****         0.4061   0.5401  -1.4299 H              1 S1                 0.0000
     31 ****         2.4981   1.6715  -1.0923 H              1 S1                 0.0000
     32 ****         2.9150   3.6177   0.3790 H              1 S1                 0.0000
     33 ****         4.1360   2.3805   0.6367 H              1 S1                 0.0000
     34 ****         2.8422   2.5950   1.8104 H              1 S1                 0.0000
     35 ****         2.8090  -0.7949  -1.5078 H              1 S1                 0.0000
     36 ****         3.0865  -2.9858   0.0906 H              1 S1                 0.0000
     37 ****         2.6883  -1.9578   2.6333 H              1 S1                 0.0000
     38 ****        -3.1238   0.3991   0.5100 H              1 S1                 0.0000
     39 ****        -1.7214   0.9367   1.3819 H              1 S1                 0.0000
     40 ****        -2.9990   4.3904  -1.0601 LP             1 S1                 0.0000
     41 ****        -0.7224   2.8315   0.9260 LP             1 S1                 0.0000
     42 ****         0.8873   3.1814   1.4613 LP             1 S1                 0.0000
     43 ****         2.2549   0.4553   2.4614 LP             1 S1                 0.0000
@<TRIPOS>BOND
    1    1    2 1     
    2    1   20 1     
    3    1   21 1     
    4    1   22 1     
    5    2   19 1     
    6    2    3 1     
    7    2   23 1     
    8    3    4 1     
    9    3   24 1     
   10    3   25 1     
   11    4    5 1     
   12    4   26 1     
   13    4   27 1     
   14    5    6 1     
   15    5   28 1     
   16    5   29 1     
   17    6    7 1     
   18    6    9 1     
   19    6   19 1     
   20    7    8 3     
   21    9   10 am    
   22    9   30 1     
   23   10   11 2     
   24   10   12 1     
   25   12   13 1     
   26   12   14 1     
   27   12   31 1     
   28   13   32 1     
   29   13   33 1     
   30   13   34 1     
   31   14   18 1     
   32   14   15 1     
   33   15   16 2     
   34   15   35 1     
   35   16   17 1     
   36   16   36 1     
   37   17   18 2     
   38   17   37 1     
   39   19   38 1     
   40   19   39 1     
   41    8   40 1     
   42   11   41 1     
   43   11   42 1     
   44   18   43 1     
@<TRIPOS>SUBSTRUCTURE
      1 S1             1
@<TRIPOS>SET
LONE_PAIRS      STATIC     ATOMS    <user>   **** ""
4 40 41 42 43
DONOR_HYDROGENS      STATIC     ATOMS    <user>   **** ""
1 30
ATOM$BLUE        STATIC     ATOMS    COLORGROUP SYSTEM
4 40 41 42 43
ATOM$RED        STATIC     ATOMS    COLORGROUP SYSTEM
1 30
