#       Name:                AV-unprocessed.smi:2784
#       Creating user name   scv26
#       Creation time:       Fri Mar 27 15:18:09 2020


#       File generated by GOLD software.
#

@<TRIPOS>MOLECULE
AV-unprocessed.smi:2784
    38    39     1
SMALL
NO_CHARGES


@<TRIPOS>ATOM
      1 ****        -1.9041   0.8376  -2.0994 C.3            1 S1                 0.0000
      2 ****        -1.1677  -0.1912  -1.4585 O.3            1 S1                 0.0000
      3 ****         0.2038  -0.2390  -1.8425 C.3            1 S1                 0.0000
      4 ****         0.3400  -1.1582  -3.0610 C.3            1 S1                 0.0000
      5 ****         0.3674  -2.5629  -2.4649 C.3            1 S1                 0.0000
      6 ****         1.1516  -2.4165  -1.1582 C.3            1 S1                 0.0000
      7 ****         1.0430  -0.9350  -0.7461 C.3            1 S1                 0.0000
      8 ****         0.4720  -0.7962   0.5930 N.am           1 S1                 0.0000
      9 ****         0.4962   0.3164   1.3408 C.2            1 S1                 0.0000
     10 ****         1.0355   1.3368   0.9060 O.2            1 S1                 0.0000
     11 ****        -0.1082   0.1792   2.5427 N.pl3          1 S1                -1.0000
     12 ****        -0.1691   1.2244   3.3834 C.2            1 S1                 0.0000
     13 ****         0.6206   1.4394   4.4372 N.2            1 S1                 0.0000
     14 ****         0.1837   2.6279   5.0017 C.2            1 S1                 0.0000
     15 ****        -0.8708   3.0832   4.2583 C.2            1 S1                 0.0000
     16 ****        -1.1052   2.2047   3.2370 O.3            1 S1                 0.0000
     17 ****        -2.9449   0.7942  -1.7794 H              1 S1                 0.0000
     18 ****        -1.8813   0.7353  -3.1845 H              1 S1                 0.0000
     19 ****        -1.5136   1.8205  -1.8326 H              1 S1                 0.0000
     20 ****         0.5878   0.7644  -2.0363 H              1 S1                 0.0000
     21 ****        -0.4550  -1.0300  -3.7955 H              1 S1                 0.0000
     22 ****         1.2873  -0.9585  -3.5636 H              1 S1                 0.0000
     23 ****        -0.6514  -2.8847  -2.2450 H              1 S1                 0.0000
     24 ****         0.8088  -3.2972  -3.1392 H              1 S1                 0.0000
     25 ****         0.7742  -3.0999  -0.3961 H              1 S1                 0.0000
     26 ****         2.1990  -2.6715  -1.3242 H              1 S1                 0.0000
     27 ****         2.0502  -0.5140  -0.7484 H              1 S1                 0.0000
     28 ****         0.0145  -1.6077   0.9812 H              1 S1                 0.0000
     29 ****         0.6521   3.0505   5.8780 H              1 S1                 0.0000
     30 ****        -1.5152   3.9474   4.3157 H              1 S1                 0.0000
     31 ****        -1.5896  -1.0692  -1.6847 LP             1 S1                 0.0000
     32 ****        -1.2139  -0.0439  -0.4705 LP             1 S1                 0.0000
     33 ****         1.4534   1.3332  -0.0024 LP             1 S1                 0.0000
     34 ****         1.0548   2.1678   1.4619 LP             1 S1                 0.0000
     35 ****        -0.5089  -0.6987   2.8048 LP             1 S1                 0.0000
     36 ****         1.3728   0.8620   4.7546 LP             1 S1                 0.0000
     37 ****        -2.0266   1.8226   3.3082 LP             1 S1                 0.0000
     38 ****        -1.0005   2.6597   2.3527 LP             1 S1                 0.0000
@<TRIPOS>BOND
    1    1    2 1     
    2    1   17 1     
    3    1   18 1     
    4    1   19 1     
    5    2    3 1     
    6    3    7 1     
    7    3    4 1     
    8    3   20 1     
    9    4    5 1     
   10    4   21 1     
   11    4   22 1     
   12    5    6 1     
   13    5   23 1     
   14    5   24 1     
   15    6    7 1     
   16    6   25 1     
   17    6   26 1     
   18    7    8 1     
   19    7   27 1     
   20    8   28 1     
   21    8    9 am    
   22    9   11 1     
   23    9   10 2     
   24   11   12 1     
   25   12   16 1     
   26   12   13 2     
   27   13   14 1     
   28   14   29 1     
   29   14   15 2     
   30   15   30 1     
   31   15   16 1     
   32    2   31 1     
   33    2   32 1     
   34   10   33 1     
   35   10   34 1     
   36   11   35 1     
   37   13   36 1     
   38   16   37 1     
   39   16   38 1     
@<TRIPOS>SUBSTRUCTURE
      1 S1             1
@<TRIPOS>SET
LONE_PAIRS      STATIC     ATOMS    <user>   **** ""
8 31 32 33 34 35 36 37 38
DONOR_HYDROGENS      STATIC     ATOMS    <user>   **** ""
1 28
ATOM$BLUE        STATIC     ATOMS    COLORGROUP SYSTEM
8 31 32 33 34 35 36 37 38
ATOM$RED        STATIC     ATOMS    COLORGROUP SYSTEM
1 28
