#       Name:                AV-unprocessed.smi:1645
#       Creating user name   scv26
#       Creation time:       Fri Mar 27 07:30:50 2020


#       File generated by GOLD software.
#

@<TRIPOS>MOLECULE
AV-unprocessed.smi:1645
    59    62     1
SMALL
NO_CHARGES


@<TRIPOS>ATOM
      1 ****        -1.0593   1.6608   0.2317 O.2            1 S1                 0.0000
      2 ****        -1.2350   0.5769   0.7862 C.2            1 S1                 0.0000
      3 ****        -0.2782  -0.3169   1.0914 N.am           1 S1                 0.0000
      4 ****         1.1286  -0.2437   0.8902 C.ar           1 S1                 0.0000
      5 ****         1.8109   0.8398   0.2875 C.ar           1 S1                 0.0000
      6 ****         3.2112   0.7764   0.1559 C.ar           1 S1                 0.0000
      7 ****         3.9013  -0.3644   0.6266 C.ar           1 S1                 0.0000
      8 ****         5.3047  -0.4423   0.5013 N.3            1 S1                 0.0000
      9 ****         5.8242  -0.2652  -0.8559 C.3            1 S1                 0.0000
     10 ****         7.3274   0.0609  -0.8347 C.3            1 S1                 0.0000
     11 ****         8.1102  -0.9914  -0.0348 C.3            1 S1                 0.0000
     12 ****         7.5175  -1.1294   1.3757 C.3            1 S1                 0.0000
     13 ****         6.0107  -1.4340   1.3161 C.3            1 S1                 0.0000
     14 ****         3.2469  -1.3992   1.2072 N.ar           1 S1                 0.0000
     15 ****         1.9049  -1.3348   1.3301 C.ar           1 S1                 0.0000
     16 ****        -2.4447   0.1366   1.1602 N.am           1 S1                 0.0000
     17 ****        -3.6880   0.8843   0.9907 C.3            1 S1                 0.0000
     18 ****        -4.8560   0.3052   1.7783 C.3            1 S1                 0.0000
     19 ****        -6.0777   0.9279   1.0939 C.3            1 S1                 0.0000
     20 ****        -5.6794   1.2341  -0.3026 N.4            1 S1                 1.0000
     21 ****        -6.5675   0.6304  -1.3321 C.3            1 S1                 0.0000
     22 ****        -5.8924   0.6364  -2.7116 C.3            1 S1                 0.0000
     23 ****        -4.6038  -0.2078  -2.7110 C.3            1 S1                 0.0000
     24 ****        -3.9855  -0.3387  -1.3055 C.3            1 S1                 0.0000
     25 ****        -4.2276   0.9305  -0.4519 C.3            1 S1                 0.0000
     26 ****        -0.5971  -1.1625   1.5414 H              1 S1                 0.0000
     27 ****         1.3048   1.7195  -0.0746 H              1 S1                 0.0000
     28 ****         3.7403   1.6058  -0.2893 H              1 S1                 0.0000
     29 ****         5.6532  -1.1863  -1.4148 H              1 S1                 0.0000
     30 ****         5.2974   0.5243  -1.3903 H              1 S1                 0.0000
     31 ****         7.7110   0.1182  -1.8536 H              1 S1                 0.0000
     32 ****         7.4795   1.0452  -0.3899 H              1 S1                 0.0000
     33 ****         8.0659  -1.9525  -0.5487 H              1 S1                 0.0000
     34 ****         9.1631  -0.7142   0.0233 H              1 S1                 0.0000
     35 ****         8.0356  -1.9155   1.9253 H              1 S1                 0.0000
     36 ****         7.6800  -0.2047   1.9311 H              1 S1                 0.0000
     37 ****         5.6090  -1.4436   2.3300 H              1 S1                 0.0000
     38 ****         5.8466  -2.4265   0.8939 H              1 S1                 0.0000
     39 ****         1.4348  -2.1873   1.7986 H              1 S1                 0.0000
     40 ****        -2.5085  -0.7666   1.6071 H              1 S1                 0.0000
     41 ****        -3.5306   1.9078   1.3381 H              1 S1                 0.0000
     42 ****        -4.8850  -0.7799   1.6696 H              1 S1                 0.0000
     43 ****        -4.8064   0.5352   2.8432 H              1 S1                 0.0000
     44 ****        -6.9487   0.2742   1.1598 H              1 S1                 0.0000
     45 ****        -6.3407   1.8680   1.5800 H              1 S1                 0.0000
     46 ****        -6.8147  -0.3976  -1.0608 H              1 S1                 0.0000
     47 ****        -7.5061   1.1844  -1.3603 H              1 S1                 0.0000
     48 ****        -6.5779   0.2699  -3.4762 H              1 S1                 0.0000
     49 ****        -5.6545   1.6656  -2.9848 H              1 S1                 0.0000
     50 ****        -4.8082  -1.2054  -3.1015 H              1 S1                 0.0000
     51 ****        -3.8847   0.2436  -3.3956 H              1 S1                 0.0000
     52 ****        -4.4194  -1.2022  -0.7993 H              1 S1                 0.0000
     53 ****        -2.9212  -0.5507  -1.4066 H              1 S1                 0.0000
     54 ****        -3.7615   1.7682  -0.9731 H              1 S1                 0.0000
     55 ****        -5.7592   2.2359  -0.4049 H              1 S1                 0.0000
     56 ****        -0.1374   1.9430  -0.0336 LP             1 S1                 0.0000
     57 ****        -1.8384   2.2596   0.0463 LP             1 S1                 0.0000
     58 ****         5.5693   0.3979   0.9745 LP             1 S1                 0.0000
     59 ****         3.7502  -2.1972   1.5390 LP             1 S1                 0.0000
@<TRIPOS>BOND
    1    1    2 2     
    2    2    3 am    
    3    2   16 am    
    4    3    4 1     
    5    3   26 1     
    6    4   15 ar    
    7    4    5 ar    
    8    5    6 ar    
    9    5   27 1     
   10    6    7 ar    
   11    6   28 1     
   12    7    8 1     
   13    7   14 ar    
   14    8   13 1     
   15    8    9 1     
   16    9   10 1     
   17    9   29 1     
   18    9   30 1     
   19   10   11 1     
   20   10   31 1     
   21   10   32 1     
   22   11   12 1     
   23   11   33 1     
   24   11   34 1     
   25   12   13 1     
   26   12   35 1     
   27   12   36 1     
   28   13   37 1     
   29   13   38 1     
   30   14   15 ar    
   31   15   39 1     
   32   16   17 1     
   33   16   40 1     
   34   17   25 1     
   35   17   18 1     
   36   17   41 1     
   37   18   19 1     
   38   18   42 1     
   39   18   43 1     
   40   19   20 1     
   41   19   44 1     
   42   19   45 1     
   43   20   25 1     
   44   20   21 1     
   45   20   55 1     
   46   21   22 1     
   47   21   46 1     
   48   21   47 1     
   49   22   23 1     
   50   22   48 1     
   51   22   49 1     
   52   23   24 1     
   53   23   50 1     
   54   23   51 1     
   55   24   25 1     
   56   24   52 1     
   57   24   53 1     
   58   25   54 1     
   59    1   56 1     
   60    1   57 1     
   61    8   58 1     
   62   14   59 1     
@<TRIPOS>SUBSTRUCTURE
      1 S1             1
@<TRIPOS>SET
LONE_PAIRS      STATIC     ATOMS    <user>   **** ""
4 56 57 58 59
DONOR_HYDROGENS      STATIC     ATOMS    <user>   **** ""
3 26 40 55
ATOM$BLUE        STATIC     ATOMS    COLORGROUP SYSTEM
4 56 57 58 59
ATOM$RED        STATIC     ATOMS    COLORGROUP SYSTEM
3 26 40 55
