AV-unprocessed.smi:434|AV-procd|sdf|2553|dock5
  -GOLD-   2262022523D 1   1.00000     0.00000
 Structure written by MMmdl.
 39 41  0  0  0  0  0  0  0  0  1 V2000
  152.8622  137.8048  159.2944 C   0  0  0  0  0  0  0  0  0  0  0  0
  152.8765  139.3006  159.2900 C   0  0  0  0  0  0  0  0  0  0  0  0
  153.6338  140.0068  160.1295 N   0  0  0  0  0  0  0  0  0  0  0  0
  153.3449  141.3103  159.7740 C   0  0  0  0  0  0  0  0  0  0  0  0
  153.8283  142.5325  160.2937 C   0  0  0  0  0  0  0  0  0  0  0  0
  153.3823  143.7604  159.7621 C   0  0  0  0  0  0  0  0  0  0  0  0
  152.4477  143.7841  158.7067 C   0  0  0  0  0  0  0  0  0  0  0  0
  151.9529  142.5779  158.1744 C   0  0  0  0  0  0  0  0  0  0  0  0
  152.4018  141.3548  158.7078 C   0  0  0  0  0  0  0  0  0  0  0  0
  152.1203  140.0212  158.4257 N   0  0  0  0  0  0  0  0  0  0  0  0
  151.2042  139.5223  157.4082 C   0  0  0  0  0  0  0  0  0  0  0  0
  151.6241  139.9226  155.9794 C   0  0  1  0  0  0  0  0  0  0  0  0
  152.7693  139.1797  155.6097 O   0  0  0  0  0  0  0  0  0  0  0  0
  150.5118  139.6463  154.9555 C   0  0  0  0  0  0  0  0  0  0  0  0
  149.3433  140.3513  155.3406 O   0  0  0  0  0  0  0  0  0  0  0  0
  149.5565  141.7480  155.4462 C   0  0  0  0  0  0  0  0  0  0  0  0
  148.2240  142.3614  155.7137 C   0  0  0  0  0  0  0  0  0  0  0  0
  147.4223  143.2161  155.0083 C   0  0  0  0  0  0  0  0  0  0  0  0
  146.2625  143.4268  155.8045 C   0  0  0  0  0  0  0  0  0  0  0  0
  146.4428  142.6835  156.9361 C   0  0  0  0  0  0  0  0  0  0  0  0
  147.6343  142.0270  156.8962 O   0  0  0  0  0  0  0  0  0  0  0  0
  153.4828  137.4191  160.1038 H   0  0  0  0  0  0  0  0  0  0  0  0
  153.2524  137.4218  158.3512 H   0  0  0  0  0  0  0  0  0  0  0  0
  151.8476  137.4333  159.4355 H   0  0  0  0  0  0  0  0  0  0  0  0
  154.5433  142.5253  161.1031 H   0  0  0  0  0  0  0  0  0  0  0  0
  153.7588  144.6884  160.1670 H   0  0  0  0  0  0  0  0  0  0  0  0
  152.1099  144.7290  158.3066 H   0  0  0  0  0  0  0  0  0  0  0  0
  151.2349  142.5933  157.3679 H   0  0  0  0  0  0  0  0  0  0  0  0
  151.1445  138.4365  157.4953 H   0  0  0  0  0  0  0  0  0  0  0  0
  150.2037  139.8957  157.6275 H   0  0  0  0  0  0  0  0  0  0  0  0
  151.8746  140.9837  155.9638 H   0  0  0  0  0  0  0  0  0  0  0  0
  152.6612  138.8872  154.7175 H   0  0  0  0  0  0  0  0  0  0  0  0
  150.8273  139.9159  153.9458 H   0  0  0  0  0  0  0  0  0  0  0  0
  150.2774  138.5805  154.9462 H   0  0  0  0  0  0  0  0  0  0  0  0
  150.2509  141.9724  156.2574 H   0  0  0  0  0  0  0  0  0  0  0  0
  149.9777  142.1443  154.5212 H   0  0  0  0  0  0  0  0  0  0  0  0
  147.6428  143.6364  154.0383 H   0  0  0  0  0  0  0  0  0  0  0  0
  145.4049  144.0429  155.5779 H   0  0  0  0  0  0  0  0  0  0  0  0
  145.8535  142.5155  157.8254 H   0  0  0  0  0  0  0  0  0  0  0  0
  1  2  1  0  0  0  0
  1 22  1  0  0  0  0
  1 23  1  0  0  0  0
  1 24  1  0  0  0  0
  2 10  1  0  0  0  0
  2  3  2  0  0  0  0
  3  4  1  0  0  0  0
  4  9  2  0  0  0  0
  4  5  1  0  0  0  0
  5  6  2  0  0  0  0
  5 25  1  0  0  0  0
  6  7  1  0  0  0  0
  6 26  1  0  0  0  0
  7  8  2  0  0  0  0
  7 27  1  0  0  0  0
  8  9  1  0  0  0  0
  8 28  1  0  0  0  0
  9 10  1  0  0  0  0
 10 11  1  0  0  0  0
 11 12  1  0  0  0  0
 11 29  1  0  0  0  0
 11 30  1  0  0  0  0
 12 13  1  0  0  0  0
 12 14  1  0  0  0  0
 12 31  1  0  0  0  0
 13 32  1  0  0  0  0
 14 15  1  0  0  0  0
 14 33  1  0  0  0  0
 14 34  1  0  0  0  0
 15 16  1  0  0  0  0
 16 17  1  0  0  0  0
 16 35  1  0  0  0  0
 16 36  1  0  0  0  0
 17 21  1  0  0  0  0
 17 18  2  0  0  0  0
 18 19  1  0  0  0  0
 18 37  1  0  0  0  0
 19 20  2  0  0  0  0
 19 38  1  0  0  0  0
 20 21  1  0  0  0  0
 20 39  1  0  0  0  0
M  END
> <s_m_source_file>
AV-unprocessed.smi

> <i_m_source_file_index>
434

> <i_lp_mmshare_version>
43012

> <i_f3d_flags>
0

> <s_epik_input>
W2NIXTFbY0hdW2NIXVtjSF1jKGMxMiluKGMobjIpW0NIM10pW0NIMl1bQ0BIXShbT0hdKVtDSDJdT1tDSDJdYzNbY0hdW2NIXVtjSF1vMw==

> <s_epik_cmdline>
J2VwaWtfcHl0aG9uJywgJy1waCcsICc3LjAnLCAnLXRuJywgJzgnLCAnLW1hJywgJzIwMCcsICctbWV0YWxfYmluZGluZycsICctaW1hZScsICc8aW5maWxlLm1hZT4nLCAnLW9tYWUnLCAnPG91dGZpbGUubWFlPic=

> <r_epik_Ionization_Penalty>
0.126634

> <r_epik_Ionization_Penalty_Charging>
0

> <r_epik_Ionization_Penalty_Neutral>
0.126634

> <r_epik_State_Penalty>
0.116082

> <r_epik_Charging_Adjusted_Penalty>
0.116082

> <i_epik_Tot_Q>
0

> <i_epik_Tot_abs_Q>
0

> <r_epik_Metal_State_Penalty>
0.00012822

> <b_epik_Metal_Only>
0

> <s_lp_Force_Field>
OPLS_2005

> <r_lp_Energy>
9.69126

> <b_lp_Chiralities_Consistent>
1

> <s_lp_Variant>
AV-unprocessed.smi:434-2

> <Gold.Version>
5.8.1

> <Gold.Id.Protein>
6NUR|6NUR_protein|mol2

> <Gold.PLP.Fitness>
52.4785

> <Gold.PLP.PLP>
-49.6388

> <Gold.PLP.part.hbond>
-1.0000

> <Gold.PLP.part.metal>
0.0000

> <Gold.PLP.part.buried>
-6.0502

> <Gold.PLP.part.nonpolar>
-42.2406

> <Gold.PLP.part.repulsive>
0.1734

> <Gold.PLP.ligand.clash>
0.0000

> <Gold.PLP.ligand.torsion>
0.1106

> <Gold.PLP.Chemscore.Hbond>
1.0000

> <Gold.PLP.Chemscore.CHOScore>
0.0000

> <Gold.PLP.Chemscore.Metal>
0.0000

> <Gold.Chemscore.Hbonds>
donor molecule, donor type, donor heavy atom, donor atom, acceptor molecule, acceptor atom, score
      P1  H  7997  8010       L1    13  1.00

> <Gold.PLP.Chemscore.Internal.Correction>
0.0611

> <Gold.Rescore>
     Score         DG    S(hbond)    S(metal)    S(lipo)     H(rot)  DE(clash)    DE(int)     intcor
     16.54     -16.85       0.98        0.00     120.86       2.36       0.04       0.27       ----

> <Gold.Chemscore.Fitness>
16.5388

> <Gold.Chemscore.DG>
-16.8462

> <Gold.Chemscore.ZeroCoef>
-5.4800

> <Gold.Chemscore.Hbond>
0.9774

> <Gold.Chemscore.Metal>
0.0000

> <Gold.Chemscore.Lipo>
120.8635

> <Gold.Chemscore.Internal_Hbond>
0.0000

> <Gold.Chemscore.DEClash>
0.0396

> <Gold.Chemscore.DEInternal>
0.2678

> <Gold.Chemscore.Rot>
2.3591

> <Gold.Chemscore.Internal.Correction>
   9.000000E+99

> <Gold.Chemscore.Hbonds>
donor molecule, donor type, donor heavy atom, donor atom, acceptor molecule, acceptor atom, score
      P1  H  7997  8010       L1    13  0.72

> <Gold.Chemscore.Hbond.Weighted>
-3.2644

> <Gold.Chemscore.Metal.Weighted>
-0.0000

> <Gold.Chemscore.Lipo.Weighted>
-14.1410

> <Gold.Chemscore.Internal_Hbond.Weighted>
0.0000

> <Gold.Chemscore.DEClash.Weighted>
0.0396

> <Gold.Chemscore.DEInternal.Weighted>
0.2678

> <Gold.Chemscore.Rot.Weighted>
6.0393

> <Gold.Chemscore.Internal.Correction.Weighted>
   9.000000E+99

> <Gold.Protein.RotatedTorsions>
[ 6907 6896 6895 6894 ] final -156.36 input  -60.11 | X-H torsion
[ 7974 7965 7964 7962 ] final   92.44 input  175.53 | X-H torsion
[ 8008 7997 7996 7995 ] final   92.11 input   59.86 | X-H torsion
[ 10167 10162 10161 10158 ] final -116.94 input  -65.29 | X-H torsion
[ 10718 10713 10712 10709 ] final -153.91 input   66.30 | X-H torsion
[ 10763 10752 10751 10750 ] final   17.31 input  -60.55 | X-H torsion
[ 11005 11000 10999 10996 ] final -127.75 input  -57.11 | X-H torsion

> <Gold.Protein.ActiveResidues>
 VAL166  LYS551  ARG553  GLY616  TRP617  ASP618  TYR619  PRO620  LYS621  CYS622 
 ASP623  PHE694  ASN695  SER759  ASP760  ASP761  ALA762  ILE779  LEU786  VAL792 
 PHE793  MET794  SER795  GLU796  ALA797  LYS798  CYS799  TRP800  GLU811  SER814 

> <Gold.Protein.RotatedAtoms>
  151.2865  133.4185  159.2630 H   0  0  0  0  0  0  0  0  0  0  0  0  # atno 6907 bound_to 6896
  151.0315  134.9542  159.8123 H   0  0  0  0  0  0  0  0  0  0  0  0  # atno 6908 bound_to 6896
  152.5346  134.2826  159.9065 H   0  0  0  0  0  0  0  0  0  0  0  0  # atno 6909 bound_to 6896
  145.4923  139.2276  143.2823 H   0  0  0  0  0  0  0  0  0  0  0  0  # atno 7974 bound_to 7965
  156.0315  140.3329  155.7145 H   0  0  0  0  0  0  0  0  0  0  0  0  # atno 8008 bound_to 7997
  155.5877  140.0643  157.2784 H   0  0  0  0  0  0  0  0  0  0  0  0  # atno 8009 bound_to 7997
  154.4355  140.1832  156.1030 H   0  0  0  0  0  0  0  0  0  0  0  0  # atno 8010 bound_to 7997
  140.0737  143.4853  152.1965 H   0  0  0  0  0  0  0  0  0  0  0  0  # atno 10167 bound_to 10162
  156.4922  130.8353  151.2575 H   0  0  0  0  0  0  0  0  0  0  0  0  # atno 10718 bound_to 10713
  153.1351  135.6748  153.9116 H   0  0  0  0  0  0  0  0  0  0  0  0  # atno 10763 bound_to 10752
  153.8590  135.3083  155.3438 H   0  0  0  0  0  0  0  0  0  0  0  0  # atno 10764 bound_to 10752
  154.7740  135.4924  153.9789 H   0  0  0  0  0  0  0  0  0  0  0  0  # atno 10765 bound_to 10752
  140.9573  134.0984  157.4003 H   0  0  0  0  0  0  0  0  0  0  0  0  # atno 11005 bound_to 11000
  146.2277  140.5717  142.8989 LP  0  0  0  0  0  0  0  0  0  0  0  0  # atno 17320 bound_to 7965
  144.7827  140.5873  143.6594 LP  0  0  0  0  0  0  0  0  0  0  0  0  # atno 17321 bound_to 7965
  139.5820  144.7515  151.3615 LP  0  0  0  0  0  0  0  0  0  0  0  0  # atno 17342 bound_to 10162
  140.7113  143.7384  150.7571 LP  0  0  0  0  0  0  0  0  0  0  0  0  # atno 17343 bound_to 10162
  157.7472  131.0009  150.2945 LP  0  0  0  0  0  0  0  0  0  0  0  0  # atno 17370 bound_to 10713
  156.3415  130.3816  149.7405 LP  0  0  0  0  0  0  0  0  0  0  0  0  # atno 17371 bound_to 10713
  139.8866  135.0083  156.6511 LP  0  0  0  0  0  0  0  0  0  0  0  0  # atno 17394 bound_to 11000
  140.7518  133.8891  155.8352 LP  0  0  0  0  0  0  0  0  0  0  0  0  # atno 17395 bound_to 11000

$$$$
