AV-unprocessed.smi:3274|AV-procd|sdf|12523|dock7
  -GOLD-   2272018433D 1   1.00000     0.00000
 Structure written by MMmdl.
 43 44  0  0  0  0  0  0  0  0  2 V2000
  151.3579  144.4417  156.9990 C   0  0  0  0  0  0  0  0  0  0  0  0
  151.6784  143.4174  158.0752 C   0  0  0  0  0  0  0  0  0  0  0  0
  152.0986  143.8314  159.2860 C   0  0  0  0  0  0  0  0  0  0  0  0
  152.5195  142.9062  160.4038 C   0  0  0  0  0  0  0  0  0  0  0  0
  152.9017  141.5282  159.8593 C   0  0  0  0  0  0  0  0  0  0  0  0
  151.8163  140.9753  158.9214 C   0  0  2  0  0  0  0  0  0  0  0  0
  152.2032  139.5522  158.4741 C   0  0  0  0  0  0  0  0  0  0  0  0
  151.5314  141.9239  157.7154 C   0  0  1  0  0  0  0  0  0  0  0  0
  150.1501  141.5879  157.0926 C   0  0  0  0  0  0  0  0  0  0  0  0
  150.0091  142.0849  155.7061 N   0  3  0  0  0  0  0  0  0  0  0  0
  149.0821  141.3190  154.8436 C   0  0  2  0  0  0  0  0  0  0  0  0
  147.6387  141.8431  154.9776 C   0  0  0  0  0  0  0  0  0  0  0  0
  149.2040  139.8192  155.1819 C   0  0  0  0  0  0  0  0  0  0  0  0
  150.4655  139.2417  154.7544 N   0  0  0  0  0  0  0  0  0  0  0  0
  150.7227  138.1176  154.0832 C   0  0  0  0  0  0  0  0  0  0  0  0
  152.0131  137.9089  153.8638 N   0  0  0  0  0  0  0  0  0  0  0  0
  152.5302  139.0234  154.4620 C   0  0  0  0  0  0  0  0  0  0  0  0
  151.6446  139.8553  155.0109 N   0  0  0  0  0  0  0  0  0  0  0  0
  151.8789  144.1988  156.0725 H   0  0  0  0  0  0  0  0  0  0  0  0
  151.6718  145.4420  157.2991 H   0  0  0  0  0  0  0  0  0  0  0  0
  150.2863  144.4835  156.8057 H   0  0  0  0  0  0  0  0  0  0  0  0
  152.1670  144.8879  159.5016 H   0  0  0  0  0  0  0  0  0  0  0  0
  153.3690  143.3434  160.9291 H   0  0  0  0  0  0  0  0  0  0  0  0
  151.7026  142.8292  161.1220 H   0  0  0  0  0  0  0  0  0  0  0  0
  153.8482  141.5992  159.3207 H   0  0  0  0  0  0  0  0  0  0  0  0
  153.0719  140.8453  160.6924 H   0  0  0  0  0  0  0  0  0  0  0  0
  150.9021  140.8979  159.5124 H   0  0  0  0  0  0  0  0  0  0  0  0
  153.1081  139.5619  157.8656 H   0  0  0  0  0  0  0  0  0  0  0  0
  151.4194  139.0694  157.8928 H   0  0  0  0  0  0  0  0  0  0  0  0
  152.3958  138.9121  159.3357 H   0  0  0  0  0  0  0  0  0  0  0  0
  152.3009  141.7304  156.9663 H   0  0  0  0  0  0  0  0  0  0  0  0
  149.9878  140.5126  157.0730 H   0  0  0  0  0  0  0  0  0  0  0  0
  149.3588  142.0052  157.7169 H   0  0  0  0  0  0  0  0  0  0  0  0
  149.6533  143.0280  155.7690 H   0  0  0  0  0  0  0  0  0  0  0  0
  149.4019  141.4479  153.8083 H   0  0  0  0  0  0  0  0  0  0  0  0
  146.9553  141.3050  154.3207 H   0  0  0  0  0  0  0  0  0  0  0  0
  147.5629  142.8964  154.7087 H   0  0  0  0  0  0  0  0  0  0  0  0
  147.2714  141.7325  155.9983 H   0  0  0  0  0  0  0  0  0  0  0  0
  149.1149  139.6686  156.2587 H   0  0  0  0  0  0  0  0  0  0  0  0
  148.3870  139.2602  154.7218 H   0  0  0  0  0  0  0  0  0  0  0  0
  149.9523  137.4368  153.7519 H   0  0  0  0  0  0  0  0  0  0  0  0
  153.5905  139.2276  154.4938 H   0  0  0  0  0  0  0  0  0  0  0  0
  150.9183  142.1170  155.2672 H   0  0  0  0  0  0  0  0  0  0  0  0
  1  2  1  0  0  0  0
  1 19  1  0  0  0  0
  1 20  1  0  0  0  0
  1 21  1  0  0  0  0
  2  8  1  0  0  0  0
  2  3  2  0  0  0  0
  3  4  1  0  0  0  0
  3 22  1  0  0  0  0
  4  5  1  0  0  0  0
  4 23  1  0  0  0  0
  4 24  1  0  0  0  0
  5  6  1  0  0  0  0
  5 25  1  0  0  0  0
  5 26  1  0  0  0  0
  6  7  1  0  0  0  0
  6  8  1  0  0  0  0
  6 27  1  0  0  0  0
  7 28  1  0  0  0  0
  7 29  1  0  0  0  0
  7 30  1  0  0  0  0
  8  9  1  0  0  0  0
  8 31  1  0  0  0  0
  9 10  1  0  0  0  0
  9 32  1  0  0  0  0
  9 33  1  0  0  0  0
 10 11  1  0  0  0  0
 10 34  1  0  0  0  0
 10 43  1  0  0  0  0
 11 12  1  0  0  0  0
 11 13  1  0  0  0  0
 11 35  1  0  0  0  0
 12 36  1  0  0  0  0
 12 37  1  0  0  0  0
 12 38  1  0  0  0  0
 13 14  1  0  0  0  0
 13 39  1  0  0  0  0
 13 40  1  0  0  0  0
 14 18  1  0  0  0  0
 14 15  1  0  0  0  0
 15 16  2  0  0  0  0
 15 41  1  0  0  0  0
 16 17  1  0  0  0  0
 17 18  2  0  0  0  0
 17 42  1  0  0  0  0
M  CHG  1  10   1
M  END
> <s_m_source_file>
AV-unprocessed.smi

> <i_m_source_file_index>
3274

> <i_lp_mmshare_version>
43012

> <i_f3d_flags>
0

> <s_epik_input>
W0NIM11DMT1bQ0hdW0NIMl1bQ0gyXVtDQEBIXShbQ0gzXSlbQ0BIXTFbQ0gyXVtOSF1bQ0BIXShbQ0gzXSlbQ0gyXW4yW2NIXW5bY0hdbjI=

> <s_epik_cmdline>
J2VwaWtfcHl0aG9uJywgJy1waCcsICc3LjAnLCAnLXRuJywgJzgnLCAnLW1hJywgJzIwMCcsICctbWV0YWxfYmluZGluZycsICctaW1hZScsICc8aW5maWxlLm1hZT4nLCAnLW9tYWUnLCAnPG91dGZpbGUubWFlPic=

> <r_lp_tautomer_probability>
1

> <r_epik_Ionization_Penalty>
0.0017527

> <r_epik_Ionization_Penalty_Charging>
0.00175191

> <r_epik_Ionization_Penalty_Neutral>
7.94565e-07

> <r_epik_State_Penalty>
0.00118605

> <r_epik_Charging_Adjusted_Penalty>
0.00293796

> <i_epik_Tot_Q>
1

> <i_epik_Tot_abs_Q>
1

> <r_epik_Metal_State_Penalty>
-0

> <b_epik_Metal_Only>
0

> <s_lp_Force_Field>
OPLS_2005

> <r_lp_Energy>
18.9317

> <b_lp_Chiralities_Consistent>
1

> <s_lp_Variant>
AV-unprocessed.smi:3274-2

> <Gold.Version>
5.8.1

> <Gold.Id.Protein>
6NUR|6NUR_protein|mol2

> <Gold.PLP.Fitness>
53.9121

> <Gold.PLP.PLP>
-43.1453

> <Gold.PLP.part.hbond>
-2.9827

> <Gold.PLP.part.metal>
0.0000

> <Gold.PLP.part.buried>
-2.3637

> <Gold.PLP.part.nonpolar>
-38.0664

> <Gold.PLP.part.repulsive>
0.3411

> <Gold.PLP.ligand.clash>
0.0000

> <Gold.PLP.ligand.torsion>
0.8024

> <Gold.PLP.Chemscore.Hbond>
3.0695

> <Gold.PLP.Chemscore.CHOScore>
1.0204

> <Gold.PLP.Chemscore.Metal>
0.0000

> <Gold.Chemscore.Hbonds>
donor molecule, donor type, donor heavy atom, donor atom, acceptor molecule, acceptor atom, score
      L1  H    10    34       P1  8028  2.00
      P1  H  7989  7998       L1    18  0.40
      P1  H 10752 10763       L1    16  0.01
      L1  C    15    41       P1  7948  1.00

> <Gold.PLP.Chemscore.Internal.Correction>
0.1017

> <Gold.Rescore>
     Score         DG    S(hbond)    S(metal)    S(lipo)     H(rot)  DE(clash)    DE(int)     intcor
     10.34     -16.37       1.49        0.00     102.24       2.36       1.58       4.45       ----

> <Gold.Chemscore.Fitness>
10.3375

> <Gold.Chemscore.DG>
-16.3739

> <Gold.Chemscore.ZeroCoef>
-5.4800

> <Gold.Chemscore.Hbond>
1.4902

> <Gold.Chemscore.Metal>
0.0000

> <Gold.Chemscore.Lipo>
102.2380

> <Gold.Chemscore.Internal_Hbond>
0.0000

> <Gold.Chemscore.DEClash>
1.5830

> <Gold.Chemscore.DEInternal>
4.4533

> <Gold.Chemscore.Rot>
2.3615

> <Gold.Chemscore.Internal.Correction>
   9.000000E+99

> <Gold.Chemscore.Hbonds>
donor molecule, donor type, donor heavy atom, donor atom, acceptor molecule, acceptor atom, score
      L1  H    10    34       P1  8028  1.00
      P1  H 10752 10763       L1    16  0.07

> <Gold.Chemscore.Hbond.Weighted>
-4.9774

> <Gold.Chemscore.Metal.Weighted>
-0.0000

> <Gold.Chemscore.Lipo.Weighted>
-11.9618

> <Gold.Chemscore.Internal_Hbond.Weighted>
0.0000

> <Gold.Chemscore.DEClash.Weighted>
1.5830

> <Gold.Chemscore.DEInternal.Weighted>
4.4533

> <Gold.Chemscore.Rot.Weighted>
6.0454

> <Gold.Chemscore.Internal.Correction.Weighted>
   9.000000E+99

> <Gold.Protein.RotatedTorsions>
[ 6907 6896 6895 6894 ] final   92.76 input  -60.11 | X-H torsion
[ 7974 7965 7964 7962 ] final -119.84 input  175.53 | X-H torsion
[ 8008 7997 7996 7995 ] final  111.79 input   59.86 | X-H torsion
[ 10167 10162 10161 10158 ] final   -3.19 input  -65.29 | X-H torsion
[ 10718 10713 10712 10709 ] final   70.68 input   66.30 | X-H torsion
[ 10763 10752 10751 10750 ] final   26.41 input  -60.55 | X-H torsion
[ 11005 11000 10999 10996 ] final  -30.05 input  -57.11 | X-H torsion

> <Gold.Protein.ActiveResidues>
 VAL166  LYS551  ARG553  GLY616  TRP617  ASP618  TYR619  PRO620  LYS621  CYS622 
 ASP623  PHE694  ASN695  SER759  ASP760  ASP761  ALA762  ILE779  LEU786  VAL792 
 PHE793  MET794  SER795  GLU796  ALA797  LYS798  CYS799  TRP800  GLU811  SER814 

> <Gold.Protein.RotatedAtoms>
  152.5453  134.1452  159.8495 H   0  0  0  0  0  0  0  0  0  0  0  0  # atno 6907 bound_to 6896
  151.1485  133.4916  159.2603 H   0  0  0  0  0  0  0  0  0  0  0  0  # atno 6908 bound_to 6896
  151.1498  135.0232  159.8718 H   0  0  0  0  0  0  0  0  0  0  0  0  # atno 6909 bound_to 6896
  145.0580  140.8269  143.4169 H   0  0  0  0  0  0  0  0  0  0  0  0  # atno 7974 bound_to 7965
  156.2148  140.3012  155.9814 H   0  0  0  0  0  0  0  0  0  0  0  0  # atno 8008 bound_to 7997
  155.2633  140.0430  157.3016 H   0  0  0  0  0  0  0  0  0  0  0  0  # atno 8009 bound_to 7997
  154.5752  140.2359  155.8142 H   0  0  0  0  0  0  0  0  0  0  0  0  # atno 8010 bound_to 7997
  140.6880  143.6569  150.8300 H   0  0  0  0  0  0  0  0  0  0  0  0  # atno 10167 bound_to 10162
  157.6412  130.9489  150.0684 H   0  0  0  0  0  0  0  0  0  0  0  0  # atno 10718 bound_to 10713
  153.0624  135.6561  154.0431 H   0  0  0  0  0  0  0  0  0  0  0  0  # atno 10763 bound_to 10752
  154.0096  135.2929  155.3395 H   0  0  0  0  0  0  0  0  0  0  0  0  # atno 10764 bound_to 10752
  154.6968  135.5260  153.8538 H   0  0  0  0  0  0  0  0  0  0  0  0  # atno 10765 bound_to 10752
  140.9350  133.7314  156.0991 H   0  0  0  0  0  0  0  0  0  0  0  0  # atno 11005 bound_to 11000
  145.1444  139.2552  143.5473 LP  0  0  0  0  0  0  0  0  0  0  0  0  # atno 17320 bound_to 7965
  146.3522  140.1130  142.8603 LP  0  0  0  0  0  0  0  0  0  0  0  0  # atno 17321 bound_to 7965
  140.0279  143.5474  152.2773 LP  0  0  0  0  0  0  0  0  0  0  0  0  # atno 17342 bound_to 10162
  139.6256  144.7636  151.2645 LP  0  0  0  0  0  0  0  0  0  0  0  0  # atno 17343 bound_to 10162
  156.1695  130.3646  149.9184 LP  0  0  0  0  0  0  0  0  0  0  0  0  # atno 17370 bound_to 10713
  156.7163  130.8989  151.3614 LP  0  0  0  0  0  0  0  0  0  0  0  0  # atno 17371 bound_to 10713
  140.7812  134.3723  157.5487 LP  0  0  0  0  0  0  0  0  0  0  0  0  # atno 17394 bound_to 11000
  139.8805  134.9083  156.2964 LP  0  0  0  0  0  0  0  0  0  0  0  0  # atno 17395 bound_to 11000

$$$$
