AV-unprocessed.smi:3123|AV-procd|sdf|11900|dock8
  -GOLD-   2272017283D 1   1.00000     0.00000
 Structure written by MMmdl.
 30 31  0  0  0  0  0  0  0  0  2 V2000
  148.8730  142.2298  156.3636 N   0  3  0  0  0  0  0  0  0  0  0  0
  149.4929  141.3377  155.3709 C   0  0  0  0  0  0  0  0  0  0  0  0
  150.6847  140.6190  155.9682 C   0  0  0  0  0  0  0  0  0  0  0  0
  151.3632  139.6236  155.2367 C   0  0  0  0  0  0  0  0  0  0  0  0
  152.4620  138.9811  155.8399 C   0  0  0  0  0  0  0  0  0  0  0  0
  152.8962  139.2706  157.0848 N   0  0  0  0  0  0  0  0  0  0  0  0
  152.2444  140.2282  157.7873 C   0  0  0  0  0  0  0  0  0  0  0  0
  152.6966  140.5332  159.0786 N   0  0  0  0  0  0  0  0  0  0  0  0
  153.8187  139.7092  159.5109 C   0  0  0  0  0  0  0  0  0  0  0  0
  154.1675  140.0221  160.9767 C   0  0  0  0  0  0  0  0  0  0  0  0
  154.4313  141.4152  161.1189 O   0  0  0  0  0  0  0  0  0  0  0  0
  153.3054  142.2128  160.7629 C   0  0  0  0  0  0  0  0  0  0  0  0
  152.9356  141.9557  159.2917 C   0  0  0  0  0  0  0  0  0  0  0  0
  151.1326  140.9260  157.2693 C   0  0  0  0  0  0  0  0  0  0  0  0
  147.9245  141.9321  156.5415 H   0  0  0  0  0  0  0  0  0  0  0  0
  148.8701  143.1753  156.0086 H   0  0  0  0  0  0  0  0  0  0  0  0
  148.7557  140.6125  155.0249 H   0  0  0  0  0  0  0  0  0  0  0  0
  149.8036  141.9215  154.5038 H   0  0  0  0  0  0  0  0  0  0  0  0
  151.0541  139.3560  154.2370 H   0  0  0  0  0  0  0  0  0  0  0  0
  153.0059  138.2141  155.3087 H   0  0  0  0  0  0  0  0  0  0  0  0
  153.5655  138.6537  159.4031 H   0  0  0  0  0  0  0  0  0  0  0  0
  154.6848  139.9010  158.8758 H   0  0  0  0  0  0  0  0  0  0  0  0
  153.3550  139.7254  161.6419 H   0  0  0  0  0  0  0  0  0  0  0  0
  155.0503  139.4599  161.2812 H   0  0  0  0  0  0  0  0  0  0  0  0
  152.4644  141.9881  161.4209 H   0  0  0  0  0  0  0  0  0  0  0  0
  153.5532  143.2640  160.9102 H   0  0  0  0  0  0  0  0  0  0  0  0
  153.7439  142.2972  158.6433 H   0  0  0  0  0  0  0  0  0  0  0  0
  152.0440  142.5246  159.0244 H   0  0  0  0  0  0  0  0  0  0  0  0
  150.6370  141.6834  157.8600 H   0  0  0  0  0  0  0  0  0  0  0  0
  149.4045  142.1960  157.2218 H   0  0  0  0  0  0  0  0  0  0  0  0
  1  2  1  0  0  0  0
  1 15  1  0  0  0  0
  1 16  1  0  0  0  0
  1 30  1  0  0  0  0
  2  3  1  0  0  0  0
  2 17  1  0  0  0  0
  2 18  1  0  0  0  0
  3 14  1  0  0  0  0
  3  4  2  0  0  0  0
  4  5  1  0  0  0  0
  4 19  1  0  0  0  0
  5  6  2  0  0  0  0
  5 20  1  0  0  0  0
  6  7  1  0  0  0  0
  7  8  1  0  0  0  0
  7 14  2  0  0  0  0
  8 13  1  0  0  0  0
  8  9  1  0  0  0  0
  9 10  1  0  0  0  0
  9 21  1  0  0  0  0
  9 22  1  0  0  0  0
 10 11  1  0  0  0  0
 10 23  1  0  0  0  0
 10 24  1  0  0  0  0
 11 12  1  0  0  0  0
 12 13  1  0  0  0  0
 12 25  1  0  0  0  0
 12 26  1  0  0  0  0
 13 27  1  0  0  0  0
 13 28  1  0  0  0  0
 14 29  1  0  0  0  0
M  CHG  1   1   1
M  END
> <s_m_source_file>
AV-unprocessed.smi

> <i_m_source_file_index>
3123

> <i_lp_mmshare_version>
43012

> <i_f3d_flags>
0

> <s_epik_input>
W05IMl1bQ0gyXWMxW2NIXVtjSF1uYyhbY0hdMSlOMltDSDJdW0NIMl1PW0NIMl1bQ0gyXTI=

> <s_epik_cmdline>
J2VwaWtfcHl0aG9uJywgJy1waCcsICc3LjAnLCAnLXRuJywgJzgnLCAnLW1hJywgJzIwMCcsICctbWV0YWxfYmluZGluZycsICctaW1hZScsICc8aW5maWxlLm1hZT4nLCAnLW9tYWUnLCAnPG91dGZpbGUubWFlPic=

> <r_lp_tautomer_probability>
1

> <r_epik_Ionization_Penalty>
0.0770075

> <r_epik_Ionization_Penalty_Charging>
0.0770037

> <r_epik_Ionization_Penalty_Neutral>
3.77435e-06

> <r_epik_State_Penalty>
0.00932976

> <r_epik_Charging_Adjusted_Penalty>
0.0863335

> <i_epik_Tot_Q>
1

> <i_epik_Tot_abs_Q>
1

> <r_epik_Metal_State_Penalty>
0.00963217

> <b_epik_Metal_Only>
0

> <s_lp_Force_Field>
OPLS_2005

> <r_lp_Energy>
15.1833

> <b_lp_Chiralities_Consistent>
1

> <s_lp_Variant>
AV-unprocessed.smi:3123-1

> <Gold.Version>
5.8.1

> <Gold.Id.Protein>
6NUR|6NUR_protein|mol2

> <Gold.PLP.Fitness>
37.6335

> <Gold.PLP.PLP>
-28.7198

> <Gold.PLP.part.hbond>
-2.9121

> <Gold.PLP.part.metal>
0.0000

> <Gold.PLP.part.buried>
-1.5549

> <Gold.PLP.part.nonpolar>
-24.3711

> <Gold.PLP.part.repulsive>
0.0524

> <Gold.PLP.ligand.clash>
0.0000

> <Gold.PLP.ligand.torsion>
0.0943

> <Gold.PLP.Chemscore.Hbond>
3.0000

> <Gold.PLP.Chemscore.CHOScore>
0.0000

> <Gold.PLP.Chemscore.Metal>
0.0000

> <Gold.Chemscore.Hbonds>
donor molecule, donor type, donor heavy atom, donor atom, acceptor molecule, acceptor atom, score
      L1  H     1    16       P1  8028  2.00
      P1  H  7997  8010       L1     6  0.85

> <Gold.PLP.Chemscore.Internal.Correction>
0.1022

> <Gold.Rescore>
     Score         DG    S(hbond)    S(metal)    S(lipo)     H(rot)  DE(clash)    DE(int)     intcor
     13.80     -13.99       1.18        0.00      67.95       1.32       0.01       0.18       ----

> <Gold.Chemscore.Fitness>
13.8049

> <Gold.Chemscore.DG>
-13.9941

> <Gold.Chemscore.ZeroCoef>
-5.4800

> <Gold.Chemscore.Hbond>
1.1774

> <Gold.Chemscore.Metal>
0.0000

> <Gold.Chemscore.Lipo>
67.9478

> <Gold.Chemscore.Internal_Hbond>
0.0000

> <Gold.Chemscore.DEClash>
0.0118

> <Gold.Chemscore.DEInternal>
0.1774

> <Gold.Chemscore.Rot>
1.3158

> <Gold.Chemscore.Internal.Correction>
   9.000000E+99

> <Gold.Chemscore.Hbonds>
donor molecule, donor type, donor heavy atom, donor atom, acceptor molecule, acceptor atom, score
      L1  H     1    16       P1  8028  0.97
      P1  H  7997  8010       L1     6  0.06

> <Gold.Chemscore.Hbond.Weighted>
-3.9327

> <Gold.Chemscore.Metal.Weighted>
-0.0000

> <Gold.Chemscore.Lipo.Weighted>
-7.9499

> <Gold.Chemscore.Internal_Hbond.Weighted>
0.0000

> <Gold.Chemscore.DEClash.Weighted>
0.0118

> <Gold.Chemscore.DEInternal.Weighted>
0.1774

> <Gold.Chemscore.Rot.Weighted>
3.3684

> <Gold.Chemscore.Internal.Correction.Weighted>
   9.000000E+99

> <Gold.Protein.RotatedTorsions>
[ 6907 6896 6895 6894 ] final  -27.92 input  -60.11 | X-H torsion
[ 7974 7965 7964 7962 ] final   28.55 input  175.53 | X-H torsion
[ 8008 7997 7996 7995 ] final   62.57 input   59.86 | X-H torsion
[ 10167 10162 10161 10158 ] final   43.38 input  -65.29 | X-H torsion
[ 10718 10713 10712 10709 ] final  122.27 input   66.30 | X-H torsion
[ 10763 10752 10751 10750 ] final -172.17 input  -60.55 | X-H torsion
[ 11005 11000 10999 10996 ] final -164.21 input  -57.11 | X-H torsion

> <Gold.Protein.ActiveResidues>
 VAL166  LYS551  ARG553  GLY616  TRP617  ASP618  TYR619  PRO620  LYS621  CYS622 
 ASP623  PHE694  ASN695  SER759  ASP760  ASP761  ALA762  ILE779  LEU786  VAL792 
 PHE793  MET794  SER795  GLU796  ALA797  LYS798  CYS799  TRP800  GLU811  SER814 

> <Gold.Protein.RotatedAtoms>
  151.1401  135.0175  159.8621 H   0  0  0  0  0  0  0  0  0  0  0  0  # atno 6907 bound_to 6896
  152.5452  134.1509  159.8528 H   0  0  0  0  0  0  0  0  0  0  0  0  # atno 6908 bound_to 6896
  151.1584  133.4816  159.2627 H   0  0  0  0  0  0  0  0  0  0  0  0  # atno 6909 bound_to 6896
  146.1722  139.7041  142.8959 H   0  0  0  0  0  0  0  0  0  0  0  0  # atno 7974 bound_to 7965
  155.6164  140.3495  155.4638 H   0  0  0  0  0  0  0  0  0  0  0  0  # atno 8008 bound_to 7997
  156.0114  140.1234  157.0474 H   0  0  0  0  0  0  0  0  0  0  0  0  # atno 8009 bound_to 7997
  154.4282  140.1081  156.5821 H   0  0  0  0  0  0  0  0  0  0  0  0  # atno 8010 bound_to 7997
  140.3449  144.2423  150.6151 H   0  0  0  0  0  0  0  0  0  0  0  0  # atno 10167 bound_to 10162
  157.5755  131.1079  150.8287 H   0  0  0  0  0  0  0  0  0  0  0  0  # atno 10718 bound_to 10713
  154.6223  135.2876  155.0312 H   0  0  0  0  0  0  0  0  0  0  0  0  # atno 10763 bound_to 10752
  154.1502  135.6504  153.4965 H   0  0  0  0  0  0  0  0  0  0  0  0  # atno 10764 bound_to 10752
  153.0241  135.5354  154.7018 H   0  0  0  0  0  0  0  0  0  0  0  0  # atno 10765 bound_to 10752
  140.5894  134.5060  157.5190 H   0  0  0  0  0  0  0  0  0  0  0  0  # atno 11005 bound_to 11000
  145.4308  141.0415  143.2911 LP  0  0  0  0  0  0  0  0  0  0  0  0  # atno 17320 bound_to 7965
  144.8181  139.5840  143.6999 LP  0  0  0  0  0  0  0  0  0  0  0  0  # atno 17321 bound_to 7965
  140.5274  143.2251  151.8294 LP  0  0  0  0  0  0  0  0  0  0  0  0  # atno 17342 bound_to 10162
  139.4835  144.4763  151.9363 LP  0  0  0  0  0  0  0  0  0  0  0  0  # atno 17343 bound_to 10162
  156.8747  130.5158  149.5294 LP  0  0  0  0  0  0  0  0  0  0  0  0  # atno 17370 bound_to 10713
  156.0800  130.5813  150.9545 LP  0  0  0  0  0  0  0  0  0  0  0  0  # atno 17371 bound_to 10713
  139.9281  134.8017  156.1010 LP  0  0  0  0  0  0  0  0  0  0  0  0  # atno 17394 bound_to 11000
  141.0945  133.6701  156.2613 LP  0  0  0  0  0  0  0  0  0  0  0  0  # atno 17395 bound_to 11000

$$$$
