AV-unprocessed.smi:869|AV-procd|sdf|4005|dock10
  -GOLD-   22720 1493D 1   1.00000     0.00000
 Structure written by MMmdl.
 47 49  0  0  0  0  0  0  0  0  2 V2000
  153.1862  139.3408  154.0338 C   0  0  0  0  0  0  0  0  0  0  0  0
  153.2820  140.1187  155.2140 O   0  0  0  0  0  0  0  0  0  0  0  0
  152.2340  139.8465  156.1301 C   0  0  0  0  0  0  0  0  0  0  0  0
  152.0868  140.9303  157.1470 C   0  0  0  0  0  0  0  0  0  0  0  0
  151.4406  142.1173  156.9697 N   0  3  0  0  0  0  0  0  0  0  0  0
  151.5109  142.8735  158.1399 C   0  0  0  0  0  0  0  0  0  0  0  0
  151.0062  144.1350  158.4403 C   0  0  0  0  0  0  0  0  0  0  0  0
  151.2528  144.6219  159.7407 C   0  0  0  0  0  0  0  0  0  0  0  0
  151.9744  143.8623  160.6842 C   0  0  0  0  0  0  0  0  0  0  0  0
  152.4821  142.5851  160.3674 C   0  0  0  0  0  0  0  0  0  0  0  0
  152.2357  142.1110  159.0788 C   0  0  0  0  0  0  0  0  0  0  0  0
  152.5713  140.9208  158.4216 N   0  0  0  0  0  0  0  0  0  0  0  0
  153.3424  139.8866  159.1301 C   0  0  0  0  0  0  0  0  0  0  0  0
  154.6354  140.4342  159.7678 C   0  0  2  0  0  0  0  0  0  0  0  0
  155.6548  140.5355  158.7934 O   0  0  0  0  0  0  0  0  0  0  0  0
  155.1457  139.5458  160.9114 C   0  0  0  0  0  0  0  0  0  0  0  0
  155.5805  138.3040  160.3737 O   0  0  0  0  0  0  0  0  0  0  0  0
  155.5146  137.1861  161.1775 C   0  0  0  0  0  0  0  0  0  0  0  0
  155.9525  135.9684  160.6174 C   0  0  0  0  0  0  0  0  0  0  0  0
  155.9183  134.7760  161.3656 C   0  0  0  0  0  0  0  0  0  0  0  0
  155.4411  134.7867  162.6907 C   0  0  0  0  0  0  0  0  0  0  0  0
  155.4049  133.5053  163.4975 C   0  0  0  0  0  0  0  0  0  0  0  0
  155.0028  135.9977  163.2618 C   0  0  0  0  0  0  0  0  0  0  0  0
  155.0379  137.1902  162.5129 C   0  0  0  0  0  0  0  0  0  0  0  0
  154.0170  139.5787  153.3695 H   0  0  0  0  0  0  0  0  0  0  0  0
  152.2580  139.5484  153.4996 H   0  0  0  0  0  0  0  0  0  0  0  0
  153.2300  138.2743  154.2586 H   0  0  0  0  0  0  0  0  0  0  0  0
  151.2900  139.7379  155.5940 H   0  0  0  0  0  0  0  0  0  0  0  0
  152.4282  138.9066  156.6485 H   0  0  0  0  0  0  0  0  0  0  0  0
  150.4513  144.7174  157.7195 H   0  0  0  0  0  0  0  0  0  0  0  0
  150.8792  145.5962  160.0209 H   0  0  0  0  0  0  0  0  0  0  0  0
  152.1406  144.2662  161.6723 H   0  0  0  0  0  0  0  0  0  0  0  0
  153.0272  142.0098  161.1009 H   0  0  0  0  0  0  0  0  0  0  0  0
  152.6924  139.4750  159.9030 H   0  0  0  0  0  0  0  0  0  0  0  0
  153.5546  139.0634  158.4481 H   0  0  0  0  0  0  0  0  0  0  0  0
  154.4543  141.4382  160.1528 H   0  0  0  0  0  0  0  0  0  0  0  0
  156.4756  140.6940  159.2347 H   0  0  0  0  0  0  0  0  0  0  0  0
  155.9604  140.0454  161.4389 H   0  0  0  0  0  0  0  0  0  0  0  0
  154.3389  139.3676  161.6247 H   0  0  0  0  0  0  0  0  0  0  0  0
  156.3197  135.9478  159.6020 H   0  0  0  0  0  0  0  0  0  0  0  0
  156.2588  133.8537  160.9180 H   0  0  0  0  0  0  0  0  0  0  0  0
  154.6174  133.5410  164.2510 H   0  0  0  0  0  0  0  0  0  0  0  0
  156.3585  133.3527  164.0032 H   0  0  0  0  0  0  0  0  0  0  0  0
  155.2155  132.6466  162.8527 H   0  0  0  0  0  0  0  0  0  0  0  0
  154.6371  136.0169  164.2780 H   0  0  0  0  0  0  0  0  0  0  0  0
  154.6911  138.0954  162.9872 H   0  0  0  0  0  0  0  0  0  0  0  0
  150.9843  142.3841  156.1069 H   0  0  0  0  0  0  0  0  0  0  0  0
  1  2  1  0  0  0  0
  1 25  1  0  0  0  0
  1 26  1  0  0  0  0
  1 27  1  0  0  0  0
  2  3  1  0  0  0  0
  3  4  1  0  0  0  0
  3 28  1  0  0  0  0
  3 29  1  0  0  0  0
  4 12  1  0  0  0  0
  4  5  2  0  0  0  0
  5  6  1  0  0  0  0
  5 47  1  0  0  0  0
  6 11  2  0  0  0  0
  6  7  1  0  0  0  0
  7  8  2  0  0  0  0
  7 30  1  0  0  0  0
  8  9  1  0  0  0  0
  8 31  1  0  0  0  0
  9 10  2  0  0  0  0
  9 32  1  0  0  0  0
 10 11  1  0  0  0  0
 10 33  1  0  0  0  0
 11 12  1  0  0  0  0
 12 13  1  0  0  0  0
 13 14  1  0  0  0  0
 13 34  1  0  0  0  0
 13 35  1  0  0  0  0
 14 15  1  0  0  0  0
 14 16  1  0  0  0  0
 14 36  1  0  0  0  0
 15 37  1  0  0  0  0
 16 17  1  0  0  0  0
 16 38  1  0  0  0  0
 16 39  1  0  0  0  0
 17 18  1  0  0  0  0
 18 24  1  0  0  0  0
 18 19  2  0  0  0  0
 19 20  1  0  0  0  0
 19 40  1  0  0  0  0
 20 21  2  0  0  0  0
 20 41  1  0  0  0  0
 21 22  1  0  0  0  0
 21 23  1  0  0  0  0
 22 42  1  0  0  0  0
 22 43  1  0  0  0  0
 22 44  1  0  0  0  0
 23 24  2  0  0  0  0
 23 45  1  0  0  0  0
 24 46  1  0  0  0  0
M  CHG  1   5   1
M  END
> <s_m_source_file>
AV-unprocessed.smi

> <i_m_source_file_index>
869

> <i_lp_mmshare_version>
43012

> <i_f3d_flags>
0

> <s_epik_input>
W2NIXTFbY0hdW2NIXVtjSF1jKGMxMiluKGMobjIpW0NIMl1PW0NIM10pW0NIMl1bQ0BIXShbT0hdKVtDSDJdT2MzW2NIXVtjSF1jKFtDSDNdKVtjSF1bY0hdMw==

> <s_epik_cmdline>
J2VwaWtfcHl0aG9uJywgJy1waCcsICc3LjAnLCAnLXRuJywgJzgnLCAnLW1hJywgJzIwMCcsICctbWV0YWxfYmluZGluZycsICctaW1hZScsICc8aW5maWxlLm1hZT4nLCAnLW9tYWUnLCAnPG91dGZpbGUubWFlPic=

> <r_lp_tautomer_probability>
1

> <r_epik_Ionization_Penalty>
1.5538

> <r_epik_Ionization_Penalty_Charging>
1.5538

> <r_epik_Ionization_Penalty_Neutral>
2.3993e-06

> <r_epik_State_Penalty>
1.64824

> <r_epik_Charging_Adjusted_Penalty>
3.20204

> <i_epik_Tot_Q>
1

> <i_epik_Tot_abs_Q>
1

> <r_epik_Metal_State_Penalty>
5.70315

> <b_epik_Metal_Only>
0

> <s_lp_Force_Field>
OPLS_2005

> <r_lp_Energy>
18.5065

> <b_lp_Chiralities_Consistent>
1

> <s_lp_Variant>
AV-unprocessed.smi:869-3

> <Gold.Version>
5.8.1

> <Gold.Id.Protein>
6NUR|6NUR_protein|mol2

> <Gold.PLP.Fitness>
59.8051

> <Gold.PLP.PLP>
-55.4839

> <Gold.PLP.part.hbond>
-2.0000

> <Gold.PLP.part.metal>
0.0000

> <Gold.PLP.part.buried>
-6.0259

> <Gold.PLP.part.nonpolar>
-47.9443

> <Gold.PLP.part.repulsive>
0.0536

> <Gold.PLP.ligand.clash>
0.0000

> <Gold.PLP.ligand.torsion>
0.8307

> <Gold.PLP.Chemscore.Hbond>
1.9760

> <Gold.PLP.Chemscore.CHOScore>
0.0000

> <Gold.PLP.Chemscore.Metal>
0.0000

> <Gold.Chemscore.Hbonds>
donor molecule, donor type, donor heavy atom, donor atom, acceptor molecule, acceptor atom, score
      P1  H  7997  8008       L1    15  0.66
      P1  H  7997  8009       L1     2  0.55

> <Gold.PLP.Chemscore.Internal.Correction>
0.0546

> <Gold.Rescore>
     Score         DG    S(hbond)    S(metal)    S(lipo)     H(rot)  DE(clash)    DE(int)     intcor
     22.47     -23.89       1.92        0.00     156.03       2.45       0.13       1.29       ----

> <Gold.Chemscore.Fitness>
22.4696

> <Gold.Chemscore.DG>
-23.8857

> <Gold.Chemscore.ZeroCoef>
-5.4800

> <Gold.Chemscore.Hbond>
1.9222

> <Gold.Chemscore.Metal>
0.0000

> <Gold.Chemscore.Lipo>
156.0340

> <Gold.Chemscore.Internal_Hbond>
0.0000

> <Gold.Chemscore.DEClash>
0.1296

> <Gold.Chemscore.DEInternal>
1.2866

> <Gold.Chemscore.Rot>
2.4494

> <Gold.Chemscore.Internal.Correction>
   9.000000E+99

> <Gold.Chemscore.Hbonds>
donor molecule, donor type, donor heavy atom, donor atom, acceptor molecule, acceptor atom, score
      P1  H  7997  8008       L1    15  0.61
      P1  H  7997  8009       L1     2  0.34

> <Gold.Chemscore.Hbond.Weighted>
-6.4202

> <Gold.Chemscore.Metal.Weighted>
-0.0000

> <Gold.Chemscore.Lipo.Weighted>
-18.2560

> <Gold.Chemscore.Internal_Hbond.Weighted>
0.0000

> <Gold.Chemscore.DEClash.Weighted>
0.1296

> <Gold.Chemscore.DEInternal.Weighted>
1.2866

> <Gold.Chemscore.Rot.Weighted>
6.2704

> <Gold.Chemscore.Internal.Correction.Weighted>
   9.000000E+99

> <Gold.Protein.RotatedTorsions>
[ 6907 6896 6895 6894 ] final  -43.34 input  -60.11 | X-H torsion
[ 7974 7965 7964 7962 ] final   75.15 input  175.53 | X-H torsion
[ 8008 7997 7996 7995 ] final -139.76 input   59.86 | X-H torsion
[ 10167 10162 10161 10158 ] final  -86.25 input  -65.29 | X-H torsion
[ 10718 10713 10712 10709 ] final -108.07 input   66.30 | X-H torsion
[ 10763 10752 10751 10750 ] final   18.35 input  -60.55 | X-H torsion
[ 11005 11000 10999 10996 ] final   78.38 input  -57.11 | X-H torsion

> <Gold.Protein.ActiveResidues>
 VAL166  LYS551  ARG553  GLY616  TRP617  ASP618  TYR619  PRO620  LYS621  CYS622 
 ASP623  PHE694  ASN695  SER759  ASP760  ASP761  ALA762  ILE779  LEU786  VAL792 
 PHE793  MET794  SER795  GLU796  ALA797  LYS798  CYS799  TRP800  GLU811  SER814 

> <Gold.Protein.RotatedAtoms>
  150.9451  134.8856  159.7636 H   0  0  0  0  0  0  0  0  0  0  0  0  # atno 6907 bound_to 6896
  152.5096  134.3886  159.9386 H   0  0  0  0  0  0  0  0  0  0  0  0  # atno 6908 bound_to 6896
  151.3905  133.3750  159.2755 H   0  0  0  0  0  0  0  0  0  0  0  0  # atno 6909 bound_to 6896
  145.7192  139.2642  143.1606 H   0  0  0  0  0  0  0  0  0  0  0  0  # atno 7974 bound_to 7965
  155.4502  140.0538  157.3002 H   0  0  0  0  0  0  0  0  0  0  0  0  # atno 8008 bound_to 7997
  154.4780  140.2069  155.9787 H   0  0  0  0  0  0  0  0  0  0  0  0  # atno 8009 bound_to 7997
  156.1162  140.3196  155.8147 H   0  0  0  0  0  0  0  0  0  0  0  0  # atno 8010 bound_to 7997
  140.3959  143.2684  151.9204 H   0  0  0  0  0  0  0  0  0  0  0  0  # atno 10167 bound_to 10162
  156.0467  130.5694  150.7909 H   0  0  0  0  0  0  0  0  0  0  0  0  # atno 10718 bound_to 10713
  153.1257  135.6729  153.9261 H   0  0  0  0  0  0  0  0  0  0  0  0  # atno 10763 bound_to 10752
  153.8763  135.3063  155.3445 H   0  0  0  0  0  0  0  0  0  0  0  0  # atno 10764 bound_to 10752
  154.7662  135.4963  153.9640 H   0  0  0  0  0  0  0  0  0  0  0  0  # atno 10765 bound_to 10752
  139.9215  134.7759  156.1642 H   0  0  0  0  0  0  0  0  0  0  0  0  # atno 11005 bound_to 11000
  146.0641  140.7939  142.9720 LP  0  0  0  0  0  0  0  0  0  0  0  0  # atno 17320 bound_to 7965
  144.6921  140.3242  143.7227 LP  0  0  0  0  0  0  0  0  0  0  0  0  # atno 17321 bound_to 7965
  139.4786  144.5681  151.8132 LP  0  0  0  0  0  0  0  0  0  0  0  0  # atno 17342 bound_to 10162
  140.4790  144.1477  150.5929 LP  0  0  0  0  0  0  0  0  0  0  0  0  # atno 17343 bound_to 10162
  157.5350  131.0938  150.9904 LP  0  0  0  0  0  0  0  0  0  0  0  0  # atno 17370 bound_to 10713
  157.0201  130.5670  149.5330 LP  0  0  0  0  0  0  0  0  0  0  0  0  # atno 17371 bound_to 10713
  141.0739  133.6784  156.2197 LP  0  0  0  0  0  0  0  0  0  0  0  0  # atno 17394 bound_to 11000
  140.6460  134.5116  157.5573 LP  0  0  0  0  0  0  0  0  0  0  0  0  # atno 17395 bound_to 11000

$$$$
