AV-unprocessed.smi:3051|AV-procd|sdf|11633|dock8
  -GOLD-   2272017 23D 1   1.00000     0.00000
 Structure written by MMmdl.
 37 37  0  0  0  0  0  0  0  0  1 V2000
  153.3913  141.7041  161.5177 C   0  0  0  0  0  0  0  0  0  0  0  0
  153.4438  141.7000  159.9844 C   0  0  0  0  0  0  0  0  0  0  0  0
  152.2879  141.0213  159.4114 N   0  0  0  0  0  0  0  0  0  0  0  0
  152.3410  139.9359  158.6232 C   0  0  0  0  0  0  0  0  0  0  0  0
  153.3923  139.3859  158.2949 O   0  0  0  0  0  0  0  0  0  0  0  0
  151.0025  139.3779  158.1361 C   0  0  0  0  0  0  0  0  0  0  0  0
  150.9602  139.2917  156.6870 N   0  0  0  0  0  0  0  0  0  0  0  0
  151.9764  138.9440  155.8183 C   0  0  0  0  0  0  0  0  0  0  0  0
  151.4712  139.0031  154.5504 C   0  0  0  0  0  0  0  0  0  0  0  0
  150.1215  139.3988  154.7559 C   0  0  0  0  0  0  0  0  0  0  0  0
  149.2314  139.5774  153.6903 N   0  0  0  0  0  0  0  0  0  0  0  0
  147.8512  139.9839  153.9285 C   0  0  2  0  0  0  0  0  0  0  0  0
  146.9239  139.4429  152.8270 C   0  0  0  0  0  0  0  0  0  0  0  0
  147.7585  141.5148  154.0196 C   0  0  0  0  0  0  0  0  0  0  0  0
  146.4288  141.8847  154.3473 O   0  0  0  0  0  0  0  0  0  0  0  0
  146.2093  143.2797  154.2339 C   0  0  0  0  0  0  0  0  0  0  0  0
  149.8126  139.5744  156.0318 N   0  0  0  0  0  0  0  0  0  0  0  0
  154.2426  142.2443  161.9322 H   0  0  0  0  0  0  0  0  0  0  0  0
  153.4158  140.6906  161.9192 H   0  0  0  0  0  0  0  0  0  0  0  0
  152.4829  142.1873  161.8794 H   0  0  0  0  0  0  0  0  0  0  0  0
  153.4537  142.7256  159.6147 H   0  0  0  0  0  0  0  0  0  0  0  0
  154.3681  141.2359  159.6366 H   0  0  0  0  0  0  0  0  0  0  0  0
  151.3791  141.4072  159.6244 H   0  0  0  0  0  0  0  0  0  0  0  0
  150.8399  138.3814  158.5487 H   0  0  0  0  0  0  0  0  0  0  0  0
  150.1864  140.0094  158.4916 H   0  0  0  0  0  0  0  0  0  0  0  0
  152.9641  138.6882  156.1723 H   0  0  0  0  0  0  0  0  0  0  0  0
  151.9867  138.7951  153.6245 H   0  0  0  0  0  0  0  0  0  0  0  0
  149.5506  139.4607  152.7393 H   0  0  0  0  0  0  0  0  0  0  0  0
  147.5237  139.5722  154.8842 H   0  0  0  0  0  0  0  0  0  0  0  0
  145.8889  139.7337  153.0087 H   0  0  0  0  0  0  0  0  0  0  0  0
  146.9496  138.3541  152.7793 H   0  0  0  0  0  0  0  0  0  0  0  0
  147.2085  139.8249  151.8460 H   0  0  0  0  0  0  0  0  0  0  0  0
  148.4619  141.9003  154.7601 H   0  0  0  0  0  0  0  0  0  0  0  0
  148.0218  141.9599  153.0586 H   0  0  0  0  0  0  0  0  0  0  0  0
  145.1762  143.5102  154.4933 H   0  0  0  0  0  0  0  0  0  0  0  0
  146.3852  143.6257  153.2146 H   0  0  0  0  0  0  0  0  0  0  0  0
  146.8586  143.8368  154.9104 H   0  0  0  0  0  0  0  0  0  0  0  0
  1  2  1  0  0  0  0
  1 18  1  0  0  0  0
  1 19  1  0  0  0  0
  1 20  1  0  0  0  0
  2  3  1  0  0  0  0
  2 21  1  0  0  0  0
  2 22  1  0  0  0  0
  3  4  1  0  0  0  0
  3 23  1  0  0  0  0
  4  5  2  0  0  0  0
  4  6  1  0  0  0  0
  6  7  1  0  0  0  0
  6 24  1  0  0  0  0
  6 25  1  0  0  0  0
  7 17  1  0  0  0  0
  7  8  1  0  0  0  0
  8  9  2  0  0  0  0
  8 26  1  0  0  0  0
  9 10  1  0  0  0  0
  9 27  1  0  0  0  0
 10 11  1  0  0  0  0
 10 17  2  0  0  0  0
 11 12  1  0  0  0  0
 11 28  1  0  0  0  0
 12 13  1  0  0  0  0
 12 14  1  0  0  0  0
 12 29  1  0  0  0  0
 13 30  1  0  0  0  0
 13 31  1  0  0  0  0
 13 32  1  0  0  0  0
 14 15  1  0  0  0  0
 14 33  1  0  0  0  0
 14 34  1  0  0  0  0
 15 16  1  0  0  0  0
 16 35  1  0  0  0  0
 16 36  1  0  0  0  0
 16 37  1  0  0  0  0
M  END
> <s_m_source_file>
AV-unprocessed.smi

> <i_m_source_file_index>
3051

> <i_lp_mmshare_version>
43012

> <i_f3d_flags>
0

> <s_epik_input>
W0NIM11bQ0gyXVtOSF1DKD1PKVtDSDJdbjFbY0hdW2NIXWMobjEpW05IXVtDQEhdKFtDSDNdKVtDSDJdT1tDSDNd

> <s_epik_cmdline>
J2VwaWtfcHl0aG9uJywgJy1waCcsICc3LjAnLCAnLXRuJywgJzgnLCAnLW1hJywgJzIwMCcsICctbWV0YWxfYmluZGluZycsICctaW1hZScsICc8aW5maWxlLm1hZT4nLCAnLW9tYWUnLCAnPG91dGZpbGUubWFlPic=

> <r_lp_tautomer_probability>
1

> <r_epik_Ionization_Penalty>
0.00023157

> <r_epik_Ionization_Penalty_Charging>
0

> <r_epik_Ionization_Penalty_Neutral>
0.00023157

> <r_epik_State_Penalty>
-0

> <r_epik_Charging_Adjusted_Penalty>
0

> <i_epik_Tot_Q>
0

> <i_epik_Tot_abs_Q>
0

> <r_epik_Metal_State_Penalty>
-0

> <b_epik_Metal_Only>
0

> <s_lp_Force_Field>
OPLS_2005

> <r_lp_Energy>
4.00538

> <b_lp_Chiralities_Consistent>
1

> <s_lp_Variant>
AV-unprocessed.smi:3051-1

> <Gold.Version>
5.8.1

> <Gold.Id.Protein>
6NUR|6NUR_protein|mol2

> <Gold.PLP.Fitness>
38.8893

> <Gold.PLP.PLP>
-34.5411

> <Gold.PLP.part.hbond>
-2.0000

> <Gold.PLP.part.metal>
0.0000

> <Gold.PLP.part.buried>
-3.2670

> <Gold.PLP.part.nonpolar>
-29.2284

> <Gold.PLP.part.repulsive>
0.4398

> <Gold.PLP.ligand.clash>
0.0000

> <Gold.PLP.ligand.torsion>
0.7305

> <Gold.PLP.Chemscore.Hbond>
1.9280

> <Gold.PLP.Chemscore.CHOScore>
0.0000

> <Gold.PLP.Chemscore.Metal>
0.0000

> <Gold.Chemscore.Hbonds>
donor molecule, donor type, donor heavy atom, donor atom, acceptor molecule, acceptor atom, score
      L1  H    11    28       P1  7957  0.99
      P1  H  7997  8008       L1     5  1.00

> <Gold.PLP.Chemscore.Internal.Correction>
0.0250

> <Gold.Rescore>
     Score         DG    S(hbond)    S(metal)    S(lipo)     H(rot)  DE(clash)    DE(int)     intcor
     11.97     -14.24       1.89        0.00      68.68       2.19       0.16       2.11       ----

> <Gold.Chemscore.Fitness>
11.9678

> <Gold.Chemscore.DG>
-14.2403

> <Gold.Chemscore.ZeroCoef>
-5.4800

> <Gold.Chemscore.Hbond>
1.8949

> <Gold.Chemscore.Metal>
0.0000

> <Gold.Chemscore.Lipo>
68.6771

> <Gold.Chemscore.Internal_Hbond>
0.0000

> <Gold.Chemscore.DEClash>
0.1596

> <Gold.Chemscore.DEInternal>
2.1129

> <Gold.Chemscore.Rot>
2.1890

> <Gold.Chemscore.Internal.Correction>
   9.000000E+99

> <Gold.Chemscore.Hbonds>
donor molecule, donor type, donor heavy atom, donor atom, acceptor molecule, acceptor atom, score
      L1  H    11    28       P1  7957  0.94
      P1  H  7997  8008       L1     5  0.98

> <Gold.Chemscore.Hbond.Weighted>
-6.3289

> <Gold.Chemscore.Metal.Weighted>
-0.0000

> <Gold.Chemscore.Lipo.Weighted>
-8.0352

> <Gold.Chemscore.Internal_Hbond.Weighted>
0.0000

> <Gold.Chemscore.DEClash.Weighted>
0.1596

> <Gold.Chemscore.DEInternal.Weighted>
2.1129

> <Gold.Chemscore.Rot.Weighted>
5.6039

> <Gold.Chemscore.Internal.Correction.Weighted>
   9.000000E+99

> <Gold.Protein.RotatedTorsions>
[ 6907 6896 6895 6894 ] final  130.15 input  -60.11 | X-H torsion
[ 7974 7965 7964 7962 ] final   41.91 input  175.53 | X-H torsion
[ 8008 7997 7996 7995 ] final  -75.21 input   59.86 | X-H torsion
[ 10167 10162 10161 10158 ] final  -65.63 input  -65.29 | X-H torsion
[ 10718 10713 10712 10709 ] final   44.16 input   66.30 | X-H torsion
[ 10763 10752 10751 10750 ] final  144.52 input  -60.55 | X-H torsion
[ 11005 11000 10999 10996 ] final  -26.69 input  -57.11 | X-H torsion

> <Gold.Protein.ActiveResidues>
 VAL166  LYS551  ARG553  GLY616  TRP617  ASP618  TYR619  PRO620  LYS621  CYS622 
 ASP623  PHE694  ASN695  SER759  ASP760  ASP761  ALA762  ILE779  LEU786  VAL792 
 PHE793  MET794  SER795  GLU796  ALA797  LYS798  CYS799  TRP800  GLU811  SER814 

> <Gold.Protein.RotatedAtoms>
  152.3554  133.6231  159.5975 H   0  0  0  0  0  0  0  0  0  0  0  0  # atno 6907 bound_to 6896
  150.7565  133.9508  159.3494 H   0  0  0  0  0  0  0  0  0  0  0  0  # atno 6908 bound_to 6896
  151.7354  135.0867  160.0358 H   0  0  0  0  0  0  0  0  0  0  0  0  # atno 6909 bound_to 6896
  146.0784  139.5361  142.9553 H   0  0  0  0  0  0  0  0  0  0  0  0  # atno 7974 bound_to 7965
  154.5397  140.0748  156.8489 H   0  0  0  0  0  0  0  0  0  0  0  0  # atno 8008 bound_to 7997
  155.3206  140.3396  155.4223 H   0  0  0  0  0  0  0  0  0  0  0  0  # atno 8009 bound_to 7997
  156.1862  140.1670  156.8166 H   0  0  0  0  0  0  0  0  0  0  0  0  # atno 8010 bound_to 7997
  140.5715  143.2318  151.6528 H   0  0  0  0  0  0  0  0  0  0  0  0  # atno 10167 bound_to 10162
  157.4238  130.7984  149.7539 H   0  0  0  0  0  0  0  0  0  0  0  0  # atno 10718 bound_to 10713
  153.9902  135.2933  155.3412 H   0  0  0  0  0  0  0  0  0  0  0  0  # atno 10763 bound_to 10752
  154.7219  135.5105  153.8828 H   0  0  0  0  0  0  0  0  0  0  0  0  # atno 10764 bound_to 10752
  153.0813  135.6680  154.0155 H   0  0  0  0  0  0  0  0  0  0  0  0  # atno 10765 bound_to 10752
  140.9052  133.7497  156.0597 H   0  0  0  0  0  0  0  0  0  0  0  0  # atno 11005 bound_to 11000
  145.6263  141.0313  143.1887 LP  0  0  0  0  0  0  0  0  0  0  0  0  # atno 17320 bound_to 7965
  144.7277  139.7824  143.7359 LP  0  0  0  0  0  0  0  0  0  0  0  0  # atno 17321 bound_to 7965
  139.5120  144.3490  152.0670 LP  0  0  0  0  0  0  0  0  0  0  0  0  # atno 17342 bound_to 10162
  140.2628  144.4048  150.6179 LP  0  0  0  0  0  0  0  0  0  0  0  0  # atno 17343 bound_to 10162
  155.9889  130.3955  150.3095 LP  0  0  0  0  0  0  0  0  0  0  0  0  # atno 17370 bound_to 10713
  157.1246  131.0255  151.2995 LP  0  0  0  0  0  0  0  0  0  0  0  0  # atno 17371 bound_to 10713
  140.8179  134.3323  157.5391 LP  0  0  0  0  0  0  0  0  0  0  0  0  # atno 17394 bound_to 11000
  139.8748  134.9292  156.3471 LP  0  0  0  0  0  0  0  0  0  0  0  0  # atno 17395 bound_to 11000

$$$$
