AV-unprocessed.smi:2561|AV-procd|sdf|10041|dock3
  -GOLD-   2272014 83D 1   1.00000     0.00000
 Structure written by MMmdl.
 33 34  0  0  0  0  0  0  0  0  2 V2000
  146.5514  138.6638  151.4044 C   0  0  0  0  0  0  0  0  0  0  0  0
  147.6659  138.7123  152.3385 N   0  0  0  0  0  0  0  0  0  0  0  0
  147.9030  139.7323  153.1734 C   0  0  0  0  0  0  0  0  0  0  0  0
  147.1960  140.7381  153.2312 O   0  0  0  0  0  0  0  0  0  0  0  0
  149.0074  139.5147  153.9086 N   0  0  0  0  0  0  0  0  0  0  0  0
  149.5915  140.3553  154.8948 C   0  0  0  0  0  0  0  0  0  0  0  0
  150.5623  139.7909  155.7501 C   0  0  0  0  0  0  0  0  0  0  0  0
  151.1609  140.5841  156.7503 C   0  0  0  0  0  0  0  0  0  0  0  0
  150.7701  141.9363  156.8896 C   0  0  0  0  0  0  0  0  0  0  0  0
  151.3028  142.8095  157.8486 N   0  0  0  0  0  0  0  0  0  0  0  0
  152.3873  142.2635  158.6476 C   0  0  0  0  0  0  0  0  0  0  0  0
  153.0648  143.4722  159.2986 C   0  0  0  0  0  0  0  0  0  0  0  0
  152.6780  144.6640  158.4146 C   0  0  0  0  0  0  0  0  0  0  0  0
  151.7956  144.0678  157.3144 C   0  0  0  0  0  0  0  0  0  0  0  0
  149.8289  142.4362  156.0598 N   0  3  0  0  0  0  0  0  0  0  0  0
  149.2323  141.7117  155.0882 C   0  0  0  0  0  0  0  0  0  0  0  0
  146.5745  137.7276  150.8466 H   0  0  0  0  0  0  0  0  0  0  0  0
  146.6058  139.4875  150.6912 H   0  0  0  0  0  0  0  0  0  0  0  0
  145.5989  138.7229  151.9326 H   0  0  0  0  0  0  0  0  0  0  0  0
  148.2948  137.9224  152.3462 H   0  0  0  0  0  0  0  0  0  0  0  0
  149.5217  138.6728  153.6949 H   0  0  0  0  0  0  0  0  0  0  0  0
  150.8550  138.7569  155.6385 H   0  0  0  0  0  0  0  0  0  0  0  0
  151.9108  140.1538  157.3980 H   0  0  0  0  0  0  0  0  0  0  0  0
  152.0106  141.5646  159.3950 H   0  0  0  0  0  0  0  0  0  0  0  0
  153.1000  141.7301  158.0178 H   0  0  0  0  0  0  0  0  0  0  0  0
  152.6835  143.6215  160.3097 H   0  0  0  0  0  0  0  0  0  0  0  0
  154.1449  143.3386  159.3677 H   0  0  0  0  0  0  0  0  0  0  0  0
  152.1158  145.3927  158.9999 H   0  0  0  0  0  0  0  0  0  0  0  0
  153.5480  145.1731  157.9990 H   0  0  0  0  0  0  0  0  0  0  0  0
  152.3845  143.8955  156.4123 H   0  0  0  0  0  0  0  0  0  0  0  0
  150.9724  144.7346  157.0556 H   0  0  0  0  0  0  0  0  0  0  0  0
  148.4883  142.2465  154.5175 H   0  0  0  0  0  0  0  0  0  0  0  0
  149.5516  143.4115  156.1739 H   0  0  0  0  0  0  0  0  0  0  0  0
  1  2  1  0  0  0  0
  1 17  1  0  0  0  0
  1 18  1  0  0  0  0
  1 19  1  0  0  0  0
  2  3  1  0  0  0  0
  2 20  1  0  0  0  0
  3  4  2  0  0  0  0
  3  5  1  0  0  0  0
  5  6  1  0  0  0  0
  5 21  1  0  0  0  0
  6 16  1  0  0  0  0
  6  7  2  0  0  0  0
  7  8  1  0  0  0  0
  7 22  1  0  0  0  0
  8  9  2  0  0  0  0
  8 23  1  0  0  0  0
  9 10  1  0  0  0  0
  9 15  1  0  0  0  0
 10 14  1  0  0  0  0
 10 11  1  0  0  0  0
 11 12  1  0  0  0  0
 11 24  1  0  0  0  0
 11 25  1  0  0  0  0
 12 13  1  0  0  0  0
 12 26  1  0  0  0  0
 12 27  1  0  0  0  0
 13 14  1  0  0  0  0
 13 28  1  0  0  0  0
 13 29  1  0  0  0  0
 14 30  1  0  0  0  0
 14 31  1  0  0  0  0
 15 16  2  0  0  0  0
 15 33  1  0  0  0  0
 16 32  1  0  0  0  0
M  CHG  1  15   1
M  END
> <s_m_source_file>
AV-unprocessed.smi

> <i_m_source_file_index>
2561

> <i_lp_mmshare_version>
43012

> <i_f3d_flags>
0

> <s_epik_input>
W0NIM11bTkhdQyg9TylbTkhdYzFbY0hdW2NIXWMobltjSF0xKU4yW0NIMl1bQ0gyXVtDSDJdW0NIMl0y

> <s_epik_cmdline>
J2VwaWtfcHl0aG9uJywgJy1waCcsICc3LjAnLCAnLXRuJywgJzgnLCAnLW1hJywgJzIwMCcsICctbWV0YWxfYmluZGluZycsICctaW1hZScsICc8aW5maWxlLm1hZT4nLCAnLW9tYWUnLCAnPG91dGZpbGUubWFlPic=

> <r_lp_tautomer_probability>
0.999994

> <r_epik_Ionization_Penalty>
0.57702

> <r_epik_Ionization_Penalty_Charging>
0.577

> <r_epik_Ionization_Penalty_Neutral>
2.01329e-05

> <r_epik_State_Penalty>
0.589437

> <r_epik_Charging_Adjusted_Penalty>
1.16644

> <i_epik_Tot_Q>
1

> <i_epik_Tot_abs_Q>
1

> <r_epik_Metal_State_Penalty>
0.781142

> <b_epik_Metal_Only>
0

> <s_lp_Force_Field>
OPLS_2005

> <r_lp_Energy>
38.8589

> <b_lp_Chiralities_Consistent>
1

> <s_lp_Variant>
AV-unprocessed.smi:2561-2

> <Gold.Version>
5.8.1

> <Gold.Id.Protein>
6NUR|6NUR_protein|mol2

> <Gold.PLP.Fitness>
44.1366

> <Gold.PLP.PLP>
-35.3796

> <Gold.PLP.part.hbond>
-3.9185

> <Gold.PLP.part.metal>
0.0000

> <Gold.PLP.part.buried>
0.2620

> <Gold.PLP.part.nonpolar>
-33.4135

> <Gold.PLP.part.repulsive>
0.5451

> <Gold.PLP.ligand.clash>
0.0000

> <Gold.PLP.ligand.torsion>
0.1273

> <Gold.PLP.Chemscore.Hbond>
3.0000

> <Gold.PLP.Chemscore.CHOScore>
0.0000

> <Gold.PLP.Chemscore.Metal>
0.0000

> <Gold.Chemscore.Hbonds>
donor molecule, donor type, donor heavy atom, donor atom, acceptor molecule, acceptor atom, score
      L1  H     2    20       P1  7948  1.00
      L1  H    15    33       P1  8028  2.00

> <Gold.PLP.Chemscore.Internal.Correction>
0.0116

> <Gold.Rescore>
     Score         DG    S(hbond)    S(metal)    S(lipo)     H(rot)  DE(clash)    DE(int)     intcor
     17.91     -19.41       1.93        0.00      85.79       1.00       0.12       1.38       ----

> <Gold.Chemscore.Fitness>
17.9127

> <Gold.Chemscore.DG>
-19.4055

> <Gold.Chemscore.ZeroCoef>
-5.4800

> <Gold.Chemscore.Hbond>
1.9307

> <Gold.Chemscore.Metal>
0.0000

> <Gold.Chemscore.Lipo>
85.7868

> <Gold.Chemscore.Internal_Hbond>
0.0000

> <Gold.Chemscore.DEClash>
0.1157

> <Gold.Chemscore.DEInternal>
1.3771

> <Gold.Chemscore.Rot>
1.0000

> <Gold.Chemscore.Internal.Correction>
   9.000000E+99

> <Gold.Chemscore.Hbonds>
donor molecule, donor type, donor heavy atom, donor atom, acceptor molecule, acceptor atom, score
      L1  H     2    20       P1  7948  0.99
      L1  H    15    33       P1  8028  0.92

> <Gold.Chemscore.Hbond.Weighted>
-6.4484

> <Gold.Chemscore.Metal.Weighted>
-0.0000

> <Gold.Chemscore.Lipo.Weighted>
-10.0371

> <Gold.Chemscore.Internal_Hbond.Weighted>
0.0000

> <Gold.Chemscore.DEClash.Weighted>
0.1157

> <Gold.Chemscore.DEInternal.Weighted>
1.3771

> <Gold.Chemscore.Rot.Weighted>
2.5600

> <Gold.Chemscore.Internal.Correction.Weighted>
   9.000000E+99

> <Gold.Protein.RotatedTorsions>
[ 6907 6896 6895 6894 ] final  163.72 input  -60.11 | X-H torsion
[ 7974 7965 7964 7962 ] final  149.81 input  175.53 | X-H torsion
[ 8008 7997 7996 7995 ] final  -36.74 input   59.86 | X-H torsion
[ 10167 10162 10161 10158 ] final  -48.18 input  -65.29 | X-H torsion
[ 10718 10713 10712 10709 ] final  121.76 input   66.30 | X-H torsion
[ 10763 10752 10751 10750 ] final    9.41 input  -60.55 | X-H torsion
[ 11005 11000 10999 10996 ] final -167.18 input  -57.11 | X-H torsion

> <Gold.Protein.ActiveResidues>
 VAL166  LYS551  ARG553  GLY616  TRP617  ASP618  TYR619  PRO620  LYS621  CYS622 
 ASP623  PHE694  ASN695  SER759  ASP760  ASP761  ALA762  ILE779  LEU786  VAL792 
 PHE793  MET794  SER795  GLU796  ALA797  LYS798  CYS799  TRP800  GLU811  SER814 

> <Gold.Protein.RotatedAtoms>
  151.9208  133.3585  159.3896 H   0  0  0  0  0  0  0  0  0  0  0  0  # atno 6907 bound_to 6896
  150.7037  134.4637  159.5402 H   0  0  0  0  0  0  0  0  0  0  0  0  # atno 6908 bound_to 6896
  152.2260  134.8368  160.0531 H   0  0  0  0  0  0  0  0  0  0  0  0  # atno 6909 bound_to 6896
  144.8410  139.6328  143.6016 H   0  0  0  0  0  0  0  0  0  0  0  0  # atno 7974 bound_to 7965
  154.4067  140.1622  156.2424 H   0  0  0  0  0  0  0  0  0  0  0  0  # atno 8008 bound_to 7997
  155.9190  140.3422  155.6135 H   0  0  0  0  0  0  0  0  0  0  0  0  # atno 8009 bound_to 7997
  155.7245  140.0772  157.2307 H   0  0  0  0  0  0  0  0  0  0  0  0  # atno 8010 bound_to 7997
  140.6742  143.2751  151.4034 H   0  0  0  0  0  0  0  0  0  0  0  0  # atno 10167 bound_to 10162
  157.5793  131.1076  150.8218 H   0  0  0  0  0  0  0  0  0  0  0  0  # atno 10718 bound_to 10713
  153.2143  135.6873  153.8076 H   0  0  0  0  0  0  0  0  0  0  0  0  # atno 10763 bound_to 10752
  153.7297  135.3254  155.3284 H   0  0  0  0  0  0  0  0  0  0  0  0  # atno 10764 bound_to 10752
  154.8238  135.4633  154.0964 H   0  0  0  0  0  0  0  0  0  0  0  0  # atno 10765 bound_to 10752
  140.5561  134.5379  157.5133 H   0  0  0  0  0  0  0  0  0  0  0  0  # atno 11005 bound_to 11000
  146.2703  139.6618  142.9301 LP  0  0  0  0  0  0  0  0  0  0  0  0  # atno 17320 bound_to 7965
  145.4693  141.0435  143.2707 LP  0  0  0  0  0  0  0  0  0  0  0  0  # atno 17321 bound_to 7965
  139.6026  144.1264  152.2214 LP  0  0  0  0  0  0  0  0  0  0  0  0  # atno 17342 bound_to 10162
  140.0653  144.5824  150.7232 LP  0  0  0  0  0  0  0  0  0  0  0  0  # atno 17343 bound_to 10162
  156.8668  130.5132  149.5299 LP  0  0  0  0  0  0  0  0  0  0  0  0  # atno 17370 bound_to 10713
  156.0839  130.5842  150.9612 LP  0  0  0  0  0  0  0  0  0  0  0  0  # atno 17371 bound_to 10713
  139.9431  134.7751  156.0630 LP  0  0  0  0  0  0  0  0  0  0  0  0  # atno 17394 bound_to 11000
  141.1142  133.6633  156.3054 LP  0  0  0  0  0  0  0  0  0  0  0  0  # atno 17395 bound_to 11000

$$$$
