#       Name:                AV-unprocessed.smi:2809
#       Creating user name   scv26
#       Creation time:       Fri Mar 27 15:26:41 2020


#       File generated by GOLD software.
#

@<TRIPOS>MOLECULE
AV-unprocessed.smi:2809
    51    52     1
SMALL
NO_CHARGES


@<TRIPOS>ATOM
      1 ****        -7.3315   1.1208   0.8590 C.3            1 S1                 0.0000
      2 ****        -6.7941   1.1676  -0.5753 C.3            1 S1                 0.0000
      3 ****        -5.2920   0.9642  -0.6345 C.ar           1 S1                 0.0000
      4 ****        -4.4234   2.0731  -0.6048 C.ar           1 S1                 0.0000
      5 ****        -3.0298   1.8808  -0.6633 C.ar           1 S1                 0.0000
      6 ****        -2.4823   0.5847  -0.7524 C.ar           1 S1                 0.0000
      7 ****        -1.1088   0.4907  -0.8121 O.3            1 S1                 0.0000
      8 ****        -0.5239  -0.8001  -0.9354 C.3            1 S1                 0.0000
      9 ****         1.0049  -0.6684  -1.0368 C.3            1 S1                 0.0000
     10 ****         1.3077  -0.2114  -2.3397 O.3            1 S1                 0.0000
     11 ****         1.6050   0.2834   0.0220 C.3            1 S1                 0.0000
     12 ****         3.0324   0.0139   0.2622 N.am           1 S1                 0.0000
     13 ****         3.9435   0.8353  -0.4215 C.2            1 S1                 0.0000
     14 ****         5.2214   0.6859  -0.2936 N.2            1 S1                 0.0000
     15 ****         5.7259  -0.3172   0.5392 C.2            1 S1                 0.0000
     16 ****         7.2398  -0.4093   0.6125 C.3            1 S1                 0.0000
     17 ****         4.8964  -1.1489   1.2268 C.2            1 S1                 0.0000
     18 ****         5.3885  -2.2627   2.1425 C.3            1 S1                 0.0000
     19 ****         3.4394  -0.9919   1.0894 C.2            1 S1                 0.0000
     20 ****         2.6309  -1.7163   1.6733 O.2            1 S1                 0.0000
     21 ****        -3.3607  -0.5278  -0.7757 C.ar           1 S1                 0.0000
     22 ****        -4.7550  -0.3362  -0.7176 C.ar           1 S1                 0.0000
     23 ****        -8.4115   1.2688   0.8734 H              1 S1                 0.0000
     24 ****        -6.8807   1.8998   1.4744 H              1 S1                 0.0000
     25 ****        -7.1212   0.1590   1.3276 H              1 S1                 0.0000
     26 ****        -7.2830   0.4019  -1.1789 H              1 S1                 0.0000
     27 ****        -7.0458   2.1251  -1.0330 H              1 S1                 0.0000
     28 ****        -4.8225   3.0747  -0.5375 H              1 S1                 0.0000
     29 ****        -2.3734   2.7384  -0.6413 H              1 S1                 0.0000
     30 ****        -0.7700  -1.3864  -0.0485 H              1 S1                 0.0000
     31 ****        -0.9150  -1.3330  -1.8041 H              1 S1                 0.0000
     32 ****         1.4328  -1.6662  -0.9338 H              1 S1                 0.0000
     33 ****         0.8786   0.6205  -2.4712 H              1 S1                 0.0000
     34 ****         1.4255   1.3249  -0.2533 H              1 S1                 0.0000
     35 ****         1.0665   0.1593   0.9635 H              1 S1                 0.0000
     36 ****         3.4989   1.5971  -1.0643 H              1 S1                 0.0000
     37 ****         7.5836  -0.2399   1.6330 H              1 S1                 0.0000
     38 ****         7.7152   0.3352  -0.0275 H              1 S1                 0.0000
     39 ****         7.5788  -1.3935   0.2880 H              1 S1                 0.0000
     40 ****         5.0691  -3.2317   1.7581 H              1 S1                 0.0000
     41 ****         4.9721  -2.1405   3.1430 H              1 S1                 0.0000
     42 ****         6.4724  -2.2887   2.2424 H              1 S1                 0.0000
     43 ****        -2.9905  -1.5396  -0.8377 H              1 S1                 0.0000
     44 ****        -5.4122  -1.1933  -0.7368 H              1 S1                 0.0000
     45 ****        -0.7478   0.9001   0.0258 LP             1 S1                 0.0000
     46 ****        -0.8098   1.0274  -1.6011 LP             1 S1                 0.0000
     47 ****         0.9781  -0.8719  -3.0144 LP             1 S1                 0.0000
     48 ****         2.2967  -0.1005  -2.4374 LP             1 S1                 0.0000
     49 ****         5.8479   1.2870  -0.7897 LP             1 S1                 0.0000
     50 ****         1.6492  -1.5740   1.5463 LP             1 S1                 0.0000
     51 ****         2.9566  -2.4464   2.2741 LP             1 S1                 0.0000
@<TRIPOS>BOND
    1    1    2 1     
    2    1   23 1     
    3    1   24 1     
    4    1   25 1     
    5    2    3 1     
    6    2   26 1     
    7    2   27 1     
    8    3   22 ar    
    9    3    4 ar    
   10    4    5 ar    
   11    4   28 1     
   12    5    6 ar    
   13    5   29 1     
   14    6    7 1     
   15    6   21 ar    
   16    7    8 1     
   17    8    9 1     
   18    8   30 1     
   19    8   31 1     
   20    9   10 1     
   21    9   11 1     
   22    9   32 1     
   23   10   33 1     
   24   11   12 1     
   25   11   34 1     
   26   11   35 1     
   27   12   19 am    
   28   12   13 1     
   29   13   14 2     
   30   13   36 1     
   31   14   15 1     
   32   15   16 1     
   33   15   17 2     
   34   16   37 1     
   35   16   38 1     
   36   16   39 1     
   37   17   18 1     
   38   17   19 1     
   39   18   40 1     
   40   18   41 1     
   41   18   42 1     
   42   19   20 2     
   43   21   22 ar    
   44   21   43 1     
   45   22   44 1     
   46    7   45 1     
   47    7   46 1     
   48   10   47 1     
   49   10   48 1     
   50   14   49 1     
   51   20   50 1     
   52   20   51 1     
@<TRIPOS>SUBSTRUCTURE
      1 S1             1
@<TRIPOS>SET
LONE_PAIRS      STATIC     ATOMS    <user>   **** ""
7 45 46 47 48 49 50 51
DONOR_HYDROGENS      STATIC     ATOMS    <user>   **** ""
1 33
ATOM$BLUE        STATIC     ATOMS    COLORGROUP SYSTEM
7 45 46 47 48 49 50 51
ATOM$RED        STATIC     ATOMS    COLORGROUP SYSTEM
1 33
