#       Name:                AV-unprocessed.smi:99
#       Creating user name   scv26
#       Creation time:       Thu Mar 26 17:32:56 2020


#       File generated by GOLD software.
#

@<TRIPOS>MOLECULE
AV-unprocessed.smi:99
    65    68     1
SMALL
NO_CHARGES


@<TRIPOS>ATOM
      1 ****        -3.7132   0.8902  -0.9151 O.2            1 S1                 0.0000
      2 ****        -2.9387   1.7713  -1.2939 C.2            1 S1                 0.0000
      3 ****        -1.6207   1.5715  -1.4891 O.3            1 S1                 0.0000
      4 ****        -1.0562   0.2929  -1.2514 C.3            1 S1                 0.0000
      5 ****         0.4628   0.3615  -1.4589 C.3            1 S1                 0.0000
      6 ****         1.0964   1.0370  -0.3833 O.3            1 S1                 0.0000
      7 ****         2.4487   0.7051  -0.3883 C.3            1 S1                 0.0000
      8 ****         2.9063   0.6441   1.0517 N.am           1 S1                 0.0000
      9 ****         2.2373  -0.1596   1.9645 C.2            1 S1                 0.0000
     10 ****         2.5714  -0.2328   3.2741 C.2            1 S1                 0.0000
     11 ****         3.6763   0.5613   3.7998 C.2            1 S1                 0.0000
     12 ****         4.0580   0.5596   4.9681 O.2            1 S1                 0.0000
     13 ****         4.3101   1.3705   2.8525 N.am           1 S1                 0.0000
     14 ****         3.9715   1.4574   1.5008 C.2            1 S1                 0.0000
     15 ****         4.6020   2.2129   0.7627 O.2            1 S1                 0.0000
     16 ****         2.6044  -0.6555  -1.0936 C.3            1 S1                 0.0000
     17 ****         3.4166  -0.5735  -2.2474 O.3            1 S1                 0.0000
     18 ****         1.1721  -0.9973  -1.5020 C.3            1 S1                 0.0000
     19 ****         0.5825  -1.8933  -0.5661 O.3            1 S1                 0.0000
     20 ****         0.7591  -3.2267  -0.6678 C.2            1 S1                 0.0000
     21 ****         1.4097  -3.7640  -1.5658 O.2            1 S1                 0.0000
     22 ****         0.0907  -3.9793   0.4320 C.ar           1 S1                 0.0000
     23 ****         0.1928  -5.3894   0.4691 C.ar           1 S1                 0.0000
     24 ****        -0.4248  -6.1262   1.4985 C.ar           1 S1                 0.0000
     25 ****        -1.1516  -5.4616   2.5034 C.ar           1 S1                 0.0000
     26 ****        -1.2606  -4.0591   2.4778 C.ar           1 S1                 0.0000
     27 ****        -0.6442  -3.3205   1.4492 C.ar           1 S1                 0.0000
     28 ****        -3.3638   3.1708  -1.5859 C.ar           1 S1                 0.0000
     29 ****        -4.7247   3.5268  -1.4371 C.ar           1 S1                 0.0000
     30 ****        -5.1566   4.8401  -1.7061 C.ar           1 S1                 0.0000
     31 ****        -4.2325   5.8138  -2.1274 C.ar           1 S1                 0.0000
     32 ****        -2.8758   5.4727  -2.2785 C.ar           1 S1                 0.0000
     33 ****        -2.4420   4.1597  -2.0096 C.ar           1 S1                 0.0000
     34 ****         5.0768   1.9431   3.1743 H              1 S1                 0.0000
     35 ****        -1.2903  -0.0489  -0.2420 H              1 S1                 0.0000
     36 ****        -1.4939  -0.4201  -1.9515 H              1 S1                 0.0000
     37 ****         0.6882   0.8989  -2.3821 H              1 S1                 0.0000
     38 ****         2.9929   1.5041  -0.8932 H              1 S1                 0.0000
     39 ****         1.4039  -0.7554   1.6270 H              1 S1                 0.0000
     40 ****         2.0144  -0.8789   3.9373 H              1 S1                 0.0000
     41 ****         3.0360  -1.4001  -0.4233 H              1 S1                 0.0000
     42 ****         3.0543   0.0795  -2.8264 H              1 S1                 0.0000
     43 ****         1.1142  -1.4242  -2.5049 H              1 S1                 0.0000
     44 ****         0.7458  -5.9216  -0.2915 H              1 S1                 0.0000
     45 ****        -0.3402  -7.2027   1.5165 H              1 S1                 0.0000
     46 ****        -1.6260  -6.0270   3.2921 H              1 S1                 0.0000
     47 ****        -1.8187  -3.5479   3.2484 H              1 S1                 0.0000
     48 ****        -0.7488  -2.2453   1.4602 H              1 S1                 0.0000
     49 ****        -5.4530   2.7962  -1.1154 H              1 S1                 0.0000
     50 ****        -6.1984   5.0998  -1.5890 H              1 S1                 0.0000
     51 ****        -4.5636   6.8208  -2.3342 H              1 S1                 0.0000
     52 ****        -2.1655   6.2193  -2.6013 H              1 S1                 0.0000
     53 ****        -1.3937   3.9320  -2.1356 H              1 S1                 0.0000
     54 ****        -3.3716  -0.0324  -0.7354 LP             1 S1                 0.0000
     55 ****        -4.6830   1.0979  -0.7876 LP             1 S1                 0.0000
     56 ****         0.6831   0.7549   0.4824 LP             1 S1                 0.0000
     57 ****         0.9912   2.0249  -0.4967 LP             1 S1                 0.0000
     58 ****         3.6001  -0.0192   5.6428 LP             1 S1                 0.0000
     59 ****         4.8265   1.1370   5.2438 LP             1 S1                 0.0000
     60 ****         4.3690   2.2731  -0.2079 LP             1 S1                 0.0000
     61 ****         5.3476   2.7668   1.1332 LP             1 S1                 0.0000
     62 ****         3.4354  -1.4601  -2.7096 LP             1 S1                 0.0000
     63 ****         4.3465  -0.3137  -1.9868 LP             1 S1                 0.0000
     64 ****         1.8426  -3.2049  -2.2729 LP             1 S1                 0.0000
     65 ****         1.5049  -4.7593  -1.5875 LP             1 S1                 0.0000
@<TRIPOS>BOND
    1    1    2 2     
    2    2    3 1     
    3    2   28 1     
    4    3    4 1     
    5    4    5 1     
    6    4   35 1     
    7    4   36 1     
    8    5   18 1     
    9    5    6 1     
   10    5   37 1     
   11    6    7 1     
   12    7    8 1     
   13    7   16 1     
   14    7   38 1     
   15    8   14 1     
   16    8    9 1     
   17    9   10 2     
   18    9   39 1     
   19   10   11 1     
   20   10   40 1     
   21   11   12 2     
   22   11   13 1     
   23   13   34 1     
   24   13   14 1     
   25   14   15 2     
   26   16   17 1     
   27   16   18 1     
   28   16   41 1     
   29   17   42 1     
   30   18   19 1     
   31   18   43 1     
   32   19   20 1     
   33   20   21 2     
   34   20   22 1     
   35   22   27 ar    
   36   22   23 ar    
   37   23   24 ar    
   38   23   44 1     
   39   24   25 ar    
   40   24   45 1     
   41   25   26 ar    
   42   25   46 1     
   43   26   27 ar    
   44   26   47 1     
   45   27   48 1     
   46   28   33 ar    
   47   28   29 ar    
   48   29   30 ar    
   49   29   49 1     
   50   30   31 ar    
   51   30   50 1     
   52   31   32 ar    
   53   31   51 1     
   54   32   33 ar    
   55   32   52 1     
   56   33   53 1     
   57    1   54 1     
   58    1   55 1     
   59    6   56 1     
   60    6   57 1     
   61   12   58 1     
   62   12   59 1     
   63   15   60 1     
   64   15   61 1     
   65   17   62 1     
   66   17   63 1     
   67   21   64 1     
   68   21   65 1     
@<TRIPOS>SUBSTRUCTURE
      1 S1             1
@<TRIPOS>SET
LONE_PAIRS      STATIC     ATOMS    <user>   **** ""
12 54 55 56 57 58 59 60 61 62 63 64 65
DONOR_HYDROGENS      STATIC     ATOMS    <user>   **** ""
2 34 42
ATOM$BLUE        STATIC     ATOMS    COLORGROUP SYSTEM
12 54 55 56 57 58 59 60 61 62 63 64 65
ATOM$RED        STATIC     ATOMS    COLORGROUP SYSTEM
2 34 42
