AV-unprocessed.smi:39|AV-procd|sdf|354|dock5
  -GOLD-   2262016193D 1   1.00000     0.00000
 Structure written by MMmdl.
 32 33  0  0  0  0  0  0  0  0  3 V2000
  152.6057  143.7980  160.6739 C   0  0  0  0  0  0  0  0  0  0  0  0
  152.0345  143.2378  159.3815 C   0  0  0  0  0  0  0  0  0  0  0  0
  152.3522  142.0002  158.9213 C   0  0  0  0  0  0  0  0  0  0  0  0
  151.8453  141.4617  157.7435 N   0  0  0  0  0  0  0  0  0  0  0  0
  152.2234  140.0818  157.2398 C   0  0  2  0  0  0  0  0  0  0  0  0
  151.0359  139.1073  157.3691 C   0  0  0  0  0  0  0  0  0  0  0  0
  151.6446  137.9207  158.1032 C   0  0  1  0  0  0  0  0  0  0  0  0
  152.2295  136.9554  157.1615 N   0  0  0  0  0  0  0  0  0  0  0  0
  153.1834  137.3535  156.4798 N   0  3  0  0  0  0  0  0  0  0  0  0
  154.0758  137.8088  155.9401 N   0  5  0  0  0  0  0  0  0  0  0  0
  152.7134  138.6248  158.9469 C   0  0  1  0  0  0  0  0  0  0  0  0
  153.8094  137.7099  159.5192 C   0  0  0  0  0  0  0  0  0  0  0  0
  153.2212  136.6016  160.1661 O   0  0  0  0  0  0  0  0  0  0  0  0
  153.2582  139.5534  158.0171 O   0  0  0  0  0  0  0  0  0  0  0  0
  150.9676  142.2358  156.9565 C   0  0  0  0  0  0  0  0  0  0  0  0
  150.4959  141.8321  155.8940 O   0  0  0  0  0  0  0  0  0  0  0  0
  150.6395  143.5045  157.4297 N   0  0  0  0  0  0  0  0  0  0  0  0
  151.1134  144.0780  158.6115 C   0  0  0  0  0  0  0  0  0  0  0  0
  150.7487  145.2098  158.9260 O   0  0  0  0  0  0  0  0  0  0  0  0
  152.5763  140.2255  156.2167 H   0  0  0  0  0  0  0  0  0  0  0  0
  150.9109  137.4363  158.7507 H   0  0  0  0  0  0  0  0  0  0  0  0
  152.2150  139.1629  159.7559 H   0  0  0  0  0  0  0  0  0  0  0  0
  150.0077  144.0577  156.8692 H   0  0  0  0  0  0  0  0  0  0  0  0
  153.2705  143.0871  161.1656 H   0  0  0  0  0  0  0  0  0  0  0  0
  151.8035  144.0420  161.3713 H   0  0  0  0  0  0  0  0  0  0  0  0
  153.1760  144.7061  160.4758 H   0  0  0  0  0  0  0  0  0  0  0  0
  153.0399  141.4188  159.5165 H   0  0  0  0  0  0  0  0  0  0  0  0
  150.2483  139.5562  157.9765 H   0  0  0  0  0  0  0  0  0  0  0  0
  150.6205  138.8626  156.3905 H   0  0  0  0  0  0  0  0  0  0  0  0
  154.4353  137.3251  158.7135 H   0  0  0  0  0  0  0  0  0  0  0  0
  154.4601  138.2483  160.2087 H   0  0  0  0  0  0  0  0  0  0  0  0
  153.2804  136.7330  161.0999 H   0  0  0  0  0  0  0  0  0  0  0  0
  1  2  1  0  0  0  0
  1 24  1  0  0  0  0
  1 25  1  0  0  0  0
  1 26  1  0  0  0  0
  2 18  1  0  0  0  0
  2  3  2  0  0  0  0
  3  4  1  0  0  0  0
  3 27  1  0  0  0  0
  4  5  1  0  0  0  0
  4 15  1  0  0  0  0
  5 20  1  0  0  0  0
  5 14  1  0  0  0  0
  5  6  1  0  0  0  0
  6  7  1  0  0  0  0
  6 28  1  0  0  0  0
  6 29  1  0  0  0  0
  7 21  1  0  0  0  0
  7  8  1  0  0  0  0
  7 11  1  0  0  0  0
  8  9  2  0  0  0  0
  9 10  2  0  0  0  0
 11 22  1  0  0  0  0
 11 12  1  0  0  0  0
 11 14  1  0  0  0  0
 12 13  1  0  0  0  0
 12 30  1  0  0  0  0
 12 31  1  0  0  0  0
 13 32  1  0  0  0  0
 15 16  2  0  0  0  0
 15 17  1  0  0  0  0
 17 23  1  0  0  0  0
 17 18  1  0  0  0  0
 18 19  2  0  0  0  0
M  CHG  1   9   1
M  CHG  1  10  -1
M  END
> <s_m_source_file>
AV-unprocessed.smi

> <i_m_source_file_index>
39

> <i_lp_mmshare_version>
43012

> <i_f3d_flags>
0

> <s_epik_input>
Tz1jMVtuSF1jKD1PKW4oW2NIXWMxW0NIM10pW0NASF0yW0NIMl1bQ0BIXShOPVtOK109W04tXSlbQ0BIXShPMilbQ0gyXVtPSF0=

> <s_epik_cmdline>
J2VwaWtfcHl0aG9uJywgJy1waCcsICc3LjAnLCAnLXRuJywgJzgnLCAnLW1hJywgJzIwMCcsICctbWV0YWxfYmluZGluZycsICctaW1hZScsICc8aW5maWxlLm1hZT4nLCAnLW9tYWUnLCAnPG91dGZpbGUubWFlPic=

> <r_lp_tautomer_probability>
0.999537

> <r_epik_Ionization_Penalty>
0.00127512

> <r_epik_Ionization_Penalty_Charging>
0.00127507

> <r_epik_Ionization_Penalty_Neutral>
5.43433e-08

> <r_epik_State_Penalty>
0.000844892

> <r_epik_Charging_Adjusted_Penalty>
0.00211996

> <i_epik_Tot_Q>
0

> <i_epik_Tot_abs_Q>
2

> <r_epik_Metal_State_Penalty>
0.680636

> <b_epik_Metal_Only>
0

> <s_epik_Chemistry_Notes>
This compound contains an acetal/aminal-like group ( X-CH(R)-Y where X, Y are N, S, or O) that may be acid/base labile, releasing an aldehyde.

> <s_lp_Force_Field>
OPLS_2005

> <r_lp_Energy>
25.8418

> <b_lp_Chiralities_Consistent>
1

> <s_lp_Variant>
AV-unprocessed.smi:39-4

> <Gold.Version>
5.8.1

> <Gold.Id.Protein>
6NUR|6NUR_protein|mol2

> <Gold.PLP.Fitness>
37.6397

> <Gold.PLP.PLP>
-29.2650

> <Gold.PLP.part.hbond>
-5.9050

> <Gold.PLP.part.metal>
0.0000

> <Gold.PLP.part.buried>
-5.0071

> <Gold.PLP.part.nonpolar>
-17.8051

> <Gold.PLP.part.repulsive>
0.2659

> <Gold.PLP.ligand.clash>
0.0000

> <Gold.PLP.ligand.torsion>
0.3376

> <Gold.PLP.Chemscore.Hbond>
3.0000

> <Gold.PLP.Chemscore.CHOScore>
0.0000

> <Gold.PLP.Chemscore.Metal>
0.0000

> <Gold.Chemscore.Hbonds>
donor molecule, donor type, donor heavy atom, donor atom, acceptor molecule, acceptor atom, score
      L1  H    17    23       P1  8028  1.00
      P1  H  6896  6907       L1    13  1.00
      P1  H  7997  8010       L1    14  0.95

> <Gold.PLP.Chemscore.Internal.Correction>
0.0499

> <Gold.Rescore>
     Score         DG    S(hbond)    S(metal)    S(lipo)     H(rot)  DE(clash)    DE(int)     intcor
      9.20     -13.49       2.74        0.00      50.54       2.75       0.00       4.29       ----

> <Gold.Chemscore.Fitness>
9.2012

> <Gold.Chemscore.DG>
-13.4863

> <Gold.Chemscore.ZeroCoef>
-5.4800

> <Gold.Chemscore.Hbond>
2.7364

> <Gold.Chemscore.Metal>
0.0000

> <Gold.Chemscore.Lipo>
50.5372

> <Gold.Chemscore.Internal_Hbond>
0.0000

> <Gold.Chemscore.DEClash>
0.0000

> <Gold.Chemscore.DEInternal>
4.2851

> <Gold.Chemscore.Rot>
2.7524

> <Gold.Chemscore.Internal.Correction>
   9.000000E+99

> <Gold.Chemscore.Hbonds>
donor molecule, donor type, donor heavy atom, donor atom, acceptor molecule, acceptor atom, score
      L1  H    17    23       P1  8028  0.96
      P1  H  6896  6907       L1    13  0.33
      P1  H  7997  8010       L1    14  0.22

> <Gold.Chemscore.Hbond.Weighted>
-9.1396

> <Gold.Chemscore.Metal.Weighted>
-0.0000

> <Gold.Chemscore.Lipo.Weighted>
-5.9128

> <Gold.Chemscore.Internal_Hbond.Weighted>
0.0000

> <Gold.Chemscore.DEClash.Weighted>
0.0000

> <Gold.Chemscore.DEInternal.Weighted>
4.2851

> <Gold.Chemscore.Rot.Weighted>
7.0461

> <Gold.Chemscore.Internal.Correction.Weighted>
   9.000000E+99

> <Gold.Protein.RotatedTorsions>
[ 6907 6896 6895 6894 ] final   18.87 input  -60.11 | X-H torsion
[ 7974 7965 7964 7962 ] final -173.38 input  175.53 | X-H torsion
[ 8008 7997 7996 7995 ] final   32.86 input   59.86 | X-H torsion
[ 10167 10162 10161 10158 ] final   -3.80 input  -65.29 | X-H torsion
[ 10718 10713 10712 10709 ] final  -32.41 input   66.30 | X-H torsion
[ 10763 10752 10751 10750 ] final   74.02 input  -60.55 | X-H torsion
[ 11005 11000 10999 10996 ] final    2.95 input  -57.11 | X-H torsion

> <Gold.Protein.ActiveResidues>
 VAL166  LYS551  ARG553  GLY616  TRP617  ASP618  TYR619  PRO620  LYS621  CYS622 
 ASP623  PHE694  ASN695  SER759  ASP760  ASP761  ALA762  ILE779  LEU786  VAL792 
 PHE793  MET794  SER795  GLU796  ALA797  LYS798  CYS799  TRP800  GLU811  SER814 

> <Gold.Protein.RotatedAtoms>
  151.8720  135.0486  160.0479 H   0  0  0  0  0  0  0  0  0  0  0  0  # atno 6907 bound_to 6896
  152.2580  133.5268  159.5373 H   0  0  0  0  0  0  0  0  0  0  0  0  # atno 6908 bound_to 6896
  150.7106  134.0785  159.3932 H   0  0  0  0  0  0  0  0  0  0  0  0  # atno 6909 bound_to 6896
  144.7138  140.1630  143.6374 H   0  0  0  0  0  0  0  0  0  0  0  0  # atno 7974 bound_to 7965
  155.1293  140.3255  155.4478 H   0  0  0  0  0  0  0  0  0  0  0  0  # atno 8008 bound_to 7997
  156.2639  140.2013  156.6361 H   0  0  0  0  0  0  0  0  0  0  0  0  # atno 8009 bound_to 7997
  154.6625  140.0545  157.0064 H   0  0  0  0  0  0  0  0  0  0  0  0  # atno 8010 bound_to 7997
  140.6904  143.6498  150.8360 H   0  0  0  0  0  0  0  0  0  0  0  0  # atno 10167 bound_to 10162
  156.3752  130.4346  149.7513 H   0  0  0  0  0  0  0  0  0  0  0  0  # atno 10718 bound_to 10713
  153.0559  135.5041  154.7980 H   0  0  0  0  0  0  0  0  0  0  0  0  # atno 10763 bound_to 10752
  154.6806  135.2967  154.9620 H   0  0  0  0  0  0  0  0  0  0  0  0  # atno 10764 bound_to 10752
  154.0408  135.6717  153.4842 H   0  0  0  0  0  0  0  0  0  0  0  0  # atno 10765 bound_to 10752
  140.5986  133.9857  155.8121 H   0  0  0  0  0  0  0  0  0  0  0  0  # atno 11005 bound_to 11000
  145.9013  139.2432  143.1492 LP  0  0  0  0  0  0  0  0  0  0  0  0  # atno 17320 bound_to 7965
  145.9808  140.8684  143.0115 LP  0  0  0  0  0  0  0  0  0  0  0  0  # atno 17321 bound_to 7965
  140.0210  143.5542  152.2800 LP  0  0  0  0  0  0  0  0  0  0  0  0  # atno 17342 bound_to 10162
  139.6300  144.7643  151.2556 LP  0  0  0  0  0  0  0  0  0  0  0  0  # atno 17343 bound_to 10162
  156.4625  130.7958  151.2978 LP  0  0  0  0  0  0  0  0  0  0  0  0  # atno 17370 bound_to 10713
  157.7487  131.0061  150.3140 LP  0  0  0  0  0  0  0  0  0  0  0  0  # atno 17371 bound_to 10713
  141.0887  133.9950  157.3271 LP  0  0  0  0  0  0  0  0  0  0  0  0  # atno 17394 bound_to 11000
  139.9242  135.0201  156.8176 LP  0  0  0  0  0  0  0  0  0  0  0  0  # atno 17395 bound_to 11000

$$$$
