AV-unprocessed.smi:2144|AV-procd|sdf|8731|dock4
  -GOLD-   2272011503D 1   1.00000     0.00000
 Structure written by MMmdl.
 40 42  0  0  0  0  0  0  0  0  1 V2000
  150.6402  139.5547  154.7008 O   0  0  0  0  0  0  0  0  0  0  0  0
  149.8671  140.4438  155.4818 C   0  0  0  0  0  0  0  0  0  0  0  0
  150.6415  141.1355  156.5685 C   0  0  0  0  0  0  0  0  0  0  0  0
  150.8968  142.4461  156.5610 N   0  0  0  0  0  0  0  0  0  0  0  0
  151.6043  142.6278  157.7327 C   0  0  0  0  0  0  0  0  0  0  0  0
  152.1585  143.7984  158.2988 C   0  0  0  0  0  0  0  0  0  0  0  0
  152.8488  143.7396  159.5272 C   0  0  0  0  0  0  0  0  0  0  0  0
  152.9945  142.5122  160.2056 C   0  0  0  0  0  0  0  0  0  0  0  0
  152.4495  141.3343  159.6592 C   0  0  0  0  0  0  0  0  0  0  0  0
  151.7611  141.3984  158.4326 C   0  0  0  0  0  0  0  0  0  0  0  0
  151.1205  140.4518  157.6381 N   0  0  0  0  0  0  0  0  0  0  0  0
  150.9974  139.0274  157.9206 C   0  0  0  0  0  0  0  0  0  0  0  0
  149.8207  138.7020  158.8641 C   0  0  1  0  0  0  0  0  0  0  0  0
  148.5952  138.8047  158.1664 O   0  0  0  0  0  0  0  0  0  0  0  0
  149.9206  137.2913  159.4621 C   0  0  0  0  0  0  0  0  0  0  0  0
  149.1128  137.2275  160.6299 O   0  0  0  0  0  0  0  0  0  0  0  0
  148.4387  136.0546  160.8966 C   0  0  0  0  0  0  0  0  0  0  0  0
  148.2569  135.0099  159.9546 C   0  0  0  0  0  0  0  0  0  0  0  0
  147.5502  133.8444  160.3091 C   0  0  0  0  0  0  0  0  0  0  0  0
  147.0179  133.7069  161.6042 C   0  0  0  0  0  0  0  0  0  0  0  0
  147.1945  134.7372  162.5459 C   0  0  0  0  0  0  0  0  0  0  0  0
  147.9012  135.9032  162.1927 C   0  0  0  0  0  0  0  0  0  0  0  0
  148.0655  136.8874  163.1088 F   0  0  0  0  0  0  0  0  0  0  0  0
  150.3841  138.6699  154.9106 H   0  0  0  0  0  0  0  0  0  0  0  0
  149.4324  141.1948  154.8219 H   0  0  0  0  0  0  0  0  0  0  0  0
  149.0451  139.8821  155.9243 H   0  0  0  0  0  0  0  0  0  0  0  0
  152.0523  144.7433  157.7869 H   0  0  0  0  0  0  0  0  0  0  0  0
  153.2684  144.6403  159.9509 H   0  0  0  0  0  0  0  0  0  0  0  0
  153.5253  142.4756  161.1456 H   0  0  0  0  0  0  0  0  0  0  0  0
  152.5608  140.3930  160.1763 H   0  0  0  0  0  0  0  0  0  0  0  0
  150.8808  138.4960  156.9754 H   0  0  0  0  0  0  0  0  0  0  0  0
  151.9362  138.6729  158.3465 H   0  0  0  0  0  0  0  0  0  0  0  0
  149.7900  139.4260  159.6785 H   0  0  0  0  0  0  0  0  0  0  0  0
  148.5837  139.6250  157.6977 H   0  0  0  0  0  0  0  0  0  0  0  0
  149.5636  136.5606  158.7340 H   0  0  0  0  0  0  0  0  0  0  0  0
  150.9599  137.0557  159.6979 H   0  0  0  0  0  0  0  0  0  0  0  0
  148.6488  135.0781  158.9512 H   0  0  0  0  0  0  0  0  0  0  0  0
  147.4157  133.0546  159.5847 H   0  0  0  0  0  0  0  0  0  0  0  0
  146.4751  132.8132  161.8744 H   0  0  0  0  0  0  0  0  0  0  0  0
  146.7872  134.6334  163.5407 H   0  0  0  0  0  0  0  0  0  0  0  0
  1  2  1  0  0  0  0
  1 24  1  0  0  0  0
  2  3  1  0  0  0  0
  2 25  1  0  0  0  0
  2 26  1  0  0  0  0
  3 11  1  0  0  0  0
  3  4  2  0  0  0  0
  4  5  1  0  0  0  0
  5 10  2  0  0  0  0
  5  6  1  0  0  0  0
  6  7  2  0  0  0  0
  6 27  1  0  0  0  0
  7  8  1  0  0  0  0
  7 28  1  0  0  0  0
  8  9  2  0  0  0  0
  8 29  1  0  0  0  0
  9 10  1  0  0  0  0
  9 30  1  0  0  0  0
 10 11  1  0  0  0  0
 11 12  1  0  0  0  0
 12 13  1  0  0  0  0
 12 31  1  0  0  0  0
 12 32  1  0  0  0  0
 13 14  1  0  0  0  0
 13 15  1  0  0  0  0
 13 33  1  0  0  0  0
 14 34  1  0  0  0  0
 15 16  1  0  0  0  0
 15 35  1  0  0  0  0
 15 36  1  0  0  0  0
 16 17  1  0  0  0  0
 17 22  1  0  0  0  0
 17 18  2  0  0  0  0
 18 19  1  0  0  0  0
 18 37  1  0  0  0  0
 19 20  2  0  0  0  0
 19 38  1  0  0  0  0
 20 21  1  0  0  0  0
 20 39  1  0  0  0  0
 21 22  2  0  0  0  0
 21 40  1  0  0  0  0
 22 23  1  0  0  0  0
M  END
> <s_m_source_file>
AV-unprocessed.smi

> <i_m_source_file_index>
2144

> <i_lp_mmshare_version>
43012

> <i_f3d_flags>
0

> <s_epik_input>
W2NIXTFbY0hdW2NIXVtjSF1jKGMxMiluKGMobjIpW0NIMl1bT0hdKVtDSDJdW0NASF0oW09IXSlbQ0gyXU9jM1tjSF1bY0hdW2NIXVtjSF1jM0Y=

> <s_epik_cmdline>
J2VwaWtfcHl0aG9uJywgJy1waCcsICc3LjAnLCAnLXRuJywgJzgnLCAnLW1hJywgJzIwMCcsICctbWV0YWxfYmluZGluZycsICctaW1hZScsICc8aW5maWxlLm1hZT4nLCAnLW9tYWUnLCAnPG91dGZpbGUubWFlPic=

> <r_lp_tautomer_probability>
1

> <r_epik_Ionization_Penalty>
0.0547315

> <r_epik_Ionization_Penalty_Charging>
0

> <r_epik_Ionization_Penalty_Neutral>
0.0547315

> <r_epik_State_Penalty>
0.047032

> <r_epik_Charging_Adjusted_Penalty>
0.047032

> <i_epik_Tot_Q>
0

> <i_epik_Tot_abs_Q>
0

> <r_epik_Metal_State_Penalty>
4.89471e-05

> <b_epik_Metal_Only>
0

> <s_lp_Force_Field>
OPLS_2005

> <r_lp_Energy>
15.6378

> <b_lp_Chiralities_Consistent>
1

> <s_lp_Variant>
AV-unprocessed.smi:2144-2

> <Gold.Version>
5.8.1

> <Gold.Id.Protein>
6NUR|6NUR_protein|mol2

> <Gold.PLP.Fitness>
51.7131

> <Gold.PLP.PLP>
-49.1577

> <Gold.PLP.part.hbond>
-2.2228

> <Gold.PLP.part.metal>
0.0000

> <Gold.PLP.part.buried>
-4.7901

> <Gold.PLP.part.nonpolar>
-41.5313

> <Gold.PLP.part.repulsive>
0.1171

> <Gold.PLP.ligand.clash>
0.0000

> <Gold.PLP.ligand.torsion>
1.1045

> <Gold.PLP.Chemscore.Hbond>
1.5600

> <Gold.PLP.Chemscore.CHOScore>
0.0000

> <Gold.PLP.Chemscore.Metal>
0.0000

> <Gold.Chemscore.Hbonds>
donor molecule, donor type, donor heavy atom, donor atom, acceptor molecule, acceptor atom, score
      P1  H  6931  6943       L1    16  0.61
      P1  H  7989  7998       L1     1  0.98

> <Gold.PLP.Chemscore.Internal.Correction>
0.0843

> <Gold.Rescore>
     Score         DG    S(hbond)    S(metal)    S(lipo)     H(rot)  DE(clash)    DE(int)     intcor
     14.81     -16.22       1.54        0.00     118.43       3.22       0.21       1.20       ----

> <Gold.Chemscore.Fitness>
14.8105

> <Gold.Chemscore.DG>
-16.2237

> <Gold.Chemscore.ZeroCoef>
-5.4800

> <Gold.Chemscore.Hbond>
1.5358

> <Gold.Chemscore.Metal>
0.0000

> <Gold.Chemscore.Lipo>
118.4309

> <Gold.Chemscore.Internal_Hbond>
0.0000

> <Gold.Chemscore.DEClash>
0.2086

> <Gold.Chemscore.DEInternal>
1.2046

> <Gold.Chemscore.Rot>
3.2196

> <Gold.Chemscore.Internal.Correction>
   9.000000E+99

> <Gold.Chemscore.Hbonds>
donor molecule, donor type, donor heavy atom, donor atom, acceptor molecule, acceptor atom, score
      P1  H  6931  6943       L1    16  0.50
      P1  H  7989  7998       L1     1  0.28

> <Gold.Chemscore.Hbond.Weighted>
-5.1295

> <Gold.Chemscore.Metal.Weighted>
-0.0000

> <Gold.Chemscore.Lipo.Weighted>
-13.8564

> <Gold.Chemscore.Internal_Hbond.Weighted>
0.0000

> <Gold.Chemscore.DEClash.Weighted>
0.2086

> <Gold.Chemscore.DEInternal.Weighted>
1.2046

> <Gold.Chemscore.Rot.Weighted>
8.2422

> <Gold.Chemscore.Internal.Correction.Weighted>
   9.000000E+99

> <Gold.Protein.RotatedTorsions>
[ 6907 6896 6895 6894 ] final  -40.56 input  -60.11 | X-H torsion
[ 7974 7965 7964 7962 ] final   81.60 input  175.53 | X-H torsion
[ 8008 7997 7996 7995 ] final  -73.62 input   59.86 | X-H torsion
[ 10167 10162 10161 10158 ] final  -22.62 input  -65.29 | X-H torsion
[ 10718 10713 10712 10709 ] final -133.89 input   66.30 | X-H torsion
[ 10763 10752 10751 10750 ] final  -71.03 input  -60.55 | X-H torsion
[ 11005 11000 10999 10996 ] final  114.08 input  -57.11 | X-H torsion

> <Gold.Protein.ActiveResidues>
 VAL166  LYS551  ARG553  GLY616  TRP617  ASP618  TYR619  PRO620  LYS621  CYS622 
 ASP623  PHE694  ASN695  SER759  ASP760  ASP761  ALA762  ILE779  LEU786  VAL792 
 PHE793  MET794  SER795  GLU796  ALA797  LYS798  CYS799  TRP800  GLU811  SER814 

> <Gold.Protein.RotatedAtoms>
  150.9770  134.9133  159.7821 H   0  0  0  0  0  0  0  0  0  0  0  0  # atno 6907 bound_to 6896
  152.5209  134.3462  159.9244 H   0  0  0  0  0  0  0  0  0  0  0  0  # atno 6908 bound_to 6896
  151.3470  133.3899  159.2711 H   0  0  0  0  0  0  0  0  0  0  0  0  # atno 6909 bound_to 6896
  145.6360  139.2415  143.2057 H   0  0  0  0  0  0  0  0  0  0  0  0  # atno 7974 bound_to 7965
  154.5262  140.0776  156.8263 H   0  0  0  0  0  0  0  0  0  0  0  0  # atno 8008 bound_to 7997
  155.3470  140.3410  155.4221 H   0  0  0  0  0  0  0  0  0  0  0  0  # atno 8009 bound_to 7997
  156.1734  140.1627  156.8393 H   0  0  0  0  0  0  0  0  0  0  0  0  # atno 8010 bound_to 7997
  140.7286  143.4518  151.0505 H   0  0  0  0  0  0  0  0  0  0  0  0  # atno 10167 bound_to 10162
  156.2497  130.7146  151.1040 H   0  0  0  0  0  0  0  0  0  0  0  0  # atno 10718 bound_to 10713
  154.4260  135.5975  153.6039 H   0  0  0  0  0  0  0  0  0  0  0  0  # atno 10763 bound_to 10752
  152.9796  135.5963  154.3897 H   0  0  0  0  0  0  0  0  0  0  0  0  # atno 10764 bound_to 10752
  154.3729  135.2841  155.2234 H   0  0  0  0  0  0  0  0  0  0  0  0  # atno 10765 bound_to 10752
  139.8970  134.9561  156.6837 H   0  0  0  0  0  0  0  0  0  0  0  0  # atno 11005 bound_to 11000
  146.1319  140.7175  142.9408 LP  0  0  0  0  0  0  0  0  0  0  0  0  # atno 17320 bound_to 7965
  144.7175  140.4261  143.7033 LP  0  0  0  0  0  0  0  0  0  0  0  0  # atno 17321 bound_to 7965
  139.8195  143.7839  152.3176 LP  0  0  0  0  0  0  0  0  0  0  0  0  # atno 17342 bound_to 10162
  139.7917  144.7408  150.9946 LP  0  0  0  0  0  0  0  0  0  0  0  0  # atno 17343 bound_to 10162
  157.7209  131.0682  150.6138 LP  0  0  0  0  0  0  0  0  0  0  0  0  # atno 17370 bound_to 10713
  156.6217  130.4407  149.5820 LP  0  0  0  0  0  0  0  0  0  0  0  0  # atno 17371 bound_to 10713
  140.7279  133.9084  155.8191 LP  0  0  0  0  0  0  0  0  0  0  0  0  # atno 17394 bound_to 11000
  141.0176  134.0933  157.4155 LP  0  0  0  0  0  0  0  0  0  0  0  0  # atno 17395 bound_to 11000

$$$$
