#       Name:                AV-unprocessed.smi:1116
#       Creating user name   scv26
#       Creation time:       Fri Mar 27 03:36:15 2020


#       File generated by GOLD software.
#

@<TRIPOS>MOLECULE
AV-unprocessed.smi:1116
    43    44     1
SMALL
NO_CHARGES


@<TRIPOS>ATOM
      1 ****        -6.6520   0.5108  -1.0647 C.3            1 S1                 0.0000
      2 ****        -5.6527   1.0212  -0.0840 C.2            1 S1                 0.0000
      3 ****        -4.3326   0.9670  -0.2784 N.2            1 S1                 0.0000
      4 ****        -3.6079   1.5066   0.7888 C.2            1 S1                 0.0000
      5 ****        -2.1104   1.5241   0.7412 C.3            1 S1                 0.0000
      6 ****        -1.5035   0.1430   1.0411 C.3            1 S1                 0.0000
      7 ****        -0.0459   0.1784   1.0238 N.am           1 S1                 0.0000
      8 ****         0.7138   0.1605  -0.0821 C.2            1 S1                 0.0000
      9 ****         0.2470   0.1192  -1.2208 O.2            1 S1                 0.0000
     10 ****         2.2280   0.2076   0.1377 C.3            1 S1                 0.0000
     11 ****         3.0065  -0.6903  -0.8430 C.3            1 S1                 0.0000
     12 ****         4.5261  -0.6904  -0.5749 C.3            1 S1                 0.0000
     13 ****         4.8561  -1.4488   0.6196 N.pl3          1 S1                -1.0000
     14 ****         5.7113  -2.4407   0.2756 C.2            1 S1                 0.0000
     15 ****         6.2219  -3.2822   1.0116 O.2            1 S1                 0.0000
     16 ****         5.9614  -2.4156  -1.0376 N.am           1 S1                 0.0000
     17 ****         5.3032  -1.4335  -1.6447 C.2            1 S1                 0.0000
     18 ****         5.3100  -1.1579  -2.8437 O.2            1 S1                 0.0000
     19 ****        -4.4063   1.9770   1.8016 C.2            1 S1                 0.0000
     20 ****        -6.0988   1.7568   1.4505 S.3            1 S1                 0.0000
     21 ****        -6.1537   0.0199  -1.9014 H              1 S1                 0.0000
     22 ****        -7.2506   1.3363  -1.4496 H              1 S1                 0.0000
     23 ****        -7.3138  -0.2084  -0.5822 H              1 S1                 0.0000
     24 ****        -1.7800   1.8676  -0.2398 H              1 S1                 0.0000
     25 ****        -1.7253   2.2518   1.4567 H              1 S1                 0.0000
     26 ****        -1.8202  -0.1941   2.0286 H              1 S1                 0.0000
     27 ****        -1.8659  -0.5998   0.3283 H              1 S1                 0.0000
     28 ****         0.4224   0.2108   1.9179 H              1 S1                 0.0000
     29 ****         2.5583   1.2418   0.0363 H              1 S1                 0.0000
     30 ****         2.4492  -0.0905   1.1636 H              1 S1                 0.0000
     31 ****         2.6192  -1.7104  -0.8016 H              1 S1                 0.0000
     32 ****         2.8240  -0.3402  -1.8606 H              1 S1                 0.0000
     33 ****         4.8978   0.3345  -0.5344 H              1 S1                 0.0000
     34 ****         6.5675  -3.0693  -1.5101 H              1 S1                 0.0000
     35 ****        -4.1029   2.4373   2.7302 H              1 S1                 0.0000
     36 ****        -3.9084   0.5823  -1.0982 LP             1 S1                 0.0000
     37 ****        -0.7438   0.0972  -1.3545 LP             1 S1                 0.0000
     38 ****         0.8586   0.1076  -2.0118 LP             1 S1                 0.0000
     39 ****         4.5100  -1.2687   1.5404 LP             1 S1                 0.0000
     40 ****         6.0164  -3.2812   1.9903 LP             1 S1                 0.0000
     41 ****         6.8428  -3.9679   0.6318 LP             1 S1                 0.0000
     42 ****         4.7712  -0.3865  -3.1825 LP             1 S1                 0.0000
     43 ****         5.8542  -1.7052  -3.4795 LP             1 S1                 0.0000
@<TRIPOS>BOND
    1    1    2 1     
    2    1   21 1     
    3    1   22 1     
    4    1   23 1     
    5    2   20 1     
    6    2    3 2     
    7    3    4 1     
    8    4    5 1     
    9    4   19 2     
   10    5    6 1     
   11    5   24 1     
   12    5   25 1     
   13    6    7 1     
   14    6   26 1     
   15    6   27 1     
   16    7    8 am    
   17    7   28 1     
   18    8    9 2     
   19    8   10 1     
   20   10   11 1     
   21   10   29 1     
   22   10   30 1     
   23   11   12 1     
   24   11   31 1     
   25   11   32 1     
   26   12   17 1     
   27   12   13 1     
   28   12   33 1     
   29   13   14 1     
   30   14   15 2     
   31   14   16 am    
   32   16   17 am    
   33   16   34 1     
   34   17   18 2     
   35   19   20 1     
   36   19   35 1     
   37    3   36 1     
   38    9   37 1     
   39    9   38 1     
   40   13   39 1     
   41   15   40 1     
   42   15   41 1     
   43   18   42 1     
   44   18   43 1     
@<TRIPOS>SUBSTRUCTURE
      1 S1             1
@<TRIPOS>SET
LONE_PAIRS      STATIC     ATOMS    <user>   **** ""
8 36 37 38 39 40 41 42 43
DONOR_HYDROGENS      STATIC     ATOMS    <user>   **** ""
2 28 34
ATOM$BLUE        STATIC     ATOMS    COLORGROUP SYSTEM
8 36 37 38 39 40 41 42 43
ATOM$RED        STATIC     ATOMS    COLORGROUP SYSTEM
2 28 34
