AV-unprocessed.smi:3019|AV-procd|sdf|11489|dock6
  -GOLD-   2272016433D 1   1.00000     0.00000
 Structure written by MMmdl.
 30 31  0  0  0  0  0  0  0  0  1 V2000
  152.1869  143.7890  161.3839 C   0  0  0  0  0  0  0  0  0  0  0  0
  152.1088  144.1043  159.8827 C   0  0  0  0  0  0  0  0  0  0  0  0
  151.0423  145.1647  159.5719 C   0  0  0  0  0  0  0  0  0  0  0  0
  151.9074  142.8644  159.0667 C   0  0  0  0  0  0  0  0  0  0  0  0
  151.8447  141.6497  159.6169 N   0  0  0  0  0  0  0  0  0  0  0  0
  151.6727  140.7264  158.6475 N   0  0  0  0  0  0  0  0  0  0  0  0
  151.6271  141.4804  157.5497 C   0  0  0  0  0  0  0  0  0  0  0  0
  151.4877  140.8586  156.1949 C   0  0  2  0  0  0  0  0  0  0  0  0
  150.1774  141.2761  155.4986 C   0  0  0  0  0  0  0  0  0  0  0  0
  150.0302  140.5672  154.2283 N   0  0  0  0  0  0  0  0  0  0  0  0
  150.1153  139.1202  154.4203 C   0  0  0  0  0  0  0  0  0  0  0  0
  151.4233  138.7517  155.1440 C   0  0  0  0  0  0  0  0  0  0  0  0
  151.4942  139.4452  156.3850 O   0  0  0  0  0  0  0  0  0  0  0  0
  151.7867  142.8257  157.7435 N   0  0  0  0  0  0  0  0  0  0  0  0
  152.9907  143.0830  161.5952 H   0  0  0  0  0  0  0  0  0  0  0  0
  151.2560  143.3512  161.7463 H   0  0  0  0  0  0  0  0  0  0  0  0
  152.3781  144.6910  161.9657 H   0  0  0  0  0  0  0  0  0  0  0  0
  153.0727  144.5278  159.5959 H   0  0  0  0  0  0  0  0  0  0  0  0
  151.0409  145.4200  158.5118 H   0  0  0  0  0  0  0  0  0  0  0  0
  151.2250  146.0818  160.1323 H   0  0  0  0  0  0  0  0  0  0  0  0
  150.0436  144.8106  159.8303 H   0  0  0  0  0  0  0  0  0  0  0  0
  152.3476  141.1461  155.5861 H   0  0  0  0  0  0  0  0  0  0  0  0
  149.3284  141.0512  156.1456 H   0  0  0  0  0  0  0  0  0  0  0  0
  150.1667  142.3533  155.3302 H   0  0  0  0  0  0  0  0  0  0  0  0
  149.2631  138.7730  155.0058 H   0  0  0  0  0  0  0  0  0  0  0  0
  150.0629  138.6110  153.4580 H   0  0  0  0  0  0  0  0  0  0  0  0
  151.4554  137.6795  155.3380 H   0  0  0  0  0  0  0  0  0  0  0  0
  152.2919  138.9897  154.5278 H   0  0  0  0  0  0  0  0  0  0  0  0
  149.1359  140.8023  153.8096 H   0  0  0  0  0  0  0  0  0  0  0  0
  151.9194  141.4140  160.5962 H   0  0  0  0  0  0  0  0  0  0  0  0
  1  2  1  0  0  0  0
  1 15  1  0  0  0  0
  1 16  1  0  0  0  0
  1 17  1  0  0  0  0
  2  3  1  0  0  0  0
  2  4  1  0  0  0  0
  2 18  1  0  0  0  0
  3 19  1  0  0  0  0
  3 20  1  0  0  0  0
  3 21  1  0  0  0  0
  4 14  2  0  0  0  0
  4  5  1  0  0  0  0
  5  6  1  0  0  0  0
  5 30  1  0  0  0  0
  6  7  2  0  0  0  0
  7  8  1  0  0  0  0
  7 14  1  0  0  0  0
  8 13  1  0  0  0  0
  8  9  1  0  0  0  0
  8 22  1  0  0  0  0
  9 10  1  0  0  0  0
  9 23  1  0  0  0  0
  9 24  1  0  0  0  0
 10 11  1  0  0  0  0
 10 29  1  0  0  0  0
 11 12  1  0  0  0  0
 11 25  1  0  0  0  0
 11 26  1  0  0  0  0
 12 13  1  0  0  0  0
 12 27  1  0  0  0  0
 12 28  1  0  0  0  0
M  END
> <s_m_source_file>
AV-unprocessed.smi

> <i_m_source_file_index>
3019

> <i_lp_mmshare_version>
43012

> <i_f3d_flags>
0

> <s_epik_input>
W0NIM11bQ0hdKFtDSDNdKWMxbltuSF1jKG4xKVtDQEBIXTJbQ0gyXVtOSF1bQ0gyXVtDSDJdTzI=

> <s_epik_cmdline>
J2VwaWtfcHl0aG9uJywgJy1waCcsICc3LjAnLCAnLXRuJywgJzgnLCAnLW1hJywgJzIwMCcsICctbWV0YWxfYmluZGluZycsICctaW1hZScsICc8aW5maWxlLm1hZT4nLCAnLW9tYWUnLCAnPG91dGZpbGUubWFlPic=

> <r_lp_tautomer_probability>
0.948284

> <r_epik_Ionization_Penalty>
1.10045

> <r_epik_Ionization_Penalty_Charging>
0

> <r_epik_Ionization_Penalty_Neutral>
1.10045

> <r_epik_State_Penalty>
1.2625

> <r_epik_Charging_Adjusted_Penalty>
1.2625

> <i_epik_Tot_Q>
0

> <i_epik_Tot_abs_Q>
0

> <r_epik_Metal_State_Penalty>
1.57133

> <b_epik_Metal_Only>
0

> <s_lp_Force_Field>
OPLS_2005

> <r_lp_Energy>
11.1222

> <b_lp_Chiralities_Consistent>
1

> <s_lp_Variant>
AV-unprocessed.smi:3019-5

> <Gold.Version>
5.8.1

> <Gold.Id.Protein>
6NUR|6NUR_protein|mol2

> <Gold.PLP.Fitness>
32.0325

> <Gold.PLP.PLP>
-29.7430

> <Gold.PLP.part.hbond>
-1.5624

> <Gold.PLP.part.metal>
0.0000

> <Gold.PLP.part.buried>
-4.8615

> <Gold.PLP.part.nonpolar>
-23.4249

> <Gold.PLP.part.repulsive>
0.1915

> <Gold.PLP.ligand.clash>
0.0000

> <Gold.PLP.ligand.torsion>
0.1062

> <Gold.PLP.Chemscore.Hbond>
0.8160

> <Gold.PLP.Chemscore.CHOScore>
0.0000

> <Gold.PLP.Chemscore.Metal>
0.0000

> <Gold.Chemscore.Hbonds>
donor molecule, donor type, donor heavy atom, donor atom, acceptor molecule, acceptor atom, score
      P1  H  7989  7998       L1    10  0.77

> <Gold.PLP.Chemscore.Internal.Correction>
0.0539

> <Gold.Rescore>
     Score         DG    S(hbond)    S(metal)    S(lipo)     H(rot)  DE(clash)    DE(int)     intcor
     10.55     -10.65       0.33        0.00      62.33       1.26       0.02       0.08       ----

> <Gold.Chemscore.Fitness>
10.5485

> <Gold.Chemscore.DG>
-10.6488

> <Gold.Chemscore.ZeroCoef>
-5.4800

> <Gold.Chemscore.Hbond>
0.3298

> <Gold.Chemscore.Metal>
0.0000

> <Gold.Chemscore.Lipo>
62.3272

> <Gold.Chemscore.Internal_Hbond>
0.0000

> <Gold.Chemscore.DEClash>
0.0210

> <Gold.Chemscore.DEInternal>
0.0793

> <Gold.Chemscore.Rot>
1.2598

> <Gold.Chemscore.Internal.Correction>
   9.000000E+99

> <Gold.Chemscore.Hbonds>
donor molecule, donor type, donor heavy atom, donor atom, acceptor molecule, acceptor atom, score
      P1  H  7989  7998       L1    10  0.07

> <Gold.Chemscore.Hbond.Weighted>
-1.1016

> <Gold.Chemscore.Metal.Weighted>
-0.0000

> <Gold.Chemscore.Lipo.Weighted>
-7.2923

> <Gold.Chemscore.Internal_Hbond.Weighted>
0.0000

> <Gold.Chemscore.DEClash.Weighted>
0.0210

> <Gold.Chemscore.DEInternal.Weighted>
0.0793

> <Gold.Chemscore.Rot.Weighted>
3.2251

> <Gold.Chemscore.Internal.Correction.Weighted>
   9.000000E+99

> <Gold.Protein.RotatedTorsions>
[ 6907 6896 6895 6894 ] final   39.33 input  -60.11 | X-H torsion
[ 7974 7965 7964 7962 ] final -170.66 input  175.53 | X-H torsion
[ 8008 7997 7996 7995 ] final  171.09 input   59.86 | X-H torsion
[ 10167 10162 10161 10158 ] final -175.54 input  -65.29 | X-H torsion
[ 10718 10713 10712 10709 ] final   58.22 input   66.30 | X-H torsion
[ 10763 10752 10751 10750 ] final  170.49 input  -60.55 | X-H torsion
[ 11005 11000 10999 10996 ] final  101.32 input  -57.11 | X-H torsion

> <Gold.Protein.ActiveResidues>
 VAL166  LYS551  ARG553  GLY616  TRP617  ASP618  TYR619  PRO620  LYS621  CYS622 
 ASP623  PHE694  ASN695  SER759  ASP760  ASP761  ALA762  ILE779  LEU786  VAL792 
 PHE793  MET794  SER795  GLU796  ALA797  LYS798  CYS799  TRP800  GLU811  SER814 

> <Gold.Protein.RotatedAtoms>
  152.1682  134.8856  160.0536 H   0  0  0  0  0  0  0  0  0  0  0  0  # atno 6907 bound_to 6896
  151.9826  133.3758  159.4121 H   0  0  0  0  0  0  0  0  0  0  0  0  # atno 6908 bound_to 6896
  150.6898  134.3945  159.5135 H   0  0  0  0  0  0  0  0  0  0  0  0  # atno 6909 bound_to 6896
  144.7167  140.2039  143.6335 H   0  0  0  0  0  0  0  0  0  0  0  0  # atno 7974 bound_to 7965
  156.1304  140.1521  156.9073 H   0  0  0  0  0  0  0  0  0  0  0  0  # atno 8008 bound_to 7997
  154.4905  140.0853  156.7623 H   0  0  0  0  0  0  0  0  0  0  0  0  # atno 8009 bound_to 7997
  155.4266  140.3425  155.4278 H   0  0  0  0  0  0  0  0  0  0  0  0  # atno 8010 bound_to 7997
  139.5576  144.1951  152.1185 H   0  0  0  0  0  0  0  0  0  0  0  0  # atno 10167 bound_to 10162
  157.5578  130.8813  149.9063 H   0  0  0  0  0  0  0  0  0  0  0  0  # atno 10718 bound_to 10713
  154.3983  135.2754  155.2112 H   0  0  0  0  0  0  0  0  0  0  0  0  # atno 10763 bound_to 10752
  154.4149  135.6014  153.5978 H   0  0  0  0  0  0  0  0  0  0  0  0  # atno 10764 bound_to 10752
  152.9831  135.5958  154.4248 H   0  0  0  0  0  0  0  0  0  0  0  0  # atno 10765 bound_to 10752
  139.8773  134.9178  156.4889 H   0  0  0  0  0  0  0  0  0  0  0  0  # atno 11005 bound_to 11000
  145.8654  139.2244  143.1692 LP  0  0  0  0  0  0  0  0  0  0  0  0  # atno 17320 bound_to 7965
  146.0134  140.8414  142.9959 LP  0  0  0  0  0  0  0  0  0  0  0  0  # atno 17321 bound_to 7965
  140.1458  144.5160  150.6717 LP  0  0  0  0  0  0  0  0  0  0  0  0  # atno 17342 bound_to 10162
  140.6851  143.2346  151.5282 LP  0  0  0  0  0  0  0  0  0  0  0  0  # atno 17343 bound_to 10162
  156.0635  130.3696  150.0930 LP  0  0  0  0  0  0  0  0  0  0  0  0  # atno 17370 bound_to 10713
  156.9097  130.9648  151.3564 LP  0  0  0  0  0  0  0  0  0  0  0  0  # atno 17371 bound_to 10713
  140.8673  133.8015  155.9327 LP  0  0  0  0  0  0  0  0  0  0  0  0  # atno 17394 bound_to 11000
  140.8989  134.2403  157.5053 LP  0  0  0  0  0  0  0  0  0  0  0  0  # atno 17395 bound_to 11000

$$$$
