AV-unprocessed.smi:3259|AV-procd|sdf|12475|dock6
  -GOLD-   2272018373D 1   1.00000     0.00000
 Structure written by MMmdl.
 39 40  0  0  0  0  0  0  0  0  1 V2000
  152.1519  138.4707  154.6721 C   0  0  0  0  0  0  0  0  0  0  0  0
  151.5039  139.7248  154.5030 O   0  0  0  0  0  0  0  0  0  0  0  0
  150.1218  139.7780  154.8602 C   0  0  2  0  0  0  0  0  0  0  0  0
  149.3632  138.6209  154.1916 C   0  0  0  0  0  0  0  0  0  0  0  0
  149.5373  141.1963  154.7252 C   0  0  0  0  0  0  0  0  0  0  0  0
  148.8580  140.9492  156.0704 C   0  0  2  0  0  0  0  0  0  0  0  0
  148.8083  142.1457  156.9028 N   0  0  0  0  0  0  0  0  0  0  0  0
  148.9369  142.1462  158.2381 C   0  0  0  0  0  0  0  0  0  0  0  0
  149.1194  141.1256  158.9009 O   0  0  0  0  0  0  0  0  0  0  0  0
  148.8563  143.5067  158.9322 C   0  0  0  0  0  0  0  0  0  0  0  0
  150.1791  144.0225  159.2372 N   0  0  0  0  0  0  0  0  0  0  0  0
  151.1131  144.5535  158.3717 C   0  0  0  0  0  0  0  0  0  0  0  0
  152.2004  144.9120  159.1161 C   0  0  0  0  0  0  0  0  0  0  0  0
  151.8336  144.5548  160.4437 C   0  0  0  0  0  0  0  0  0  0  0  0
  150.6242  144.0222  160.5130 N   0  0  0  0  0  0  0  0  0  0  0  0
  150.0066  139.9643  156.4085 C   0  0  0  0  0  0  0  0  0  0  0  0
  149.6088  138.7310  157.2257 C   0  0  0  0  0  0  0  0  0  0  0  0
  151.2433  140.5552  157.1152 C   0  0  0  0  0  0  0  0  0  0  0  0
  153.1658  138.5389  154.2785 H   0  0  0  0  0  0  0  0  0  0  0  0
  151.6427  137.6716  154.1330 H   0  0  0  0  0  0  0  0  0  0  0  0
  152.2318  138.1914  155.7223 H   0  0  0  0  0  0  0  0  0  0  0  0
  148.3364  138.5478  154.5493 H   0  0  0  0  0  0  0  0  0  0  0  0
  149.8469  137.6640  154.3891 H   0  0  0  0  0  0  0  0  0  0  0  0
  149.3019  138.7447  153.1108 H   0  0  0  0  0  0  0  0  0  0  0  0
  150.2902  141.9865  154.7515 H   0  0  0  0  0  0  0  0  0  0  0  0
  148.8488  141.3295  153.8903 H   0  0  0  0  0  0  0  0  0  0  0  0
  147.8912  140.4549  155.9504 H   0  0  0  0  0  0  0  0  0  0  0  0
  148.6629  143.0280  156.4341 H   0  0  0  0  0  0  0  0  0  0  0  0
  148.3268  144.2204  158.2991 H   0  0  0  0  0  0  0  0  0  0  0  0
  148.2881  143.4182  159.8592 H   0  0  0  0  0  0  0  0  0  0  0  0
  150.9269  144.6332  157.3109 H   0  0  0  0  0  0  0  0  0  0  0  0
  153.1180  145.3608  158.7660 H   0  0  0  0  0  0  0  0  0  0  0  0
  152.4064  144.6661  161.3524 H   0  0  0  0  0  0  0  0  0  0  0  0
  149.4621  138.9779  158.2776 H   0  0  0  0  0  0  0  0  0  0  0  0
  150.3730  137.9550  157.1731 H   0  0  0  0  0  0  0  0  0  0  0  0
  148.6746  138.2919  156.8765 H   0  0  0  0  0  0  0  0  0  0  0  0
  151.0244  140.8313  158.1472 H   0  0  0  0  0  0  0  0  0  0  0  0
  151.6169  141.4504  156.6181 H   0  0  0  0  0  0  0  0  0  0  0  0
  152.0658  139.8395  157.1420 H   0  0  0  0  0  0  0  0  0  0  0  0
  1  2  1  0  0  0  0
  1 19  1  0  0  0  0
  1 20  1  0  0  0  0
  1 21  1  0  0  0  0
  2  3  1  0  0  0  0
  3 16  1  0  0  0  0
  3  4  1  0  0  0  0
  3  5  1  0  0  0  0
  4 22  1  0  0  0  0
  4 23  1  0  0  0  0
  4 24  1  0  0  0  0
  5  6  1  0  0  0  0
  5 25  1  0  0  0  0
  5 26  1  0  0  0  0
  6  7  1  0  0  0  0
  6 16  1  0  0  0  0
  6 27  1  0  0  0  0
  7  8  1  0  0  0  0
  7 28  1  0  0  0  0
  8  9  2  0  0  0  0
  8 10  1  0  0  0  0
 10 11  1  0  0  0  0
 10 29  1  0  0  0  0
 10 30  1  0  0  0  0
 11 15  1  0  0  0  0
 11 12  1  0  0  0  0
 12 13  2  0  0  0  0
 12 31  1  0  0  0  0
 13 14  1  0  0  0  0
 13 32  1  0  0  0  0
 14 15  2  0  0  0  0
 14 33  1  0  0  0  0
 16 17  1  0  0  0  0
 16 18  1  0  0  0  0
 17 34  1  0  0  0  0
 17 35  1  0  0  0  0
 17 36  1  0  0  0  0
 18 37  1  0  0  0  0
 18 38  1  0  0  0  0
 18 39  1  0  0  0  0
M  END
> <s_m_source_file>
AV-unprocessed.smi

> <i_m_source_file_index>
3259

> <i_lp_mmshare_version>
43012

> <i_f3d_flags>
0

> <s_epik_input>
W0NIM11PW0NAQF0xKFtDSDNdKVtDSDJdW0NASF0oQzEoW0NIM10pW0NIM10pW05IXUMoPU8pW0NIMl1uMltjSF1bY0hdW2NIXW4y

> <s_epik_cmdline>
J2VwaWtfcHl0aG9uJywgJy1waCcsICc3LjAnLCAnLXRuJywgJzgnLCAnLW1hJywgJzIwMCcsICctbWV0YWxfYmluZGluZycsICctaW1hZScsICc8aW5maWxlLm1hZT4nLCAnLW9tYWUnLCAnPG91dGZpbGUubWFlPic=

> <r_lp_tautomer_probability>
1

> <r_epik_Ionization_Penalty>
1.78399e-05

> <r_epik_Ionization_Penalty_Charging>
0

> <r_epik_Ionization_Penalty_Neutral>
1.78399e-05

> <r_epik_State_Penalty>
-0

> <r_epik_Charging_Adjusted_Penalty>
0

> <i_epik_Tot_Q>
0

> <i_epik_Tot_abs_Q>
0

> <r_epik_Metal_State_Penalty>
-0

> <b_epik_Metal_Only>
0

> <s_lp_Force_Field>
OPLS_2005

> <r_lp_Energy>
24.0627

> <b_lp_Chiralities_Consistent>
1

> <s_lp_Variant>
AV-unprocessed.smi:3259-4

> <Gold.Version>
5.8.1

> <Gold.Id.Protein>
6NUR|6NUR_protein|mol2

> <Gold.PLP.Fitness>
40.0866

> <Gold.PLP.PLP>
-32.4054

> <Gold.PLP.part.hbond>
-4.2234

> <Gold.PLP.part.metal>
0.0000

> <Gold.PLP.part.buried>
-0.2092

> <Gold.PLP.part.nonpolar>
-28.8462

> <Gold.PLP.part.repulsive>
0.2495

> <Gold.PLP.ligand.clash>
0.0000

> <Gold.PLP.ligand.torsion>
0.8453

> <Gold.PLP.Chemscore.Hbond>
2.0000

> <Gold.PLP.Chemscore.CHOScore>
1.0000

> <Gold.PLP.Chemscore.Metal>
0.0000

> <Gold.Chemscore.Hbonds>
donor molecule, donor type, donor heavy atom, donor atom, acceptor molecule, acceptor atom, score
      L1  H     7    28       P1  8028  1.00
      P1  H  7989  7998       L1     2  0.98
      L1  C    12    31       P1  8028  0.86

> <Gold.PLP.Chemscore.Internal.Correction>
0.3719

> <Gold.Rescore>
     Score         DG    S(hbond)    S(metal)    S(lipo)     H(rot)  DE(clash)    DE(int)     intcor
     15.71     -17.86       1.96        0.00      84.77       1.60       1.40       0.75       ----

> <Gold.Chemscore.Fitness>
15.7053

> <Gold.Chemscore.DG>
-17.8639

> <Gold.Chemscore.ZeroCoef>
-5.4800

> <Gold.Chemscore.Hbond>
1.9616

> <Gold.Chemscore.Metal>
0.0000

> <Gold.Chemscore.Lipo>
84.7731

> <Gold.Chemscore.Internal_Hbond>
0.0000

> <Gold.Chemscore.DEClash>
1.4047

> <Gold.Chemscore.DEInternal>
0.7539

> <Gold.Chemscore.Rot>
1.5962

> <Gold.Chemscore.Internal.Correction>
   9.000000E+99

> <Gold.Chemscore.Hbonds>
donor molecule, donor type, donor heavy atom, donor atom, acceptor molecule, acceptor atom, score
      L1  H     7    28       P1  8028  0.93
      P1  H  7989  7998       L1     2  0.41

> <Gold.Chemscore.Hbond.Weighted>
-6.5517

> <Gold.Chemscore.Metal.Weighted>
-0.0000

> <Gold.Chemscore.Lipo.Weighted>
-9.9185

> <Gold.Chemscore.Internal_Hbond.Weighted>
0.0000

> <Gold.Chemscore.DEClash.Weighted>
1.4047

> <Gold.Chemscore.DEInternal.Weighted>
0.7539

> <Gold.Chemscore.Rot.Weighted>
4.0862

> <Gold.Chemscore.Internal.Correction.Weighted>
   9.000000E+99

> <Gold.Protein.RotatedTorsions>
[ 6907 6896 6895 6894 ] final   40.60 input  -60.11 | X-H torsion
[ 7974 7965 7964 7962 ] final  146.65 input  175.53 | X-H torsion
[ 8008 7997 7996 7995 ] final  133.92 input   59.86 | X-H torsion
[ 10167 10162 10161 10158 ] final   20.71 input  -65.29 | X-H torsion
[ 10718 10713 10712 10709 ] final  148.61 input   66.30 | X-H torsion
[ 10763 10752 10751 10750 ] final   46.05 input  -60.55 | X-H torsion
[ 11005 11000 10999 10996 ] final   29.64 input  -57.11 | X-H torsion

> <Gold.Protein.ActiveResidues>
 VAL166  LYS551  ARG553  GLY616  TRP617  ASP618  TYR619  PRO620  LYS621  CYS622 
 ASP623  PHE694  ASN695  SER759  ASP760  ASP761  ALA762  ILE779  LEU786  VAL792 
 PHE793  MET794  SER795  GLU796  ALA797  LYS798  CYS799  TRP800  GLU811  SER814 

> <Gold.Protein.RotatedAtoms>
  152.1846  134.8725  160.0523 H   0  0  0  0  0  0  0  0  0  0  0  0  # atno 6907 bound_to 6896
  151.9636  133.3698  159.4053 H   0  0  0  0  0  0  0  0  0  0  0  0  # atno 6908 bound_to 6896
  150.6923  134.4138  159.5217 H   0  0  0  0  0  0  0  0  0  0  0  0  # atno 6909 bound_to 6896
  144.8654  139.5931  143.5911 H   0  0  0  0  0  0  0  0  0  0  0  0  # atno 7974 bound_to 7965
  156.2996  140.2509  156.3333 H   0  0  0  0  0  0  0  0  0  0  0  0  # atno 8008 bound_to 7997
  154.9124  140.0403  157.1973 H   0  0  0  0  0  0  0  0  0  0  0  0  # atno 8009 bound_to 7997
  154.8392  140.2888  155.5675 H   0  0  0  0  0  0  0  0  0  0  0  0  # atno 8010 bound_to 7997
  140.5482  143.9556  150.6561 H   0  0  0  0  0  0  0  0  0  0  0  0  # atno 10167 bound_to 10162
  157.3065  131.0880  151.1350 H   0  0  0  0  0  0  0  0  0  0  0  0  # atno 10718 bound_to 10713
  152.9816  135.6020  154.3537 H   0  0  0  0  0  0  0  0  0  0  0  0  # atno 10763 bound_to 10752
  154.3224  135.2769  155.2514 H   0  0  0  0  0  0  0  0  0  0  0  0  # atno 10764 bound_to 10752
  154.4675  135.5950  153.6354 H   0  0  0  0  0  0  0  0  0  0  0  0  # atno 10765 bound_to 10752
  140.3028  134.2737  155.7750 H   0  0  0  0  0  0  0  0  0  0  0  0  # atno 11005 bound_to 11000
  146.2892  139.7090  142.9173 LP  0  0  0  0  0  0  0  0  0  0  0  0  # atno 17320 bound_to 7965
  145.4231  141.0408  143.2952 LP  0  0  0  0  0  0  0  0  0  0  0  0  # atno 17321 bound_to 7965
  140.2975  143.3283  152.1004 LP  0  0  0  0  0  0  0  0  0  0  0  0  # atno 17342 bound_to 10162
  139.5016  144.6717  151.6225 LP  0  0  0  0  0  0  0  0  0  0  0  0  # atno 17343 bound_to 10162
  157.2688  130.6694  149.6010 LP  0  0  0  0  0  0  0  0  0  0  0  0  # atno 17370 bound_to 10713
  155.9675  130.4485  150.5623 LP  0  0  0  0  0  0  0  0  0  0  0  0  # atno 17371 bound_to 10713
  141.2124  133.7657  156.9792 LP  0  0  0  0  0  0  0  0  0  0  0  0  # atno 17394 bound_to 11000
  140.1094  134.9486  157.2042 LP  0  0  0  0  0  0  0  0  0  0  0  0  # atno 17395 bound_to 11000

$$$$
