AV-unprocessed.smi:1570|AV-procd|sdf|6313|dock4
  -GOLD-   22720 6513D 1   1.00000     0.00000
 Structure written by MMmdl.
 51 53  0  0  0  0  0  0  0  0  1 V2000
  156.0611  139.3906  160.0778 C   0  0  0  0  0  0  0  0  0  0  0  0
  154.7975  139.4435  160.9456 C   0  0  0  0  0  0  0  0  0  0  0  0
  153.9909  140.6212  160.6347 N   0  0  0  0  0  0  0  0  0  0  0  0
  153.3796  140.8914  159.4577 C   0  0  0  0  0  0  0  0  0  0  0  0
  153.4059  140.1832  158.4511 O   0  0  0  0  0  0  0  0  0  0  0  0
  152.7281  142.0723  159.5812 N   0  0  0  0  0  0  0  0  0  0  0  0
  151.9525  142.7477  158.5382 C   0  0  0  0  0  0  0  0  0  0  0  0
  151.0765  141.7716  157.7190 C   0  0  1  0  0  0  0  0  0  0  0  0
  149.7854  141.6872  158.2858 O   0  0  0  0  0  0  0  0  0  0  0  0
  150.9858  142.0670  156.2027 C   0  0  0  0  0  0  0  0  0  0  0  0
  150.7429  140.9205  155.3248 N   0  0  0  0  0  0  0  0  0  0  0  0
  149.3296  140.7270  155.0148 C   0  0  0  0  0  0  0  0  0  0  0  0
  149.1029  139.5114  154.0949 C   0  0  2  0  0  0  0  0  0  0  0  0
  147.6152  139.2467  153.8422 C   0  0  0  0  0  0  0  0  0  0  0  0
  149.6684  138.3517  154.6999 O   0  0  0  0  0  0  0  0  0  0  0  0
  151.0601  138.4823  154.9750 C   0  0  2  0  0  0  0  0  0  0  0  0
  151.5540  137.1753  155.6035 C   0  0  0  0  0  0  0  0  0  0  0  0
  151.2743  139.6926  155.9027 C   0  0  0  0  0  0  0  0  0  0  0  0
  152.9007  142.5547  160.8894 C   0  0  0  0  0  0  0  0  0  0  0  0
  152.4174  143.7123  161.5262 C   0  0  0  0  0  0  0  0  0  0  0  0
  152.7899  143.9156  162.8752 C   0  0  0  0  0  0  0  0  0  0  0  0
  153.6134  142.9786  163.5502 C   0  0  0  0  0  0  0  0  0  0  0  0
  154.0819  141.8189  162.8901 C   0  0  0  0  0  0  0  0  0  0  0  0
  153.7005  141.6439  161.5482 C   0  0  0  0  0  0  0  0  0  0  0  0
  156.6520  138.5038  160.3076 H   0  0  0  0  0  0  0  0  0  0  0  0
  156.6929  140.2633  160.2469 H   0  0  0  0  0  0  0  0  0  0  0  0
  155.8109  139.3576  159.0170 H   0  0  0  0  0  0  0  0  0  0  0  0
  154.2031  138.5416  160.7965 H   0  0  0  0  0  0  0  0  0  0  0  0
  155.0732  139.4510  162.0011 H   0  0  0  0  0  0  0  0  0  0  0  0
  151.3195  143.4999  159.0117 H   0  0  0  0  0  0  0  0  0  0  0  0
  152.6166  143.3002  157.8742 H   0  0  0  0  0  0  0  0  0  0  0  0
  151.4920  140.7691  157.8232 H   0  0  0  0  0  0  0  0  0  0  0  0
  149.1576  141.5895  157.5860 H   0  0  0  0  0  0  0  0  0  0  0  0
  150.1549  142.7628  156.0775 H   0  0  0  0  0  0  0  0  0  0  0  0
  151.8697  142.6153  155.8731 H   0  0  0  0  0  0  0  0  0  0  0  0
  148.7642  140.5974  155.9390 H   0  0  0  0  0  0  0  0  0  0  0  0
  148.9281  141.6117  154.5227 H   0  0  0  0  0  0  0  0  0  0  0  0
  149.5949  139.6830  153.1362 H   0  0  0  0  0  0  0  0  0  0  0  0
  147.1391  140.1052  153.3679 H   0  0  0  0  0  0  0  0  0  0  0  0
  147.0869  139.0428  154.7741 H   0  0  0  0  0  0  0  0  0  0  0  0
  147.4786  138.3867  153.1864 H   0  0  0  0  0  0  0  0  0  0  0  0
  151.5932  138.6421  154.0362 H   0  0  0  0  0  0  0  0  0  0  0  0
  152.6213  137.2236  155.8209 H   0  0  0  0  0  0  0  0  0  0  0  0
  151.3898  136.3334  154.9304 H   0  0  0  0  0  0  0  0  0  0  0  0
  151.0308  136.9634  156.5364 H   0  0  0  0  0  0  0  0  0  0  0  0
  152.3412  139.8095  156.0972 H   0  0  0  0  0  0  0  0  0  0  0  0
  150.7996  139.5032  156.8668 H   0  0  0  0  0  0  0  0  0  0  0  0
  151.7934  144.4275  161.0124 H   0  0  0  0  0  0  0  0  0  0  0  0
  152.4432  144.7957  163.3967 H   0  0  0  0  0  0  0  0  0  0  0  0
  153.8854  143.1522  164.5810 H   0  0  0  0  0  0  0  0  0  0  0  0
  154.7064  141.1007  163.4004 H   0  0  0  0  0  0  0  0  0  0  0  0
  1  2  1  0  0  0  0
  1 25  1  0  0  0  0
  1 26  1  0  0  0  0
  1 27  1  0  0  0  0
  2  3  1  0  0  0  0
  2 28  1  0  0  0  0
  2 29  1  0  0  0  0
  3 24  1  0  0  0  0
  3  4  1  0  0  0  0
  4  5  2  0  0  0  0
  4  6  1  0  0  0  0
  6  7  1  0  0  0  0
  6 19  1  0  0  0  0
  7  8  1  0  0  0  0
  7 30  1  0  0  0  0
  7 31  1  0  0  0  0
  8  9  1  0  0  0  0
  8 10  1  0  0  0  0
  8 32  1  0  0  0  0
  9 33  1  0  0  0  0
 10 11  1  0  0  0  0
 10 34  1  0  0  0  0
 10 35  1  0  0  0  0
 11 18  1  0  0  0  0
 11 12  1  0  0  0  0
 12 13  1  0  0  0  0
 12 36  1  0  0  0  0
 12 37  1  0  0  0  0
 13 14  1  0  0  0  0
 13 15  1  0  0  0  0
 13 38  1  0  0  0  0
 14 39  1  0  0  0  0
 14 40  1  0  0  0  0
 14 41  1  0  0  0  0
 15 16  1  0  0  0  0
 16 17  1  0  0  0  0
 16 18  1  0  0  0  0
 16 42  1  0  0  0  0
 17 43  1  0  0  0  0
 17 44  1  0  0  0  0
 17 45  1  0  0  0  0
 18 46  1  0  0  0  0
 18 47  1  0  0  0  0
 19 24  2  0  0  0  0
 19 20  1  0  0  0  0
 20 21  2  0  0  0  0
 20 48  1  0  0  0  0
 21 22  1  0  0  0  0
 21 49  1  0  0  0  0
 22 23  2  0  0  0  0
 22 50  1  0  0  0  0
 23 24  1  0  0  0  0
 23 51  1  0  0  0  0
M  END
> <s_m_source_file>
AV-unprocessed.smi

> <i_m_source_file_index>
1570

> <i_lp_mmshare_version>
43012

> <i_f3d_flags>
0

> <s_epik_input>
W2NIXTFbY0hdW2NIXVtjSF1jKGMxMiluKFtDSDJdW0NIM10pYyg9TyluMltDSDJdW0NASF0oW09IXSlbQ0gyXU4zW0NIMl1bQ0BASF0oW0NIM10pT1tDQEBIXShbQ0gzXSlbQ0gyXTM=

> <s_epik_cmdline>
J2VwaWtfcHl0aG9uJywgJy1waCcsICc3LjAnLCAnLXRuJywgJzgnLCAnLW1hJywgJzIwMCcsICctbWV0YWxfYmluZGluZycsICctaW1hZScsICc8aW5maWxlLm1hZT4nLCAnLW9tYWUnLCAnPG91dGZpbGUubWFlPic=

> <r_epik_Ionization_Penalty>
0.214359

> <r_epik_Ionization_Penalty_Charging>
2.30976e-09

> <r_epik_Ionization_Penalty_Neutral>
0.214359

> <r_epik_State_Penalty>
0.204533

> <r_epik_Charging_Adjusted_Penalty>
0.204533

> <i_epik_Tot_Q>
0

> <i_epik_Tot_abs_Q>
0

> <r_epik_Metal_State_Penalty>
0.204533

> <b_epik_Metal_Only>
0

> <s_lp_Force_Field>
OPLS_2005

> <r_lp_Energy>
59.6928

> <b_lp_Chiralities_Consistent>
1

> <s_lp_Variant>
AV-unprocessed.smi:1570-2

> <Gold.Version>
5.8.1

> <Gold.Id.Protein>
6NUR|6NUR_protein|mol2

> <Gold.PLP.Fitness>
53.4554

> <Gold.PLP.PLP>
-51.0575

> <Gold.PLP.part.hbond>
-2.0000

> <Gold.PLP.part.metal>
0.0000

> <Gold.PLP.part.buried>
-1.2021

> <Gold.PLP.part.nonpolar>
-46.8946

> <Gold.PLP.part.repulsive>
0.2353

> <Gold.PLP.ligand.clash>
0.0000

> <Gold.PLP.ligand.torsion>
1.4475

> <Gold.PLP.Chemscore.Hbond>
1.7280

> <Gold.PLP.Chemscore.CHOScore>
0.0000

> <Gold.PLP.Chemscore.Metal>
0.0000

> <Gold.Chemscore.Hbonds>
donor molecule, donor type, donor heavy atom, donor atom, acceptor molecule, acceptor atom, score
      P1  H  7989  7998       L1    11  0.75
      P1  H  7997  8009       L1     5  0.96

> <Gold.PLP.Chemscore.Internal.Correction>
0.1088

> <Gold.Rescore>
     Score         DG    S(hbond)    S(metal)    S(lipo)     H(rot)  DE(clash)    DE(int)     intcor
     17.53     -20.75       1.13        0.00     143.23       2.06       0.70       2.52       ----

> <Gold.Chemscore.Fitness>
17.5270

> <Gold.Chemscore.DG>
-20.7532

> <Gold.Chemscore.ZeroCoef>
-5.4800

> <Gold.Chemscore.Hbond>
1.1322

> <Gold.Chemscore.Metal>
0.0000

> <Gold.Chemscore.Lipo>
143.2350

> <Gold.Chemscore.Internal_Hbond>
0.0000

> <Gold.Chemscore.DEClash>
0.7018

> <Gold.Chemscore.DEInternal>
2.5243

> <Gold.Chemscore.Rot>
2.0574

> <Gold.Chemscore.Internal.Correction>
   9.000000E+99

> <Gold.Chemscore.Hbonds>
donor molecule, donor type, donor heavy atom, donor atom, acceptor molecule, acceptor atom, score
      P1  H  7989  7998       L1    11  0.09
      P1  H  7997  8009       L1     5  0.92

> <Gold.Chemscore.Hbond.Weighted>
-3.7816

> <Gold.Chemscore.Metal.Weighted>
-0.0000

> <Gold.Chemscore.Lipo.Weighted>
-16.7585

> <Gold.Chemscore.Internal_Hbond.Weighted>
0.0000

> <Gold.Chemscore.DEClash.Weighted>
0.7018

> <Gold.Chemscore.DEInternal.Weighted>
2.5243

> <Gold.Chemscore.Rot.Weighted>
5.2669

> <Gold.Chemscore.Internal.Correction.Weighted>
   9.000000E+99

> <Gold.Protein.RotatedTorsions>
[ 6907 6896 6895 6894 ] final  -11.05 input  -60.11 | X-H torsion
[ 7974 7965 7964 7962 ] final  152.78 input  175.53 | X-H torsion
[ 8008 7997 7996 7995 ] final  149.48 input   59.86 | X-H torsion
[ 10167 10162 10161 10158 ] final   32.51 input  -65.29 | X-H torsion
[ 10718 10713 10712 10709 ] final   33.51 input   66.30 | X-H torsion
[ 10763 10752 10751 10750 ] final  -40.87 input  -60.55 | X-H torsion
[ 11005 11000 10999 10996 ] final  167.40 input  -57.11 | X-H torsion

> <Gold.Protein.ActiveResidues>
 VAL166  LYS551  ARG553  GLY616  TRP617  ASP618  TYR619  PRO620  LYS621  CYS622 
 ASP623  PHE694  ASN695  SER759  ASP760  ASP761  ALA762  ILE779  LEU786  VAL792 
 PHE793  MET794  SER795  GLU796  ALA797  LYS798  CYS799  TRP800  GLU811  SER814 

> <Gold.Protein.RotatedAtoms>
  151.3922  135.0958  159.9529 H   0  0  0  0  0  0  0  0  0  0  0  0  # atno 6907 bound_to 6896
  152.5076  133.8968  159.7432 H   0  0  0  0  0  0  0  0  0  0  0  0  # atno 6908 bound_to 6896
  150.9424  133.6585  159.2816 H   0  0  0  0  0  0  0  0  0  0  0  0  # atno 6909 bound_to 6896
  144.8199  139.6714  143.6105 H   0  0  0  0  0  0  0  0  0  0  0  0  # atno 7974 bound_to 7965
  156.2753  140.2100  156.5865 H   0  0  0  0  0  0  0  0  0  0  0  0  # atno 8008 bound_to 7997
  154.7017  140.0520  157.0487 H   0  0  0  0  0  0  0  0  0  0  0  0  # atno 8009 bound_to 7997
  155.0726  140.3178  155.4629 H   0  0  0  0  0  0  0  0  0  0  0  0  # atno 8010 bound_to 7997
  140.4492  144.1073  150.6188 H   0  0  0  0  0  0  0  0  0  0  0  0  # atno 10167 bound_to 10162
  157.2988  130.7340  149.6654 H   0  0  0  0  0  0  0  0  0  0  0  0  # atno 10718 bound_to 10713
  153.9531  135.6748  153.4744 H   0  0  0  0  0  0  0  0  0  0  0  0  # atno 10763 bound_to 10752
  153.0874  135.4892  154.8621 H   0  0  0  0  0  0  0  0  0  0  0  0  # atno 10764 bound_to 10752
  154.7314  135.3139  154.8844 H   0  0  0  0  0  0  0  0  0  0  0  0  # atno 10765 bound_to 10752
  140.2764  134.7786  157.3720 H   0  0  0  0  0  0  0  0  0  0  0  0  # atno 11005 bound_to 11000
  146.2504  139.6187  142.9431 LP  0  0  0  0  0  0  0  0  0  0  0  0  # atno 17320 bound_to 7965
  145.5129  141.0435  143.2478 LP  0  0  0  0  0  0  0  0  0  0  0  0  # atno 17321 bound_to 7965
  140.4227  143.2604  151.9695 LP  0  0  0  0  0  0  0  0  0  0  0  0  # atno 17342 bound_to 10162
  139.4795  144.5816  151.7923 LP  0  0  0  0  0  0  0  0  0  0  0  0  # atno 17343 bound_to 10162
  155.9670  130.4286  150.4796 LP  0  0  0  0  0  0  0  0  0  0  0  0  # atno 17370 bound_to 10713
  157.2773  131.0599  151.2221 LP  0  0  0  0  0  0  0  0  0  0  0  0  # atno 17371 bound_to 10713
  140.1325  134.5077  155.8094 LP  0  0  0  0  0  0  0  0  0  0  0  0  # atno 17394 bound_to 11000
  141.2170  133.6795  156.7065 LP  0  0  0  0  0  0  0  0  0  0  0  0  # atno 17395 bound_to 11000

$$$$
