AV-unprocessed.smi:1610|AV-procd|sdf|6470|dock3
  -GOLD-   22720 7123D 1   1.00000     0.00000
 Structure written by MMmdl.
 44 45  0  0  0  0  0  0  0  0  1 V2000
  145.2582  135.6153  150.5164 C   0  0  0  0  0  0  0  0  0  0  0  0
  144.7913  135.9623  152.2615 S   0  0  0  0  0  0  0  0  0  0  0  0
  143.6845  136.9311  152.2725 O   0  0  0  0  0  0  0  0  0  0  0  0
  144.6641  134.6796  152.9693 O   0  0  0  0  0  0  0  0  0  0  0  0
  146.1922  136.7545  152.8826 N   0  0  0  0  0  0  0  0  0  0  0  0
  146.1313  138.1377  153.3583 C   0  0  0  0  0  0  0  0  0  0  0  0
  146.9704  139.0543  152.4446 C   0  0  0  0  0  0  0  0  0  0  0  0
  147.0566  140.4772  153.0265 C   0  0  0  0  0  0  0  0  0  0  0  0
  147.6049  140.4027  154.3926 N   0  0  0  0  0  0  0  0  0  0  0  0
  148.8564  140.7613  154.7768 C   0  0  0  0  0  0  0  0  0  0  0  0
  149.7086  141.1810  153.9923 O   0  0  0  0  0  0  0  0  0  0  0  0
  149.1144  140.5942  156.0853 N   0  0  0  0  0  0  0  0  0  0  0  0
  150.3847  140.8928  156.7358 C   0  0  0  0  0  0  0  0  0  0  0  0
  150.8018  142.3555  156.5141 C   0  0  0  0  0  0  0  0  0  0  0  0
  151.3167  143.0006  157.7852 C   0  0  0  0  0  0  0  0  0  0  0  0
  151.9794  142.2348  158.7664 C   0  0  0  0  0  0  0  0  0  0  0  0
  152.4387  142.8774  159.9321 C   0  0  0  0  0  0  0  0  0  0  0  0
  152.2144  144.2620  160.0671 C   0  0  0  0  0  0  0  0  0  0  0  0
  151.5798  145.0051  159.1348 N   0  0  0  0  0  0  0  0  0  0  0  0
  151.1425  144.3811  158.0198 C   0  0  0  0  0  0  0  0  0  0  0  0
  146.6977  139.6764  155.2912 C   0  0  0  0  0  0  0  0  0  0  0  0
  146.5971  138.2127  154.8256 C   0  0  0  0  0  0  0  0  0  0  0  0
  144.4431  135.0855  150.0237 H   0  0  0  0  0  0  0  0  0  0  0  0
  146.1560  134.9981  150.4940 H   0  0  0  0  0  0  0  0  0  0  0  0
  145.4462  136.5518  149.9920 H   0  0  0  0  0  0  0  0  0  0  0  0
  147.0714  136.4718  152.4499 H   0  0  0  0  0  0  0  0  0  0  0  0
  145.0951  138.4762  153.3201 H   0  0  0  0  0  0  0  0  0  0  0  0
  147.9779  138.6500  152.3351 H   0  0  0  0  0  0  0  0  0  0  0  0
  146.5377  139.0862  151.4441 H   0  0  0  0  0  0  0  0  0  0  0  0
  147.6285  141.1148  152.3525 H   0  0  0  0  0  0  0  0  0  0  0  0
  146.0610  140.9214  153.0663 H   0  0  0  0  0  0  0  0  0  0  0  0
  148.3752  140.2337  156.6708 H   0  0  0  0  0  0  0  0  0  0  0  0
  150.2732  140.6948  157.8023 H   0  0  0  0  0  0  0  0  0  0  0  0
  151.1584  140.2138  156.3731 H   0  0  0  0  0  0  0  0  0  0  0  0
  151.5790  142.4174  155.7511 H   0  0  0  0  0  0  0  0  0  0  0  0
  149.9562  142.9334  156.1388 H   0  0  0  0  0  0  0  0  0  0  0  0
  152.1324  141.1742  158.6301 H   0  0  0  0  0  0  0  0  0  0  0  0
  152.9502  142.3225  160.7046 H   0  0  0  0  0  0  0  0  0  0  0  0
  152.5531  144.7863  160.9483 H   0  0  0  0  0  0  0  0  0  0  0  0
  150.6371  145.0019  157.2947 H   0  0  0  0  0  0  0  0  0  0  0  0
  147.0154  139.7151  156.3340 H   0  0  0  0  0  0  0  0  0  0  0  0
  145.7128  140.1449  155.2673 H   0  0  0  0  0  0  0  0  0  0  0  0
  145.9071  137.6631  155.4669 H   0  0  0  0  0  0  0  0  0  0  0  0
  147.5712  137.7327  154.9336 H   0  0  0  0  0  0  0  0  0  0  0  0
  1  2  1  0  0  0  0
  1 23  1  0  0  0  0
  1 24  1  0  0  0  0
  1 25  1  0  0  0  0
  2  3  2  0  0  0  0
  2  4  2  0  0  0  0
  2  5  1  0  0  0  0
  5  6  1  0  0  0  0
  5 26  1  0  0  0  0
  6 22  1  0  0  0  0
  6  7  1  0  0  0  0
  6 27  1  0  0  0  0
  7  8  1  0  0  0  0
  7 28  1  0  0  0  0
  7 29  1  0  0  0  0
  8  9  1  0  0  0  0
  8 30  1  0  0  0  0
  8 31  1  0  0  0  0
  9 10  1  0  0  0  0
  9 21  1  0  0  0  0
 10 11  2  0  0  0  0
 10 12  1  0  0  0  0
 12 13  1  0  0  0  0
 12 32  1  0  0  0  0
 13 14  1  0  0  0  0
 13 33  1  0  0  0  0
 13 34  1  0  0  0  0
 14 15  1  0  0  0  0
 14 35  1  0  0  0  0
 14 36  1  0  0  0  0
 15 20  1  0  0  0  0
 15 16  2  0  0  0  0
 16 17  1  0  0  0  0
 16 37  1  0  0  0  0
 17 18  2  0  0  0  0
 17 38  1  0  0  0  0
 18 19  1  0  0  0  0
 18 39  1  0  0  0  0
 19 20  2  0  0  0  0
 20 40  1  0  0  0  0
 21 22  1  0  0  0  0
 21 41  1  0  0  0  0
 21 42  1  0  0  0  0
 22 43  1  0  0  0  0
 22 44  1  0  0  0  0
M  END
> <s_m_source_file>
AV-unprocessed.smi

> <i_m_source_file_index>
1610

> <i_lp_mmshare_version>
43012

> <i_f3d_flags>
0

> <s_epik_input>
W0NIM11TKD1PKSg9TylbTkhdW0NIXTFbQ0gyXVtDSDJdTihbQ0gyXVtDSDJdMSlDKD1PKVtOSF1bQ0gyXVtDSDJdYzJbY0hdW2NIXVtjSF1uW2NIXTI=

> <s_epik_cmdline>
J2VwaWtfcHl0aG9uJywgJy1waCcsICc3LjAnLCAnLXRuJywgJzgnLCAnLW1hJywgJzIwMCcsICctbWV0YWxfYmluZGluZycsICctaW1hZScsICc8aW5maWxlLm1hZT4nLCAnLW9tYWUnLCAnPG91dGZpbGUubWFlPic=

> <r_epik_Ionization_Penalty>
0.0145188

> <r_epik_Ionization_Penalty_Charging>
0

> <r_epik_Ionization_Penalty_Neutral>
0.0145188

> <r_epik_State_Penalty>
0.0113046

> <r_epik_Charging_Adjusted_Penalty>
0.0113046

> <i_epik_Tot_Q>
0

> <i_epik_Tot_abs_Q>
0

> <r_epik_Metal_State_Penalty>
0.0179141

> <b_epik_Metal_Only>
0

> <s_lp_Force_Field>
OPLS_2005

> <r_lp_Energy>
22.3117

> <b_lp_Chiralities_Consistent>
1

> <s_lp_Variant>
AV-unprocessed.smi:1610-1

> <Gold.Version>
5.8.1

> <Gold.Id.Protein>
6NUR|6NUR_protein|mol2

> <Gold.PLP.Fitness>
44.1330

> <Gold.PLP.PLP>
-37.8998

> <Gold.PLP.part.hbond>
-3.0000

> <Gold.PLP.part.metal>
0.0000

> <Gold.PLP.part.buried>
-3.1129

> <Gold.PLP.part.nonpolar>
-32.1214

> <Gold.PLP.part.repulsive>
1.5166

> <Gold.PLP.ligand.clash>
1.6464

> <Gold.PLP.ligand.torsion>
1.2701

> <Gold.PLP.Chemscore.Hbond>
2.1090

> <Gold.PLP.Chemscore.CHOScore>
1.0000

> <Gold.PLP.Chemscore.Metal>
0.0000

> <Gold.Chemscore.Hbonds>
donor molecule, donor type, donor heavy atom, donor atom, acceptor molecule, acceptor atom, score
      L1  H     5    26       P1  7948  1.00
      P1  H  7989  7998       L1    11  0.35
      P1  H  8011  8017       L1    11  0.73
      L1  C    20    40       P1  8028  1.00

> <Gold.PLP.Chemscore.Internal.Correction>
1.0928

> <Gold.Rescore>
     Score         DG    S(hbond)    S(metal)    S(lipo)     H(rot)  DE(clash)    DE(int)     intcor
     17.94     -19.66       2.10        0.00      99.12       1.73       0.60       1.12       ----

> <Gold.Chemscore.Fitness>
17.9393

> <Gold.Chemscore.DG>
-19.6604

> <Gold.Chemscore.ZeroCoef>
-5.4800

> <Gold.Chemscore.Hbond>
2.0975

> <Gold.Chemscore.Metal>
0.0000

> <Gold.Chemscore.Lipo>
99.1224

> <Gold.Chemscore.Internal_Hbond>
0.0000

> <Gold.Chemscore.DEClash>
0.5992

> <Gold.Chemscore.DEInternal>
1.1219

> <Gold.Chemscore.Rot>
1.7276

> <Gold.Chemscore.Internal.Correction>
   9.000000E+99

> <Gold.Chemscore.Hbonds>
donor molecule, donor type, donor heavy atom, donor atom, acceptor molecule, acceptor atom, score
      L1  H     5    26       P1  7948  0.98
      P1  H  7989  7998       L1    11  0.35
      P1  H  8011  8017       L1    11  0.69

> <Gold.Chemscore.Hbond.Weighted>
-7.0057

> <Gold.Chemscore.Metal.Weighted>
-0.0000

> <Gold.Chemscore.Lipo.Weighted>
-11.5973

> <Gold.Chemscore.Internal_Hbond.Weighted>
0.0000

> <Gold.Chemscore.DEClash.Weighted>
0.5992

> <Gold.Chemscore.DEInternal.Weighted>
1.1219

> <Gold.Chemscore.Rot.Weighted>
4.4226

> <Gold.Chemscore.Internal.Correction.Weighted>
   9.000000E+99

> <Gold.Protein.RotatedTorsions>
[ 6907 6896 6895 6894 ] final -108.88 input  -60.11 | X-H torsion
[ 7974 7965 7964 7962 ] final  114.44 input  175.53 | X-H torsion
[ 8008 7997 7996 7995 ] final  -28.65 input   59.86 | X-H torsion
[ 10167 10162 10161 10158 ] final   35.15 input  -65.29 | X-H torsion
[ 10718 10713 10712 10709 ] final -133.96 input   66.30 | X-H torsion
[ 10763 10752 10751 10750 ] final   35.48 input  -60.55 | X-H torsion
[ 11005 11000 10999 10996 ] final  -19.87 input  -57.11 | X-H torsion

> <Gold.Protein.ActiveResidues>
 VAL166  LYS551  ARG553  GLY616  TRP617  ASP618  TYR619  PRO620  LYS621  CYS622 
 ASP623  PHE694  ASN695  SER759  ASP760  ASP761  ALA762  ILE779  LEU786  VAL792 
 PHE793  MET794  SER795  GLU796  ALA797  LYS798  CYS799  TRP800  GLU811  SER814 

> <Gold.Protein.RotatedAtoms>
  150.7528  133.9612  159.3515 H   0  0  0  0  0  0  0  0  0  0  0  0  # atno 6907 bound_to 6896
  151.7538  135.0824  160.0344 H   0  0  0  0  0  0  0  0  0  0  0  0  # atno 6908 bound_to 6896
  152.3449  133.6073  159.5938 H   0  0  0  0  0  0  0  0  0  0  0  0  # atno 6909 bound_to 6896
  145.2044  139.2936  143.4301 H   0  0  0  0  0  0  0  0  0  0  0  0  # atno 7974 bound_to 7965
  154.4323  140.1839  156.1123 H   0  0  0  0  0  0  0  0  0  0  0  0  # atno 8008 bound_to 7997
  156.0208  140.3341  155.7011 H   0  0  0  0  0  0  0  0  0  0  0  0  # atno 8009 bound_to 7997
  155.5979  140.0637  157.2732 H   0  0  0  0  0  0  0  0  0  0  0  0  # atno 8010 bound_to 7997
  140.4248  144.1408  150.6152 H   0  0  0  0  0  0  0  0  0  0  0  0  # atno 10167 bound_to 10162
  156.2504  130.7150  151.1047 H   0  0  0  0  0  0  0  0  0  0  0  0  # atno 10718 bound_to 10713
  153.0117  135.6332  154.1834 H   0  0  0  0  0  0  0  0  0  0  0  0  # atno 10763 bound_to 10752
  154.1576  135.2825  155.3119 H   0  0  0  0  0  0  0  0  0  0  0  0  # atno 10764 bound_to 10752
  154.6006  135.5588  153.7431 H   0  0  0  0  0  0  0  0  0  0  0  0  # atno 10765 bound_to 10752
  140.8409  133.7927  155.9860 H   0  0  0  0  0  0  0  0  0  0  0  0  # atno 11005 bound_to 11000
  146.3411  140.2299  142.8593 LP  0  0  0  0  0  0  0  0  0  0  0  0  # atno 17320 bound_to 7965
  144.9916  140.8552  143.5336 LP  0  0  0  0  0  0  0  0  0  0  0  0  # atno 17321 bound_to 7965
  140.4493  143.2493  151.9369 LP  0  0  0  0  0  0  0  0  0  0  0  0  # atno 17342 bound_to 10162
  139.4783  144.5578  151.8286 LP  0  0  0  0  0  0  0  0  0  0  0  0  # atno 17343 bound_to 10162
  157.7212  131.0680  150.6127 LP  0  0  0  0  0  0  0  0  0  0  0  0  # atno 17370 bound_to 10713
  156.6206  130.4405  149.5823 LP  0  0  0  0  0  0  0  0  0  0  0  0  # atno 17371 bound_to 10713
  140.8896  134.2511  157.5101 LP  0  0  0  0  0  0  0  0  0  0  0  0  # atno 17394 bound_to 11000
  139.8703  134.9655  156.4531 LP  0  0  0  0  0  0  0  0  0  0  0  0  # atno 17395 bound_to 11000

$$$$
