AV-unprocessed.smi:247|AV-procd|sdf|1893|dock8
  -GOLD-   2262020553D 1   1.00000     0.00000
 Structure written by MMmdl.
 61 65  0  0  0  0  0  0  0  0  1 V2000
  144.0193  133.3722  147.9764 O   0  0  0  0  0  0  0  0  0  0  0  0
  143.5417  133.8492  149.2192 C   0  0  0  0  0  0  0  0  0  0  0  0
  144.2058  133.1597  150.4438 C   0  0  0  0  0  0  0  0  0  0  0  0
  143.5389  133.7082  151.7454 C   0  0  0  0  0  0  0  0  0  0  0  0
  144.1898  134.8725  152.3298 N   0  0  0  0  0  0  0  0  0  0  0  0
  144.2494  136.1399  151.7944 C   0  0  0  0  0  0  0  0  0  0  0  0
  144.8943  137.0189  152.5111 N   0  0  0  0  0  0  0  0  0  0  0  0
  145.2895  136.3108  153.6389 C   0  0  0  0  0  0  0  0  0  0  0  0
  146.0303  136.6448  154.8062 C   0  0  0  0  0  0  0  0  0  0  0  0
  146.5272  137.8902  155.0080 N   0  0  0  0  0  0  0  0  0  0  0  0
  145.5072  138.9286  155.0160 C   0  0  0  0  0  0  0  0  0  0  0  0
  146.1655  140.1439  155.6542 C   0  0  0  0  0  0  0  0  0  0  0  0
  147.1356  139.5223  156.6552 C   0  0  0  0  0  0  0  0  0  0  0  0
  147.5255  138.1569  156.0521 C   0  0  2  0  0  0  0  0  0  0  0  0
  149.0064  138.1132  155.5524 C   0  0  2  0  0  0  0  0  0  0  0  0
  150.0526  138.4831  156.6288 C   0  0  0  0  0  0  0  0  0  0  0  0
  150.1125  139.8940  156.8138 O   0  0  0  0  0  0  0  0  0  0  0  0
  150.5798  140.5809  155.6579 C   0  0  0  0  0  0  0  0  0  0  0  0
  149.6108  140.3762  154.4832 C   0  0  0  0  0  0  0  0  0  0  0  0
  149.3430  138.8808  154.2486 C   0  0  2  0  0  0  0  0  0  0  0  0
  148.3657  138.6953  153.2449 O   0  0  0  0  0  0  0  0  0  0  0  0
  146.2324  135.6612  155.7218 N   0  0  0  0  0  0  0  0  0  0  0  0
  145.7506  134.4332  155.5107 C   0  0  0  0  0  0  0  0  0  0  0  0
  145.0516  133.9792  154.4688 N   0  0  0  0  0  0  0  0  0  0  0  0
  144.8468  134.9617  153.5453 C   0  0  0  0  0  0  0  0  0  0  0  0
  144.0618  131.6205  150.3206 C   0  0  0  0  0  0  0  0  0  0  0  0
  144.8927  130.8692  151.3757 C   0  0  0  0  0  0  0  0  0  0  0  0
  146.2613  131.2411  151.2658 O   0  0  0  0  0  0  0  0  0  0  0  0
  146.4857  132.6241  151.5125 C   0  0  0  0  0  0  0  0  0  0  0  0
  145.7228  133.4797  150.4825 C   0  0  0  0  0  0  0  0  0  0  0  0
  144.6488  133.9913  147.6393 H   0  0  0  0  0  0  0  0  0  0  0  0
  143.7100  134.9262  149.2529 H   0  0  0  0  0  0  0  0  0  0  0  0
  142.4626  133.6968  149.2266 H   0  0  0  0  0  0  0  0  0  0  0  0
  142.4971  133.9758  151.5775 H   0  0  0  0  0  0  0  0  0  0  0  0
  143.5143  132.9246  152.5039 H   0  0  0  0  0  0  0  0  0  0  0  0
  143.8048  136.3929  150.8431 H   0  0  0  0  0  0  0  0  0  0  0  0
  145.1548  139.1560  154.0099 H   0  0  0  0  0  0  0  0  0  0  0  0
  144.6524  138.6032  155.6115 H   0  0  0  0  0  0  0  0  0  0  0  0
  146.7105  140.7097  154.8985 H   0  0  0  0  0  0  0  0  0  0  0  0
  145.4456  140.8170  156.1202 H   0  0  0  0  0  0  0  0  0  0  0  0
  147.9868  140.1701  156.8666 H   0  0  0  0  0  0  0  0  0  0  0  0
  146.6144  139.3596  157.5998 H   0  0  0  0  0  0  0  0  0  0  0  0
  147.4317  137.4413  156.8679 H   0  0  0  0  0  0  0  0  0  0  0  0
  149.1789  137.0639  155.3085 H   0  0  0  0  0  0  0  0  0  0  0  0
  149.8279  138.0050  157.5801 H   0  0  0  0  0  0  0  0  0  0  0  0
  151.0385  138.1173  156.3378 H   0  0  0  0  0  0  0  0  0  0  0  0
  150.6647  141.6428  155.8898 H   0  0  0  0  0  0  0  0  0  0  0  0
  151.5808  140.2330  155.3985 H   0  0  0  0  0  0  0  0  0  0  0  0
  148.6884  140.9156  154.6749 H   0  0  0  0  0  0  0  0  0  0  0  0
  150.0283  140.8245  153.5811 H   0  0  0  0  0  0  0  0  0  0  0  0
  150.2660  138.4545  153.8529 H   0  0  0  0  0  0  0  0  0  0  0  0
  148.7621  138.8635  152.4038 H   0  0  0  0  0  0  0  0  0  0  0  0
  145.9589  133.7109  156.2860 H   0  0  0  0  0  0  0  0  0  0  0  0
  143.0172  131.3154  150.3718 H   0  0  0  0  0  0  0  0  0  0  0  0
  144.4099  131.2945  149.3400 H   0  0  0  0  0  0  0  0  0  0  0  0
  144.5294  131.0584  152.3860 H   0  0  0  0  0  0  0  0  0  0  0  0
  144.8118  129.7944  151.2128 H   0  0  0  0  0  0  0  0  0  0  0  0
  146.2049  132.8740  152.5356 H   0  0  0  0  0  0  0  0  0  0  0  0
  147.5550  132.8192  151.4320 H   0  0  0  0  0  0  0  0  0  0  0  0
  146.1735  133.2894  149.5081 H   0  0  0  0  0  0  0  0  0  0  0  0
  145.8840  134.5393  150.6847 H   0  0  0  0  0  0  0  0  0  0  0  0
  1  2  1  0  0  0  0
  1 31  1  0  0  0  0
  2  3  1  0  0  0  0
  2 32  1  0  0  0  0
  2 33  1  0  0  0  0
  3 30  1  0  0  0  0
  3  4  1  0  0  0  0
  3 26  1  0  0  0  0
  4  5  1  0  0  0  0
  4 34  1  0  0  0  0
  4 35  1  0  0  0  0
  5 25  1  0  0  0  0
  5  6  1  0  0  0  0
  6  7  2  0  0  0  0
  6 36  1  0  0  0  0
  7  8  1  0  0  0  0
  8 25  2  0  0  0  0
  8  9  1  0  0  0  0
  9 10  1  0  0  0  0
  9 22  2  0  0  0  0
 10 14  1  0  0  0  0
 10 11  1  0  0  0  0
 11 12  1  0  0  0  0
 11 37  1  0  0  0  0
 11 38  1  0  0  0  0
 12 13  1  0  0  0  0
 12 39  1  0  0  0  0
 12 40  1  0  0  0  0
 13 14  1  0  0  0  0
 13 41  1  0  0  0  0
 13 42  1  0  0  0  0
 14 15  1  0  0  0  0
 14 43  1  0  0  0  0
 15 20  1  0  0  0  0
 15 16  1  0  0  0  0
 15 44  1  0  0  0  0
 16 17  1  0  0  0  0
 16 45  1  0  0  0  0
 16 46  1  0  0  0  0
 17 18  1  0  0  0  0
 18 19  1  0  0  0  0
 18 47  1  0  0  0  0
 18 48  1  0  0  0  0
 19 20  1  0  0  0  0
 19 49  1  0  0  0  0
 19 50  1  0  0  0  0
 20 21  1  0  0  0  0
 20 51  1  0  0  0  0
 21 52  1  0  0  0  0
 22 23  1  0  0  0  0
 23 24  2  0  0  0  0
 23 53  1  0  0  0  0
 24 25  1  0  0  0  0
 26 27  1  0  0  0  0
 26 54  1  0  0  0  0
 26 55  1  0  0  0  0
 27 28  1  0  0  0  0
 27 56  1  0  0  0  0
 27 57  1  0  0  0  0
 28 29  1  0  0  0  0
 29 30  1  0  0  0  0
 29 58  1  0  0  0  0
 29 59  1  0  0  0  0
 30 60  1  0  0  0  0
 30 61  1  0  0  0  0
M  END
> <s_m_source_file>
AV-unprocessed.smi

> <i_m_source_file_index>
247

> <i_lp_mmshare_version>
43012

> <i_f3d_flags>
0

> <s_epik_input>
W0NIMl0xW0NIMl1PW0NIMl1bQ0gyXUMxKFtDSDJdW09IXSlbQ0gyXW4oW2NIXW4yKWMoYzIzKW5bY0hdbmMzTjRbQ0gyXVtDSDJdW0NIMl1bQ0BIXTRbQ0BASF01W0NIMl1PW0NIMl1bQ0gyXVtDQEhdNVtPSF0=

> <s_epik_cmdline>
J2VwaWtfcHl0aG9uJywgJy1waCcsICc3LjAnLCAnLXRuJywgJzgnLCAnLW1hJywgJzIwMCcsICctbWV0YWxfYmluZGluZycsICctaW1hZScsICc8aW5maWxlLm1hZT4nLCAnLW9tYWUnLCAnPG91dGZpbGUubWFlPic=

> <r_lp_tautomer_probability>
1

> <r_epik_Ionization_Penalty>
0.00362597

> <r_epik_Ionization_Penalty_Charging>
0

> <r_epik_Ionization_Penalty_Neutral>
0.00362597

> <r_epik_State_Penalty>
0.00241433

> <r_epik_Charging_Adjusted_Penalty>
0.00241433

> <i_epik_Tot_Q>
0

> <i_epik_Tot_abs_Q>
0

> <r_epik_Metal_State_Penalty>
-0

> <b_epik_Metal_Only>
0

> <s_lp_Force_Field>
OPLS_2005

> <r_lp_Energy>
64.0337

> <b_lp_Chiralities_Consistent>
1

> <s_lp_Variant>
AV-unprocessed.smi:247-6

> <Gold.Version>
5.8.1

> <Gold.Id.Protein>
6NUR|6NUR_protein|mol2

> <Gold.PLP.Fitness>
39.5452

> <Gold.PLP.PLP>
-32.4474

> <Gold.PLP.part.hbond>
-4.0000

> <Gold.PLP.part.metal>
0.0000

> <Gold.PLP.part.buried>
0.6380

> <Gold.PLP.part.nonpolar>
-29.6171

> <Gold.PLP.part.repulsive>
1.7450

> <Gold.PLP.ligand.clash>
0.0000

> <Gold.PLP.ligand.torsion>
0.9222

> <Gold.PLP.Chemscore.Hbond>
2.0000

> <Gold.PLP.Chemscore.CHOScore>
0.8687

> <Gold.PLP.Chemscore.Metal>
0.0000

> <Gold.Chemscore.Hbonds>
donor molecule, donor type, donor heavy atom, donor atom, acceptor molecule, acceptor atom, score
      L1  H     1    31       P1  7921  1.00
      L1  H    21    52       P1  7957  1.00
      L1  C     6    36       P1 10171  0.92

> <Gold.PLP.Chemscore.Internal.Correction>
0.3362

> <Gold.Rescore>
     Score         DG    S(hbond)    S(metal)    S(lipo)     H(rot)  DE(clash)    DE(int)     intcor
     11.46     -14.17       1.98        0.00      88.27       3.23       1.48       1.23       ----

> <Gold.Chemscore.Fitness>
11.4593

> <Gold.Chemscore.DG>
-14.1717

> <Gold.Chemscore.ZeroCoef>
-5.4800

> <Gold.Chemscore.Hbond>
1.9844

> <Gold.Chemscore.Metal>
0.0000

> <Gold.Chemscore.Lipo>
88.2662

> <Gold.Chemscore.Internal_Hbond>
0.0000

> <Gold.Chemscore.DEClash>
1.4832

> <Gold.Chemscore.DEInternal>
1.2292

> <Gold.Chemscore.Rot>
3.2278

> <Gold.Chemscore.Internal.Correction>
   9.000000E+99

> <Gold.Chemscore.Hbonds>
donor molecule, donor type, donor heavy atom, donor atom, acceptor molecule, acceptor atom, score
      L1  H     1    31       P1  7921  0.98
      L1  H    21    52       P1  7957  0.94

> <Gold.Chemscore.Hbond.Weighted>
-6.6279

> <Gold.Chemscore.Metal.Weighted>
-0.0000

> <Gold.Chemscore.Lipo.Weighted>
-10.3271

> <Gold.Chemscore.Internal_Hbond.Weighted>
0.0000

> <Gold.Chemscore.DEClash.Weighted>
1.4832

> <Gold.Chemscore.DEInternal.Weighted>
1.2292

> <Gold.Chemscore.Rot.Weighted>
8.2633

> <Gold.Chemscore.Internal.Correction.Weighted>
   9.000000E+99

> <Gold.Protein.RotatedTorsions>
[ 6907 6896 6895 6894 ] final    2.18 input  -60.11 | X-H torsion
[ 7974 7965 7964 7962 ] final  -12.58 input  175.53 | X-H torsion
[ 8008 7997 7996 7995 ] final   41.34 input   59.86 | X-H torsion
[ 10167 10162 10161 10158 ] final   29.75 input  -65.29 | X-H torsion
[ 10718 10713 10712 10709 ] final  124.84 input   66.30 | X-H torsion
[ 10763 10752 10751 10750 ] final  166.92 input  -60.55 | X-H torsion
[ 11005 11000 10999 10996 ] final   66.08 input  -57.11 | X-H torsion

> <Gold.Protein.ActiveResidues>
 VAL166  LYS551  ARG553  GLY616  TRP617  ASP618  TYR619  PRO620  LYS621  CYS622 
 ASP623  PHE694  ASN695  SER759  ASP760  ASP761  ALA762  ILE779  LEU786  VAL792 
 PHE793  MET794  SER795  GLU796  ALA797  LYS798  CYS799  TRP800  GLU811  SER814 

> <Gold.Protein.RotatedAtoms>
  151.6046  135.1045  160.0067 H   0  0  0  0  0  0  0  0  0  0  0  0  # atno 6907 bound_to 6896
  152.4240  133.7159  159.6516 H   0  0  0  0  0  0  0  0  0  0  0  0  # atno 6908 bound_to 6896
  150.8128  133.8318  159.3196 H   0  0  0  0  0  0  0  0  0  0  0  0  # atno 6909 bound_to 6896
  146.2146  140.3078  142.8380 H   0  0  0  0  0  0  0  0  0  0  0  0  # atno 7974 bound_to 7965
  155.2681  140.3364  155.4267 H   0  0  0  0  0  0  0  0  0  0  0  0  # atno 8008 bound_to 7997
  156.2145  140.1783  156.7662 H   0  0  0  0  0  0  0  0  0  0  0  0  # atno 8009 bound_to 7997
  154.5733  140.0666  156.8982 H   0  0  0  0  0  0  0  0  0  0  0  0  # atno 8010 bound_to 7997
  140.4738  144.0722  150.6245 H   0  0  0  0  0  0  0  0  0  0  0  0  # atno 10167 bound_to 10162
  157.5552  131.1092  150.8634 H   0  0  0  0  0  0  0  0  0  0  0  0  # atno 10718 bound_to 10713
  154.3462  135.2753  155.2396 H   0  0  0  0  0  0  0  0  0  0  0  0  # atno 10763 bound_to 10752
  154.4646  135.5898  153.6282 H   0  0  0  0  0  0  0  0  0  0  0  0  # atno 10764 bound_to 10752
  152.9853  135.6073  154.3668 H   0  0  0  0  0  0  0  0  0  0  0  0  # atno 10765 bound_to 10752
  139.9854  134.6676  156.0185 H   0  0  0  0  0  0  0  0  0  0  0  0  # atno 11005 bound_to 11000
  144.9010  140.7642  143.5867 LP  0  0  0  0  0  0  0  0  0  0  0  0  # atno 17320 bound_to 7965
  145.3005  139.1852  143.4692 LP  0  0  0  0  0  0  0  0  0  0  0  0  # atno 17321 bound_to 7965
  140.3944  143.2736  152.0022 LP  0  0  0  0  0  0  0  0  0  0  0  0  # atno 17342 bound_to 10162
  139.4822  144.6050  151.7537 LP  0  0  0  0  0  0  0  0  0  0  0  0  # atno 17343 bound_to 10162
  156.9147  130.5293  149.5280 LP  0  0  0  0  0  0  0  0  0  0  0  0  # atno 17370 bound_to 10713
  156.0612  130.5664  150.9197 LP  0  0  0  0  0  0  0  0  0  0  0  0  # atno 17371 bound_to 10713
  141.1520  133.6547  156.4043 LP  0  0  0  0  0  0  0  0  0  0  0  0  # atno 17394 bound_to 11000
  140.5012  134.6483  157.5249 LP  0  0  0  0  0  0  0  0  0  0  0  0  # atno 17395 bound_to 11000

$$$$
