AV-unprocessed.smi:284|AV-procd|sdf|2164|dock6
  -GOLD-   2262021523D 1   1.00000     0.00000
 Structure written by MMmdl.
 60 62  0  0  0  0  0  0  0  0  1 V2000
  147.9950  128.3411  153.4905 C   0  0  0  0  0  0  0  0  0  0  0  0
  148.2435  129.8323  153.6542 C   0  0  0  0  0  0  0  0  0  0  0  0
  147.5022  130.7605  153.0061 C   0  0  0  0  0  0  0  0  0  0  0  0
  147.7021  132.1235  153.1350 N   0  0  0  0  0  0  0  0  0  0  0  0
  146.8599  133.1372  152.3894 C   0  0  1  0  0  0  0  0  0  0  0  0
  147.1117  133.0399  150.8767 C   0  0  0  0  0  0  0  0  0  0  0  0
  145.7099  133.0760  150.2985 C   0  0  2  0  0  0  0  0  0  0  0  0
  145.3088  134.4094  150.0440 O   0  0  0  0  0  0  0  0  0  0  0  0
  144.8860  132.4233  151.4144 C   0  0  2  0  0  0  0  0  0  0  0  0
  143.3724  132.6998  151.4191 C   0  0  0  0  0  0  0  0  0  0  0  0
  143.1311  134.0902  151.4509 O   0  0  0  0  0  0  0  0  0  0  0  0
  145.5013  132.8885  152.6118 O   0  0  0  0  0  0  0  0  0  0  0  0
  148.7349  132.6002  153.9667 C   0  0  0  0  0  0  0  0  0  0  0  0
  148.9380  133.8106  154.0876 O   0  0  0  0  0  0  0  0  0  0  0  0
  149.5295  131.6567  154.6555 N   0  0  0  0  0  0  0  0  0  0  0  0
  150.5971  132.1566  155.5503 C   0  0  0  0  0  0  0  0  0  0  0  0
  150.0635  132.9885  156.7272 C   0  0  0  0  0  0  0  0  0  0  0  0
  150.5231  134.1082  156.9536 O   0  0  0  0  0  0  0  0  0  0  0  0
  149.0664  132.4141  157.4249 N   0  0  0  0  0  0  0  0  0  0  0  0
  148.3721  132.8955  158.5692 C   0  0  0  0  0  0  0  0  0  0  0  0
  148.4377  134.2795  158.8221 C   0  0  0  0  0  0  0  0  0  0  0  0
  147.7635  134.8448  159.9214 C   0  0  0  0  0  0  0  0  0  0  0  0
  146.9964  134.0366  160.7958 C   0  0  0  0  0  0  0  0  0  0  0  0
  146.2414  134.6161  162.0077 C   0  0  0  0  0  0  0  0  0  0  0  0
  145.3988  133.5080  162.6741 C   0  0  0  0  0  0  0  0  0  0  0  0
  145.2822  135.7667  161.6271 C   0  0  0  0  0  0  0  0  0  0  0  0
  147.2547  135.1700  163.0308 C   0  0  0  0  0  0  0  0  0  0  0  0
  146.9280  132.6488  160.5299 C   0  0  0  0  0  0  0  0  0  0  0  0
  147.5997  132.0817  159.4303 C   0  0  0  0  0  0  0  0  0  0  0  0
  149.3244  130.2595  154.5460 C   0  0  0  0  0  0  0  0  0  0  0  0
  150.0265  129.4699  155.1803 O   0  0  0  0  0  0  0  0  0  0  0  0
  147.1758  128.1385  152.8001 H   0  0  0  0  0  0  0  0  0  0  0  0
  147.7408  127.8900  154.4502 H   0  0  0  0  0  0  0  0  0  0  0  0
  148.8867  127.8465  153.1035 H   0  0  0  0  0  0  0  0  0  0  0  0
  146.7174  130.4028  152.3579 H   0  0  0  0  0  0  0  0  0  0  0  0
  147.1014  134.1122  152.8160 H   0  0  0  0  0  0  0  0  0  0  0  0
  147.7639  133.8422  150.5292 H   0  0  0  0  0  0  0  0  0  0  0  0
  147.5819  132.0826  150.6452 H   0  0  0  0  0  0  0  0  0  0  0  0
  145.6421  132.5138  149.3666 H   0  0  0  0  0  0  0  0  0  0  0  0
  145.5438  134.6304  149.1558 H   0  0  0  0  0  0  0  0  0  0  0  0
  145.0458  131.3447  151.3712 H   0  0  0  0  0  0  0  0  0  0  0  0
  142.9205  132.2980  150.5119 H   0  0  0  0  0  0  0  0  0  0  0  0
  142.8750  132.2176  152.2605 H   0  0  0  0  0  0  0  0  0  0  0  0
  142.6631  134.3324  150.6663 H   0  0  0  0  0  0  0  0  0  0  0  0
  151.1945  131.3388  155.9555 H   0  0  0  0  0  0  0  0  0  0  0  0
  151.3182  132.7526  154.9878 H   0  0  0  0  0  0  0  0  0  0  0  0
  148.7391  131.5286  157.0670 H   0  0  0  0  0  0  0  0  0  0  0  0
  149.0125  134.9209  158.1697 H   0  0  0  0  0  0  0  0  0  0  0  0
  147.8533  135.9096  160.0669 H   0  0  0  0  0  0  0  0  0  0  0  0
  144.8345  133.8953  163.5232 H   0  0  0  0  0  0  0  0  0  0  0  0
  146.0149  132.6906  163.0489 H   0  0  0  0  0  0  0  0  0  0  0  0
  144.6812  133.0824  161.9718 H   0  0  0  0  0  0  0  0  0  0  0  0
  144.5171  135.4377  160.9227 H   0  0  0  0  0  0  0  0  0  0  0  0
  145.8158  136.6069  161.1811 H   0  0  0  0  0  0  0  0  0  0  0  0
  144.7610  136.1525  162.5042 H   0  0  0  0  0  0  0  0  0  0  0  0
  146.7497  135.6058  163.8936 H   0  0  0  0  0  0  0  0  0  0  0  0
  147.8759  135.9494  162.5877 H   0  0  0  0  0  0  0  0  0  0  0  0
  147.9215  134.3951  163.4090 H   0  0  0  0  0  0  0  0  0  0  0  0
  146.3494  131.9996  161.1696 H   0  0  0  0  0  0  0  0  0  0  0  0
  147.4922  131.0214  159.2656 H   0  0  0  0  0  0  0  0  0  0  0  0
  1  2  1  0  0  0  0
  1 32  1  0  0  0  0
  1 33  1  0  0  0  0
  1 34  1  0  0  0  0
  2 30  1  0  0  0  0
  2  3  2  0  0  0  0
  3  4  1  0  0  0  0
  3 35  1  0  0  0  0
  4  5  1  0  0  0  0
  4 13  1  0  0  0  0
  5 12  1  0  0  0  0
  5  6  1  0  0  0  0
  5 36  1  0  0  0  0
  6  7  1  0  0  0  0
  6 37  1  0  0  0  0
  6 38  1  0  0  0  0
  7  8  1  0  0  0  0
  7  9  1  0  0  0  0
  7 39  1  0  0  0  0
  8 40  1  0  0  0  0
  9 10  1  0  0  0  0
  9 12  1  0  0  0  0
  9 41  1  0  0  0  0
 10 11  1  0  0  0  0
 10 42  1  0  0  0  0
 10 43  1  0  0  0  0
 11 44  1  0  0  0  0
 13 14  2  0  0  0  0
 13 15  1  0  0  0  0
 15 16  1  0  0  0  0
 15 30  1  0  0  0  0
 16 17  1  0  0  0  0
 16 45  1  0  0  0  0
 16 46  1  0  0  0  0
 17 18  2  0  0  0  0
 17 19  1  0  0  0  0
 19 20  1  0  0  0  0
 19 47  1  0  0  0  0
 20 29  1  0  0  0  0
 20 21  2  0  0  0  0
 21 22  1  0  0  0  0
 21 48  1  0  0  0  0
 22 23  2  0  0  0  0
 22 49  1  0  0  0  0
 23 24  1  0  0  0  0
 23 28  1  0  0  0  0
 24 25  1  0  0  0  0
 24 26  1  0  0  0  0
 24 27  1  0  0  0  0
 25 50  1  0  0  0  0
 25 51  1  0  0  0  0
 25 52  1  0  0  0  0
 26 53  1  0  0  0  0
 26 54  1  0  0  0  0
 26 55  1  0  0  0  0
 27 56  1  0  0  0  0
 27 57  1  0  0  0  0
 27 58  1  0  0  0  0
 28 29  2  0  0  0  0
 28 59  1  0  0  0  0
 29 60  1  0  0  0  0
 30 31  2  0  0  0  0
M  END
> <s_m_source_file>
AV-unprocessed.smi

> <i_m_source_file_index>
284

> <i_lp_mmshare_version>
43012

> <i_f3d_flags>
0

> <s_epik_input>
W09IXVtDSDJdW0NAQEhdKE8xKVtDQEhdKFtPSF0pW0NIMl1bQ0BIXTFuKFtjSF1jMltDSDNdKWMoPU8pbihjMj1PKVtDSDJdQyg9TylbTkhdYzNbY0hdW2NIXWMoQyhbQ0gzXSkoW0NIM10pW0NIM10pW2NIXVtjSF0z

> <s_epik_cmdline>
J2VwaWtfcHl0aG9uJywgJy1waCcsICc3LjAnLCAnLXRuJywgJzgnLCAnLW1hJywgJzIwMCcsICctbWV0YWxfYmluZGluZycsICctaW1hZScsICc8aW5maWxlLm1hZT4nLCAnLW9tYWUnLCAnPG91dGZpbGUubWFlPic=

> <r_lp_tautomer_probability>
1

> <r_epik_Ionization_Penalty>
4.92358e-06

> <r_epik_Ionization_Penalty_Charging>
1.29777e-07

> <r_epik_Ionization_Penalty_Neutral>
4.79381e-06

> <r_epik_State_Penalty>
-0

> <r_epik_Charging_Adjusted_Penalty>
1.29777e-07

> <i_epik_Tot_Q>
0

> <i_epik_Tot_abs_Q>
0

> <r_epik_Metal_State_Penalty>
-0

> <b_epik_Metal_Only>
0

> <s_epik_Chemistry_Notes>
This compound contains an acetal/aminal-like group ( X-CH(R)-Y where X, Y are N, S, or O) that may be acid/base labile, releasing an aldehyde.

> <s_lp_Force_Field>
OPLS_2005

> <r_lp_Energy>
40.7373

> <b_lp_Chiralities_Consistent>
1

> <s_lp_Variant>
AV-unprocessed.smi:284-8

> <Gold.Version>
5.8.1

> <Gold.Id.Protein>
6NUR|6NUR_protein|mol2

> <Gold.PLP.Fitness>
52.4563

> <Gold.PLP.PLP>
-47.0655

> <Gold.PLP.part.hbond>
-1.8390

> <Gold.PLP.part.metal>
0.0000

> <Gold.PLP.part.buried>
-1.6964

> <Gold.PLP.part.nonpolar>
-41.9850

> <Gold.PLP.part.repulsive>
0.9286

> <Gold.PLP.ligand.clash>
0.0000

> <Gold.PLP.ligand.torsion>
0.3681

> <Gold.PLP.Chemscore.Hbond>
2.0000

> <Gold.PLP.Chemscore.CHOScore>
0.0000

> <Gold.PLP.Chemscore.Metal>
0.0000

> <Gold.Chemscore.Hbonds>
donor molecule, donor type, donor heavy atom, donor atom, acceptor molecule, acceptor atom, score
      L1  H     8    40       P1  7921  1.00
      L1  H    11    44       P1 10186  1.00
      P1  H  6896  6907       L1    18  0.08

> <Gold.PLP.Chemscore.Internal.Correction>
0.1270

> <Gold.Rescore>
     Score         DG    S(hbond)    S(metal)    S(lipo)     H(rot)  DE(clash)    DE(int)     intcor
     12.07     -15.83       1.85        0.00     107.28       3.27       1.06       2.70       ----

> <Gold.Chemscore.Fitness>
12.0678

> <Gold.Chemscore.DG>
-15.8321

> <Gold.Chemscore.ZeroCoef>
-5.4800

> <Gold.Chemscore.Hbond>
1.8505

> <Gold.Chemscore.Metal>
0.0000

> <Gold.Chemscore.Lipo>
107.2769

> <Gold.Chemscore.Internal_Hbond>
0.0000

> <Gold.Chemscore.DEClash>
1.0637

> <Gold.Chemscore.DEInternal>
2.7007

> <Gold.Chemscore.Rot>
3.2735

> <Gold.Chemscore.Internal.Correction>
   9.000000E+99

> <Gold.Chemscore.Hbonds>
donor molecule, donor type, donor heavy atom, donor atom, acceptor molecule, acceptor atom, score
      L1  H     8    40       P1  7921  0.98
      L1  H    11    44       P1 10186  0.42
      P1  H  6896  6907       L1    18  0.01

> <Gold.Chemscore.Hbond.Weighted>
-6.1808

> <Gold.Chemscore.Metal.Weighted>
-0.0000

> <Gold.Chemscore.Lipo.Weighted>
-12.5514

> <Gold.Chemscore.Internal_Hbond.Weighted>
0.0000

> <Gold.Chemscore.DEClash.Weighted>
1.0637

> <Gold.Chemscore.DEInternal.Weighted>
2.7007

> <Gold.Chemscore.Rot.Weighted>
8.3801

> <Gold.Chemscore.Internal.Correction.Weighted>
   9.000000E+99

> <Gold.Protein.RotatedTorsions>
[ 6907 6896 6895 6894 ] final -137.32 input  -60.11 | X-H torsion
[ 7974 7965 7964 7962 ] final  128.31 input  175.53 | X-H torsion
[ 8008 7997 7996 7995 ] final  -59.63 input   59.86 | X-H torsion
[ 10167 10162 10161 10158 ] final -160.96 input  -65.29 | X-H torsion
[ 10718 10713 10712 10709 ] final -133.47 input   66.30 | X-H torsion
[ 10763 10752 10751 10750 ] final -132.13 input  -60.55 | X-H torsion
[ 11005 11000 10999 10996 ] final -127.55 input  -57.11 | X-H torsion

> <Gold.Protein.ActiveResidues>
 VAL166  LYS551  ARG553  GLY616  TRP617  ASP618  TYR619  PRO620  LYS621  CYS622 
 ASP623  PHE694  ASN695  SER759  ASP760  ASP761  ALA762  ILE779  LEU786  VAL792 
 PHE793  MET794  SER795  GLU796  ALA797  LYS798  CYS799  TRP800  GLU811  SER814 

> <Gold.Protein.RotatedAtoms>
  151.0210  133.5876  159.2671 H   0  0  0  0  0  0  0  0  0  0  0  0  # atno 6907 bound_to 6896
  151.2993  135.0763  159.9242 H   0  0  0  0  0  0  0  0  0  0  0  0  # atno 6908 bound_to 6896
  152.5323  133.9895  159.7898 H   0  0  0  0  0  0  0  0  0  0  0  0  # atno 6909 bound_to 6896
  145.0410  139.3963  143.5102 H   0  0  0  0  0  0  0  0  0  0  0  0  # atno 7974 bound_to 7965
  154.4361  140.1057  156.6147 H   0  0  0  0  0  0  0  0  0  0  0  0  # atno 8008 bound_to 7997
  155.5772  140.3490  155.4512 H   0  0  0  0  0  0  0  0  0  0  0  0  # atno 8009 bound_to 7997
  156.0345  140.1268  157.0211 H   0  0  0  0  0  0  0  0  0  0  0  0  # atno 8010 bound_to 7997
  139.6500  144.0101  152.2155 H   0  0  0  0  0  0  0  0  0  0  0  0  # atno 10167 bound_to 10162
  156.2452  130.7120  151.0997 H   0  0  0  0  0  0  0  0  0  0  0  0  # atno 10718 bound_to 10713
  154.8745  135.3807  154.4360 H   0  0  0  0  0  0  0  0  0  0  0  0  # atno 10763 bound_to 10752
  153.5049  135.7030  153.5817 H   0  0  0  0  0  0  0  0  0  0  0  0  # atno 10764 bound_to 10752
  153.4132  135.3919  155.2030 H   0  0  0  0  0  0  0  0  0  0  0  0  # atno 10765 bound_to 10752
  140.9590  134.0962  157.3987 H   0  0  0  0  0  0  0  0  0  0  0  0  # atno 11005 bound_to 11000
  146.3509  140.0011  142.8676 LP  0  0  0  0  0  0  0  0  0  0  0  0  # atno 17320 bound_to 7965
  145.1648  140.9691  143.4356 LP  0  0  0  0  0  0  0  0  0  0  0  0  # atno 17321 bound_to 7965
  139.9813  144.6426  150.7898 LP  0  0  0  0  0  0  0  0  0  0  0  0  # atno 17342 bound_to 10162
  140.7533  143.3006  151.3090 LP  0  0  0  0  0  0  0  0  0  0  0  0  # atno 17343 bound_to 10162
  157.7192  131.0692  150.6205 LP  0  0  0  0  0  0  0  0  0  0  0  0  # atno 17370 bound_to 10713
  156.6281  130.4424  149.5797 LP  0  0  0  0  0  0  0  0  0  0  0  0  # atno 17371 bound_to 10713
  139.8871  135.0087  156.6543 LP  0  0  0  0  0  0  0  0  0  0  0  0  # atno 17394 bound_to 11000
  140.7495  133.8909  155.8336 LP  0  0  0  0  0  0  0  0  0  0  0  0  # atno 17395 bound_to 11000

$$$$
