#       Name:                AV-unprocessed.smi:3348
#       Creating user name   scv26
#       Creation time:       Fri Mar 27 19:35:33 2020


#       File generated by GOLD software.
#

@<TRIPOS>MOLECULE
AV-unprocessed.smi:3348
    50    51     1
SMALL
NO_CHARGES


@<TRIPOS>ATOM
      1 ****        -1.4442   2.5187  -0.6327 C.3            1 S1                 0.0000
      2 ****        -0.8936   2.3398   0.7980 C.3            1 S1                 0.0000
      3 ****        -2.0213   2.2220   1.8442 C.3            1 S1                 0.0000
      4 ****        -2.8816   3.3915   1.8835 N.pl3          1 S1                 0.0000
      5 ****        -2.6085   4.6342   2.4148 C.2            1 S1                 0.0000
      6 ****        -3.7150   5.4108   2.2226 C.2            1 S1                 0.0000
      7 ****        -4.6266   4.5417   1.5604 C.2            1 S1                 0.0000
      8 ****        -4.1262   3.3331   1.3613 N.2            1 S1                 0.0000
      9 ****        -0.0219   1.1655   0.9042 N.3            1 S1                 0.0000
     10 ****         1.2030   1.2098   0.1064 C.3            1 S1                 0.0000
     11 ****         2.0548  -0.0402   0.3469 C.3            1 S1                 0.0000
     12 ****         1.4281  -1.1427  -0.2914 O.3            1 S1                 0.0000
     13 ****         2.1445  -2.3691  -0.1958 C.3            1 S1                 0.0000
     14 ****         3.1923  -2.4620  -1.3252 C.3            1 S1                 0.0000
     15 ****         2.5295  -2.5195  -2.7115 C.3            1 S1                 0.0000
     16 ****         1.5220  -3.6759  -2.7997 C.3            1 S1                 0.0000
     17 ****         0.4735  -3.5910  -1.6789 C.3            1 S1                 0.0000
     18 ****         1.1361  -3.5361  -0.2876 C.3            1 S1                 0.0000
     19 ****         0.0951  -3.4881   0.8417 C.3            1 S1                 0.0000
     20 ****        -2.1046   3.3828  -0.7013 H              1 S1                 0.0000
     21 ****        -2.0126   1.6439  -0.9500 H              1 S1                 0.0000
     22 ****        -0.6504   2.6853  -1.3597 H              1 S1                 0.0000
     23 ****        -0.3092   3.2276   1.0432 H              1 S1                 0.0000
     24 ****        -2.6309   1.3380   1.6491 H              1 S1                 0.0000
     25 ****        -1.5957   2.0904   2.8401 H              1 S1                 0.0000
     26 ****        -1.6592   4.8593   2.8780 H              1 S1                 0.0000
     27 ****        -3.8527   6.4421   2.5113 H              1 S1                 0.0000
     28 ****        -5.6305   4.7514   1.2218 H              1 S1                 0.0000
     29 ****        -0.5456   0.3286   0.6669 H              1 S1                 0.0000
     30 ****         0.9823   1.2874  -0.9576 H              1 S1                 0.0000
     31 ****         1.7804   2.0948   0.3757 H              1 S1                 0.0000
     32 ****         3.0482   0.1189  -0.0721 H              1 S1                 0.0000
     33 ****         2.1772  -0.2266   1.4153 H              1 S1                 0.0000
     34 ****         2.6478  -2.4288   0.7709 H              1 S1                 0.0000
     35 ****         3.8871  -1.6239  -1.2809 H              1 S1                 0.0000
     36 ****         3.7958  -3.3587  -1.1802 H              1 S1                 0.0000
     37 ****         2.0215  -1.5757  -2.9140 H              1 S1                 0.0000
     38 ****         3.2913  -2.6308  -3.4833 H              1 S1                 0.0000
     39 ****         1.0282  -3.6656  -3.7719 H              1 S1                 0.0000
     40 ****         2.0516  -4.6270  -2.7327 H              1 S1                 0.0000
     41 ****        -0.1495  -2.7081  -1.8286 H              1 S1                 0.0000
     42 ****        -0.1942  -4.4510  -1.7398 H              1 S1                 0.0000
     43 ****         1.6985  -4.4622  -0.1588 H              1 S1                 0.0000
     44 ****        -0.5254  -2.5940   0.7760 H              1 S1                 0.0000
     45 ****         0.5771  -3.4871   1.8197 H              1 S1                 0.0000
     46 ****        -0.5663  -4.3539   0.8015 H              1 S1                 0.0000
     47 ****        -4.5698   2.5516   0.9226 LP             1 S1                 0.0000
     48 ****         0.2830   1.1578   1.8565 LP             1 S1                 0.0000
     49 ****         1.3179  -0.9207  -1.2602 LP             1 S1                 0.0000
     50 ****         0.5284  -1.2739   0.1250 LP             1 S1                 0.0000
@<TRIPOS>BOND
    1    1    2 1     
    2    1   20 1     
    3    1   21 1     
    4    1   22 1     
    5    2    3 1     
    6    2    9 1     
    7    2   23 1     
    8    3    4 1     
    9    3   24 1     
   10    3   25 1     
   11    4    8 1     
   12    4    5 1     
   13    5    6 2     
   14    5   26 1     
   15    6    7 1     
   16    6   27 1     
   17    7    8 2     
   18    7   28 1     
   19    9   10 1     
   20    9   29 1     
   21   10   11 1     
   22   10   30 1     
   23   10   31 1     
   24   11   12 1     
   25   11   32 1     
   26   11   33 1     
   27   12   13 1     
   28   13   18 1     
   29   13   14 1     
   30   13   34 1     
   31   14   15 1     
   32   14   35 1     
   33   14   36 1     
   34   15   16 1     
   35   15   37 1     
   36   15   38 1     
   37   16   17 1     
   38   16   39 1     
   39   16   40 1     
   40   17   18 1     
   41   17   41 1     
   42   17   42 1     
   43   18   19 1     
   44   18   43 1     
   45   19   44 1     
   46   19   45 1     
   47   19   46 1     
   48    8   47 1     
   49    9   48 1     
   50   12   49 1     
   51   12   50 1     
@<TRIPOS>SUBSTRUCTURE
      1 S1             1
@<TRIPOS>SET
LONE_PAIRS      STATIC     ATOMS    <user>   **** ""
4 47 48 49 50
DONOR_HYDROGENS      STATIC     ATOMS    <user>   **** ""
1 29
ATOM$BLUE        STATIC     ATOMS    COLORGROUP SYSTEM
4 47 48 49 50
ATOM$RED        STATIC     ATOMS    COLORGROUP SYSTEM
1 29
