AV-unprocessed.smi:676|AV-procd|sdf|3310|dock7
  -GOLD-   22720 0273D 1   1.00000     0.00000
 Structure written by MMmdl.
 42 43  0  0  0  0  0  0  0  0  1 V2000
  150.1196  135.8925  157.1634 C   0  0  0  0  0  0  0  0  0  0  0  0
  150.6888  136.7630  156.1941 O   0  0  0  0  0  0  0  0  0  0  0  0
  149.9507  137.9495  155.8970 C   0  0  2  0  0  0  0  0  0  0  0  0
  148.6546  137.5905  155.1534 C   0  0  0  0  0  0  0  0  0  0  0  0
  150.8417  139.0554  155.3017 C   0  0  0  0  0  0  0  0  0  0  0  0
  150.1121  140.0215  156.2320 C   0  0  2  0  0  0  0  0  0  0  0  0
  150.9863  141.0601  156.7656 N   0  0  0  0  0  0  0  0  0  0  0  0
  150.7511  141.7359  157.8993 C   0  0  0  0  0  0  0  0  0  0  0  0
  149.7569  141.5442  158.6014 O   0  0  0  0  0  0  0  0  0  0  0  0
  151.8183  142.7644  158.2998 C   0  0  0  0  0  0  0  0  0  0  0  0
  152.5262  142.4194  159.5439 N   0  0  0  0  0  0  0  0  0  0  0  0
  152.4867  143.3671  160.5863 C   0  0  0  0  0  0  0  0  0  0  0  0
  153.1051  143.1584  161.7594 C   0  0  0  0  0  0  0  0  0  0  0  0
  153.8256  141.9203  161.9403 C   0  0  0  0  0  0  0  0  0  0  0  0
  153.8729  141.0088  160.9483 C   0  0  0  0  0  0  0  0  0  0  0  0
  153.2020  141.2348  159.6627 C   0  0  0  0  0  0  0  0  0  0  0  0
  153.2451  140.4102  158.7493 O   0  0  0  0  0  0  0  0  0  0  0  0
  149.8623  138.8269  157.1881 C   0  0  0  0  0  0  0  0  0  0  0  0
  148.5211  138.8336  157.9284 C   0  0  0  0  0  0  0  0  0  0  0  0
  150.9351  138.5616  158.2640 C   0  0  0  0  0  0  0  0  0  0  0  0
  150.7177  134.9830  157.2192 H   0  0  0  0  0  0  0  0  0  0  0  0
  149.1015  135.6015  156.9046 H   0  0  0  0  0  0  0  0  0  0  0  0
  150.1163  136.3380  158.1579 H   0  0  0  0  0  0  0  0  0  0  0  0
  148.0067  138.4573  155.0252 H   0  0  0  0  0  0  0  0  0  0  0  0
  148.0848  136.8337  155.6928 H   0  0  0  0  0  0  0  0  0  0  0  0
  148.8522  137.2064  154.1531 H   0  0  0  0  0  0  0  0  0  0  0  0
  151.9020  138.9379  155.5340 H   0  0  0  0  0  0  0  0  0  0  0  0
  150.6849  139.2464  154.2396 H   0  0  0  0  0  0  0  0  0  0  0  0
  149.1957  140.4057  155.7781 H   0  0  0  0  0  0  0  0  0  0  0  0
  151.8258  141.2698  156.2454 H   0  0  0  0  0  0  0  0  0  0  0  0
  152.5265  142.8572  157.4751 H   0  0  0  0  0  0  0  0  0  0  0  0
  151.3529  143.7478  158.3879 H   0  0  0  0  0  0  0  0  0  0  0  0
  151.9337  144.2692  160.3674 H   0  0  0  0  0  0  0  0  0  0  0  0
  153.0686  143.8987  162.5450 H   0  0  0  0  0  0  0  0  0  0  0  0
  154.3302  141.7243  162.8749 H   0  0  0  0  0  0  0  0  0  0  0  0
  154.4177  140.0885  161.1013 H   0  0  0  0  0  0  0  0  0  0  0  0
  148.5293  139.5310  158.7668 H   0  0  0  0  0  0  0  0  0  0  0  0
  148.2796  137.8465  158.3234 H   0  0  0  0  0  0  0  0  0  0  0  0
  147.6984  139.1360  157.2807 H   0  0  0  0  0  0  0  0  0  0  0  0
  150.9293  139.3303  159.0375 H   0  0  0  0  0  0  0  0  0  0  0  0
  151.9423  138.5363  157.8478 H   0  0  0  0  0  0  0  0  0  0  0  0
  150.7721  137.6048  158.7614 H   0  0  0  0  0  0  0  0  0  0  0  0
  1  2  1  0  0  0  0
  1 21  1  0  0  0  0
  1 22  1  0  0  0  0
  1 23  1  0  0  0  0
  2  3  1  0  0  0  0
  3 18  1  0  0  0  0
  3  4  1  0  0  0  0
  3  5  1  0  0  0  0
  4 24  1  0  0  0  0
  4 25  1  0  0  0  0
  4 26  1  0  0  0  0
  5  6  1  0  0  0  0
  5 27  1  0  0  0  0
  5 28  1  0  0  0  0
  6  7  1  0  0  0  0
  6 18  1  0  0  0  0
  6 29  1  0  0  0  0
  7  8  1  0  0  0  0
  7 30  1  0  0  0  0
  8  9  2  0  0  0  0
  8 10  1  0  0  0  0
 10 11  1  0  0  0  0
 10 31  1  0  0  0  0
 10 32  1  0  0  0  0
 11 16  1  0  0  0  0
 11 12  1  0  0  0  0
 12 13  2  0  0  0  0
 12 33  1  0  0  0  0
 13 14  1  0  0  0  0
 13 34  1  0  0  0  0
 14 15  2  0  0  0  0
 14 35  1  0  0  0  0
 15 16  1  0  0  0  0
 15 36  1  0  0  0  0
 16 17  2  0  0  0  0
 18 19  1  0  0  0  0
 18 20  1  0  0  0  0
 19 37  1  0  0  0  0
 19 38  1  0  0  0  0
 19 39  1  0  0  0  0
 20 40  1  0  0  0  0
 20 41  1  0  0  0  0
 20 42  1  0  0  0  0
M  END
> <s_m_source_file>
AV-unprocessed.smi

> <i_m_source_file_index>
676

> <i_lp_mmshare_version>
43012

> <i_f3d_flags>
0

> <s_epik_input>
W0NIM11PW0NAQF0xKFtDSDNdKVtDSDJdW0NASF0oQzEoW0NIM10pW0NIM10pW05IXUMoPU8pW0NIMl1uMltjSF1bY0hdW2NIXVtjSF1jMj1P

> <s_epik_cmdline>
J2VwaWtfcHl0aG9uJywgJy1waCcsICc3LjAnLCAnLXRuJywgJzgnLCAnLW1hJywgJzIwMCcsICctbWV0YWxfYmluZGluZycsICctaW1hZScsICc8aW5maWxlLm1hZT4nLCAnLW9tYWUnLCAnPG91dGZpbGUubWFlPic=

> <r_lp_tautomer_probability>
1

> <r_epik_Ionization_Penalty>
4.09771e-07

> <r_epik_Ionization_Penalty_Charging>
3.90712e-07

> <r_epik_Ionization_Penalty_Neutral>
1.90591e-08

> <r_epik_State_Penalty>
-0

> <r_epik_Charging_Adjusted_Penalty>
3.90712e-07

> <i_epik_Tot_Q>
0

> <i_epik_Tot_abs_Q>
0

> <r_epik_Metal_State_Penalty>
-0

> <b_epik_Metal_Only>
0

> <s_lp_Force_Field>
OPLS_2005

> <r_lp_Energy>
31.4384

> <b_lp_Chiralities_Consistent>
1

> <s_lp_Variant>
AV-unprocessed.smi:676-4

> <Gold.Version>
5.8.1

> <Gold.Id.Protein>
6NUR|6NUR_protein|mol2

> <Gold.PLP.Fitness>
42.7067

> <Gold.PLP.PLP>
-38.0631

> <Gold.PLP.part.hbond>
-2.0000

> <Gold.PLP.part.metal>
0.0000

> <Gold.PLP.part.buried>
-2.0887

> <Gold.PLP.part.nonpolar>
-33.0224

> <Gold.PLP.part.repulsive>
0.1686

> <Gold.PLP.ligand.clash>
0.0000

> <Gold.PLP.ligand.torsion>
0.3368

> <Gold.PLP.Chemscore.Hbond>
1.6481

> <Gold.PLP.Chemscore.CHOScore>
0.0000

> <Gold.PLP.Chemscore.Metal>
0.0000

> <Gold.Chemscore.Hbonds>
donor molecule, donor type, donor heavy atom, donor atom, acceptor molecule, acceptor atom, score
      P1  H  7997  8009       L1    17  0.48

> <Gold.PLP.Chemscore.Internal.Correction>
0.3729

> <Gold.Rescore>
     Score         DG    S(hbond)    S(metal)    S(lipo)     H(rot)  DE(clash)    DE(int)     intcor
     15.92     -16.97       1.66        0.00      86.24       1.62       0.02       1.03       ----

> <Gold.Chemscore.Fitness>
15.9226

> <Gold.Chemscore.DG>
-16.9691

> <Gold.Chemscore.ZeroCoef>
-5.4800

> <Gold.Chemscore.Hbond>
1.6587

> <Gold.Chemscore.Metal>
0.0000

> <Gold.Chemscore.Lipo>
86.2368

> <Gold.Chemscore.Internal_Hbond>
0.0000

> <Gold.Chemscore.DEClash>
0.0201

> <Gold.Chemscore.DEInternal>
1.0264

> <Gold.Chemscore.Rot>
1.6175

> <Gold.Chemscore.Internal.Correction>
   9.000000E+99

> <Gold.Chemscore.Hbonds>
donor molecule, donor type, donor heavy atom, donor atom, acceptor molecule, acceptor atom, score
      P1  H  7997  8009       L1    17  0.49

> <Gold.Chemscore.Hbond.Weighted>
-5.5401

> <Gold.Chemscore.Metal.Weighted>
-0.0000

> <Gold.Chemscore.Lipo.Weighted>
-10.0897

> <Gold.Chemscore.Internal_Hbond.Weighted>
0.0000

> <Gold.Chemscore.DEClash.Weighted>
0.0201

> <Gold.Chemscore.DEInternal.Weighted>
1.0264

> <Gold.Chemscore.Rot.Weighted>
4.1408

> <Gold.Chemscore.Internal.Correction.Weighted>
   9.000000E+99

> <Gold.Protein.RotatedTorsions>
[ 6907 6896 6895 6894 ] final    3.86 input  -60.11 | X-H torsion
[ 7974 7965 7964 7962 ] final  -99.32 input  175.53 | X-H torsion
[ 8008 7997 7996 7995 ] final  144.99 input   59.86 | X-H torsion
[ 10167 10162 10161 10158 ] final -168.50 input  -65.29 | X-H torsion
[ 10718 10713 10712 10709 ] final  126.70 input   66.30 | X-H torsion
[ 10763 10752 10751 10750 ] final   65.34 input  -60.55 | X-H torsion
[ 11005 11000 10999 10996 ] final  175.12 input  -57.11 | X-H torsion

> <Gold.Protein.ActiveResidues>
 VAL166  LYS551  ARG553  GLY616  TRP617  ASP618  TYR619  PRO620  LYS621  CYS622 
 ASP623  PHE694  ASN695  SER759  ASP760  ASP761  ALA762  ILE779  LEU786  VAL792 
 PHE793  MET794  SER795  GLU796  ALA797  LYS798  CYS799  TRP800  GLU811  SER814 

> <Gold.Protein.RotatedAtoms>
  151.6319  135.1022  160.0123 H   0  0  0  0  0  0  0  0  0  0  0  0  # atno 6907 bound_to 6896
  152.4101  133.6946  159.6399 H   0  0  0  0  0  0  0  0  0  0  0  0  # atno 6908 bound_to 6896
  150.7992  133.8556  159.3258 H   0  0  0  0  0  0  0  0  0  0  0  0  # atno 6909 bound_to 6896
  145.3091  140.9396  143.2780 H   0  0  0  0  0  0  0  0  0  0  0  0  # atno 7974 bound_to 7965
  156.2894  140.2221  156.5142 H   0  0  0  0  0  0  0  0  0  0  0  0  # atno 8008 bound_to 7997
  154.7583  140.0475  157.0974 H   0  0  0  0  0  0  0  0  0  0  0  0  # atno 8009 bound_to 7997
  155.0023  140.3103  155.4866 H   0  0  0  0  0  0  0  0  0  0  0  0  # atno 8010 bound_to 7997
  139.5981  144.1068  152.1712 H   0  0  0  0  0  0  0  0  0  0  0  0  # atno 10167 bound_to 10162
  157.5397  131.1097  150.8879 H   0  0  0  0  0  0  0  0  0  0  0  0  # atno 10718 bound_to 10713
  153.0092  135.5360  154.6652 H   0  0  0  0  0  0  0  0  0  0  0  0  # atno 10763 bound_to 10752
  154.5851  135.2853  155.0695 H   0  0  0  0  0  0  0  0  0  0  0  0  # atno 10764 bound_to 10752
  154.1810  135.6516  153.5086 H   0  0  0  0  0  0  0  0  0  0  0  0  # atno 10765 bound_to 10752
  140.3587  134.7132  157.4317 H   0  0  0  0  0  0  0  0  0  0  0  0  # atno 11005 bound_to 11000
  144.9030  139.4625  143.6623 LP  0  0  0  0  0  0  0  0  0  0  0  0  # atno 17320 bound_to 7965
  146.3124  139.7795  142.9009 LP  0  0  0  0  0  0  0  0  0  0  0  0  # atno 17321 bound_to 7965
  140.0658  144.5819  150.7228 LP  0  0  0  0  0  0  0  0  0  0  0  0  # atno 17342 bound_to 10162
  140.7228  143.2606  151.4221 LP  0  0  0  0  0  0  0  0  0  0  0  0  # atno 17343 bound_to 10162
  156.9435  130.5393  149.5280 LP  0  0  0  0  0  0  0  0  0  0  0  0  # atno 17370 bound_to 10713
  156.0487  130.5559  150.8939 LP  0  0  0  0  0  0  0  0  0  0  0  0  # atno 17371 bound_to 10713
  140.0644  134.5950  155.8712 LP  0  0  0  0  0  0  0  0  0  0  0  0  # atno 17394 bound_to 11000
  141.1990  133.6604  156.5824 LP  0  0  0  0  0  0  0  0  0  0  0  0  # atno 17395 bound_to 11000

$$$$
