AV-unprocessed.smi:1189|AV-procd|sdf|4979|dock7
  -GOLD-   22720 3573D 1   1.00000     0.00000
 Structure written by MMmdl.
 33 34  0  0  0  0  0  0  0  0  1 V2000
  150.9807  140.5063  155.2646 O   0  0  0  0  0  0  0  0  0  0  0  0
  151.5507  140.2843  156.3339 C   0  0  0  0  0  0  0  0  0  0  0  0
  152.2108  138.9275  156.6081 C   0  0  0  0  0  0  0  0  0  0  0  0
  152.7242  138.8196  157.9637 N   0  0  0  0  0  0  0  0  0  0  0  0
  152.4598  137.8480  158.9052 C   0  0  0  0  0  0  0  0  0  0  0  0
  153.1741  138.1638  160.0248 C   0  0  0  0  0  0  0  0  0  0  0  0
  153.8610  139.3619  159.6722 C   0  0  0  0  0  0  0  0  0  0  0  0
  154.8097  140.1760  160.5123 C   0  0  0  0  0  0  0  0  0  0  0  0
  154.9643  139.6144  161.7114 F   0  0  0  0  0  0  0  0  0  0  0  0
  155.9998  140.2473  159.9159 F   0  0  0  0  0  0  0  0  0  0  0  0
  154.3299  141.4090  160.6750 F   0  0  0  0  0  0  0  0  0  0  0  0
  153.5818  139.7505  158.4349 N   0  0  0  0  0  0  0  0  0  0  0  0
  151.6274  141.1846  157.3264 N   0  0  0  0  0  0  0  0  0  0  0  0
  151.0750  142.5355  157.2913 C   0  0  0  0  0  0  0  0  0  0  0  0
  151.8576  143.5047  158.1978 C   0  0  1  0  0  0  0  0  0  0  0  0
  151.1677  144.8382  158.4029 C   0  0  0  0  0  0  0  0  0  0  0  0
  151.8661  145.3759  159.6492 C   0  0  0  0  0  0  0  0  0  0  0  0
  152.2735  144.2338  160.3974 O   0  0  0  0  0  0  0  0  0  0  0  0
  152.0329  143.0480  159.6471 C   0  0  0  0  0  0  0  0  0  0  0  0
  151.4980  138.1197  156.4330 H   0  0  0  0  0  0  0  0  0  0  0  0
  153.0361  138.7843  155.9099 H   0  0  0  0  0  0  0  0  0  0  0  0
  151.7956  137.0213  158.7007 H   0  0  0  0  0  0  0  0  0  0  0  0
  153.2047  137.6190  160.9566 H   0  0  0  0  0  0  0  0  0  0  0  0
  152.1129  140.9155  158.1699 H   0  0  0  0  0  0  0  0  0  0  0  0
  151.1272  142.8844  156.2598 H   0  0  0  0  0  0  0  0  0  0  0  0
  150.0160  142.5294  157.5556 H   0  0  0  0  0  0  0  0  0  0  0  0
  152.8431  143.6897  157.7671 H   0  0  0  0  0  0  0  0  0  0  0  0
  151.2593  145.5054  157.5453 H   0  0  0  0  0  0  0  0  0  0  0  0
  150.1063  144.6891  158.6068 H   0  0  0  0  0  0  0  0  0  0  0  0
  152.7551  145.9437  159.3730 H   0  0  0  0  0  0  0  0  0  0  0  0
  151.2184  146.0262  160.2375 H   0  0  0  0  0  0  0  0  0  0  0  0
  151.1178  142.5857  160.0199 H   0  0  0  0  0  0  0  0  0  0  0  0
  152.8468  142.3325  159.7660 H   0  0  0  0  0  0  0  0  0  0  0  0
  1  2  2  0  0  0  0
  2  3  1  0  0  0  0
  2 13  1  0  0  0  0
  3  4  1  0  0  0  0
  3 20  1  0  0  0  0
  3 21  1  0  0  0  0
  4 12  1  0  0  0  0
  4  5  1  0  0  0  0
  5  6  2  0  0  0  0
  5 22  1  0  0  0  0
  6  7  1  0  0  0  0
  6 23  1  0  0  0  0
  7  8  1  0  0  0  0
  7 12  2  0  0  0  0
  8  9  1  0  0  0  0
  8 10  1  0  0  0  0
  8 11  1  0  0  0  0
 13 14  1  0  0  0  0
 13 24  1  0  0  0  0
 14 15  1  0  0  0  0
 14 25  1  0  0  0  0
 14 26  1  0  0  0  0
 15 19  1  0  0  0  0
 15 16  1  0  0  0  0
 15 27  1  0  0  0  0
 16 17  1  0  0  0  0
 16 28  1  0  0  0  0
 16 29  1  0  0  0  0
 17 18  1  0  0  0  0
 17 30  1  0  0  0  0
 17 31  1  0  0  0  0
 18 19  1  0  0  0  0
 19 32  1  0  0  0  0
 19 33  1  0  0  0  0
M  END
> <s_m_source_file>
AV-unprocessed.smi

> <i_m_source_file_index>
1189

> <i_lp_mmshare_version>
43012

> <i_f3d_flags>
0

> <s_epik_input>
W0NIMl0xT1tDSDJdW0NIMl1bQ0BIXTFbQ0gyXVtOSF1DKD1PKVtDSDJdbjJbY0hdW2NIXWMobjIpQyhGKShGKUY=

> <s_epik_cmdline>
J2VwaWtfcHl0aG9uJywgJy1waCcsICc3LjAnLCAnLXRuJywgJzgnLCAnLW1hJywgJzIwMCcsICctbWV0YWxfYmluZGluZycsICctaW1hZScsICc8aW5maWxlLm1hZT4nLCAnLW9tYWUnLCAnPG91dGZpbGUubWFlPic=

> <r_lp_tautomer_probability>
1

> <r_epik_Ionization_Penalty>
1.26564e-07

> <r_epik_Ionization_Penalty_Charging>
0

> <r_epik_Ionization_Penalty_Neutral>
1.26564e-07

> <r_epik_State_Penalty>
-0

> <r_epik_Charging_Adjusted_Penalty>
0

> <i_epik_Tot_Q>
0

> <i_epik_Tot_abs_Q>
0

> <r_epik_Metal_State_Penalty>
-0

> <b_epik_Metal_Only>
0

> <s_lp_Force_Field>
OPLS_2005

> <r_lp_Energy>
22.0534

> <b_lp_Chiralities_Consistent>
1

> <s_lp_Variant>
AV-unprocessed.smi:1189-2

> <Gold.Version>
5.8.1

> <Gold.Id.Protein>
6NUR|6NUR_protein|mol2

> <Gold.PLP.Fitness>
44.8369

> <Gold.PLP.PLP>
-39.4664

> <Gold.PLP.part.hbond>
-2.0000

> <Gold.PLP.part.metal>
0.0000

> <Gold.PLP.part.buried>
-4.6219

> <Gold.PLP.part.nonpolar>
-32.7389

> <Gold.PLP.part.repulsive>
0.1967

> <Gold.PLP.ligand.clash>
0.0000

> <Gold.PLP.ligand.torsion>
0.2837

> <Gold.PLP.Chemscore.Hbond>
1.9760

> <Gold.PLP.Chemscore.CHOScore>
0.0000

> <Gold.PLP.Chemscore.Metal>
0.0000

> <Gold.Chemscore.Hbonds>
donor molecule, donor type, donor heavy atom, donor atom, acceptor molecule, acceptor atom, score
      P1  H  7989  7998       L1     1  0.98
      P1  H  7997  8008       L1    12  1.00

> <Gold.PLP.Chemscore.Internal.Correction>
0.0099

> <Gold.Rescore>
     Score         DG    S(hbond)    S(metal)    S(lipo)     H(rot)  DE(clash)    DE(int)     intcor
     16.98     -17.32       1.88        0.00      88.90       1.89       0.06       0.29       ----

> <Gold.Chemscore.Fitness>
16.9793

> <Gold.Chemscore.DG>
-17.3234

> <Gold.Chemscore.ZeroCoef>
-5.4800

> <Gold.Chemscore.Hbond>
1.8827

> <Gold.Chemscore.Metal>
0.0000

> <Gold.Chemscore.Lipo>
88.8959

> <Gold.Chemscore.Internal_Hbond>
0.0000

> <Gold.Chemscore.DEClash>
0.0581

> <Gold.Chemscore.DEInternal>
0.2860

> <Gold.Chemscore.Rot>
1.8928

> <Gold.Chemscore.Internal.Correction>
   9.000000E+99

> <Gold.Chemscore.Hbonds>
donor molecule, donor type, donor heavy atom, donor atom, acceptor molecule, acceptor atom, score
      P1  H  7989  7998       L1     1  0.93
      P1  H  7997  8008       L1    12  0.69

> <Gold.Chemscore.Hbond.Weighted>
-6.2881

> <Gold.Chemscore.Metal.Weighted>
-0.0000

> <Gold.Chemscore.Lipo.Weighted>
-10.4008

> <Gold.Chemscore.Internal_Hbond.Weighted>
0.0000

> <Gold.Chemscore.DEClash.Weighted>
0.0581

> <Gold.Chemscore.DEInternal.Weighted>
0.2860

> <Gold.Chemscore.Rot.Weighted>
4.8455

> <Gold.Chemscore.Internal.Correction.Weighted>
   9.000000E+99

> <Gold.Protein.RotatedTorsions>
[ 6907 6896 6895 6894 ] final  -52.54 input  -60.11 | X-H torsion
[ 7974 7965 7964 7962 ] final  150.89 input  175.53 | X-H torsion
[ 8008 7997 7996 7995 ] final -109.15 input   59.86 | X-H torsion
[ 10167 10162 10161 10158 ] final   49.56 input  -65.29 | X-H torsion
[ 10718 10713 10712 10709 ] final -154.59 input   66.30 | X-H torsion
[ 10763 10752 10751 10750 ] final  179.47 input  -60.55 | X-H torsion
[ 11005 11000 10999 10996 ] final  -94.54 input  -57.11 | X-H torsion

> <Gold.Protein.ActiveResidues>
 VAL166  LYS551  ARG553  GLY616  TRP617  ASP618  TYR619  PRO620  LYS621  CYS622 
 ASP623  PHE694  ASN695  SER759  ASP760  ASP761  ALA762  ILE779  LEU786  VAL792 
 PHE793  MET794  SER795  GLU796  ALA797  LYS798  CYS799  TRP800  GLU811  SER814 

> <Gold.Protein.RotatedAtoms>
  150.8509  134.7833  159.7007 H   0  0  0  0  0  0  0  0  0  0  0  0  # atno 6907 bound_to 6896
  152.4574  134.5258  159.9806 H   0  0  0  0  0  0  0  0  0  0  0  0  # atno 6908 bound_to 6896
  151.5379  133.3399  159.2966 H   0  0  0  0  0  0  0  0  0  0  0  0  # atno 6909 bound_to 6896
  144.8332  139.6466  143.6050 H   0  0  0  0  0  0  0  0  0  0  0  0  # atno 7974 bound_to 7965
  154.9550  140.0400  157.2162 H   0  0  0  0  0  0  0  0  0  0  0  0  # atno 8008 bound_to 7997
  154.7942  140.2841  155.5947 H   0  0  0  0  0  0  0  0  0  0  0  0  # atno 8009 bound_to 7997
  156.2953  140.2567  156.2797 H   0  0  0  0  0  0  0  0  0  0  0  0  # atno 8010 bound_to 7997
  140.2816  144.3149  150.6263 H   0  0  0  0  0  0  0  0  0  0  0  0  # atno 10167 bound_to 10162
  156.5014  130.8393  151.2611 H   0  0  0  0  0  0  0  0  0  0  0  0  # atno 10718 bound_to 10713
  154.5210  135.2794  155.1262 H   0  0  0  0  0  0  0  0  0  0  0  0  # atno 10763 bound_to 10752
  154.2819  135.6283  153.5354 H   0  0  0  0  0  0  0  0  0  0  0  0  # atno 10764 bound_to 10752
  152.9937  135.5653  154.5700 H   0  0  0  0  0  0  0  0  0  0  0  0  # atno 10765 bound_to 10752
  141.1467  133.7963  157.0312 H   0  0  0  0  0  0  0  0  0  0  0  0  # atno 11005 bound_to 11000
  146.2633  139.6460  142.9347 LP  0  0  0  0  0  0  0  0  0  0  0  0  # atno 17320 bound_to 7965
  145.4852  141.0438  143.2624 LP  0  0  0  0  0  0  0  0  0  0  0  0  # atno 17321 bound_to 7965
  140.5807  143.2173  151.7434 LP  0  0  0  0  0  0  0  0  0  0  0  0  # atno 17342 bound_to 10162
  139.4961  144.4085  152.0106 LP  0  0  0  0  0  0  0  0  0  0  0  0  # atno 17343 bound_to 10162
  157.7462  130.9980  150.2838 LP  0  0  0  0  0  0  0  0  0  0  0  0  # atno 17370 bound_to 10713
  156.3329  130.3803  149.7475 LP  0  0  0  0  0  0  0  0  0  0  0  0  # atno 17371 bound_to 10713
  140.0753  134.9679  157.1535 LP  0  0  0  0  0  0  0  0  0  0  0  0  # atno 17394 bound_to 11000
  140.3653  134.2449  155.7183 LP  0  0  0  0  0  0  0  0  0  0  0  0  # atno 17395 bound_to 11000

$$$$
