AV-unprocessed.smi:213|AV-procd|sdf|1646|dock7
  -GOLD-   2262020 23D 1   1.00000     0.00000
 Structure written by MMmdl.
 58 61  0  0  0  0  0  0  0  0  1 V2000
  145.3261  136.6496  154.4196 C   0  0  0  0  0  0  0  0  0  0  0  0
  146.2934  136.6810  153.2187 C   0  0  1  0  0  0  0  0  0  0  0  0
  145.5893  136.3536  151.8791 C   0  0  0  0  0  0  0  0  0  0  0  0
  145.2085  134.9537  151.6823 N   0  0  0  0  0  0  0  0  0  0  0  0
  146.3683  134.0781  151.8116 C   0  0  0  0  0  0  0  0  0  0  0  0
  145.9959  132.5969  151.6353 C   0  0  0  0  0  0  0  0  0  0  0  0
  145.3701  132.4142  150.3703 O   0  0  0  0  0  0  0  0  0  0  0  0
  144.2016  133.2132  150.2198 C   0  0  0  0  0  0  0  0  0  0  0  0
  144.5567  134.6997  150.4013 C   0  0  0  0  0  0  0  0  0  0  0  0
  146.9604  137.9848  153.1533 N   0  0  0  0  0  0  0  0  0  0  0  0
  146.7234  138.8909  152.0308 C   0  0  0  0  0  0  0  0  0  0  0  0
  147.9624  138.3029  154.0173 C   0  0  0  0  0  0  0  0  0  0  0  0
  148.5206  137.2911  154.7346 N   0  0  0  0  0  0  0  0  0  0  0  0
  149.5140  137.5320  155.5942 C   0  0  0  0  0  0  0  0  0  0  0  0
  150.0935  138.6948  155.8938 N   0  0  0  0  0  0  0  0  0  0  0  0
  149.5336  139.7192  155.1905 C   0  0  0  0  0  0  0  0  0  0  0  0
  148.4752  139.6173  154.2412 C   0  0  0  0  0  0  0  0  0  0  0  0
  148.1722  140.8843  153.7528 N   0  0  0  0  0  0  0  0  0  0  0  0
  149.0056  141.6803  154.3629 C   0  0  0  0  0  0  0  0  0  0  0  0
  149.8591  141.0625  155.2459 N   0  0  0  0  0  0  0  0  0  0  0  0
  150.8803  141.6969  156.0608 C   0  0  0  0  0  0  0  0  0  0  0  0
  150.4071  141.9537  157.5053 C   0  0  2  0  0  0  0  0  0  0  0  0
  149.2040  142.6988  157.4757 O   0  0  0  0  0  0  0  0  0  0  0  0
  151.4506  142.7277  158.3319 C   0  0  1  0  0  0  0  0  0  0  0  0
  151.7874  144.1150  157.7881 C   0  0  0  0  0  0  0  0  0  0  0  0
  152.3877  144.7896  159.0033 C   0  0  0  0  0  0  0  0  0  0  0  0
  151.6215  144.1546  160.1653 C   0  0  0  0  0  0  0  0  0  0  0  0
  150.9459  143.0197  159.6289 O   0  0  0  0  0  0  0  0  0  0  0  0
  144.8710  135.6705  154.5561 H   0  0  0  0  0  0  0  0  0  0  0  0
  144.5125  137.3662  154.3059 H   0  0  0  0  0  0  0  0  0  0  0  0
  145.8503  136.8904  155.3450 H   0  0  0  0  0  0  0  0  0  0  0  0
  147.0487  135.9217  153.4189 H   0  0  0  0  0  0  0  0  0  0  0  0
  144.7231  137.0026  151.7430 H   0  0  0  0  0  0  0  0  0  0  0  0
  146.2739  136.6190  151.0716 H   0  0  0  0  0  0  0  0  0  0  0  0
  147.1213  134.3501  151.0704 H   0  0  0  0  0  0  0  0  0  0  0  0
  146.8302  134.2167  152.7898 H   0  0  0  0  0  0  0  0  0  0  0  0
  146.8877  131.9723  151.6857 H   0  0  0  0  0  0  0  0  0  0  0  0
  145.3276  132.2685  152.4331 H   0  0  0  0  0  0  0  0  0  0  0  0
  143.7783  133.0428  149.2299 H   0  0  0  0  0  0  0  0  0  0  0  0
  143.4486  132.9062  150.9473 H   0  0  0  0  0  0  0  0  0  0  0  0
  143.6357  135.2759  150.3302 H   0  0  0  0  0  0  0  0  0  0  0  0
  145.2030  135.0238  149.5844 H   0  0  0  0  0  0  0  0  0  0  0  0
  147.6590  139.3119  151.6604 H   0  0  0  0  0  0  0  0  0  0  0  0
  146.0733  139.7104  152.3382 H   0  0  0  0  0  0  0  0  0  0  0  0
  146.2468  138.3733  151.1986 H   0  0  0  0  0  0  0  0  0  0  0  0
  149.8999  136.6689  156.1161 H   0  0  0  0  0  0  0  0  0  0  0  0
  149.0152  142.7463  154.1881 H   0  0  0  0  0  0  0  0  0  0  0  0
  151.7606  141.0531  156.0591 H   0  0  0  0  0  0  0  0  0  0  0  0
  151.1779  142.6316  155.5835 H   0  0  0  0  0  0  0  0  0  0  0  0
  150.1993  140.9995  157.9912 H   0  0  0  0  0  0  0  0  0  0  0  0
  149.2177  143.2605  156.7159 H   0  0  0  0  0  0  0  0  0  0  0  0
  152.3660  142.1425  158.4406 H   0  0  0  0  0  0  0  0  0  0  0  0
  152.4691  144.0876  156.9375 H   0  0  0  0  0  0  0  0  0  0  0  0
  150.8793  144.6368  157.4821 H   0  0  0  0  0  0  0  0  0  0  0  0
  153.4479  144.5443  159.0784 H   0  0  0  0  0  0  0  0  0  0  0  0
  152.2928  145.8755  158.9748 H   0  0  0  0  0  0  0  0  0  0  0  0
  152.2973  143.8548  160.9669 H   0  0  0  0  0  0  0  0  0  0  0  0
  150.8859  144.8432  160.5818 H   0  0  0  0  0  0  0  0  0  0  0  0
  1  2  1  0  0  0  0
  1 29  1  0  0  0  0
  1 30  1  0  0  0  0
  1 31  1  0  0  0  0
  2  3  1  0  0  0  0
  2 10  1  0  0  0  0
  2 32  1  0  0  0  0
  3  4  1  0  0  0  0
  3 33  1  0  0  0  0
  3 34  1  0  0  0  0
  4  9  1  0  0  0  0
  4  5  1  0  0  0  0
  5  6  1  0  0  0  0
  5 35  1  0  0  0  0
  5 36  1  0  0  0  0
  6  7  1  0  0  0  0
  6 37  1  0  0  0  0
  6 38  1  0  0  0  0
  7  8  1  0  0  0  0
  8  9  1  0  0  0  0
  8 39  1  0  0  0  0
  8 40  1  0  0  0  0
  9 41  1  0  0  0  0
  9 42  1  0  0  0  0
 10 11  1  0  0  0  0
 10 12  1  0  0  0  0
 11 43  1  0  0  0  0
 11 44  1  0  0  0  0
 11 45  1  0  0  0  0
 12 17  1  0  0  0  0
 12 13  2  0  0  0  0
 13 14  1  0  0  0  0
 14 15  2  0  0  0  0
 14 46  1  0  0  0  0
 15 16  1  0  0  0  0
 16 20  1  0  0  0  0
 16 17  2  0  0  0  0
 17 18  1  0  0  0  0
 18 19  2  0  0  0  0
 19 20  1  0  0  0  0
 19 47  1  0  0  0  0
 20 21  1  0  0  0  0
 21 22  1  0  0  0  0
 21 48  1  0  0  0  0
 21 49  1  0  0  0  0
 22 23  1  0  0  0  0
 22 24  1  0  0  0  0
 22 50  1  0  0  0  0
 23 51  1  0  0  0  0
 24 28  1  0  0  0  0
 24 25  1  0  0  0  0
 24 52  1  0  0  0  0
 25 26  1  0  0  0  0
 25 53  1  0  0  0  0
 25 54  1  0  0  0  0
 26 27  1  0  0  0  0
 26 55  1  0  0  0  0
 26 56  1  0  0  0  0
 27 28  1  0  0  0  0
 27 57  1  0  0  0  0
 27 58  1  0  0  0  0
M  END
> <s_m_source_file>
AV-unprocessed.smi

> <i_m_source_file_index>
213

> <i_lp_mmshare_version>
43012

> <i_f3d_flags>
0

> <s_epik_input>
W0NIMl0xW0NIMl1PW0NIMl1bQ0gyXU4xW0NIMl1bQ0BASF0oW0NIM10pTihbQ0gzXSljKG5bY0hdbjIpYyhjMjMpbltjSF1uM1tDSDJdW0NASF0oW09IXSlbQ0BASF00W0NIMl1bQ0gyXVtDSDJdTzQ=

> <s_epik_cmdline>
J2VwaWtfcHl0aG9uJywgJy1waCcsICc3LjAnLCAnLXRuJywgJzgnLCAnLW1hJywgJzIwMCcsICctbWV0YWxfYmluZGluZycsICctaW1hZScsICc8aW5maWxlLm1hZT4nLCAnLW9tYWUnLCAnPG91dGZpbGUubWFlPic=

> <r_lp_tautomer_probability>
1

> <r_epik_Ionization_Penalty>
0.423322

> <r_epik_Ionization_Penalty_Charging>
0

> <r_epik_Ionization_Penalty_Neutral>
0.423322

> <r_epik_State_Penalty>
0.569486

> <r_epik_Charging_Adjusted_Penalty>
0.569486

> <i_epik_Tot_Q>
0

> <i_epik_Tot_abs_Q>
0

> <r_epik_Metal_State_Penalty>
0.568671

> <b_epik_Metal_Only>
0

> <s_lp_Force_Field>
OPLS_2005

> <r_lp_Energy>
53.3549

> <b_lp_Chiralities_Consistent>
1

> <s_lp_Variant>
AV-unprocessed.smi:213-14

> <Gold.Version>
5.8.1

> <Gold.Id.Protein>
6NUR|6NUR_protein|mol2

> <Gold.PLP.Fitness>
51.6716

> <Gold.PLP.PLP>
-47.1844

> <Gold.PLP.part.hbond>
-1.5573

> <Gold.PLP.part.metal>
0.0000

> <Gold.PLP.part.buried>
-4.0454

> <Gold.PLP.part.nonpolar>
-43.4686

> <Gold.PLP.part.repulsive>
0.9959

> <Gold.PLP.ligand.clash>
0.0000

> <Gold.PLP.ligand.torsion>
0.9208

> <Gold.PLP.Chemscore.Hbond>
1.0000

> <Gold.PLP.Chemscore.CHOScore>
1.0000

> <Gold.PLP.Chemscore.Metal>
0.0000

> <Gold.Chemscore.Hbonds>
donor molecule, donor type, donor heavy atom, donor atom, acceptor molecule, acceptor atom, score
      L1  H    23    51       P1  8028  1.00
      L1  C    19    47       P1  8028  1.00

> <Gold.PLP.Chemscore.Internal.Correction>
0.3287

> <Gold.Rescore>
     Score         DG    S(hbond)    S(metal)    S(lipo)     H(rot)  DE(clash)    DE(int)     intcor
     12.30     -14.49       0.96        0.00     109.45       2.74       0.17       2.02       ----

> <Gold.Chemscore.Fitness>
12.2979

> <Gold.Chemscore.DG>
-14.4916

> <Gold.Chemscore.ZeroCoef>
-5.4800

> <Gold.Chemscore.Hbond>
0.9626

> <Gold.Chemscore.Metal>
0.0000

> <Gold.Chemscore.Lipo>
109.4455

> <Gold.Chemscore.Internal_Hbond>
0.0000

> <Gold.Chemscore.DEClash>
0.1726

> <Gold.Chemscore.DEInternal>
2.0212

> <Gold.Chemscore.Rot>
2.7378

> <Gold.Chemscore.Internal.Correction>
   9.000000E+99

> <Gold.Chemscore.Hbonds>
donor molecule, donor type, donor heavy atom, donor atom, acceptor molecule, acceptor atom, score
      L1  H    23    51       P1  8028  0.98

> <Gold.Chemscore.Hbond.Weighted>
-3.2152

> <Gold.Chemscore.Metal.Weighted>
-0.0000

> <Gold.Chemscore.Lipo.Weighted>
-12.8051

> <Gold.Chemscore.Internal_Hbond.Weighted>
0.0000

> <Gold.Chemscore.DEClash.Weighted>
0.1726

> <Gold.Chemscore.DEInternal.Weighted>
2.0212

> <Gold.Chemscore.Rot.Weighted>
7.0087

> <Gold.Chemscore.Internal.Correction.Weighted>
   9.000000E+99

> <Gold.Protein.RotatedTorsions>
[ 6907 6896 6895 6894 ] final   39.63 input  -60.11 | X-H torsion
[ 7974 7965 7964 7962 ] final  -31.57 input  175.53 | X-H torsion
[ 8008 7997 7996 7995 ] final  -39.11 input   59.86 | X-H torsion
[ 10167 10162 10161 10158 ] final  -51.53 input  -65.29 | X-H torsion
[ 10718 10713 10712 10709 ] final -154.88 input   66.30 | X-H torsion
[ 10763 10752 10751 10750 ] final  -31.73 input  -60.55 | X-H torsion
[ 11005 11000 10999 10996 ] final -108.39 input  -57.11 | X-H torsion

> <Gold.Protein.ActiveResidues>
 VAL166  LYS551  ARG553  GLY616  TRP617  ASP618  TYR619  PRO620  LYS621  CYS622 
 ASP623  PHE694  ASN695  SER759  ASP760  ASP761  ALA762  ILE779  LEU786  VAL792 
 PHE793  MET794  SER795  GLU796  ALA797  LYS798  CYS799  TRP800  GLU811  SER814 

> <Gold.Protein.RotatedAtoms>
  152.1720  134.8826  160.0533 H   0  0  0  0  0  0  0  0  0  0  0  0  # atno 6907 bound_to 6896
  151.9782  133.3744  159.4105 H   0  0  0  0  0  0  0  0  0  0  0  0  # atno 6908 bound_to 6896
  150.6903  134.3990  159.5154 H   0  0  0  0  0  0  0  0  0  0  0  0  # atno 6909 bound_to 6896
  146.1057  140.5684  142.8801 H   0  0  0  0  0  0  0  0  0  0  0  0  # atno 7974 bound_to 7965
  154.4027  140.1560  156.2809 H   0  0  0  0  0  0  0  0  0  0  0  0  # atno 8008 bound_to 7997
  155.8870  140.3441  155.5906 H   0  0  0  0  0  0  0  0  0  0  0  0  # atno 8009 bound_to 7997
  155.7602  140.0816  157.2149 H   0  0  0  0  0  0  0  0  0  0  0  0  # atno 8010 bound_to 7997
  140.6583  143.2616  151.4517 H   0  0  0  0  0  0  0  0  0  0  0  0  # atno 10167 bound_to 10162
  156.5053  130.8410  151.2625 H   0  0  0  0  0  0  0  0  0  0  0  0  # atno 10718 bound_to 10713
  153.8021  135.6889  153.4854 H   0  0  0  0  0  0  0  0  0  0  0  0  # atno 10763 bound_to 10752
  153.1682  135.4553  154.9864 H   0  0  0  0  0  0  0  0  0  0  0  0  # atno 10764 bound_to 10752
  154.8002  135.3335  154.7509 H   0  0  0  0  0  0  0  0  0  0  0  0  # atno 10765 bound_to 10752
  141.0904  133.9065  157.2089 H   0  0  0  0  0  0  0  0  0  0  0  0  # atno 11005 bound_to 11000
  144.7469  140.5090  143.6829 LP  0  0  0  0  0  0  0  0  0  0  0  0  # atno 17320 bound_to 7965
  145.5766  139.1486  143.3259 LP  0  0  0  0  0  0  0  0  0  0  0  0  # atno 17321 bound_to 7965
  139.5811  144.1708  152.1969 LP  0  0  0  0  0  0  0  0  0  0  0  0  # atno 17342 bound_to 10162
  140.1033  144.5520  150.6974 LP  0  0  0  0  0  0  0  0  0  0  0  0  # atno 17343 bound_to 10162
  157.7457  130.9968  150.2792 LP  0  0  0  0  0  0  0  0  0  0  0  0  # atno 17370 bound_to 10713
  156.3292  130.3798  149.7506 LP  0  0  0  0  0  0  0  0  0  0  0  0  # atno 17371 bound_to 10713
  139.9729  135.0123  156.9557 LP  0  0  0  0  0  0  0  0  0  0  0  0  # atno 17394 bound_to 11000
  140.5266  134.0855  155.7305 LP  0  0  0  0  0  0  0  0  0  0  0  0  # atno 17395 bound_to 11000

$$$$
