AV-unprocessed.smi:480|AV-procd|sdf|2676|dock9
  -GOLD-   2262023 93D 1   1.00000     0.00000
 Structure written by MMmdl.
 46 48  0  0  0  0  0  0  0  0  1 V2000
  153.0541  138.7577  154.7415 C   0  0  0  0  0  0  0  0  0  0  0  0
  151.6651  139.0283  155.3334 C   0  0  0  0  0  0  0  0  0  0  0  0
  151.6747  140.1114  156.3746 C   0  0  0  0  0  0  0  0  0  0  0  0
  152.4211  139.9862  157.4736 N   0  0  0  0  0  0  0  0  0  0  0  0
  152.1591  141.1534  158.1610 C   0  0  0  0  0  0  0  0  0  0  0  0
  152.6466  141.6168  159.4041 C   0  0  0  0  0  0  0  0  0  0  0  0
  152.2309  142.8645  159.9134 C   0  0  0  0  0  0  0  0  0  0  0  0
  151.3246  143.6649  159.1880 C   0  0  0  0  0  0  0  0  0  0  0  0
  150.8287  143.2216  157.9468 C   0  0  0  0  0  0  0  0  0  0  0  0
  151.2462  141.9746  157.4431 C   0  0  0  0  0  0  0  0  0  0  0  0
  150.9568  141.2644  156.2810 N   0  0  0  0  0  0  0  0  0  0  0  0
  150.0691  141.7322  155.2213 C   0  0  0  0  0  0  0  0  0  0  0  0
  149.2172  140.6037  154.6076 C   0  0  2  0  0  0  0  0  0  0  0  0
  148.5652  141.0907  153.4526 O   0  0  0  0  0  0  0  0  0  0  0  0
  148.1517  140.0973  155.5929 C   0  0  0  0  0  0  0  0  0  0  0  0
  147.8001  141.1514  156.4799 O   0  0  0  0  0  0  0  0  0  0  0  0
  146.7422  141.9664  156.1366 C   0  0  0  0  0  0  0  0  0  0  0  0
  146.0646  141.9122  154.8919 C   0  0  0  0  0  0  0  0  0  0  0  0
  144.9937  142.7868  154.6232 C   0  0  0  0  0  0  0  0  0  0  0  0
  144.5844  143.7257  155.5901 C   0  0  0  0  0  0  0  0  0  0  0  0
  143.4312  144.6637  155.3014 C   0  0  0  0  0  0  0  0  0  0  0  0
  143.7111  145.5417  154.1553 C   0  0  0  0  0  0  0  0  0  0  0  0
  143.9316  146.2327  153.2538 N   0  0  0  0  0  0  0  0  0  0  0  0
  145.2510  143.7839  156.8293 C   0  0  0  0  0  0  0  0  0  0  0  0
  146.3212  142.9088  157.0972 C   0  0  0  0  0  0  0  0  0  0  0  0
  153.0072  137.9737  153.9857 H   0  0  0  0  0  0  0  0  0  0  0  0
  153.7589  138.4381  155.5077 H   0  0  0  0  0  0  0  0  0  0  0  0
  153.4604  139.6512  154.2669 H   0  0  0  0  0  0  0  0  0  0  0  0
  150.9896  139.3346  154.5339 H   0  0  0  0  0  0  0  0  0  0  0  0
  151.2513  138.1029  155.7250 H   0  0  0  0  0  0  0  0  0  0  0  0
  153.3418  141.0111  159.9659 H   0  0  0  0  0  0  0  0  0  0  0  0
  152.6095  143.2093  160.8644 H   0  0  0  0  0  0  0  0  0  0  0  0
  151.0109  144.6195  159.5844 H   0  0  0  0  0  0  0  0  0  0  0  0
  150.1352  143.8329  157.3887 H   0  0  0  0  0  0  0  0  0  0  0  0
  149.4105  142.4831  155.6591 H   0  0  0  0  0  0  0  0  0  0  0  0
  150.6291  142.2589  154.4519 H   0  0  0  0  0  0  0  0  0  0  0  0
  149.8713  139.7784  154.3226 H   0  0  0  0  0  0  0  0  0  0  0  0
  149.1344  140.9582  152.7098 H   0  0  0  0  0  0  0  0  0  0  0  0
  147.2592  139.8079  155.0360 H   0  0  0  0  0  0  0  0  0  0  0  0
  148.5072  139.2177  156.1330 H   0  0  0  0  0  0  0  0  0  0  0  0
  146.3465  141.2077  154.1244 H   0  0  0  0  0  0  0  0  0  0  0  0
  144.4864  142.7341  153.6711 H   0  0  0  0  0  0  0  0  0  0  0  0
  142.5285  144.0912  155.0863 H   0  0  0  0  0  0  0  0  0  0  0  0
  143.2249  145.2867  156.1719 H   0  0  0  0  0  0  0  0  0  0  0  0
  144.9423  144.4990  157.5778 H   0  0  0  0  0  0  0  0  0  0  0  0
  146.8257  142.9628  158.0509 H   0  0  0  0  0  0  0  0  0  0  0  0
  1  2  1  0  0  0  0
  1 26  1  0  0  0  0
  1 27  1  0  0  0  0
  1 28  1  0  0  0  0
  2  3  1  0  0  0  0
  2 29  1  0  0  0  0
  2 30  1  0  0  0  0
  3 11  1  0  0  0  0
  3  4  2  0  0  0  0
  4  5  1  0  0  0  0
  5 10  2  0  0  0  0
  5  6  1  0  0  0  0
  6  7  2  0  0  0  0
  6 31  1  0  0  0  0
  7  8  1  0  0  0  0
  7 32  1  0  0  0  0
  8  9  2  0  0  0  0
  8 33  1  0  0  0  0
  9 10  1  0  0  0  0
  9 34  1  0  0  0  0
 10 11  1  0  0  0  0
 11 12  1  0  0  0  0
 12 13  1  0  0  0  0
 12 35  1  0  0  0  0
 12 36  1  0  0  0  0
 13 14  1  0  0  0  0
 13 15  1  0  0  0  0
 13 37  1  0  0  0  0
 14 38  1  0  0  0  0
 15 16  1  0  0  0  0
 15 39  1  0  0  0  0
 15 40  1  0  0  0  0
 16 17  1  0  0  0  0
 17 25  1  0  0  0  0
 17 18  2  0  0  0  0
 18 19  1  0  0  0  0
 18 41  1  0  0  0  0
 19 20  2  0  0  0  0
 19 42  1  0  0  0  0
 20 21  1  0  0  0  0
 20 24  1  0  0  0  0
 21 22  1  0  0  0  0
 21 43  1  0  0  0  0
 21 44  1  0  0  0  0
 22 23  3  0  0  0  0
 24 25  2  0  0  0  0
 24 45  1  0  0  0  0
 25 46  1  0  0  0  0
M  END
> <s_m_source_file>
AV-unprocessed.smi

> <i_m_source_file_index>
480

> <i_lp_mmshare_version>
43012

> <i_f3d_flags>
0

> <s_epik_input>
W2NIXTFbY0hdW2NIXVtjSF1jKGMxMiluKGMobjIpW0NIMl1bQ0gzXSlbQ0gyXVtDQEhdKFtPSF0pW0NIMl1PYzNbY0hdW2NIXWMoW0NIMl1DI04pW2NIXVtjSF0z

> <s_epik_cmdline>
J2VwaWtfcHl0aG9uJywgJy1waCcsICc3LjAnLCAnLXRuJywgJzgnLCAnLW1hJywgJzIwMCcsICctbWV0YWxfYmluZGluZycsICctaW1hZScsICc8aW5maWxlLm1hZT4nLCAnLW9tYWUnLCAnPG91dGZpbGUubWFlPic=

> <r_lp_tautomer_probability>
1

> <r_epik_Ionization_Penalty>
0.114213

> <r_epik_Ionization_Penalty_Charging>
0

> <r_epik_Ionization_Penalty_Neutral>
0.114213

> <r_epik_State_Penalty>
0.103875

> <r_epik_Charging_Adjusted_Penalty>
0.103875

> <i_epik_Tot_Q>
0

> <i_epik_Tot_abs_Q>
0

> <r_epik_Metal_State_Penalty>
0.000113526

> <b_epik_Metal_Only>
0

> <s_lp_Force_Field>
OPLS_2005

> <r_lp_Energy>
17.1637

> <b_lp_Chiralities_Consistent>
1

> <s_lp_Variant>
AV-unprocessed.smi:480-1

> <Gold.Version>
5.8.1

> <Gold.Id.Protein>
6NUR|6NUR_protein|mol2

> <Gold.PLP.Fitness>
53.3844

> <Gold.PLP.PLP>
-49.2854

> <Gold.PLP.part.hbond>
-4.9134

> <Gold.PLP.part.metal>
0.0000

> <Gold.PLP.part.buried>
-6.4990

> <Gold.PLP.part.nonpolar>
-38.9342

> <Gold.PLP.part.repulsive>
0.1511

> <Gold.PLP.ligand.clash>
0.0034

> <Gold.PLP.ligand.torsion>
1.0292

> <Gold.PLP.Chemscore.Hbond>
2.0000

> <Gold.PLP.Chemscore.CHOScore>
0.0000

> <Gold.PLP.Chemscore.Metal>
0.0000

> <Gold.Chemscore.Hbonds>
donor molecule, donor type, donor heavy atom, donor atom, acceptor molecule, acceptor atom, score
      L1  H    14    38       P1  7957  1.00
      P1  H  7997  8009       L1     4  0.78

> <Gold.PLP.Chemscore.Internal.Correction>
0.1608

> <Gold.Rescore>
     Score         DG    S(hbond)    S(metal)    S(lipo)     H(rot)  DE(clash)    DE(int)     intcor
     15.27     -16.90       1.66        0.00     106.68       2.58       0.59       1.03       ----

> <Gold.Chemscore.Fitness>
15.2717

> <Gold.Chemscore.DG>
-16.8957

> <Gold.Chemscore.ZeroCoef>
-5.4800

> <Gold.Chemscore.Hbond>
1.6552

> <Gold.Chemscore.Metal>
0.0000

> <Gold.Chemscore.Lipo>
106.6810

> <Gold.Chemscore.Internal_Hbond>
0.0000

> <Gold.Chemscore.DEClash>
0.5900

> <Gold.Chemscore.DEInternal>
1.0340

> <Gold.Chemscore.Rot>
2.5759

> <Gold.Chemscore.Internal.Correction>
   9.000000E+99

> <Gold.Chemscore.Hbonds>
donor molecule, donor type, donor heavy atom, donor atom, acceptor molecule, acceptor atom, score
      L1  H    14    38       P1  7957  0.96
      P1  H  7997  8009       L1     4  0.18

> <Gold.Chemscore.Hbond.Weighted>
-5.5284

> <Gold.Chemscore.Metal.Weighted>
-0.0000

> <Gold.Chemscore.Lipo.Weighted>
-12.4817

> <Gold.Chemscore.Internal_Hbond.Weighted>
0.0000

> <Gold.Chemscore.DEClash.Weighted>
0.5900

> <Gold.Chemscore.DEInternal.Weighted>
1.0340

> <Gold.Chemscore.Rot.Weighted>
6.5943

> <Gold.Chemscore.Internal.Correction.Weighted>
   9.000000E+99

> <Gold.Protein.RotatedTorsions>
[ 6907 6896 6895 6894 ] final -100.34 input  -60.11 | X-H torsion
[ 7974 7965 7964 7962 ] final  173.61 input  175.53 | X-H torsion
[ 8008 7997 7996 7995 ] final  177.91 input   59.86 | X-H torsion
[ 10167 10162 10161 10158 ] final    8.52 input  -65.29 | X-H torsion
[ 10718 10713 10712 10709 ] final  110.42 input   66.30 | X-H torsion
[ 10763 10752 10751 10750 ] final -173.88 input  -60.55 | X-H torsion
[ 11005 11000 10999 10996 ] final  166.28 input  -57.11 | X-H torsion

> <Gold.Protein.ActiveResidues>
 VAL166  LYS551  ARG553  GLY616  TRP617  ASP618  TYR619  PRO620  LYS621  CYS622 
 ASP623  PHE694  ASN695  SER759  ASP760  ASP761  ALA762  ILE779  LEU786  VAL792 
 PHE793  MET794  SER795  GLU796  ALA797  LYS798  CYS799  TRP800  GLU811  SER814 

> <Gold.Protein.RotatedAtoms>
  150.7112  134.0903  159.3928 H   0  0  0  0  0  0  0  0  0  0  0  0  # atno 6907 bound_to 6896
  151.8888  135.0422  160.0505 H   0  0  0  0  0  0  0  0  0  0  0  0  # atno 6908 bound_to 6896
  152.2508  133.5178  159.5361 H   0  0  0  0  0  0  0  0  0  0  0  0  # atno 6909 bound_to 6896
  144.7240  139.9673  143.6436 H   0  0  0  0  0  0  0  0  0  0  0  0  # atno 7974 bound_to 7965
  156.0604  140.1346  156.9947 H   0  0  0  0  0  0  0  0  0  0  0  0  # atno 8008 bound_to 7997
  154.4479  140.0992  156.6580 H   0  0  0  0  0  0  0  0  0  0  0  0  # atno 8009 bound_to 7997
  155.5385  140.3460  155.4444 H   0  0  0  0  0  0  0  0  0  0  0  0  # atno 8010 bound_to 7997
  140.6309  143.7995  150.7295 H   0  0  0  0  0  0  0  0  0  0  0  0  # atno 10167 bound_to 10162
  157.6495  131.0932  150.6599 H   0  0  0  0  0  0  0  0  0  0  0  0  # atno 10718 bound_to 10713
  154.6028  135.2856  155.0517 H   0  0  0  0  0  0  0  0  0  0  0  0  # atno 10763 bound_to 10752
  154.1776  135.6462  153.5029 H   0  0  0  0  0  0  0  0  0  0  0  0  # atno 10764 bound_to 10752
  153.0163  135.5416  154.6753 H   0  0  0  0  0  0  0  0  0  0  0  0  # atno 10765 bound_to 10752
  140.2648  134.7873  157.3623 H   0  0  0  0  0  0  0  0  0  0  0  0  # atno 11005 bound_to 11000
  146.0591  139.3585  143.0592 LP  0  0  0  0  0  0  0  0  0  0  0  0  # atno 17320 bound_to 7965
  145.8116  140.9723  143.0945 LP  0  0  0  0  0  0  0  0  0  0  0  0  # atno 17321 bound_to 7965
  140.1606  143.4279  152.2069 LP  0  0  0  0  0  0  0  0  0  0  0  0  # atno 17342 bound_to 10162
  139.5524  144.7347  151.4396 LP  0  0  0  0  0  0  0  0  0  0  0  0  # atno 17343 bound_to 10162
  156.6912  130.4596  149.5599 LP  0  0  0  0  0  0  0  0  0  0  0  0  # atno 17370 bound_to 10713
  156.1860  130.6529  151.1007 LP  0  0  0  0  0  0  0  0  0  0  0  0  # atno 17371 bound_to 10713
  140.1429  134.4948  155.8018 LP  0  0  0  0  0  0  0  0  0  0  0  0  # atno 17394 bound_to 11000
  141.2185  133.6832  156.7243 LP  0  0  0  0  0  0  0  0  0  0  0  0  # atno 17395 bound_to 11000

$$$$
