AV-unprocessed.smi:284|AV-procd|sdf|2162|dock6
  -GOLD-   2262021513D 1   1.00000     0.00000
 Structure written by MMmdl.
 60 62  0  0  0  0  0  0  0  0  1 V2000
  149.3105  134.2371  156.3241 C   0  0  0  0  0  0  0  0  0  0  0  0
  149.3448  135.6147  155.6803 C   0  0  0  0  0  0  0  0  0  0  0  0
  148.2158  136.2766  155.3368 C   0  0  0  0  0  0  0  0  0  0  0  0
  148.2050  137.5341  154.7539 N   0  0  0  0  0  0  0  0  0  0  0  0
  146.9229  138.3023  154.4581 C   0  0  1  0  0  0  0  0  0  0  0  0
  146.8194  138.8696  153.0345 C   0  0  0  0  0  0  0  0  0  0  0  0
  145.8789  137.8906  152.3315 C   0  0  1  0  0  0  0  0  0  0  0  0
  146.4677  137.3805  151.1521 O   0  0  0  0  0  0  0  0  0  0  0  0
  145.6239  136.7800  153.3665 C   0  0  2  0  0  0  0  0  0  0  0  0
  144.2044  136.1937  153.3436 C   0  0  0  0  0  0  0  0  0  0  0  0
  144.1578  134.9889  154.0783 O   0  0  0  0  0  0  0  0  0  0  0  0
  145.8479  137.4327  154.6094 O   0  0  0  0  0  0  0  0  0  0  0  0
  149.4288  138.2165  154.5815 C   0  0  0  0  0  0  0  0  0  0  0  0
  149.4523  139.3731  154.1532 O   0  0  0  0  0  0  0  0  0  0  0  0
  150.6282  137.5468  154.9125 N   0  0  0  0  0  0  0  0  0  0  0  0
  151.9081  138.2654  154.7233 C   0  0  0  0  0  0  0  0  0  0  0  0
  152.2953  139.1362  155.9291 C   0  0  0  0  0  0  0  0  0  0  0  0
  153.3260  138.8984  156.5594 O   0  0  0  0  0  0  0  0  0  0  0  0
  151.4618  140.1605  156.1874 N   0  0  0  0  0  0  0  0  0  0  0  0
  151.5171  141.1144  157.2399 C   0  0  0  0  0  0  0  0  0  0  0  0
  151.9677  140.8198  158.5476 C   0  0  0  0  0  0  0  0  0  0  0  0
  151.9698  141.8162  159.5429 C   0  0  0  0  0  0  0  0  0  0  0  0
  151.5144  143.1280  159.2624 C   0  0  0  0  0  0  0  0  0  0  0  0
  151.4971  144.2413  160.3274 C   0  0  0  0  0  0  0  0  0  0  0  0
  150.0413  144.6624  160.6192 C   0  0  0  0  0  0  0  0  0  0  0  0
  152.2689  145.5070  159.8903 C   0  0  0  0  0  0  0  0  0  0  0  0
  152.1464  143.7203  161.6260 C   0  0  0  0  0  0  0  0  0  0  0  0
  151.0509  143.4058  157.9551 C   0  0  0  0  0  0  0  0  0  0  0  0
  151.0486  142.4120  156.9586 C   0  0  0  0  0  0  0  0  0  0  0  0
  150.6490  136.2411  155.4585 C   0  0  0  0  0  0  0  0  0  0  0  0
  151.7166  135.6923  155.7380 O   0  0  0  0  0  0  0  0  0  0  0  0
  148.2928  133.8585  156.4236 H   0  0  0  0  0  0  0  0  0  0  0  0
  149.7515  134.2730  157.3209 H   0  0  0  0  0  0  0  0  0  0  0  0
  149.8738  133.5206  155.7251 H   0  0  0  0  0  0  0  0  0  0  0  0
  147.2825  135.7846  155.5555 H   0  0  0  0  0  0  0  0  0  0  0  0
  146.8881  139.1045  155.1969 H   0  0  0  0  0  0  0  0  0  0  0  0
  146.3451  139.8497  153.0927 H   0  0  0  0  0  0  0  0  0  0  0  0
  147.7938  139.0133  152.5680 H   0  0  0  0  0  0  0  0  0  0  0  0
  144.9491  138.4013  152.0774 H   0  0  0  0  0  0  0  0  0  0  0  0
  147.4067  137.3810  151.2592 H   0  0  0  0  0  0  0  0  0  0  0  0
  146.3593  135.9792  153.2707 H   0  0  0  0  0  0  0  0  0  0  0  0
  143.5026  136.8953  153.7949 H   0  0  0  0  0  0  0  0  0  0  0  0
  143.8688  136.0161  152.3214 H   0  0  0  0  0  0  0  0  0  0  0  0
  144.4485  134.2843  153.5195 H   0  0  0  0  0  0  0  0  0  0  0  0
  152.7316  137.5785  154.5233 H   0  0  0  0  0  0  0  0  0  0  0  0
  151.8634  138.8878  153.8275 H   0  0  0  0  0  0  0  0  0  0  0  0
  150.7126  140.2947  155.5240 H   0  0  0  0  0  0  0  0  0  0  0  0
  152.3028  139.8312  158.8199 H   0  0  0  0  0  0  0  0  0  0  0  0
  152.3240  141.5378  160.5229 H   0  0  0  0  0  0  0  0  0  0  0  0
  150.0019  145.4694  161.3516 H   0  0  0  0  0  0  0  0  0  0  0  0
  149.4465  143.8417  161.0198 H   0  0  0  0  0  0  0  0  0  0  0  0
  149.5450  145.0169  159.7149 H   0  0  0  0  0  0  0  0  0  0  0  0
  151.8497  145.9409  158.9816 H   0  0  0  0  0  0  0  0  0  0  0  0
  153.3237  145.2957  159.7104 H   0  0  0  0  0  0  0  0  0  0  0  0
  152.2284  146.2793  160.6595 H   0  0  0  0  0  0  0  0  0  0  0  0
  152.1615  144.4899  162.3986 H   0  0  0  0  0  0  0  0  0  0  0  0
  153.1775  143.4094  161.4534 H   0  0  0  0  0  0  0  0  0  0  0  0
  151.6106  142.8646  162.0375 H   0  0  0  0  0  0  0  0  0  0  0  0
  150.6863  144.3901  157.7027 H   0  0  0  0  0  0  0  0  0  0  0  0
  150.6861  142.6543  155.9702 H   0  0  0  0  0  0  0  0  0  0  0  0
  1  2  1  0  0  0  0
  1 32  1  0  0  0  0
  1 33  1  0  0  0  0
  1 34  1  0  0  0  0
  2 30  1  0  0  0  0
  2  3  2  0  0  0  0
  3  4  1  0  0  0  0
  3 35  1  0  0  0  0
  4  5  1  0  0  0  0
  4 13  1  0  0  0  0
  5 12  1  0  0  0  0
  5  6  1  0  0  0  0
  5 36  1  0  0  0  0
  6  7  1  0  0  0  0
  6 37  1  0  0  0  0
  6 38  1  0  0  0  0
  7  8  1  0  0  0  0
  7  9  1  0  0  0  0
  7 39  1  0  0  0  0
  8 40  1  0  0  0  0
  9 10  1  0  0  0  0
  9 12  1  0  0  0  0
  9 41  1  0  0  0  0
 10 11  1  0  0  0  0
 10 42  1  0  0  0  0
 10 43  1  0  0  0  0
 11 44  1  0  0  0  0
 13 14  2  0  0  0  0
 13 15  1  0  0  0  0
 15 16  1  0  0  0  0
 15 30  1  0  0  0  0
 16 17  1  0  0  0  0
 16 45  1  0  0  0  0
 16 46  1  0  0  0  0
 17 18  2  0  0  0  0
 17 19  1  0  0  0  0
 19 20  1  0  0  0  0
 19 47  1  0  0  0  0
 20 29  1  0  0  0  0
 20 21  2  0  0  0  0
 21 22  1  0  0  0  0
 21 48  1  0  0  0  0
 22 23  2  0  0  0  0
 22 49  1  0  0  0  0
 23 24  1  0  0  0  0
 23 28  1  0  0  0  0
 24 25  1  0  0  0  0
 24 26  1  0  0  0  0
 24 27  1  0  0  0  0
 25 50  1  0  0  0  0
 25 51  1  0  0  0  0
 25 52  1  0  0  0  0
 26 53  1  0  0  0  0
 26 54  1  0  0  0  0
 26 55  1  0  0  0  0
 27 56  1  0  0  0  0
 27 57  1  0  0  0  0
 27 58  1  0  0  0  0
 28 29  2  0  0  0  0
 28 59  1  0  0  0  0
 29 60  1  0  0  0  0
 30 31  2  0  0  0  0
M  END
> <s_m_source_file>
AV-unprocessed.smi

> <i_m_source_file_index>
284

> <i_lp_mmshare_version>
43012

> <i_f3d_flags>
0

> <s_epik_input>
W09IXVtDSDJdW0NAQEhdKE8xKVtDQEhdKFtPSF0pW0NIMl1bQ0BIXTFuKFtjSF1jMltDSDNdKWMoPU8pbihjMj1PKVtDSDJdQyg9TylbTkhdYzNbY0hdW2NIXWMoQyhbQ0gzXSkoW0NIM10pW0NIM10pW2NIXVtjSF0z

> <s_epik_cmdline>
J2VwaWtfcHl0aG9uJywgJy1waCcsICc3LjAnLCAnLXRuJywgJzgnLCAnLW1hJywgJzIwMCcsICctbWV0YWxfYmluZGluZycsICctaW1hZScsICc8aW5maWxlLm1hZT4nLCAnLW9tYWUnLCAnPG91dGZpbGUubWFlPic=

> <r_lp_tautomer_probability>
1

> <r_epik_Ionization_Penalty>
4.92358e-06

> <r_epik_Ionization_Penalty_Charging>
1.29777e-07

> <r_epik_Ionization_Penalty_Neutral>
4.79381e-06

> <r_epik_State_Penalty>
-0

> <r_epik_Charging_Adjusted_Penalty>
1.29777e-07

> <i_epik_Tot_Q>
0

> <i_epik_Tot_abs_Q>
0

> <r_epik_Metal_State_Penalty>
-0

> <b_epik_Metal_Only>
0

> <s_epik_Chemistry_Notes>
This compound contains an acetal/aminal-like group ( X-CH(R)-Y where X, Y are N, S, or O) that may be acid/base labile, releasing an aldehyde.

> <s_lp_Force_Field>
OPLS_2005

> <r_lp_Energy>
37.3947

> <b_lp_Chiralities_Consistent>
1

> <s_lp_Variant>
AV-unprocessed.smi:284-6

> <Gold.Version>
5.8.1

> <Gold.Id.Protein>
6NUR|6NUR_protein|mol2

> <Gold.PLP.Fitness>
56.9313

> <Gold.PLP.PLP>
-50.0540

> <Gold.PLP.part.hbond>
-4.3747

> <Gold.PLP.part.metal>
0.0000

> <Gold.PLP.part.buried>
-9.5411

> <Gold.PLP.part.nonpolar>
-40.0720

> <Gold.PLP.part.repulsive>
1.2061

> <Gold.PLP.ligand.clash>
0.0000

> <Gold.PLP.ligand.torsion>
0.9361

> <Gold.PLP.Chemscore.Hbond>
2.8640

> <Gold.PLP.Chemscore.CHOScore>
0.0000

> <Gold.PLP.Chemscore.Metal>
0.0000

> <Gold.Chemscore.Hbonds>
donor molecule, donor type, donor heavy atom, donor atom, acceptor molecule, acceptor atom, score
      L1  H     8    40       P1  7948  0.86
      P1  H  7997  8009       L1    18  1.00
      P1  H 10752 10764       L1    31  1.00

> <Gold.PLP.Chemscore.Internal.Correction>
0.1574

> <Gold.Rescore>
     Score         DG    S(hbond)    S(metal)    S(lipo)     H(rot)  DE(clash)    DE(int)     intcor
     19.38     -21.36       2.95        0.00     123.09       3.27       0.01       1.96       ----

> <Gold.Chemscore.Fitness>
19.3787

> <Gold.Chemscore.DG>
-21.3567

> <Gold.Chemscore.ZeroCoef>
-5.4800

> <Gold.Chemscore.Hbond>
2.9506

> <Gold.Chemscore.Metal>
0.0000

> <Gold.Chemscore.Lipo>
123.0911

> <Gold.Chemscore.Internal_Hbond>
0.0000

> <Gold.Chemscore.DEClash>
0.0149

> <Gold.Chemscore.DEInternal>
1.9631

> <Gold.Chemscore.Rot>
3.2735

> <Gold.Chemscore.Internal.Correction>
   9.000000E+99

> <Gold.Chemscore.Hbonds>
donor molecule, donor type, donor heavy atom, donor atom, acceptor molecule, acceptor atom, score
      L1  H     8    40       P1  7948  0.83
      P1  H  7997  8009       L1    18  0.81
      P1  H 10752 10764       L1    31  0.97

> <Gold.Chemscore.Hbond.Weighted>
-9.8551

> <Gold.Chemscore.Metal.Weighted>
-0.0000

> <Gold.Chemscore.Lipo.Weighted>
-14.4017

> <Gold.Chemscore.Internal_Hbond.Weighted>
0.0000

> <Gold.Chemscore.DEClash.Weighted>
0.0149

> <Gold.Chemscore.DEInternal.Weighted>
1.9631

> <Gold.Chemscore.Rot.Weighted>
8.3801

> <Gold.Chemscore.Internal.Correction.Weighted>
   9.000000E+99

> <Gold.Protein.RotatedTorsions>
[ 6907 6896 6895 6894 ] final  -10.94 input  -60.11 | X-H torsion
[ 7974 7965 7964 7962 ] final -148.18 input  175.53 | X-H torsion
[ 8008 7997 7996 7995 ] final -172.39 input   59.86 | X-H torsion
[ 10167 10162 10161 10158 ] final  -11.03 input  -65.29 | X-H torsion
[ 10718 10713 10712 10709 ] final   99.45 input   66.30 | X-H torsion
[ 10763 10752 10751 10750 ] final  -35.11 input  -60.55 | X-H torsion
[ 11005 11000 10999 10996 ] final  170.34 input  -57.11 | X-H torsion

> <Gold.Protein.ActiveResidues>
 VAL166  LYS551  ARG553  GLY616  TRP617  ASP618  TYR619  PRO620  LYS621  CYS622 
 ASP623  PHE694  ASN695  SER759  ASP760  ASP761  ALA762  ILE779  LEU786  VAL792 
 PHE793  MET794  SER795  GLU796  ALA797  LYS798  CYS799  TRP800  GLU811  SER814 

> <Gold.Protein.RotatedAtoms>
  151.3940  135.0960  159.9534 H   0  0  0  0  0  0  0  0  0  0  0  0  # atno 6907 bound_to 6896
  152.5071  133.8952  159.7424 H   0  0  0  0  0  0  0  0  0  0  0  0  # atno 6908 bound_to 6896
  150.9412  133.6599  159.2819 H   0  0  0  0  0  0  0  0  0  0  0  0  # atno 6909 bound_to 6896
  144.8046  140.5230  143.5684 H   0  0  0  0  0  0  0  0  0  0  0  0  # atno 7974 bound_to 7965
  155.9440  140.1114  157.1032 H   0  0  0  0  0  0  0  0  0  0  0  0  # atno 8008 bound_to 7997
  154.4095  140.1213  156.5031 H   0  0  0  0  0  0  0  0  0  0  0  0  # atno 8009 bound_to 7997
  155.6926  140.3472  155.4902 H   0  0  0  0  0  0  0  0  0  0  0  0  # atno 8010 bound_to 7997
  140.7128  143.5684  150.9119 H   0  0  0  0  0  0  0  0  0  0  0  0  # atno 10167 bound_to 10162
  157.6875  131.0670  150.4951 H   0  0  0  0  0  0  0  0  0  0  0  0  # atno 10718 bound_to 10713
  153.8578  135.6843  153.4786 H   0  0  0  0  0  0  0  0  0  0  0  0  # atno 10763 bound_to 10752
  153.1359  135.4678  154.9420 H   0  0  0  0  0  0  0  0  0  0  0  0  # atno 10764 bound_to 10752
  154.7773  135.3257  154.8015 H   0  0  0  0  0  0  0  0  0  0  0  0  # atno 10765 bound_to 10752
  140.3074  134.7545  157.3964 H   0  0  0  0  0  0  0  0  0  0  0  0  # atno 11005 bound_to 11000
  145.5470  139.1476  143.3415 LP  0  0  0  0  0  0  0  0  0  0  0  0  # atno 17320 bound_to 7965
  146.2334  140.5609  142.8965 LP  0  0  0  0  0  0  0  0  0  0  0  0  # atno 17321 bound_to 7965
  139.9409  143.6382  152.3054 LP  0  0  0  0  0  0  0  0  0  0  0  0  # atno 17342 bound_to 10162
  139.6867  144.7651  151.1511 LP  0  0  0  0  0  0  0  0  0  0  0  0  # atno 17343 bound_to 10162
  156.5275  130.4177  149.6218 LP  0  0  0  0  0  0  0  0  0  0  0  0  # atno 17370 bound_to 10713
  156.3099  130.7223  151.2113 LP  0  0  0  0  0  0  0  0  0  0  0  0  # atno 17371 bound_to 10713
  140.1055  134.5415  155.8313 LP  0  0  0  0  0  0  0  0  0  0  0  0  # atno 17394 bound_to 11000
  141.2115  133.6708  156.6591 LP  0  0  0  0  0  0  0  0  0  0  0  0  # atno 17395 bound_to 11000

$$$$
