AV-unprocessed.smi:1967|AV-procd|sdf|7954|dock1
  -GOLD-   2272010123D 1   1.00000     0.00000
 Structure written by MMmdl.
 37 38  0  0  0  0  0  0  0  0  1 V2000
  155.4377  138.8860  158.7828 O   0  0  0  0  0  0  0  0  0  0  0  0
  154.0194  138.5068  158.8738 S   0  0  0  0  0  0  0  0  0  0  0  0
  153.6183  137.2062  159.4321 O   0  0  0  0  0  0  0  0  0  0  0  0
  153.1762  139.7354  159.7367 N   0  0  0  0  0  0  0  0  0  0  0  0
  153.9335  140.8825  160.2349 C   0  0  0  0  0  0  0  0  0  0  0  0
  153.0361  141.8128  161.0664 C   0  0  0  0  0  0  0  0  0  0  0  0
  152.3213  142.8592  160.2286 C   0  0  0  0  0  0  0  0  0  0  0  0
  151.4584  143.8000  160.8312 C   0  0  0  0  0  0  0  0  0  0  0  0
  150.8272  144.7543  160.0099 C   0  0  0  0  0  0  0  0  0  0  0  0
  151.0815  144.7311  158.6250 C   0  0  0  0  0  0  0  0  0  0  0  0
  151.9601  143.7514  158.1211 C   0  0  0  0  0  0  0  0  0  0  0  0
  152.5713  142.8329  158.9000 N   0  0  0  0  0  0  0  0  0  0  0  0
  153.2921  138.7005  157.3127 N   0  0  0  0  0  0  0  0  0  0  0  0
  153.7326  137.7795  156.2423 C   0  0  0  0  0  0  0  0  0  0  0  0
  153.2864  138.2666  154.8538 C   0  0  0  0  0  0  0  0  0  0  0  0
  151.7743  138.4994  154.8083 C   0  0  0  0  0  0  0  0  0  0  0  0
  151.3866  139.4907  155.9084 C   0  0  0  0  0  0  0  0  0  0  0  0
  151.8454  138.9973  157.2909 C   0  0  0  0  0  0  0  0  0  0  0  0
  152.5494  139.3438  160.4395 H   0  0  0  0  0  0  0  0  0  0  0  0
  154.7764  140.5278  160.8292 H   0  0  0  0  0  0  0  0  0  0  0  0
  154.3462  141.4273  159.3854 H   0  0  0  0  0  0  0  0  0  0  0  0
  152.2883  141.2189  161.5937 H   0  0  0  0  0  0  0  0  0  0  0  0
  153.6269  142.3067  161.8390 H   0  0  0  0  0  0  0  0  0  0  0  0
  151.2863  143.7937  161.8977 H   0  0  0  0  0  0  0  0  0  0  0  0
  150.1612  145.4909  160.4346 H   0  0  0  0  0  0  0  0  0  0  0  0
  150.6148  145.4463  157.9640 H   0  0  0  0  0  0  0  0  0  0  0  0
  152.1774  143.7043  157.0643 H   0  0  0  0  0  0  0  0  0  0  0  0
  154.8174  137.6808  156.2570 H   0  0  0  0  0  0  0  0  0  0  0  0
  153.3256  136.7874  156.4421 H   0  0  0  0  0  0  0  0  0  0  0  0
  153.8086  139.1915  154.6052 H   0  0  0  0  0  0  0  0  0  0  0  0
  153.5728  137.5367  154.0960 H   0  0  0  0  0  0  0  0  0  0  0  0
  151.4792  138.8829  153.8312 H   0  0  0  0  0  0  0  0  0  0  0  0
  151.2460  137.5558  154.9509 H   0  0  0  0  0  0  0  0  0  0  0  0
  151.8353  140.4632  155.7009 H   0  0  0  0  0  0  0  0  0  0  0  0
  150.3069  139.6426  155.9086 H   0  0  0  0  0  0  0  0  0  0  0  0
  151.2960  138.0991  157.5758 H   0  0  0  0  0  0  0  0  0  0  0  0
  151.6159  139.7575  158.0377 H   0  0  0  0  0  0  0  0  0  0  0  0
  1  2  2  0  0  0  0
  2  3  2  0  0  0  0
  2  4  1  0  0  0  0
  2 13  1  0  0  0  0
  4  5  1  0  0  0  0
  4 19  1  0  0  0  0
  5  6  1  0  0  0  0
  5 20  1  0  0  0  0
  5 21  1  0  0  0  0
  6  7  1  0  0  0  0
  6 22  1  0  0  0  0
  6 23  1  0  0  0  0
  7 12  1  0  0  0  0
  7  8  2  0  0  0  0
  8  9  1  0  0  0  0
  8 24  1  0  0  0  0
  9 10  2  0  0  0  0
  9 25  1  0  0  0  0
 10 11  1  0  0  0  0
 10 26  1  0  0  0  0
 11 12  2  0  0  0  0
 11 27  1  0  0  0  0
 13 18  1  0  0  0  0
 13 14  1  0  0  0  0
 14 15  1  0  0  0  0
 14 28  1  0  0  0  0
 14 29  1  0  0  0  0
 15 16  1  0  0  0  0
 15 30  1  0  0  0  0
 15 31  1  0  0  0  0
 16 17  1  0  0  0  0
 16 32  1  0  0  0  0
 16 33  1  0  0  0  0
 17 18  1  0  0  0  0
 17 34  1  0  0  0  0
 17 35  1  0  0  0  0
 18 36  1  0  0  0  0
 18 37  1  0  0  0  0
M  END
> <s_m_source_file>
AV-unprocessed.smi

> <i_m_source_file_index>
1967

> <i_lp_mmshare_version>
43012

> <i_f3d_flags>
0

> <s_epik_input>
W0NIMl0xW0NIMl1bQ0gyXVtDSDJdW0NIMl1OMVMoPU8pKD1PKVtOSF1bQ0gyXVtDSDJdYzJbY0hdW2NIXVtjSF1bY0hdbjI=

> <s_epik_cmdline>
J2VwaWtfcHl0aG9uJywgJy1waCcsICc3LjAnLCAnLXRuJywgJzgnLCAnLW1hJywgJzIwMCcsICctbWV0YWxfYmluZGluZycsICctaW1hZScsICc8aW5maWxlLm1hZT4nLCAnLW9tYWUnLCAnPG91dGZpbGUubWFlPic=

> <r_epik_Ionization_Penalty>
0.0252758

> <r_epik_Ionization_Penalty_Charging>
0

> <r_epik_Ionization_Penalty_Neutral>
0.0252758

> <r_epik_State_Penalty>
0.0138562

> <r_epik_Charging_Adjusted_Penalty>
0.0138562

> <i_epik_Tot_Q>
0

> <i_epik_Tot_abs_Q>
0

> <r_epik_Metal_State_Penalty>
0.204365

> <b_epik_Metal_Only>
0

> <s_lp_Force_Field>
OPLS_2005

> <r_lp_Energy>
9.86341

> <b_lp_Chiralities_Consistent>
1

> <s_lp_Variant>
AV-unprocessed.smi:1967-1

> <Gold.Version>
5.8.1

> <Gold.Id.Protein>
6NUR|6NUR_protein|mol2

> <Gold.PLP.Fitness>
47.6378

> <Gold.PLP.PLP>
-45.2504

> <Gold.PLP.part.hbond>
-2.0000

> <Gold.PLP.part.metal>
0.0000

> <Gold.PLP.part.buried>
-4.8562

> <Gold.PLP.part.nonpolar>
-39.3418

> <Gold.PLP.part.repulsive>
0.0000

> <Gold.PLP.ligand.clash>
0.0000

> <Gold.PLP.ligand.torsion>
0.7227

> <Gold.PLP.Chemscore.Hbond>
1.0000

> <Gold.PLP.Chemscore.CHOScore>
0.0000

> <Gold.PLP.Chemscore.Metal>
0.0000

> <Gold.Chemscore.Hbonds>
donor molecule, donor type, donor heavy atom, donor atom, acceptor molecule, acceptor atom, score
      P1  H  7997  8009       L1     1  0.70

> <Gold.PLP.Chemscore.Internal.Correction>
0.8329

> <Gold.Rescore>
     Score         DG    S(hbond)    S(metal)    S(lipo)     H(rot)  DE(clash)    DE(int)     intcor
     16.68     -17.51       0.99        0.00     111.43       1.69       0.01       0.82       ----

> <Gold.Chemscore.Fitness>
16.6817

> <Gold.Chemscore.DG>
-17.5131

> <Gold.Chemscore.ZeroCoef>
-5.4800

> <Gold.Chemscore.Hbond>
0.9940

> <Gold.Chemscore.Metal>
0.0000

> <Gold.Chemscore.Lipo>
111.4285

> <Gold.Chemscore.Internal_Hbond>
0.0000

> <Gold.Chemscore.DEClash>
0.0067

> <Gold.Chemscore.DEInternal>
0.8247

> <Gold.Chemscore.Rot>
1.6891

> <Gold.Chemscore.Internal.Correction>
   9.000000E+99

> <Gold.Chemscore.Hbonds>
donor molecule, donor type, donor heavy atom, donor atom, acceptor molecule, acceptor atom, score
      P1  H  7997  8009       L1     1  0.07

> <Gold.Chemscore.Hbond.Weighted>
-3.3201

> <Gold.Chemscore.Metal.Weighted>
-0.0000

> <Gold.Chemscore.Lipo.Weighted>
-13.0371

> <Gold.Chemscore.Internal_Hbond.Weighted>
0.0000

> <Gold.Chemscore.DEClash.Weighted>
0.0067

> <Gold.Chemscore.DEInternal.Weighted>
0.8247

> <Gold.Chemscore.Rot.Weighted>
4.3241

> <Gold.Chemscore.Internal.Correction.Weighted>
   9.000000E+99

> <Gold.Protein.RotatedTorsions>
[ 6907 6896 6895 6894 ] final  124.65 input  -60.11 | X-H torsion
[ 7974 7965 7964 7962 ] final  148.64 input  175.53 | X-H torsion
[ 8008 7997 7996 7995 ] final  116.79 input   59.86 | X-H torsion
[ 10167 10162 10161 10158 ] final   25.45 input  -65.29 | X-H torsion
[ 10718 10713 10712 10709 ] final  144.24 input   66.30 | X-H torsion
[ 10763 10752 10751 10750 ] final   43.35 input  -60.55 | X-H torsion
[ 11005 11000 10999 10996 ] final -144.42 input  -57.11 | X-H torsion

> <Gold.Protein.ActiveResidues>
 VAL166  LYS551  ARG553  GLY616  TRP617  ASP618  TYR619  PRO620  LYS621  CYS622 
 ASP623  PHE694  ASN695  SER759  ASP760  ASP761  ALA762  ILE779  LEU786  VAL792 
 PHE793  MET794  SER795  GLU796  ALA797  LYS798  CYS799  TRP800  GLU811  SER814 

> <Gold.Protein.RotatedAtoms>
  152.4060  133.6889  159.6356 H   0  0  0  0  0  0  0  0  0  0  0  0  # atno 6907 bound_to 6896
  150.7945  133.8708  159.3267 H   0  0  0  0  0  0  0  0  0  0  0  0  # atno 6908 bound_to 6896
  151.6463  135.1008  160.0203 H   0  0  0  0  0  0  0  0  0  0  0  0  # atno 6909 bound_to 6896
  144.8498  139.6180  143.5979 H   0  0  0  0  0  0  0  0  0  0  0  0  # atno 7974 bound_to 7965
  156.2459  140.2910  156.0577 H   0  0  0  0  0  0  0  0  0  0  0  0  # atno 8008 bound_to 7997
  155.1810  140.0404  157.2899 H   0  0  0  0  0  0  0  0  0  0  0  0  # atno 8009 bound_to 7997
  154.6260  140.2487  155.7499 H   0  0  0  0  0  0  0  0  0  0  0  0  # atno 8010 bound_to 7997
  140.5105  144.0168  150.6370 H   0  0  0  0  0  0  0  0  0  0  0  0  # atno 10167 bound_to 10162
  157.3595  131.0963  151.0928 H   0  0  0  0  0  0  0  0  0  0  0  0  # atno 10718 bound_to 10713
  152.9862  135.6104  154.3098 H   0  0  0  0  0  0  0  0  0  0  0  0  # atno 10763 bound_to 10752
  154.2814  135.2777  155.2697 H   0  0  0  0  0  0  0  0  0  0  0  0  # atno 10764 bound_to 10752
  154.5035  135.5860  153.6605 H   0  0  0  0  0  0  0  0  0  0  0  0  # atno 10765 bound_to 10752
  140.8026  134.2839  157.4972 H   0  0  0  0  0  0  0  0  0  0  0  0  # atno 11005 bound_to 11000
  146.2775  139.6791  142.9252 LP  0  0  0  0  0  0  0  0  0  0  0  0  # atno 17320 bound_to 7965
  145.4523  141.0429  143.2798 LP  0  0  0  0  0  0  0  0  0  0  0  0  # atno 17321 bound_to 7965
  140.3489  143.2975  152.0508 LP  0  0  0  0  0  0  0  0  0  0  0  0  # atno 17342 bound_to 10162
  139.4895  144.6388  151.6920 LP  0  0  0  0  0  0  0  0  0  0  0  0  # atno 17343 bound_to 10162
  157.2073  130.6422  149.5761 LP  0  0  0  0  0  0  0  0  0  0  0  0  # atno 17370 bound_to 10713
  155.9735  130.4671  150.6314 LP  0  0  0  0  0  0  0  0  0  0  0  0  # atno 17371 bound_to 10713
  139.8720  134.9438  156.3863 LP  0  0  0  0  0  0  0  0  0  0  0  0  # atno 17394 bound_to 11000
  140.9279  133.7599  155.9988 LP  0  0  0  0  0  0  0  0  0  0  0  0  # atno 17395 bound_to 11000

$$$$
