#       Name:                AV-unprocessed.smi:3010
#       Creating user name   scv26
#       Creation time:       Fri Mar 27 16:38:56 2020


#       File generated by GOLD software.
#

@<TRIPOS>MOLECULE
AV-unprocessed.smi:3010
    45    47     1
SMALL
NO_CHARGES


@<TRIPOS>ATOM
      1 ****        -2.1218   3.7392   0.4979 C.3            1 S1                 0.0000
      2 ****        -2.3288   2.2798   0.5533 N.am           1 S1                 0.0000
      3 ****        -1.2244   1.4686   0.5572 C.2            1 S1                 0.0000
      4 ****        -0.0578   1.8625   0.5193 O.2            1 S1                 0.0000
      5 ****        -1.5407   0.0389   0.6091 C.2            1 S1                 0.0000
      6 ****        -2.8083  -0.4363   0.6524 C.2            1 S1                 0.0000
      7 ****        -2.8275  -1.8259   0.6950 N.2            1 S1                 0.0000
      8 ****        -1.5269  -2.1219   0.6724 C.2            1 S1                 0.0000
      9 ****        -0.6907  -1.0648   0.6195 N.pl3          1 S1                 0.0000
     10 ****         0.7628  -1.1118   0.5842 C.3            1 S1                 0.0000
     11 ****         1.3321  -0.9070  -0.8338 C.3            1 S1                 0.0000
     12 ****         0.8137  -1.8910  -1.7088 O.3            1 S1                 0.0000
     13 ****         2.8525  -0.8915  -0.8180 C.ar           1 S1                 0.0000
     14 ****         3.5434   0.3389  -0.8480 C.ar           1 S1                 0.0000
     15 ****         4.9516   0.3633  -0.8243 C.ar           1 S1                 0.0000
     16 ****         5.6768  -0.8424  -0.7673 C.ar           1 S1                 0.0000
     17 ****         4.9932  -2.0729  -0.7322 C.ar           1 S1                 0.0000
     18 ****         3.5851  -2.0978  -0.7560 C.ar           1 S1                 0.0000
     19 ****        -3.8810   0.4893   0.6462 N.am           1 S1                 0.0000
     20 ****        -5.2387  -0.0610   0.6944 C.3            1 S1                 0.0000
     21 ****        -3.6425   1.8418   0.5937 C.2            1 S1                 0.0000
     22 ****        -4.5782   2.6462   0.5823 O.2            1 S1                 0.0000
     23 ****        -1.0782   4.0553   0.4935 H              1 S1                 0.0000
     24 ****        -2.5863   4.2236   1.3584 H              1 S1                 0.0000
     25 ****        -2.5761   4.1519  -0.4044 H              1 S1                 0.0000
     26 ****        -1.1700  -3.1413   0.6909 H              1 S1                 0.0000
     27 ****         1.1498  -0.3541   1.2660 H              1 S1                 0.0000
     28 ****         1.0871  -2.0737   0.9843 H              1 S1                 0.0000
     29 ****         0.9891   0.0539  -1.2186 H              1 S1                 0.0000
     30 ****         1.0944  -1.6866  -2.5879 H              1 S1                 0.0000
     31 ****         2.9955   1.2693  -0.8873 H              1 S1                 0.0000
     32 ****         5.4755   1.3075  -0.8487 H              1 S1                 0.0000
     33 ****         6.7566  -0.8235  -0.7483 H              1 S1                 0.0000
     34 ****         5.5485  -2.9981  -0.6856 H              1 S1                 0.0000
     35 ****         3.0697  -3.0466  -0.7239 H              1 S1                 0.0000
     36 ****        -6.0303   0.6886   0.6830 H              1 S1                 0.0000
     37 ****        -5.3668  -0.6535   1.6009 H              1 S1                 0.0000
     38 ****        -5.4033  -0.7186  -0.1598 H              1 S1                 0.0000
     39 ****         0.1381   2.8425   0.4822 LP             1 S1                 0.0000
     40 ****         0.6933   1.2024   0.5256 LP             1 S1                 0.0000
     41 ****        -3.6130  -2.4436   0.7328 LP             1 S1                 0.0000
     42 ****        -0.1853  -1.8897  -1.6645 LP             1 S1                 0.0000
     43 ****         1.1579  -2.7921  -1.4454 LP             1 S1                 0.0000
     44 ****        -4.3930   3.6282   0.5435 LP             1 S1                 0.0000
     45 ****        -5.5217   2.3162   0.6118 LP             1 S1                 0.0000
@<TRIPOS>BOND
    1    1    2 1     
    2    1   23 1     
    3    1   24 1     
    4    1   25 1     
    5    2   21 am    
    6    2    3 am    
    7    3    4 2     
    8    3    5 1     
    9    5    9 1     
   10    5    6 2     
   11    6    7 1     
   12    6   19 1     
   13    7    8 2     
   14    8    9 1     
   15    8   26 1     
   16    9   10 1     
   17   10   11 1     
   18   10   27 1     
   19   10   28 1     
   20   11   12 1     
   21   11   13 1     
   22   11   29 1     
   23   12   30 1     
   24   13   18 ar    
   25   13   14 ar    
   26   14   15 ar    
   27   14   31 1     
   28   15   16 ar    
   29   15   32 1     
   30   16   17 ar    
   31   16   33 1     
   32   17   18 ar    
   33   17   34 1     
   34   18   35 1     
   35   19   20 1     
   36   19   21 am    
   37   20   36 1     
   38   20   37 1     
   39   20   38 1     
   40   21   22 2     
   41    4   39 1     
   42    4   40 1     
   43    7   41 1     
   44   12   42 1     
   45   12   43 1     
   46   22   44 1     
   47   22   45 1     
@<TRIPOS>SUBSTRUCTURE
      1 S1             1
@<TRIPOS>SET
LONE_PAIRS      STATIC     ATOMS    <user>   **** ""
7 39 40 41 42 43 44 45
DONOR_HYDROGENS      STATIC     ATOMS    <user>   **** ""
1 30
ATOM$BLUE        STATIC     ATOMS    COLORGROUP SYSTEM
7 39 40 41 42 43 44 45
ATOM$RED        STATIC     ATOMS    COLORGROUP SYSTEM
1 30
