AV-unprocessed.smi:2574|AV-procd|sdf|10114|dock3
  -GOLD-   2272014133D 1   1.00000     0.00000
 Structure written by MMmdl.
 38 40  0  0  0  0  0  0  0  0  1 V2000
  152.7491  136.7937  160.0491 O   0  0  0  0  0  0  0  0  0  0  0  0
  153.0100  137.9944  160.1318 C   0  0  0  0  0  0  0  0  0  0  0  0
  154.0941  138.5318  160.9682 C   0  0  0  0  0  0  0  0  0  0  0  0
  154.9334  137.5438  161.7742 C   0  0  0  0  0  0  0  0  0  0  0  0
  155.8968  138.1598  162.4609 F   0  0  0  0  0  0  0  0  0  0  0  0
  154.1725  136.8811  162.6461 F   0  0  0  0  0  0  0  0  0  0  0  0
  155.5122  136.6551  160.9660 F   0  0  0  0  0  0  0  0  0  0  0  0
  154.3198  139.8675  161.0131 C   0  0  0  0  0  0  0  0  0  0  0  0
  153.4970  140.7751  160.2391 C   0  0  0  0  0  0  0  0  0  0  0  0
  153.6845  142.2653  160.2489 C   0  0  0  0  0  0  0  0  0  0  0  0
  152.6619  143.2029  160.8492 C   0  0  0  0  0  0  0  0  0  0  0  0
  152.8732  143.1721  159.3532 C   0  0  0  0  0  0  0  0  0  0  0  0
  152.5507  140.3008  159.5012 N   0  0  0  0  0  0  0  0  0  0  0  0
  152.3063  138.9421  159.4453 N   0  0  0  0  0  0  0  0  0  0  0  0
  151.1788  138.5769  158.5781 C   0  0  0  0  0  0  0  0  0  0  0  0
  151.5334  138.7084  157.0809 C   0  0  2  0  0  0  0  0  0  0  0  0
  152.8585  139.1880  156.9598 O   0  0  0  0  0  0  0  0  0  0  0  0
  150.5482  139.6231  156.3682 C   0  0  0  0  0  0  0  0  0  0  0  0
  149.6741  139.0926  155.3950 C   0  0  0  0  0  0  0  0  0  0  0  0
  148.7505  139.9288  154.7382 C   0  0  0  0  0  0  0  0  0  0  0  0
  148.6943  141.3004  155.0516 C   0  0  0  0  0  0  0  0  0  0  0  0
  149.5609  141.8350  156.0241 C   0  0  0  0  0  0  0  0  0  0  0  0
  150.4841  140.9990  156.6819 C   0  0  0  0  0  0  0  0  0  0  0  0
  155.1107  140.2806  161.6210 H   0  0  0  0  0  0  0  0  0  0  0  0
  154.7324  142.5207  160.3949 H   0  0  0  0  0  0  0  0  0  0  0  0
  151.7322  142.7821  161.2279 H   0  0  0  0  0  0  0  0  0  0  0  0
  153.0348  144.0695  161.3912 H   0  0  0  0  0  0  0  0  0  0  0  0
  153.3844  144.0189  158.9002 H   0  0  0  0  0  0  0  0  0  0  0  0
  152.0890  142.7225  158.7466 H   0  0  0  0  0  0  0  0  0  0  0  0
  150.9349  137.5343  158.7924 H   0  0  0  0  0  0  0  0  0  0  0  0
  150.2673  139.1280  158.8166 H   0  0  0  0  0  0  0  0  0  0  0  0
  151.4939  137.7283  156.6036 H   0  0  0  0  0  0  0  0  0  0  0  0
  153.2988  139.0643  157.7867 H   0  0  0  0  0  0  0  0  0  0  0  0
  149.7063  138.0410  155.1497 H   0  0  0  0  0  0  0  0  0  0  0  0
  148.0839  139.5173  153.9948 H   0  0  0  0  0  0  0  0  0  0  0  0
  147.9853  141.9411  154.5487 H   0  0  0  0  0  0  0  0  0  0  0  0
  149.5161  142.8863  156.2671 H   0  0  0  0  0  0  0  0  0  0  0  0
  151.1413  141.4173  157.4307 H   0  0  0  0  0  0  0  0  0  0  0  0
  1  2  2  0  0  0  0
  2 14  1  0  0  0  0
  2  3  1  0  0  0  0
  3  4  1  0  0  0  0
  3  8  2  0  0  0  0
  4  5  1  0  0  0  0
  4  6  1  0  0  0  0
  4  7  1  0  0  0  0
  8  9  1  0  0  0  0
  8 24  1  0  0  0  0
  9 10  1  0  0  0  0
  9 13  2  0  0  0  0
 10 12  1  0  0  0  0
 10 11  1  0  0  0  0
 10 25  1  0  0  0  0
 11 12  1  0  0  0  0
 11 26  1  0  0  0  0
 11 27  1  0  0  0  0
 12 28  1  0  0  0  0
 12 29  1  0  0  0  0
 13 14  1  0  0  0  0
 14 15  1  0  0  0  0
 15 16  1  0  0  0  0
 15 30  1  0  0  0  0
 15 31  1  0  0  0  0
 16 17  1  0  0  0  0
 16 18  1  0  0  0  0
 16 32  1  0  0  0  0
 17 33  1  0  0  0  0
 18 23  1  0  0  0  0
 18 19  2  0  0  0  0
 19 20  1  0  0  0  0
 19 34  1  0  0  0  0
 20 21  2  0  0  0  0
 20 35  1  0  0  0  0
 21 22  1  0  0  0  0
 21 36  1  0  0  0  0
 22 23  2  0  0  0  0
 22 37  1  0  0  0  0
 23 38  1  0  0  0  0
M  END
> <s_m_source_file>
AV-unprocessed.smi

> <i_m_source_file_index>
2574

> <i_lp_mmshare_version>
43012

> <i_f3d_flags>
0

> <s_epik_input>
Tz1jMWMoQyhGKShGKUYpW2NIXWMoW0NIXTJbQ0gyXVtDSDJdMilubjFbQ0gyXVtDQEhdKFtPSF0pYzNbY0hdW2NIXVtjSF1bY0hdW2NIXTM=

> <s_epik_cmdline>
J2VwaWtfcHl0aG9uJywgJy1waCcsICc3LjAnLCAnLXRuJywgJzgnLCAnLW1hJywgJzIwMCcsICctbWV0YWxfYmluZGluZycsICctaW1hZScsICc8aW5maWxlLm1hZT4nLCAnLW9tYWUnLCAnPG91dGZpbGUubWFlPic=

> <r_lp_tautomer_probability>
1

> <r_epik_Ionization_Penalty>
7.26807e-08

> <r_epik_Ionization_Penalty_Charging>
9.677e-10

> <r_epik_Ionization_Penalty_Neutral>
7.1713e-08

> <r_epik_State_Penalty>
-0

> <r_epik_Charging_Adjusted_Penalty>
9.677e-10

> <i_epik_Tot_Q>
0

> <i_epik_Tot_abs_Q>
0

> <r_epik_Metal_State_Penalty>
-0

> <b_epik_Metal_Only>
0

> <s_lp_Force_Field>
OPLS_2005

> <r_lp_Energy>
33.7887

> <b_lp_Chiralities_Consistent>
1

> <s_lp_Variant>
AV-unprocessed.smi:2574-1

> <Gold.Version>
5.8.1

> <Gold.Id.Protein>
6NUR|6NUR_protein|mol2

> <Gold.PLP.Fitness>
49.9085

> <Gold.PLP.PLP>
-45.9033

> <Gold.PLP.part.hbond>
-1.7236

> <Gold.PLP.part.metal>
0.0000

> <Gold.PLP.part.buried>
-3.6531

> <Gold.PLP.part.nonpolar>
-40.2938

> <Gold.PLP.part.repulsive>
0.0000

> <Gold.PLP.ligand.clash>
0.4171

> <Gold.PLP.ligand.torsion>
1.0511

> <Gold.PLP.Chemscore.Hbond>
1.9440

> <Gold.PLP.Chemscore.CHOScore>
0.0000

> <Gold.PLP.Chemscore.Metal>
0.0000

> <Gold.Chemscore.Hbonds>
donor molecule, donor type, donor heavy atom, donor atom, acceptor molecule, acceptor atom, score
      P1  H  6896  6909       L1     1  1.00
      P1  H  7997  8009       L1    17  0.40

> <Gold.PLP.Chemscore.Internal.Correction>
0.6924

> <Gold.Rescore>
     Score         DG    S(hbond)    S(metal)    S(lipo)     H(rot)  DE(clash)    DE(int)     intcor
     15.22     -18.74       1.59        0.00     113.73       2.09       0.00       3.51       ----

> <Gold.Chemscore.Fitness>
15.2243

> <Gold.Chemscore.DG>
-18.7377

> <Gold.Chemscore.ZeroCoef>
-5.4800

> <Gold.Chemscore.Hbond>
1.5880

> <Gold.Chemscore.Metal>
0.0000

> <Gold.Chemscore.Lipo>
113.7250

> <Gold.Chemscore.Internal_Hbond>
0.0000

> <Gold.Chemscore.DEClash>
0.0048

> <Gold.Chemscore.DEInternal>
3.5086

> <Gold.Chemscore.Rot>
2.0906

> <Gold.Chemscore.Internal.Correction>
   9.000000E+99

> <Gold.Chemscore.Hbonds>
donor molecule, donor type, donor heavy atom, donor atom, acceptor molecule, acceptor atom, score
      P1  H  6896  6909       L1     1  1.00
      P1  H  7997  8009       L1    17  0.01

> <Gold.Chemscore.Hbond.Weighted>
-5.3039

> <Gold.Chemscore.Metal.Weighted>
-0.0000

> <Gold.Chemscore.Lipo.Weighted>
-13.3058

> <Gold.Chemscore.Internal_Hbond.Weighted>
0.0000

> <Gold.Chemscore.DEClash.Weighted>
0.0048

> <Gold.Chemscore.DEInternal.Weighted>
3.5086

> <Gold.Chemscore.Rot.Weighted>
5.3520

> <Gold.Chemscore.Internal.Correction.Weighted>
   9.000000E+99

> <Gold.Protein.RotatedTorsions>
[ 6907 6896 6895 6894 ] final  143.29 input  -60.11 | X-H torsion
[ 7974 7965 7964 7962 ] final   73.34 input  175.53 | X-H torsion
[ 8008 7997 7996 7995 ] final -163.23 input   59.86 | X-H torsion
[ 10167 10162 10161 10158 ] final -152.64 input  -65.29 | X-H torsion
[ 10718 10713 10712 10709 ] final -105.02 input   66.30 | X-H torsion
[ 10763 10752 10751 10750 ] final  -52.36 input  -60.55 | X-H torsion
[ 11005 11000 10999 10996 ] final   49.67 input  -57.11 | X-H torsion

> <Gold.Protein.ActiveResidues>
 VAL166  LYS551  ARG553  GLY616  TRP617  ASP618  TYR619  PRO620  LYS621  CYS622 
 ASP623  PHE694  ASN695  SER759  ASP760  ASP761  ALA762  ILE779  LEU786  VAL792 
 PHE793  MET794  SER795  GLU796  ALA797  LYS798  CYS799  TRP800  GLU811  SER814 

> <Gold.Protein.RotatedAtoms>
  152.2082  133.4891  159.5095 H   0  0  0  0  0  0  0  0  0  0  0  0  # atno 6907 bound_to 6896
  150.6984  134.1502  159.4146 H   0  0  0  0  0  0  0  0  0  0  0  0  # atno 6908 bound_to 6896
  151.9421  135.0208  160.0587 H   0  0  0  0  0  0  0  0  0  0  0  0  # atno 6909 bound_to 6896
  145.7420  139.2725  143.1481 H   0  0  0  0  0  0  0  0  0  0  0  0  # atno 7974 bound_to 7965
  155.8183  140.0916  157.1864 H   0  0  0  0  0  0  0  0  0  0  0  0  # atno 8008 bound_to 7997
  154.3979  140.1441  156.3529 H   0  0  0  0  0  0  0  0  0  0  0  0  # atno 8009 bound_to 7997
  155.8293  140.3443  155.5565 H   0  0  0  0  0  0  0  0  0  0  0  0  # atno 8010 bound_to 7997
  139.7164  143.9026  152.2487 H   0  0  0  0  0  0  0  0  0  0  0  0  # atno 10167 bound_to 10162
  156.0328  130.5543  150.7479 H   0  0  0  0  0  0  0  0  0  0  0  0  # atno 10718 bound_to 10713
  154.1415  135.6504  153.4943 H   0  0  0  0  0  0  0  0  0  0  0  0  # atno 10763 bound_to 10752
  153.0164  135.5316  154.6899 H   0  0  0  0  0  0  0  0  0  0  0  0  # atno 10764 bound_to 10752
  154.6162  135.2959  155.0348 H   0  0  0  0  0  0  0  0  0  0  0  0  # atno 10765 bound_to 10752
  140.1083  134.4989  155.8700 H   0  0  0  0  0  0  0  0  0  0  0  0  # atno 11005 bound_to 11000
  146.0438  140.8138  142.9815 LP  0  0  0  0  0  0  0  0  0  0  0  0  # atno 17320 bound_to 7965
  144.6868  140.2951  143.7272 LP  0  0  0  0  0  0  0  0  0  0  0  0  # atno 17321 bound_to 7965
  139.8910  144.6965  150.8770 LP  0  0  0  0  0  0  0  0  0  0  0  0  # atno 17342 bound_to 10162
  140.7744  143.3586  151.1872 LP  0  0  0  0  0  0  0  0  0  0  0  0  # atno 17343 bound_to 10162
  157.5031  131.0920  151.0290 LP  0  0  0  0  0  0  0  0  0  0  0  0  # atno 17370 bound_to 10713
  157.0665  130.5847  149.5395 LP  0  0  0  0  0  0  0  0  0  0  0  0  # atno 17371 bound_to 10713
  141.2124  133.6719  156.6655 LP  0  0  0  0  0  0  0  0  0  0  0  0  # atno 17394 bound_to 11000
  140.3125  134.8074  157.4188 LP  0  0  0  0  0  0  0  0  0  0  0  0  # atno 17395 bound_to 11000

$$$$
