AV-unprocessed.smi:1289|AV-procd|sdf|5385|dock2
  -GOLD-   22720 4533D 1   1.00000     0.00000
 Structure written by MMmdl.
 37 39  0  0  0  0  0  0  0  0  1 V2000
  151.6323  132.5500  157.4601 N   0  0  0  0  0  0  0  0  0  0  0  0
  151.3834  133.5521  156.9378 C   0  0  0  0  0  0  0  0  0  0  0  0
  151.0704  134.8108  156.2818 C   0  0  0  0  0  0  0  0  0  0  0  0
  150.0969  134.8556  155.2648 C   0  0  0  0  0  0  0  0  0  0  0  0
  149.7934  136.0771  154.6334 C   0  0  0  0  0  0  0  0  0  0  0  0
  150.4519  137.2669  155.0060 C   0  0  0  0  0  0  0  0  0  0  0  0
  150.0902  138.4164  154.3372 O   0  0  0  0  0  0  0  0  0  0  0  0
  150.8018  139.6149  154.6209 C   0  0  0  0  0  0  0  0  0  0  0  0
  149.8168  140.7794  154.8136 C   0  0  2  0  0  0  0  0  0  0  0  0
  149.2361  141.1110  153.5675 O   0  0  0  0  0  0  0  0  0  0  0  0
  150.4410  142.0140  155.4928 C   0  0  0  0  0  0  0  0  0  0  0  0
  150.8685  141.7360  156.8518 N   0  0  0  0  0  0  0  0  0  0  0  0
  150.8457  140.5440  157.4784 C   0  0  0  0  0  0  0  0  0  0  0  0
  151.2818  140.5068  158.7342 N   0  0  0  0  0  0  0  0  0  0  0  0
  151.6309  141.8293  158.9478 C   0  0  0  0  0  0  0  0  0  0  0  0
  152.1651  142.4630  160.0926 C   0  0  0  0  0  0  0  0  0  0  0  0
  152.4456  143.8453  160.0785 C   0  0  0  0  0  0  0  0  0  0  0  0
  152.1954  144.6140  158.9231 C   0  0  0  0  0  0  0  0  0  0  0  0
  151.6621  144.0050  157.7707 C   0  0  0  0  0  0  0  0  0  0  0  0
  151.3851  142.6254  157.7883 C   0  0  0  0  0  0  0  0  0  0  0  0
  151.4324  137.2133  156.0290 C   0  0  0  0  0  0  0  0  0  0  0  0
  151.7382  135.9920  156.6611 C   0  0  0  0  0  0  0  0  0  0  0  0
  149.5776  133.9571  154.9638 H   0  0  0  0  0  0  0  0  0  0  0  0
  149.0444  136.1018  153.8554 H   0  0  0  0  0  0  0  0  0  0  0  0
  151.4294  139.5000  155.5066 H   0  0  0  0  0  0  0  0  0  0  0  0
  151.4556  139.8464  153.7787 H   0  0  0  0  0  0  0  0  0  0  0  0
  148.9999  140.4181  155.4396 H   0  0  0  0  0  0  0  0  0  0  0  0
  149.2616  140.3467  153.0121 H   0  0  0  0  0  0  0  0  0  0  0  0
  151.3074  142.3559  154.9250 H   0  0  0  0  0  0  0  0  0  0  0  0
  149.7351  142.8451  155.5145 H   0  0  0  0  0  0  0  0  0  0  0  0
  150.4853  139.6535  156.9844 H   0  0  0  0  0  0  0  0  0  0  0  0
  152.3590  141.8844  160.9837 H   0  0  0  0  0  0  0  0  0  0  0  0
  152.8540  144.3188  160.9593 H   0  0  0  0  0  0  0  0  0  0  0  0
  152.4124  145.6722  158.9218 H   0  0  0  0  0  0  0  0  0  0  0  0
  151.4669  144.5912  156.8848 H   0  0  0  0  0  0  0  0  0  0  0  0
  151.9655  138.0958  156.3479 H   0  0  0  0  0  0  0  0  0  0  0  0
  152.4882  135.9695  157.4390 H   0  0  0  0  0  0  0  0  0  0  0  0
  1  2  3  0  0  0  0
  2  3  1  0  0  0  0
  3 22  1  0  0  0  0
  3  4  2  0  0  0  0
  4  5  1  0  0  0  0
  4 23  1  0  0  0  0
  5  6  2  0  0  0  0
  5 24  1  0  0  0  0
  6  7  1  0  0  0  0
  6 21  1  0  0  0  0
  7  8  1  0  0  0  0
  8  9  1  0  0  0  0
  8 25  1  0  0  0  0
  8 26  1  0  0  0  0
  9 10  1  0  0  0  0
  9 11  1  0  0  0  0
  9 27  1  0  0  0  0
 10 28  1  0  0  0  0
 11 12  1  0  0  0  0
 11 29  1  0  0  0  0
 11 30  1  0  0  0  0
 12 20  1  0  0  0  0
 12 13  1  0  0  0  0
 13 14  2  0  0  0  0
 13 31  1  0  0  0  0
 14 15  1  0  0  0  0
 15 20  2  0  0  0  0
 15 16  1  0  0  0  0
 16 17  2  0  0  0  0
 16 32  1  0  0  0  0
 17 18  1  0  0  0  0
 17 33  1  0  0  0  0
 18 19  2  0  0  0  0
 18 34  1  0  0  0  0
 19 20  1  0  0  0  0
 19 35  1  0  0  0  0
 21 22  2  0  0  0  0
 21 36  1  0  0  0  0
 22 37  1  0  0  0  0
M  END
> <s_m_source_file>
AV-unprocessed.smi

> <i_m_source_file_index>
1289

> <i_lp_mmshare_version>
43012

> <i_f3d_flags>
0

> <s_epik_input>
TiNDYzFbY0hdW2NIXWMoW2NIXVtjSF0xKU9bQ0gyXVtDQEhdKFtPSF0pW0NIMl1uKFtjSF1uMiljKGMyMylbY0hdW2NIXVtjSF1bY0hdMw==

> <s_epik_cmdline>
J2VwaWtfcHl0aG9uJywgJy1waCcsICc3LjAnLCAnLXRuJywgJzgnLCAnLW1hJywgJzIwMCcsICctbWV0YWxfYmluZGluZycsICctaW1hZScsICc8aW5maWxlLm1hZT4nLCAnLW9tYWUnLCAnPG91dGZpbGUubWFlPic=

> <r_epik_Ionization_Penalty>
0.0590811

> <r_epik_Ionization_Penalty_Charging>
0

> <r_epik_Ionization_Penalty_Neutral>
0.0590811

> <r_epik_State_Penalty>
0.0511328

> <r_epik_Charging_Adjusted_Penalty>
0.0511328

> <i_epik_Tot_Q>
0

> <i_epik_Tot_abs_Q>
0

> <r_epik_Metal_State_Penalty>
5.34017e-05

> <b_epik_Metal_Only>
0

> <s_lp_Force_Field>
OPLS_2005

> <r_lp_Energy>
15.8446

> <b_lp_Chiralities_Consistent>
1

> <s_lp_Variant>
AV-unprocessed.smi:1289-1

> <Gold.Version>
5.8.1

> <Gold.Id.Protein>
6NUR|6NUR_protein|mol2

> <Gold.PLP.Fitness>
46.3788

> <Gold.PLP.PLP>
-40.1844

> <Gold.PLP.part.hbond>
-3.9080

> <Gold.PLP.part.metal>
0.0000

> <Gold.PLP.part.buried>
2.6043

> <Gold.PLP.part.nonpolar>
-38.4501

> <Gold.PLP.part.repulsive>
0.2129

> <Gold.PLP.ligand.clash>
0.0000

> <Gold.PLP.ligand.torsion>
0.4783

> <Gold.PLP.Chemscore.Hbond>
2.3484

> <Gold.PLP.Chemscore.CHOScore>
0.0000

> <Gold.PLP.Chemscore.Metal>
0.0000

> <Gold.Chemscore.Hbonds>
donor molecule, donor type, donor heavy atom, donor atom, acceptor molecule, acceptor atom, score
      L1  H    10    28       P1  7957  0.69
      P1  H  6896  6909       L1     1  0.75
      P1  H  8011  8017       L1    10  0.95

> <Gold.PLP.Chemscore.Internal.Correction>
0.1059

> <Gold.Rescore>
     Score         DG    S(hbond)    S(metal)    S(lipo)     H(rot)  DE(clash)    DE(int)     intcor
     12.75     -15.95       0.88        0.00     118.98       2.50       1.97       1.22       ----

> <Gold.Chemscore.Fitness>
12.7494

> <Gold.Chemscore.DG>
-15.9482

> <Gold.Chemscore.ZeroCoef>
-5.4800

> <Gold.Chemscore.Hbond>
0.8790

> <Gold.Chemscore.Metal>
0.0000

> <Gold.Chemscore.Lipo>
118.9800

> <Gold.Chemscore.Internal_Hbond>
0.0000

> <Gold.Chemscore.DEClash>
1.9744

> <Gold.Chemscore.DEInternal>
1.2243

> <Gold.Chemscore.Rot>
2.4954

> <Gold.Chemscore.Internal.Correction>
   9.000000E+99

> <Gold.Chemscore.Hbonds>
donor molecule, donor type, donor heavy atom, donor atom, acceptor molecule, acceptor atom, score
      L1  H    10    28       P1  7957  0.68
      P1  H  6896  6909       L1     1  0.09
      P1  H  8011  8017       L1    10  0.21

> <Gold.Chemscore.Hbond.Weighted>
-2.9359

> <Gold.Chemscore.Metal.Weighted>
-0.0000

> <Gold.Chemscore.Lipo.Weighted>
-13.9207

> <Gold.Chemscore.Internal_Hbond.Weighted>
0.0000

> <Gold.Chemscore.DEClash.Weighted>
1.9744

> <Gold.Chemscore.DEInternal.Weighted>
1.2243

> <Gold.Chemscore.Rot.Weighted>
6.3883

> <Gold.Chemscore.Internal.Correction.Weighted>
   9.000000E+99

> <Gold.Protein.RotatedTorsions>
[ 6907 6896 6895 6894 ] final  -61.75 input  -60.11 | X-H torsion
[ 7974 7965 7964 7962 ] final -147.68 input  175.53 | X-H torsion
[ 8008 7997 7996 7995 ] final  -79.18 input   59.86 | X-H torsion
[ 10167 10162 10161 10158 ] final   88.21 input  -65.29 | X-H torsion
[ 10718 10713 10712 10709 ] final -128.87 input   66.30 | X-H torsion
[ 10763 10752 10751 10750 ] final  -65.89 input  -60.55 | X-H torsion
[ 11005 11000 10999 10996 ] final   99.25 input  -57.11 | X-H torsion

> <Gold.Protein.ActiveResidues>
 VAL166  LYS551  ARG553  GLY616  TRP617  ASP618  TYR619  PRO620  LYS621  CYS622 
 ASP623  PHE694  ASN695  SER759  ASP760  ASP761  ALA762  ILE779  LEU786  VAL792 
 PHE793  MET794  SER795  GLU796  ALA797  LYS798  CYS799  TRP800  GLU811  SER814 

> <Gold.Protein.RotatedAtoms>
  150.7763  134.6663  159.6366 H   0  0  0  0  0  0  0  0  0  0  0  0  # atno 6907 bound_to 6896
  152.3834  134.6552  160.0143 H   0  0  0  0  0  0  0  0  0  0  0  0  # atno 6908 bound_to 6896
  151.6875  133.3275  159.3271 H   0  0  0  0  0  0  0  0  0  0  0  0  # atno 6909 bound_to 6896
  144.8077  140.5295  143.5663 H   0  0  0  0  0  0  0  0  0  0  0  0  # atno 7974 bound_to 7965
  154.5760  140.0682  156.9035 H   0  0  0  0  0  0  0  0  0  0  0  0  # atno 8008 bound_to 7997
  155.2548  140.3354  155.4260 H   0  0  0  0  0  0  0  0  0  0  0  0  # atno 8009 bound_to 7997
  156.2154  140.1776  156.7585 H   0  0  0  0  0  0  0  0  0  0  0  0  # atno 8010 bound_to 7997
  139.8695  144.6500  150.8965 H   0  0  0  0  0  0  0  0  0  0  0  0  # atno 10167 bound_to 10162
  156.1992  130.6846  151.0519 H   0  0  0  0  0  0  0  0  0  0  0  0  # atno 10718 bound_to 10713
  154.3517  135.6135  153.5646 H   0  0  0  0  0  0  0  0  0  0  0  0  # atno 10763 bound_to 10752
  152.9798  135.5794  154.4736 H   0  0  0  0  0  0  0  0  0  0  0  0  # atno 10764 bound_to 10752
  154.4458  135.2851  155.1793 H   0  0  0  0  0  0  0  0  0  0  0  0  # atno 10765 bound_to 10752
  139.8771  134.9087  156.4577 H   0  0  0  0  0  0  0  0  0  0  0  0  # atno 11005 bound_to 11000
  145.5397  139.1475  143.3453 LP  0  0  0  0  0  0  0  0  0  0  0  0  # atno 17320 bound_to 7965
  146.2372  140.5537  142.8950 LP  0  0  0  0  0  0  0  0  0  0  0  0  # atno 17321 bound_to 7965
  140.7763  143.3675  151.1711 LP  0  0  0  0  0  0  0  0  0  0  0  0  # atno 17342 bound_to 10162
  139.7297  143.9092  152.3015 LP  0  0  0  0  0  0  0  0  0  0  0  0  # atno 17343 bound_to 10162
  157.6976  131.0788  150.6922 LP  0  0  0  0  0  0  0  0  0  0  0  0  # atno 17370 bound_to 10713
  156.6979  130.4614  149.5581 LP  0  0  0  0  0  0  0  0  0  0  0  0  # atno 17371 bound_to 10713
  140.8886  133.7865  155.9546 LP  0  0  0  0  0  0  0  0  0  0  0  0  # atno 17394 bound_to 11000
  140.8778  134.2649  157.5159 LP  0  0  0  0  0  0  0  0  0  0  0  0  # atno 17395 bound_to 11000

$$$$
