AV-unprocessed.smi:2991|AV-procd|sdf|11400|dock2
  -GOLD-   2272016323D 1   1.00000     0.00000
 Structure written by MMmdl.
 38 39  0  0  0  0  0  0  0  0  2 V2000
  150.4050  141.1953  155.6268 C   0  0  0  0  0  0  0  0  0  0  0  0
  149.1489  140.9083  154.8270 C   0  0  0  0  0  0  0  0  0  0  0  0
  148.2771  141.9237  154.6398 N   0  3  0  0  0  0  0  0  0  0  0  0
  147.1314  141.7896  153.9402 C   0  0  0  0  0  0  0  0  0  0  0  0
  146.7974  140.5455  153.3706 C   0  0  0  0  0  0  0  0  0  0  0  0
  147.6683  139.4407  153.5499 C   0  0  0  0  0  0  0  0  0  0  0  0
  147.4176  138.1556  152.9925 N   0  0  0  0  0  0  0  0  0  0  0  0
  146.2422  137.5242  152.8348 C   0  0  0  0  0  0  0  0  0  0  0  0
  145.1444  137.9708  153.1673 O   0  0  0  0  0  0  0  0  0  0  0  0
  146.4138  136.3180  152.2754 N   0  0  0  0  0  0  0  0  0  0  0  0
  145.3560  135.3476  151.9889 C   0  0  1  0  0  0  0  0  0  0  0  0
  145.8150  134.3748  150.8796 C   0  0  0  0  0  0  0  0  0  0  0  0
  144.6604  133.6903  150.1308 C   0  0  0  0  0  0  0  0  0  0  0  0
  143.7787  132.7801  150.9987 C   0  0  0  0  0  0  0  0  0  0  0  0
  142.9923  133.5352  152.0838 C   0  0  0  0  0  0  0  0  0  0  0  0
  143.8101  133.8585  153.2461 N   0  0  0  0  0  0  0  0  0  0  0  0
  144.8889  134.6555  153.2835 C   0  0  0  0  0  0  0  0  0  0  0  0
  145.5024  134.8266  154.3369 O   0  0  0  0  0  0  0  0  0  0  0  0
  148.8675  139.6344  154.2796 C   0  0  0  0  0  0  0  0  0  0  0  0
  149.9793  138.3266  154.5091 Cl  0  0  0  0  0  0  0  0  0  0  0  0
  150.4388  140.5679  156.5178 H   0  0  0  0  0  0  0  0  0  0  0  0
  150.4460  142.2375  155.9445 H   0  0  0  0  0  0  0  0  0  0  0  0
  151.2921  140.9902  155.0274 H   0  0  0  0  0  0  0  0  0  0  0  0
  146.5227  142.6778  153.8516 H   0  0  0  0  0  0  0  0  0  0  0  0
  145.8867  140.4665  152.7969 H   0  0  0  0  0  0  0  0  0  0  0  0
  148.2406  137.6219  152.7522 H   0  0  0  0  0  0  0  0  0  0  0  0
  147.3539  136.0291  152.0459 H   0  0  0  0  0  0  0  0  0  0  0  0
  144.4984  135.9135  151.6197 H   0  0  0  0  0  0  0  0  0  0  0  0
  146.4026  134.9177  150.1380 H   0  0  0  0  0  0  0  0  0  0  0  0
  146.4889  133.6241  151.2951 H   0  0  0  0  0  0  0  0  0  0  0  0
  144.0398  134.4472  149.6494 H   0  0  0  0  0  0  0  0  0  0  0  0
  145.0810  133.0938  149.3207 H   0  0  0  0  0  0  0  0  0  0  0  0
  143.0638  132.2817  150.3432 H   0  0  0  0  0  0  0  0  0  0  0  0
  144.3769  131.9852  151.4462 H   0  0  0  0  0  0  0  0  0  0  0  0
  142.5292  134.4369  151.6807 H   0  0  0  0  0  0  0  0  0  0  0  0
  142.1759  132.9044  152.4357 H   0  0  0  0  0  0  0  0  0  0  0  0
  143.5350  133.4238  154.1152 H   0  0  0  0  0  0  0  0  0  0  0  0
  148.4983  142.8350  155.0418 H   0  0  0  0  0  0  0  0  0  0  0  0
  1  2  1  0  0  0  0
  1 21  1  0  0  0  0
  1 22  1  0  0  0  0
  1 23  1  0  0  0  0
  2 19  1  0  0  0  0
  2  3  2  0  0  0  0
  3  4  1  0  0  0  0
  3 38  1  0  0  0  0
  4  5  2  0  0  0  0
  4 24  1  0  0  0  0
  5  6  1  0  0  0  0
  5 25  1  0  0  0  0
  6  7  1  0  0  0  0
  6 19  2  0  0  0  0
  7  8  1  0  0  0  0
  7 26  1  0  0  0  0
  8  9  2  0  0  0  0
  8 10  1  0  0  0  0
 10 11  1  0  0  0  0
 10 27  1  0  0  0  0
 11 17  1  0  0  0  0
 11 12  1  0  0  0  0
 11 28  1  0  0  0  0
 12 13  1  0  0  0  0
 12 29  1  0  0  0  0
 12 30  1  0  0  0  0
 13 14  1  0  0  0  0
 13 31  1  0  0  0  0
 13 32  1  0  0  0  0
 14 15  1  0  0  0  0
 14 33  1  0  0  0  0
 14 34  1  0  0  0  0
 15 16  1  0  0  0  0
 15 35  1  0  0  0  0
 15 36  1  0  0  0  0
 16 17  1  0  0  0  0
 16 37  1  0  0  0  0
 17 18  2  0  0  0  0
 19 20  1  0  0  0  0
M  CHG  1   3   1
M  END
> <s_m_source_file>
AV-unprocessed.smi

> <i_m_source_file_index>
2991

> <i_lp_mmshare_version>
43012

> <i_f3d_flags>
0

> <s_epik_input>
W0NIM11jMW5bY0hdW2NIXWMoYzFDbClbTkhdQyg9TylbTkhdW0NAQEhdMltDSDJdW0NIMl1bQ0gyXVtDSDJdW05IXUMyPU8=

> <s_epik_cmdline>
J2VwaWtfcHl0aG9uJywgJy1waCcsICc3LjAnLCAnLXRuJywgJzgnLCAnLW1hJywgJzIwMCcsICctbWV0YWxfYmluZGluZycsICctaW1hZScsICc8aW5maWxlLm1hZT4nLCAnLW9tYWUnLCAnPG91dGZpbGUubWFlPic=

> <r_epik_Ionization_Penalty>
2.55031

> <r_epik_Ionization_Penalty_Charging>
2.55029

> <r_epik_Ionization_Penalty_Neutral>
1.86001e-05

> <r_epik_State_Penalty>
2.71882

> <r_epik_Charging_Adjusted_Penalty>
5.26911

> <i_epik_Tot_Q>
1

> <i_epik_Tot_abs_Q>
1

> <r_epik_Metal_State_Penalty>
2.7268

> <b_epik_Metal_Only>
0

> <s_lp_Force_Field>
OPLS_2005

> <r_lp_Energy>
20.593

> <b_lp_Chiralities_Consistent>
1

> <s_lp_Variant>
AV-unprocessed.smi:2991-4

> <Gold.Version>
5.8.1

> <Gold.Id.Protein>
6NUR|6NUR_protein|mol2

> <Gold.PLP.Fitness>
45.8964

> <Gold.PLP.PLP>
-32.3883

> <Gold.PLP.part.hbond>
-4.0000

> <Gold.PLP.part.metal>
0.0000

> <Gold.PLP.part.buried>
-0.6767

> <Gold.PLP.part.nonpolar>
-29.0880

> <Gold.PLP.part.repulsive>
1.8675

> <Gold.PLP.ligand.clash>
0.0000

> <Gold.PLP.ligand.torsion>
0.5084

> <Gold.PLP.Chemscore.Hbond>
4.8326

> <Gold.PLP.Chemscore.CHOScore>
0.0000

> <Gold.PLP.Chemscore.Metal>
0.0000

> <Gold.Chemscore.Hbonds>
donor molecule, donor type, donor heavy atom, donor atom, acceptor molecule, acceptor atom, score
      L1  H     3    38       P1  8028  2.00
      L1  H     7    26       P1  7948  0.98
      L1  H    10    27       P1  7948  1.00
      L1  H    16    37       P1 10957  0.80

> <Gold.PLP.Chemscore.Internal.Correction>
0.0271

> <Gold.Rescore>
     Score         DG    S(hbond)    S(metal)    S(lipo)     H(rot)  DE(clash)    DE(int)     intcor
     22.26     -24.29       3.62        0.00      79.32       1.00       0.87       1.16       ----

> <Gold.Chemscore.Fitness>
22.2607

> <Gold.Chemscore.DG>
-24.2902

> <Gold.Chemscore.ZeroCoef>
-5.4800

> <Gold.Chemscore.Hbond>
3.6196

> <Gold.Chemscore.Metal>
0.0000

> <Gold.Chemscore.Lipo>
79.3212

> <Gold.Chemscore.Internal_Hbond>
0.0000

> <Gold.Chemscore.DEClash>
0.8659

> <Gold.Chemscore.DEInternal>
1.1635

> <Gold.Chemscore.Rot>
1.0000

> <Gold.Chemscore.Internal.Correction>
   9.000000E+99

> <Gold.Chemscore.Hbonds>
donor molecule, donor type, donor heavy atom, donor atom, acceptor molecule, acceptor atom, score
      L1  H     3    38       P1  8028  0.96
      L1  H     7    26       P1  7948  0.93
      L1  H    10    27       P1  7948  0.97
      L1  H    16    37       P1 10957  0.77

> <Gold.Chemscore.Hbond.Weighted>
-12.0896

> <Gold.Chemscore.Metal.Weighted>
-0.0000

> <Gold.Chemscore.Lipo.Weighted>
-9.2806

> <Gold.Chemscore.Internal_Hbond.Weighted>
0.0000

> <Gold.Chemscore.DEClash.Weighted>
0.8659

> <Gold.Chemscore.DEInternal.Weighted>
1.1635

> <Gold.Chemscore.Rot.Weighted>
2.5600

> <Gold.Chemscore.Internal.Correction.Weighted>
   9.000000E+99

> <Gold.Protein.RotatedTorsions>
[ 6907 6896 6895 6894 ] final    0.89 input  -60.11 | X-H torsion
[ 7974 7965 7964 7962 ] final  178.82 input  175.53 | X-H torsion
[ 8008 7997 7996 7995 ] final   33.34 input   59.86 | X-H torsion
[ 10167 10162 10161 10158 ] final  170.76 input  -65.29 | X-H torsion
[ 10718 10713 10712 10709 ] final  168.02 input   66.30 | X-H torsion
[ 10763 10752 10751 10750 ] final  164.74 input  -60.55 | X-H torsion
[ 11005 11000 10999 10996 ] final  -83.34 input  -57.11 | X-H torsion

> <Gold.Protein.ActiveResidues>
 VAL166  LYS551  ARG553  GLY616  TRP617  ASP618  TYR619  PRO620  LYS621  CYS622 
 ASP623  PHE694  ASN695  SER759  ASP760  ASP761  ALA762  ILE779  LEU786  VAL792 
 PHE793  MET794  SER795  GLU796  ALA797  LYS798  CYS799  TRP800  GLU811  SER814 

> <Gold.Protein.RotatedAtoms>
  151.5837  135.1057  160.0022 H   0  0  0  0  0  0  0  0  0  0  0  0  # atno 6907 bound_to 6896
  152.4341  133.7325  159.6606 H   0  0  0  0  0  0  0  0  0  0  0  0  # atno 6908 bound_to 6896
  150.8236  133.8139  159.3151 H   0  0  0  0  0  0  0  0  0  0  0  0  # atno 6909 bound_to 6896
  144.7152  140.0455  143.6436 H   0  0  0  0  0  0  0  0  0  0  0  0  # atno 7974 bound_to 7965
  155.1370  140.3262  155.4461 H   0  0  0  0  0  0  0  0  0  0  0  0  # atno 8008 bound_to 7997
  156.2616  140.2000  156.6437 H   0  0  0  0  0  0  0  0  0  0  0  0  # atno 8009 bound_to 7997
  154.6570  140.0551  157.0006 H   0  0  0  0  0  0  0  0  0  0  0  0  # atno 8010 bound_to 7997
  139.5027  144.3561  151.9873 H   0  0  0  0  0  0  0  0  0  0  0  0  # atno 10167 bound_to 10162
  157.0432  131.0292  151.2706 H   0  0  0  0  0  0  0  0  0  0  0  0  # atno 10718 bound_to 10713
  154.3135  135.2757  155.2554 H   0  0  0  0  0  0  0  0  0  0  0  0  # atno 10763 bound_to 10752
  154.4939  135.5826  153.6483 H   0  0  0  0  0  0  0  0  0  0  0  0  # atno 10764 bound_to 10752
  152.9885  135.6141  154.3314 H   0  0  0  0  0  0  0  0  0  0  0  0  # atno 10765 bound_to 10752
  141.1658  133.7289  156.8705 H   0  0  0  0  0  0  0  0  0  0  0  0  # atno 11005 bound_to 11000
  145.9988  139.3074  143.0940 LP  0  0  0  0  0  0  0  0  0  0  0  0  # atno 17320 bound_to 7965
  145.8818  140.9358  143.0597 LP  0  0  0  0  0  0  0  0  0  0  0  0  # atno 17321 bound_to 7965
  140.2997  144.3660  150.6064 LP  0  0  0  0  0  0  0  0  0  0  0  0  # atno 17342 bound_to 10162
  140.5883  143.2169  151.7301 LP  0  0  0  0  0  0  0  0  0  0  0  0  # atno 17343 bound_to 10162
  157.5088  130.7926  149.7683 LP  0  0  0  0  0  0  0  0  0  0  0  0  # atno 17370 bound_to 10713
  156.0031  130.3869  150.2530 LP  0  0  0  0  0  0  0  0  0  0  0  0  # atno 17371 bound_to 10713
  140.1785  134.9050  157.2919 LP  0  0  0  0  0  0  0  0  0  0  0  0  # atno 17394 bound_to 11000
  140.2422  134.3782  155.7476 LP  0  0  0  0  0  0  0  0  0  0  0  0  # atno 17395 bound_to 11000

$$$$
