#       Name:                AV-unprocessed.smi:282
#       Creating user name   scv26
#       Creation time:       Thu Mar 26 21:42:53 2020


#       File generated by GOLD software.
#

@<TRIPOS>MOLECULE
AV-unprocessed.smi:282
    72    76     1
SMALL
NO_CHARGES


@<TRIPOS>ATOM
      1 ****        -3.9478  -0.2945  -2.0072 C.3            1 S1                 0.0000
      2 ****        -4.2867   0.4677  -0.7190 C.3            1 S1                 0.0000
      3 ****        -3.0696   1.1877  -0.1000 C.3            1 S1                 0.0000
      4 ****        -3.4775   2.0719   1.0992 C.3            1 S1                 0.0000
      5 ****        -3.8024   1.2645   2.3039 N.4            1 S1                 1.0000
      6 ****        -4.2295   2.1184   3.4418 C.3            1 S1                 0.0000
      7 ****        -4.6818   1.2686   4.6392 C.3            1 S1                 0.0000
      8 ****        -3.5702   0.3057   5.0724 C.3            1 S1                 0.0000
      9 ****        -3.1304  -0.5534   3.8804 C.3            1 S1                 0.0000
     10 ****        -2.7108   0.3181   2.6795 C.3            1 S1                 0.0000
     11 ****        -2.3133  -0.5669   1.4810 C.3            1 S1                 0.0000
     12 ****        -2.0211   0.2437   0.3016 N.pl3          1 S1                 0.0000
     13 ****        -0.7169   0.5840   0.1297 C.ar           1 S1                 0.0000
     14 ****        -0.3534   1.8939   0.1067 N.ar           1 S1                 0.0000
     15 ****         0.9279   2.2371  -0.0524 C.ar           1 S1                 0.0000
     16 ****         1.9898   1.4448  -0.2068 N.ar           1 S1                 0.0000
     17 ****         1.6327   0.1289  -0.1950 C.ar           1 S1                 0.0000
     18 ****         0.3150  -0.3837  -0.0289 C.ar           1 S1                 0.0000
     19 ****         0.3395  -1.7724  -0.0709 N.2            1 S1                 0.0000
     20 ****         1.6002  -2.0640  -0.2400 C.2            1 S1                 0.0000
     21 ****         2.4457  -0.9822  -0.3432 N.pl3          1 S1                 0.0000
     22 ****         3.8885  -1.0183  -0.5364 C.3            1 S1                 0.0000
     23 ****         4.3510  -1.0440  -2.0239 C.3            1 S1                 0.0000
     24 ****         3.7742  -2.2852  -2.7642 C.3            1 S1                 0.0000
     25 ****         4.1474  -3.4996  -2.1442 O.3            1 S1                 0.0000
     26 ****         3.8846   0.2481  -2.7408 C.3            1 S1                 0.0000
     27 ****         4.5634   0.4591  -4.1067 C.3            1 S1                 0.0000
     28 ****         5.9769   0.4577  -3.9557 O.3            1 S1                 0.0000
     29 ****         6.4768  -0.7749  -3.4536 C.3            1 S1                 0.0000
     30 ****         5.9001  -1.0419  -2.0518 C.3            1 S1                 0.0000
     31 ****        -4.8413  -0.7532  -2.4314 H              1 S1                 0.0000
     32 ****        -3.2258  -1.0903  -1.8224 H              1 S1                 0.0000
     33 ****        -3.5269   0.3720  -2.7606 H              1 S1                 0.0000
     34 ****        -5.0540   1.2063  -0.9537 H              1 S1                 0.0000
     35 ****        -4.7417  -0.2143  -0.0007 H              1 S1                 0.0000
     36 ****        -2.6809   1.8450  -0.8793 H              1 S1                 0.0000
     37 ****        -2.6640   2.7548   1.3476 H              1 S1                 0.0000
     38 ****        -4.3300   2.6968   0.8301 H              1 S1                 0.0000
     39 ****        -3.4066   2.7722   3.7359 H              1 S1                 0.0000
     40 ****        -5.0498   2.7638   3.1258 H              1 S1                 0.0000
     41 ****        -4.9605   1.9150   5.4718 H              1 S1                 0.0000
     42 ****        -5.5757   0.7034   4.3723 H              1 S1                 0.0000
     43 ****        -2.7193   0.8699   5.4562 H              1 S1                 0.0000
     44 ****        -3.9180  -0.3298   5.8875 H              1 S1                 0.0000
     45 ****        -2.3047  -1.2001   4.1797 H              1 S1                 0.0000
     46 ****        -3.9485  -1.2139   3.5893 H              1 S1                 0.0000
     47 ****        -1.8422   0.9128   2.9694 H              1 S1                 0.0000
     48 ****        -1.4636  -1.1894   1.7600 H              1 S1                 0.0000
     49 ****        -3.1208  -1.2575   1.2373 H              1 S1                 0.0000
     50 ****         1.1315   3.2978  -0.0576 H              1 S1                 0.0000
     51 ****         1.9497  -3.0842  -0.3035 H              1 S1                 0.0000
     52 ****         4.3134  -0.1526  -0.0265 H              1 S1                 0.0000
     53 ****         4.2761  -1.8877  -0.0038 H              1 S1                 0.0000
     54 ****         2.6861  -2.2405  -2.8097 H              1 S1                 0.0000
     55 ****         4.1106  -2.3298  -3.7985 H              1 S1                 0.0000
     56 ****         3.7843  -4.2158  -2.6427 H              1 S1                 0.0000
     57 ****         2.8019   0.2475  -2.8705 H              1 S1                 0.0000
     58 ****         4.1148   1.1115  -2.1154 H              1 S1                 0.0000
     59 ****         4.2607  -0.2997  -4.8287 H              1 S1                 0.0000
     60 ****         4.2613   1.4200  -4.5236 H              1 S1                 0.0000
     61 ****         6.2491  -1.5868  -4.1448 H              1 S1                 0.0000
     62 ****         7.5636  -0.7110  -3.3984 H              1 S1                 0.0000
     63 ****         6.2721  -0.2632  -1.3843 H              1 S1                 0.0000
     64 ****         6.2957  -1.9796  -1.6607 H              1 S1                 0.0000
     65 ****        -4.5985   0.6944   2.0562 H              1 S1                 0.0000
     66 ****        -1.0493   2.6046   0.2095 LP             1 S1                 0.0000
     67 ****         2.9277   1.7737  -0.3170 LP             1 S1                 0.0000
     68 ****        -0.4320  -2.4036   0.0100 LP             1 S1                 0.0000
     69 ****         3.7914  -3.5245  -1.2100 LP             1 S1                 0.0000
     70 ****         5.1443  -3.5749  -2.1231 LP             1 S1                 0.0000
     71 ****         6.2310   1.1876  -3.3211 LP             1 S1                 0.0000
     72 ****         6.3936   0.6316  -4.8479 LP             1 S1                 0.0000
@<TRIPOS>BOND
    1    1    2 1     
    2    1   31 1     
    3    1   32 1     
    4    1   33 1     
    5    2    3 1     
    6    2   34 1     
    7    2   35 1     
    8    3   12 1     
    9    3    4 1     
   10    3   36 1     
   11    4    5 1     
   12    4   37 1     
   13    4   38 1     
   14    5   10 1     
   15    5    6 1     
   16    5   65 1     
   17    6    7 1     
   18    6   39 1     
   19    6   40 1     
   20    7    8 1     
   21    7   41 1     
   22    7   42 1     
   23    8    9 1     
   24    8   43 1     
   25    8   44 1     
   26    9   10 1     
   27    9   45 1     
   28    9   46 1     
   29   10   11 1     
   30   10   47 1     
   31   11   12 1     
   32   11   48 1     
   33   11   49 1     
   34   12   13 1     
   35   13   18 ar    
   36   13   14 ar    
   37   14   15 ar    
   38   15   16 ar    
   39   15   50 1     
   40   16   17 ar    
   41   17   21 1     
   42   17   18 ar    
   43   18   19 1     
   44   19   20 2     
   45   20   21 1     
   46   20   51 1     
   47   21   22 1     
   48   22   23 1     
   49   22   52 1     
   50   22   53 1     
   51   23   30 1     
   52   23   24 1     
   53   23   26 1     
   54   24   25 1     
   55   24   54 1     
   56   24   55 1     
   57   25   56 1     
   58   26   27 1     
   59   26   57 1     
   60   26   58 1     
   61   27   28 1     
   62   27   59 1     
   63   27   60 1     
   64   28   29 1     
   65   29   30 1     
   66   29   61 1     
   67   29   62 1     
   68   30   63 1     
   69   30   64 1     
   70   14   66 1     
   71   16   67 1     
   72   19   68 1     
   73   25   69 1     
   74   25   70 1     
   75   28   71 1     
   76   28   72 1     
@<TRIPOS>SUBSTRUCTURE
      1 S1             1
@<TRIPOS>SET
LONE_PAIRS      STATIC     ATOMS    <user>   **** ""
7 66 67 68 69 70 71 72
DONOR_HYDROGENS      STATIC     ATOMS    <user>   **** ""
2 65 56
ATOM$BLUE        STATIC     ATOMS    COLORGROUP SYSTEM
7 66 67 68 69 70 71 72
ATOM$RED        STATIC     ATOMS    COLORGROUP SYSTEM
2 65 56
