AV-unprocessed.smi:1966|AV-procd|sdf|7952|dock4
  -GOLD-   2272010123D 1   1.00000     0.00000
 Structure written by MMmdl.
 53 54  0  0  0  0  0  0  0  0  1 V2000
  153.6284  133.6047  164.6738 C   0  0  0  0  0  0  0  0  0  0  0  0
  154.4198  134.6348  163.8755 C   0  0  0  0  0  0  0  0  0  0  0  0
  154.2868  135.8348  164.1134 O   0  0  0  0  0  0  0  0  0  0  0  0
  155.2441  134.1523  162.9320 N   0  0  0  0  0  0  0  0  0  0  0  0
  156.0884  134.9604  162.0488 C   0  0  2  0  0  0  0  0  0  0  0  0
  155.1964  135.9585  161.2844 C   0  0  0  0  0  0  0  0  0  0  0  0
  154.3085  135.5428  160.5386 O   0  0  0  0  0  0  0  0  0  0  0  0
  155.4608  137.2604  161.5000 N   0  0  0  0  0  0  0  0  0  0  0  0
  154.8367  138.3937  160.9136 C   0  0  0  0  0  0  0  0  0  0  0  0
  155.1195  139.7303  161.2812 C   0  0  0  0  0  0  0  0  0  0  0  0
  154.4182  140.7737  160.6475 C   0  0  0  0  0  0  0  0  0  0  0  0
  153.4517  140.4507  159.6734 C   0  0  0  0  0  0  0  0  0  0  0  0
  152.7524  141.4886  159.0415 N   0  0  0  0  0  0  0  0  0  0  0  0
  152.3003  142.5282  159.9568 C   0  0  0  0  0  0  0  0  0  0  0  0
  151.6677  143.7009  159.1815 C   0  0  1  0  0  0  0  0  0  0  0  0
  152.6982  144.5912  158.4644 C   0  0  0  0  0  0  0  0  0  0  0  0
  150.6614  143.2152  158.2883 O   0  0  0  0  0  0  0  0  0  0  0  0
  151.1025  142.2094  157.3754 C   0  0  2  0  0  0  0  0  0  0  0  0
  149.9058  141.7913  156.5151 C   0  0  0  0  0  0  0  0  0  0  0  0
  151.6884  141.0236  158.1631 C   0  0  0  0  0  0  0  0  0  0  0  0
  153.1653  139.1735  159.3264 N   0  0  0  0  0  0  0  0  0  0  0  0
  153.8402  138.1776  159.9391 C   0  0  0  0  0  0  0  0  0  0  0  0
  156.8157  134.0182  161.0439 C   0  0  0  0  0  0  0  0  0  0  0  0
  157.7400  134.7991  160.0887 C   0  0  0  0  0  0  0  0  0  0  0  0
  155.8425  133.1583  160.2105 C   0  0  0  0  0  0  0  0  0  0  0  0
  153.2484  132.8177  164.0216 H   0  0  0  0  0  0  0  0  0  0  0  0
  152.7789  134.0731  165.1719 H   0  0  0  0  0  0  0  0  0  0  0  0
  154.2627  133.1484  165.4340 H   0  0  0  0  0  0  0  0  0  0  0  0
  155.2811  133.1517  162.8021 H   0  0  0  0  0  0  0  0  0  0  0  0
  156.8309  135.4980  162.6427 H   0  0  0  0  0  0  0  0  0  0  0  0
  156.1480  137.4611  162.2124 H   0  0  0  0  0  0  0  0  0  0  0  0
  155.8443  139.9731  162.0428 H   0  0  0  0  0  0  0  0  0  0  0  0
  154.6172  141.8024  160.9103 H   0  0  0  0  0  0  0  0  0  0  0  0
  151.5620  142.1066  160.6405 H   0  0  0  0  0  0  0  0  0  0  0  0
  153.1337  142.8804  160.5661 H   0  0  0  0  0  0  0  0  0  0  0  0
  151.1530  144.3351  159.9036 H   0  0  0  0  0  0  0  0  0  0  0  0
  153.3830  145.0428  159.1825 H   0  0  0  0  0  0  0  0  0  0  0  0
  152.2050  145.4008  157.9261 H   0  0  0  0  0  0  0  0  0  0  0  0
  153.3023  144.0327  157.7499 H   0  0  0  0  0  0  0  0  0  0  0  0
  151.8653  142.6221  156.7150 H   0  0  0  0  0  0  0  0  0  0  0  0
  150.1897  141.0253  155.7932 H   0  0  0  0  0  0  0  0  0  0  0  0
  149.5104  142.6414  155.9587 H   0  0  0  0  0  0  0  0  0  0  0  0
  149.0990  141.3905  157.1295 H   0  0  0  0  0  0  0  0  0  0  0  0
  152.0799  140.2721  157.4761 H   0  0  0  0  0  0  0  0  0  0  0  0
  150.9070  140.5450  158.7552 H   0  0  0  0  0  0  0  0  0  0  0  0
  153.5775  137.1744  159.6363 H   0  0  0  0  0  0  0  0  0  0  0  0
  157.4493  133.3318  161.6087 H   0  0  0  0  0  0  0  0  0  0  0  0
  157.1799  135.5372  159.5139 H   0  0  0  0  0  0  0  0  0  0  0  0
  158.2286  134.1297  159.3801 H   0  0  0  0  0  0  0  0  0  0  0  0
  158.5311  135.3241  160.6240 H   0  0  0  0  0  0  0  0  0  0  0  0
  155.1416  133.7824  159.6553 H   0  0  0  0  0  0  0  0  0  0  0  0
  155.2622  132.4745  160.8302 H   0  0  0  0  0  0  0  0  0  0  0  0
  156.3818  132.5449  159.4882 H   0  0  0  0  0  0  0  0  0  0  0  0
  1  2  1  0  0  0  0
  1 26  1  0  0  0  0
  1 27  1  0  0  0  0
  1 28  1  0  0  0  0
  2  3  2  0  0  0  0
  2  4  1  0  0  0  0
  4  5  1  0  0  0  0
  4 29  1  0  0  0  0
  5  6  1  0  0  0  0
  5 23  1  0  0  0  0
  5 30  1  0  0  0  0
  6  7  2  0  0  0  0
  6  8  1  0  0  0  0
  8  9  1  0  0  0  0
  8 31  1  0  0  0  0
  9 22  1  0  0  0  0
  9 10  2  0  0  0  0
 10 11  1  0  0  0  0
 10 32  1  0  0  0  0
 11 12  2  0  0  0  0
 11 33  1  0  0  0  0
 12 13  1  0  0  0  0
 12 21  1  0  0  0  0
 13 20  1  0  0  0  0
 13 14  1  0  0  0  0
 14 15  1  0  0  0  0
 14 34  1  0  0  0  0
 14 35  1  0  0  0  0
 15 16  1  0  0  0  0
 15 17  1  0  0  0  0
 15 36  1  0  0  0  0
 16 37  1  0  0  0  0
 16 38  1  0  0  0  0
 16 39  1  0  0  0  0
 17 18  1  0  0  0  0
 18 19  1  0  0  0  0
 18 20  1  0  0  0  0
 18 40  1  0  0  0  0
 19 41  1  0  0  0  0
 19 42  1  0  0  0  0
 19 43  1  0  0  0  0
 20 44  1  0  0  0  0
 20 45  1  0  0  0  0
 21 22  2  0  0  0  0
 22 46  1  0  0  0  0
 23 24  1  0  0  0  0
 23 25  1  0  0  0  0
 23 47  1  0  0  0  0
 24 48  1  0  0  0  0
 24 49  1  0  0  0  0
 24 50  1  0  0  0  0
 25 51  1  0  0  0  0
 25 52  1  0  0  0  0
 25 53  1  0  0  0  0
M  END
> <s_m_source_file>
AV-unprocessed.smi

> <i_m_source_file_index>
1966

> <i_lp_mmshare_version>
43012

> <i_f3d_flags>
0

> <s_epik_input>
W0NIM11DKD1PKVtOSF1bQ0BASF0oW0NIXShbQ0gzXSlbQ0gzXSlDKD1PKVtOSF1jMVtjSF1bY0hdYyhuW2NIXTEpTjJbQ0gyXVtDQEBIXShbQ0gzXSlPW0NAQEhdKFtDSDNdKVtDSDJdMg==

> <s_epik_cmdline>
J2VwaWtfcHl0aG9uJywgJy1waCcsICc3LjAnLCAnLXRuJywgJzgnLCAnLW1hJywgJzIwMCcsICctbWV0YWxfYmluZGluZycsICctaW1hZScsICc8aW5maWxlLm1hZT4nLCAnLW9tYWUnLCAnPG91dGZpbGUubWFlPic=

> <r_lp_tautomer_probability>
1

> <r_epik_Ionization_Penalty>
0.000679699

> <r_epik_Ionization_Penalty_Charging>
0

> <r_epik_Ionization_Penalty_Neutral>
0.000679699

> <r_epik_State_Penalty>
0.000430485

> <r_epik_Charging_Adjusted_Penalty>
0.000430485

> <i_epik_Tot_Q>
0

> <i_epik_Tot_abs_Q>
0

> <r_epik_Metal_State_Penalty>
-0

> <b_epik_Metal_Only>
0

> <s_lp_Force_Field>
OPLS_2005

> <r_lp_Energy>
29.6381

> <b_lp_Chiralities_Consistent>
1

> <s_lp_Variant>
AV-unprocessed.smi:1966-5

> <Gold.Version>
5.8.1

> <Gold.Id.Protein>
6NUR|6NUR_protein|mol2

> <Gold.PLP.Fitness>
39.5037

> <Gold.PLP.PLP>
-37.1821

> <Gold.PLP.part.hbond>
-1.0000

> <Gold.PLP.part.metal>
0.0000

> <Gold.PLP.part.buried>
-5.6055

> <Gold.PLP.part.nonpolar>
-31.6527

> <Gold.PLP.part.repulsive>
0.2207

> <Gold.PLP.ligand.clash>
0.2766

> <Gold.PLP.ligand.torsion>
0.2643

> <Gold.PLP.Chemscore.Hbond>
0.9913

> <Gold.PLP.Chemscore.CHOScore>
0.0000

> <Gold.PLP.Chemscore.Metal>
0.0000

> <Gold.Chemscore.Hbonds>
donor molecule, donor type, donor heavy atom, donor atom, acceptor molecule, acceptor atom, score
      P1  H  6896  6909       L1     7  0.80

> <Gold.PLP.Chemscore.Internal.Correction>
0.1530

> <Gold.Rescore>
     Score         DG    S(hbond)    S(metal)    S(lipo)     H(rot)  DE(clash)    DE(int)     intcor
     13.15     -16.10       0.99        0.00      99.16       1.68       0.03       2.92       ----

> <Gold.Chemscore.Fitness>
13.1542

> <Gold.Chemscore.DG>
-16.1031

> <Gold.Chemscore.ZeroCoef>
-5.4800

> <Gold.Chemscore.Hbond>
0.9915

> <Gold.Chemscore.Metal>
0.0000

> <Gold.Chemscore.Lipo>
99.1607

> <Gold.Chemscore.Internal_Hbond>
0.0000

> <Gold.Chemscore.DEClash>
0.0256

> <Gold.Chemscore.DEInternal>
2.9233

> <Gold.Chemscore.Rot>
1.6759

> <Gold.Chemscore.Internal.Correction>
   9.000000E+99

> <Gold.Chemscore.Hbonds>
donor molecule, donor type, donor heavy atom, donor atom, acceptor molecule, acceptor atom, score
      P1  H  6896  6909       L1     7  0.79

> <Gold.Chemscore.Hbond.Weighted>
-3.3115

> <Gold.Chemscore.Metal.Weighted>
-0.0000

> <Gold.Chemscore.Lipo.Weighted>
-11.6018

> <Gold.Chemscore.Internal_Hbond.Weighted>
0.0000

> <Gold.Chemscore.DEClash.Weighted>
0.0256

> <Gold.Chemscore.DEInternal.Weighted>
2.9233

> <Gold.Chemscore.Rot.Weighted>
4.2902

> <Gold.Chemscore.Internal.Correction.Weighted>
   9.000000E+99

> <Gold.Protein.RotatedTorsions>
[ 6907 6896 6895 6894 ] final  179.94 input  -60.11 | X-H torsion
[ 7974 7965 7964 7962 ] final  -76.77 input  175.53 | X-H torsion
[ 8008 7997 7996 7995 ] final  164.21 input   59.86 | X-H torsion
[ 10167 10162 10161 10158 ] final  172.30 input  -65.29 | X-H torsion
[ 10718 10713 10712 10709 ] final  164.16 input   66.30 | X-H torsion
[ 10763 10752 10751 10750 ] final  -87.79 input  -60.55 | X-H torsion
[ 11005 11000 10999 10996 ] final  -62.59 input  -57.11 | X-H torsion

> <Gold.Protein.ActiveResidues>
 VAL166  LYS551  ARG553  GLY616  TRP617  ASP618  TYR619  PRO620  LYS621  CYS622 
 ASP623  PHE694  ASN695  SER759  ASP760  ASP761  ALA762  ILE779  LEU786  VAL792 
 PHE793  MET794  SER795  GLU796  ALA797  LYS798  CYS799  TRP800  GLU811  SER814 

> <Gold.Protein.RotatedAtoms>
  151.6636  133.3316  159.3179 H   0  0  0  0  0  0  0  0  0  0  0  0  # atno 6907 bound_to 6896
  150.7901  134.6923  159.6513 H   0  0  0  0  0  0  0  0  0  0  0  0  # atno 6908 bound_to 6896
  152.3979  134.6338  160.0134 H   0  0  0  0  0  0  0  0  0  0  0  0  # atno 6909 bound_to 6896
  145.6085  140.9392  143.1202 H   0  0  0  0  0  0  0  0  0  0  0  0  # atno 7974 bound_to 7965
  156.1898  140.1703  156.8115 H   0  0  0  0  0  0  0  0  0  0  0  0  # atno 8008 bound_to 7997
  154.5457  140.0727  156.8617 H   0  0  0  0  0  0  0  0  0  0  0  0  # atno 8009 bound_to 7997
  155.3127  140.3368  155.4246 H   0  0  0  0  0  0  0  0  0  0  0  0  # atno 8010 bound_to 7997
  139.5072  144.3389  152.0038 H   0  0  0  0  0  0  0  0  0  0  0  0  # atno 10167 bound_to 10162
  157.0983  131.0436  151.2508 H   0  0  0  0  0  0  0  0  0  0  0  0  # atno 10718 bound_to 10713
  154.6375  135.5400  153.7751 H   0  0  0  0  0  0  0  0  0  0  0  0  # atno 10763 bound_to 10752
  153.0316  135.6451  154.1209 H   0  0  0  0  0  0  0  0  0  0  0  0  # atno 10764 bound_to 10752
  154.1135  135.2925  155.3205 H   0  0  0  0  0  0  0  0  0  0  0  0  # atno 10765 bound_to 10752
  141.1365  133.6642  156.5551 H   0  0  0  0  0  0  0  0  0  0  0  0  # atno 11005 bound_to 11000
  144.7280  139.7815  143.7358 LP  0  0  0  0  0  0  0  0  0  0  0  0  # atno 17320 bound_to 7965
  146.1522  139.4609  143.0041 LP  0  0  0  0  0  0  0  0  0  0  0  0  # atno 17321 bound_to 7965
  140.2827  144.3841  150.6113 LP  0  0  0  0  0  0  0  0  0  0  0  0  # atno 17342 bound_to 10162
  140.6006  143.2167  151.7080 LP  0  0  0  0  0  0  0  0  0  0  0  0  # atno 17343 bound_to 10162
  157.4662  130.7682  149.7281 LP  0  0  0  0  0  0  0  0  0  0  0  0  # atno 17370 bound_to 10713
  155.9880  130.3962  150.3139 LP  0  0  0  0  0  0  0  0  0  0  0  0  # atno 17371 bound_to 10713
  140.4033  134.7337  157.4793 LP  0  0  0  0  0  0  0  0  0  0  0  0  # atno 17394 bound_to 11000
  140.0480  134.6171  155.8897 LP  0  0  0  0  0  0  0  0  0  0  0  0  # atno 17395 bound_to 11000

$$$$
