AV-unprocessed.smi:2546|AV-procd|sdf|9999|dock5
  -GOLD-   2272014 43D 1   1.00000     0.00000
 Structure written by MMmdl.
 17 17  0  0  0  0  0  0  0  0  2 V2000
  143.4966  133.6964  147.9774 N   0  3  0  0  0  0  0  0  0  0  0  0
  144.0685  132.5613  148.7211 C   0  0  0  0  0  0  0  0  0  0  0  0
  143.7117  132.6309  150.2124 C   0  0  0  0  0  0  0  0  0  0  0  0
  144.4550  133.7123  150.9262 C   0  0  0  0  0  0  0  0  0  0  0  0
  144.3367  133.9805  152.2321 N   0  0  0  0  0  0  0  0  0  0  0  0
  145.2019  135.0353  152.4754 N   0  0  0  0  0  0  0  0  0  0  0  0
  145.7594  135.2998  151.2928 C   0  0  0  0  0  0  0  0  0  0  0  0
  145.3347  134.5090  150.3002 N   0  0  0  0  0  0  0  0  0  0  0  0
  145.6065  134.5168  149.3277 H   0  0  0  0  0  0  0  0  0  0  0  0
  143.0430  133.3562  147.1414 H   0  0  0  0  0  0  0  0  0  0  0  0
  144.2320  134.3399  147.7220 H   0  0  0  0  0  0  0  0  0  0  0  0
  143.6950  131.6347  148.2837 H   0  0  0  0  0  0  0  0  0  0  0  0
  145.1511  132.5661  148.5901 H   0  0  0  0  0  0  0  0  0  0  0  0
  142.6405  132.7967  150.3359 H   0  0  0  0  0  0  0  0  0  0  0  0
  143.9374  131.6804  150.6977 H   0  0  0  0  0  0  0  0  0  0  0  0
  146.4899  136.0826  151.1501 H   0  0  0  0  0  0  0  0  0  0  0  0
  142.8190  134.1722  148.5562 H   0  0  0  0  0  0  0  0  0  0  0  0
  1  2  1  0  0  0  0
  1 10  1  0  0  0  0
  1 11  1  0  0  0  0
  1 17  1  0  0  0  0
  2  3  1  0  0  0  0
  2 12  1  0  0  0  0
  2 13  1  0  0  0  0
  3  4  1  0  0  0  0
  3 14  1  0  0  0  0
  3 15  1  0  0  0  0
  4  8  1  0  0  0  0
  4  5  2  0  0  0  0
  5  6  1  0  0  0  0
  6  7  2  0  0  0  0
  7  8  1  0  0  0  0
  7 16  1  0  0  0  0
  8  9  1  0  0  0  0
M  CHG  1   1   1
M  END
> <s_m_source_file>
AV-unprocessed.smi

> <i_m_source_file_index>
2546

> <i_lp_mmshare_version>
43012

> <i_f3d_flags>
0

> <s_epik_input>
W05IMl1bQ0gyXVtDSDJdYzFubltjSF1bbkhdMQ==

> <s_epik_cmdline>
J2VwaWtfcHl0aG9uJywgJy1waCcsICc3LjAnLCAnLXRuJywgJzgnLCAnLW1hJywgJzIwMCcsICctbWV0YWxfYmluZGluZycsICctaW1hZScsICc8aW5maWxlLm1hZT4nLCAnLW9tYWUnLCAnPG91dGZpbGUubWFlPic=

> <r_lp_tautomer_probability>
0.0517155

> <r_epik_Ionization_Penalty>
0.045181

> <r_epik_Ionization_Penalty_Charging>
0.00465044

> <r_epik_Ionization_Penalty_Neutral>
0.0405306

> <r_epik_State_Penalty>
2.26292

> <r_epik_Charging_Adjusted_Penalty>
2.26757

> <i_epik_Tot_Q>
1

> <i_epik_Tot_abs_Q>
1

> <r_epik_Metal_State_Penalty>
2.49167

> <b_epik_Metal_Only>
0

> <s_lp_Force_Field>
OPLS_2005

> <r_lp_Energy>
3.59513

> <b_lp_Chiralities_Consistent>
1

> <s_lp_Variant>
AV-unprocessed.smi:2546-3

> <Gold.Version>
5.8.1

> <Gold.Id.Protein>
6NUR|6NUR_protein|mol2

> <Gold.PLP.Fitness>
34.9460

> <Gold.PLP.PLP>
-17.0429

> <Gold.PLP.part.hbond>
-4.0000

> <Gold.PLP.part.metal>
0.0000

> <Gold.PLP.part.buried>
-2.6919

> <Gold.PLP.part.nonpolar>
-10.6559

> <Gold.PLP.part.repulsive>
0.4542

> <Gold.PLP.ligand.clash>
0.0000

> <Gold.PLP.ligand.torsion>
0.0367

> <Gold.PLP.Chemscore.Hbond>
4.9920

> <Gold.PLP.Chemscore.CHOScore>
1.0000

> <Gold.PLP.Chemscore.Metal>
0.0000

> <Gold.Chemscore.Hbonds>
donor molecule, donor type, donor heavy atom, donor atom, acceptor molecule, acceptor atom, score
      L1  H     1    10       P1 10195  0.99
      L1  H     1    11       P1  7921  1.00
      L1  H     1    17       P1 10186  1.85
      L1  H     8     9       P1  7921  1.00
      L1  C     7    16       P1  7948  1.00

> <Gold.PLP.Chemscore.Internal.Correction>
0.0005

> <Gold.Rescore>
     Score         DG    S(hbond)    S(metal)    S(lipo)     H(rot)  DE(clash)    DE(int)     intcor
     16.47     -16.61       3.77        0.00      24.03       1.67       0.09       0.05       ----

> <Gold.Chemscore.Fitness>
16.4707

> <Gold.Chemscore.DG>
-16.6082

> <Gold.Chemscore.ZeroCoef>
-5.4800

> <Gold.Chemscore.Hbond>
3.7685

> <Gold.Chemscore.Metal>
0.0000

> <Gold.Chemscore.Lipo>
24.0261

> <Gold.Chemscore.Internal_Hbond>
0.0000

> <Gold.Chemscore.DEClash>
0.0859

> <Gold.Chemscore.DEInternal>
0.0516

> <Gold.Chemscore.Rot>
1.6679

> <Gold.Chemscore.Internal.Correction>
   9.000000E+99

> <Gold.Chemscore.Hbonds>
donor molecule, donor type, donor heavy atom, donor atom, acceptor molecule, acceptor atom, score
      L1  H     1    10       P1 10195  0.92
      L1  H     1    11       P1  7921  0.95
      L1  H     1    17       P1 10186  0.87
      L1  H     8     9       P1  7921  0.93

> <Gold.Chemscore.Hbond.Weighted>
-12.5869

> <Gold.Chemscore.Metal.Weighted>
-0.0000

> <Gold.Chemscore.Lipo.Weighted>
-2.8111

> <Gold.Chemscore.Internal_Hbond.Weighted>
0.0000

> <Gold.Chemscore.DEClash.Weighted>
0.0859

> <Gold.Chemscore.DEInternal.Weighted>
0.0516

> <Gold.Chemscore.Rot.Weighted>
4.2697

> <Gold.Chemscore.Internal.Correction.Weighted>
   9.000000E+99

> <Gold.Protein.RotatedTorsions>
[ 6907 6896 6895 6894 ] final  159.34 input  -60.11 | X-H torsion
[ 7974 7965 7964 7962 ] final   -7.94 input  175.53 | X-H torsion
[ 8008 7997 7996 7995 ] final  165.75 input   59.86 | X-H torsion
[ 10167 10162 10161 10158 ] final  175.95 input  -65.29 | X-H torsion
[ 10718 10713 10712 10709 ] final   -1.86 input   66.30 | X-H torsion
[ 10763 10752 10751 10750 ] final  119.21 input  -60.55 | X-H torsion
[ 11005 11000 10999 10996 ] final    5.77 input  -57.11 | X-H torsion

> <Gold.Protein.ActiveResidues>
 VAL166  LYS551  ARG553  GLY616  TRP617  ASP618  TYR619  PRO620  LYS621  CYS622 
 ASP623  PHE694  ASN695  SER759  ASP760  ASP761  ALA762  ILE779  LEU786  VAL792 
 PHE793  MET794  SER795  GLU796  ALA797  LYS798  CYS799  TRP800  GLU811  SER814 

> <Gold.Protein.RotatedAtoms>
  151.9870  133.3777  159.4129 H   0  0  0  0  0  0  0  0  0  0  0  0  # atno 6907 bound_to 6896
  150.6927  134.3978  159.5114 H   0  0  0  0  0  0  0  0  0  0  0  0  # atno 6908 bound_to 6896
  152.1705  134.8837  160.0585 H   0  0  0  0  0  0  0  0  0  0  0  0  # atno 6909 bound_to 6896
  146.2294  140.2394  142.8343 H   0  0  0  0  0  0  0  0  0  0  0  0  # atno 7974 bound_to 7965
  156.1775  140.1662  156.8336 H   0  0  0  0  0  0  0  0  0  0  0  0  # atno 8008 bound_to 7997
  154.5323  140.0754  156.8400 H   0  0  0  0  0  0  0  0  0  0  0  0  # atno 8009 bound_to 7997
  155.3382  140.3383  155.4241 H   0  0  0  0  0  0  0  0  0  0  0  0  # atno 8010 bound_to 7997
  139.5196  144.2972  152.0411 H   0  0  0  0  0  0  0  0  0  0  0  0  # atno 10167 bound_to 10162
  156.7993  130.5387  149.5724 H   0  0  0  0  0  0  0  0  0  0  0  0  # atno 10718 bound_to 10713
  153.5795  135.3486  155.2869 H   0  0  0  0  0  0  0  0  0  0  0  0  # atno 10763 bound_to 10752
  154.8670  135.4178  154.2636 H   0  0  0  0  0  0  0  0  0  0  0  0  # atno 10764 bound_to 10752
  153.3419  135.7050  153.6930 H   0  0  0  0  0  0  0  0  0  0  0  0  # atno 10765 bound_to 10752
  140.5670  134.0138  155.7993 H   0  0  0  0  0  0  0  0  0  0  0  0  # atno 11005 bound_to 11000
  144.9496  140.8164  143.5580 LP  0  0  0  0  0  0  0  0  0  0  0  0  # atno 17320 bound_to 7965
  145.2353  139.2096  143.5021 LP  0  0  0  0  0  0  0  0  0  0  0  0  # atno 17321 bound_to 7965
  140.2421  144.4258  150.6256 LP  0  0  0  0  0  0  0  0  0  0  0  0  # atno 17342 bound_to 10162
  140.6283  143.2184  151.6549 LP  0  0  0  0  0  0  0  0  0  0  0  0  # atno 17343 bound_to 10162
  156.1111  130.6041  151.0048 LP  0  0  0  0  0  0  0  0  0  0  0  0  # atno 17370 bound_to 10713
  157.6562  131.0889  150.7943 LP  0  0  0  0  0  0  0  0  0  0  0  0  # atno 17371 bound_to 10713
  141.1080  133.9663  157.2963 LP  0  0  0  0  0  0  0  0  0  0  0  0  # atno 17394 bound_to 11000
  139.9380  135.0194  156.8618 LP  0  0  0  0  0  0  0  0  0  0  0  0  # atno 17395 bound_to 11000

$$$$
