#       Name:                AV-unprocessed.smi:2368
#       Creating user name   scv26
#       Creation time:       Fri Mar 27 13:06:20 2020


#       File generated by GOLD software.
#

@<TRIPOS>MOLECULE
AV-unprocessed.smi:2368
    40    41     1
SMALL
NO_CHARGES


@<TRIPOS>ATOM
      1 ****        -6.0024   0.8263   1.7290 C.3            1 S1                 0.0000
      2 ****        -4.6546   1.3567   1.2780 C.ar           1 S1                 0.0000
      3 ****        -4.6150   2.6732   0.9773 N.ar           1 S1                 0.0000
      4 ****        -3.4421   3.1943   0.5632 C.ar           1 S1                 0.0000
      5 ****        -2.2609   2.4390   0.4350 C.ar           1 S1                 0.0000
      6 ****        -2.2941   1.0629   0.7654 C.ar           1 S1                 0.0000
      7 ****        -1.1656   0.2029   0.6550 N.am           1 S1                 0.0000
      8 ****         0.1404   0.5197   0.6820 C.2            1 S1                 0.0000
      9 ****         0.5977   1.6551   0.8127 O.2            1 S1                 0.0000
     10 ****         0.9056  -0.5746   0.5653 N.am           1 S1                 0.0000
     11 ****         2.3641  -0.5753   0.5719 C.3            1 S1                 0.0000
     12 ****         2.8909  -1.9766   0.7152 C.2            1 S1                 0.0000
     13 ****         3.7390  -2.3085  -0.2555 C.2            1 S1                 0.0000
     14 ****         3.9510  -1.1997  -1.2526 C.3            1 S1                 0.0000
     15 ****         3.7059  -1.6654  -2.6973 C.3            1 S1                 0.0000
     16 ****         4.0078  -0.6251  -3.6028 O.3            1 S1                 0.0000
     17 ****         2.9724  -0.0958  -0.7722 C.3            1 S1                 0.0000
     18 ****        -3.5264   0.5081   1.1845 C.ar           1 S1                 0.0000
     19 ****        -3.6513  -1.1734   1.5823 Cl             1 S1                 0.0000
     20 ****         2.7413   0.0191   1.4058 H              1 S1                 0.0000
     21 ****         4.9814  -0.8583  -1.1442 H              1 S1                 0.0000
     22 ****        -5.9328   0.4257   2.7405 H              1 S1                 0.0000
     23 ****        -6.3379   0.0301   1.0644 H              1 S1                 0.0000
     24 ****        -6.7626   1.6084   1.7280 H              1 S1                 0.0000
     25 ****        -3.4458   4.2462   0.3189 H              1 S1                 0.0000
     26 ****        -1.3661   2.9243   0.0771 H              1 S1                 0.0000
     27 ****        -1.3804  -0.7830   0.6249 H              1 S1                 0.0000
     28 ****         0.4496  -1.4696   0.4654 H              1 S1                 0.0000
     29 ****         2.6078  -2.6174   1.5375 H              1 S1                 0.0000
     30 ****         4.2448  -3.2593  -0.3385 H              1 S1                 0.0000
     31 ****         4.3374  -2.5222  -2.9339 H              1 S1                 0.0000
     32 ****         2.6705  -1.9783  -2.8373 H              1 S1                 0.0000
     33 ****         3.8511  -0.9359  -4.4814 H              1 S1                 0.0000
     34 ****         2.1896   0.0689  -1.5145 H              1 S1                 0.0000
     35 ****         3.4881   0.8572  -0.6495 H              1 S1                 0.0000
     36 ****        -5.4315   3.2446   1.0594 LP             1 S1                 0.0000
     37 ****        -0.0205   2.4350   0.9100 LP             1 S1                 0.0000
     38 ****         1.5875   1.7975   0.8216 LP             1 S1                 0.0000
     39 ****         4.9673  -0.3609  -3.5049 LP             1 S1                 0.0000
     40 ****         3.4239   0.1648  -3.4155 LP             1 S1                 0.0000
@<TRIPOS>BOND
    1    1    2 1     
    2    1   22 1     
    3    1   23 1     
    4    1   24 1     
    5    2   18 ar    
    6    2    3 ar    
    7    3    4 ar    
    8    4    5 ar    
    9    4   25 1     
   10    5    6 ar    
   11    5   26 1     
   12    6    7 1     
   13    6   18 ar    
   14    7    8 am    
   15    7   27 1     
   16    8    9 2     
   17    8   10 am    
   18   10   11 1     
   19   10   28 1     
   20   11   20 1     
   21   11   17 1     
   22   11   12 1     
   23   12   13 2     
   24   12   29 1     
   25   13   14 1     
   26   13   30 1     
   27   14   21 1     
   28   14   15 1     
   29   14   17 1     
   30   15   16 1     
   31   15   31 1     
   32   15   32 1     
   33   16   33 1     
   34   17   34 1     
   35   17   35 1     
   36   18   19 1     
   37    3   36 1     
   38    9   37 1     
   39    9   38 1     
   40   16   39 1     
   41   16   40 1     
@<TRIPOS>SUBSTRUCTURE
      1 S1             1
@<TRIPOS>SET
LONE_PAIRS      STATIC     ATOMS    <user>   **** ""
5 36 37 38 39 40
DONOR_HYDROGENS      STATIC     ATOMS    <user>   **** ""
3 27 28 33
ATOM$BLUE        STATIC     ATOMS    COLORGROUP SYSTEM
5 36 37 38 39 40
ATOM$RED        STATIC     ATOMS    COLORGROUP SYSTEM
3 27 28 33
