#       Name:                AV-unprocessed.smi:1261
#       Creating user name   scv26
#       Creation time:       Fri Mar 27 04:42:41 2020


#       File generated by GOLD software.
#

@<TRIPOS>MOLECULE
AV-unprocessed.smi:1261
    57    58     1
SMALL
NO_CHARGES


@<TRIPOS>ATOM
      1 ****        -3.7543   0.5275   1.3702 C.3            1 S1                 0.0000
      2 ****        -3.1048   1.7622   2.0202 C.3            1 S1                 0.0000
      3 ****        -3.6476   3.0910   1.4616 C.3            1 S1                 0.0000
      4 ****        -3.1072   3.3785   0.0490 C.3            1 S1                 0.0000
      5 ****        -3.6012   4.7350  -0.4734 C.3            1 S1                 0.0000
      6 ****        -1.5684   3.2964   0.0387 C.3            1 S1                 0.0000
      7 ****        -1.0946   1.9811   0.5412 N.4            1 S1                 1.0000
      8 ****         0.3712   1.8068   0.3808 C.3            1 S1                 0.0000
      9 ****         0.7752   0.3245   0.3105 C.3            1 S1                 0.0000
     10 ****         2.2821   0.1375   0.0714 C.3            1 S1                 0.0000
     11 ****         2.6330  -1.2745  -0.0137 N.am           1 S1                 0.0000
     12 ****         2.8088  -2.0948   1.0367 C.2            1 S1                 0.0000
     13 ****         2.7060  -1.7126   2.2018 O.2            1 S1                 0.0000
     14 ****         3.1375  -3.5725   0.7604 C.3            1 S1                 0.0000
     15 ****         3.0186  -3.9834  -0.6483 N.am           1 S1                 0.0000
     16 ****         4.2219  -3.9982  -1.3375 N.2            1 S1                 0.0000
     17 ****         4.2488  -4.3404  -2.5813 C.2            1 S1                 0.0000
     18 ****         5.4611  -4.3377  -3.2265 O.3            1 S1                 0.0000
     19 ****         3.0393  -4.7161  -3.2805 C.2            1 S1                 0.0000
     20 ****         1.8715  -4.6975  -2.6011 C.2            1 S1                 0.0000
     21 ****         1.8049  -4.3089  -1.1911 C.2            1 S1                 0.0000
     22 ****         0.7537  -4.2667  -0.5524 O.2            1 S1                 0.0000
     23 ****        -1.5666   1.7263   1.9289 C.3            1 S1                 0.0000
     24 ****         5.2767  -4.6120  -4.1116 H              1 S1                 0.0000
     25 ****        -3.5174   0.4509   0.3091 H              1 S1                 0.0000
     26 ****        -4.8401   0.5595   1.4663 H              1 S1                 0.0000
     27 ****        -3.4117  -0.3902   1.8491 H              1 S1                 0.0000
     28 ****        -3.3690   1.7245   3.0778 H              1 S1                 0.0000
     29 ****        -4.7384   3.0815   1.4575 H              1 S1                 0.0000
     30 ****        -3.3540   3.9021   2.1296 H              1 S1                 0.0000
     31 ****        -3.4907   2.6148  -0.6284 H              1 S1                 0.0000
     32 ****        -3.2572   5.5542   0.1587 H              1 S1                 0.0000
     33 ****        -4.6906   4.7716  -0.5015 H              1 S1                 0.0000
     34 ****        -3.2407   4.9220  -1.4854 H              1 S1                 0.0000
     35 ****        -1.2114   3.4473  -0.9810 H              1 S1                 0.0000
     36 ****        -1.1383   4.0942   0.6466 H              1 S1                 0.0000
     37 ****         0.6920   2.2841  -0.5462 H              1 S1                 0.0000
     38 ****         0.8977   2.3179   1.1883 H              1 S1                 0.0000
     39 ****         0.4972  -0.1853   1.2326 H              1 S1                 0.0000
     40 ****         0.2196  -0.1651  -0.4906 H              1 S1                 0.0000
     41 ****         2.5744   0.6150  -0.8643 H              1 S1                 0.0000
     42 ****         2.8598   0.6207   0.8614 H              1 S1                 0.0000
     43 ****         2.7403  -1.6650  -0.9391 H              1 S1                 0.0000
     44 ****         4.1525  -3.7589   1.1157 H              1 S1                 0.0000
     45 ****         2.4969  -4.1958   1.3870 H              1 S1                 0.0000
     46 ****         3.0778  -5.0039  -4.3209 H              1 S1                 0.0000
     47 ****         0.9608  -4.9765  -3.1105 H              1 S1                 0.0000
     48 ****        -1.1405   2.4803   2.5928 H              1 S1                 0.0000
     49 ****        -1.2085   0.7625   2.2892 H              1 S1                 0.0000
     50 ****        -1.5277   1.2854  -0.0491 H              1 S1                 0.0000
     51 ****         2.4834  -0.7574   2.3969 LP             1 S1                 0.0000
     52 ****         2.8451  -2.3572   2.9536 LP             1 S1                 0.0000
     53 ****         5.0688  -3.7436  -0.8705 LP             1 S1                 0.0000
     54 ****         6.0924  -4.9767  -2.7869 LP             1 S1                 0.0000
     55 ****         5.8581  -3.4199  -3.2206 LP             1 S1                 0.0000
     56 ****         0.7626  -3.9850   0.4071 LP             1 S1                 0.0000
     57 ****        -0.1093  -4.5141  -0.9929 LP             1 S1                 0.0000
@<TRIPOS>BOND
    1    1    2 1     
    2    1   25 1     
    3    1   26 1     
    4    1   27 1     
    5    2   23 1     
    6    2    3 1     
    7    2   28 1     
    8    3    4 1     
    9    3   29 1     
   10    3   30 1     
   11    4    5 1     
   12    4    6 1     
   13    4   31 1     
   14    5   32 1     
   15    5   33 1     
   16    5   34 1     
   17    6    7 1     
   18    6   35 1     
   19    6   36 1     
   20    7    8 1     
   21    7   23 1     
   22    7   50 1     
   23    8    9 1     
   24    8   37 1     
   25    8   38 1     
   26    9   10 1     
   27    9   39 1     
   28    9   40 1     
   29   10   11 1     
   30   10   41 1     
   31   10   42 1     
   32   11   12 am    
   33   11   43 1     
   34   12   13 2     
   35   12   14 1     
   36   14   44 1     
   37   14   45 1     
   38   14   15 1     
   39   15   16 1     
   40   15   21 am    
   41   16   17 2     
   42   17   18 1     
   43   17   19 1     
   44   18   24 1     
   45   19   46 1     
   46   19   20 2     
   47   20   47 1     
   48   20   21 1     
   49   21   22 2     
   50   23   48 1     
   51   23   49 1     
   52   13   51 1     
   53   13   52 1     
   54   16   53 1     
   55   18   54 1     
   56   18   55 1     
   57   22   56 1     
   58   22   57 1     
@<TRIPOS>SUBSTRUCTURE
      1 S1             1
@<TRIPOS>SET
LONE_PAIRS      STATIC     ATOMS    <user>   **** ""
7 51 52 53 54 55 56 57
DONOR_HYDROGENS      STATIC     ATOMS    <user>   **** ""
3 50 43 24
ATOM$BLUE        STATIC     ATOMS    COLORGROUP SYSTEM
7 51 52 53 54 55 56 57
ATOM$RED        STATIC     ATOMS    COLORGROUP SYSTEM
3 50 43 24
