#       Name:                AV-unprocessed.smi:2355
#       Creating user name   scv26
#       Creation time:       Fri Mar 27 13:01:47 2020


#       File generated by GOLD software.
#

@<TRIPOS>MOLECULE
AV-unprocessed.smi:2355
    54    55     1
SMALL
NO_CHARGES


@<TRIPOS>ATOM
      1 ****        -6.1654   0.7754  -0.6626 C.3            1 S1                 0.0000
      2 ****        -4.7705   1.2879  -0.9530 C.ar           1 S1                 0.0000
      3 ****        -4.5517   2.6357  -1.2968 C.ar           1 S1                 0.0000
      4 ****        -3.2302   3.0494  -1.5555 C.ar           1 S1                 0.0000
      5 ****        -2.9223   4.4826  -1.9347 C.3            1 S1                 0.0000
      6 ****        -2.1706   2.2155  -1.4879 N.ar           1 S1                 0.0000
      7 ****        -2.3690   0.9156  -1.1562 C.ar           1 S1                 0.0000
      8 ****        -1.3233  -0.0399  -1.0526 N.am           1 S1                 0.0000
      9 ****        -0.0052   0.1474  -1.2407 C.2            1 S1                 0.0000
     10 ****         0.5226   1.2095  -1.5725 O.2            1 S1                 0.0000
     11 ****         0.6793  -0.9835  -1.0148 N.am           1 S1                 0.0000
     12 ****         2.1334  -1.1311  -1.0811 C.3            1 S1                 0.0000
     13 ****         2.5276  -1.8009  -2.4099 C.3            1 S1                 0.0000
     14 ****         2.6729  -1.8495   0.1958 C.3            1 S1                 0.0000
     15 ****         2.1681  -3.3156   0.2292 C.3            1 S1                 0.0000
     16 ****         2.3865  -1.1202   1.4578 N.3            1 S1                 0.0000
     17 ****         2.9495  -1.7884   2.6369 C.3            1 S1                 0.0000
     18 ****         2.6691  -1.0302   3.9461 C.3            1 S1                 0.0000
     19 ****         3.1704   0.2955   3.8497 O.3            1 S1                 0.0000
     20 ****         2.5889   1.0065   2.7661 C.3            1 S1                 0.0000
     21 ****         2.8721   0.2655   1.4482 C.3            1 S1                 0.0000
     22 ****        -3.6631   0.4186  -0.8828 C.ar           1 S1                 0.0000
     23 ****        -6.9053   1.5731  -0.7359 H              1 S1                 0.0000
     24 ****        -6.2125   0.3583   0.3436 H              1 S1                 0.0000
     25 ****        -6.4351  -0.0067  -1.3728 H              1 S1                 0.0000
     26 ****        -5.3738   3.3334  -1.3613 H              1 S1                 0.0000
     27 ****        -3.8105   5.1109  -1.8613 H              1 S1                 0.0000
     28 ****        -2.5540   4.5309  -2.9597 H              1 S1                 0.0000
     29 ****        -2.1583   4.8956  -1.2751 H              1 S1                 0.0000
     30 ****        -1.6106  -0.9702  -0.7875 H              1 S1                 0.0000
     31 ****         0.1580  -1.8046  -0.7449 H              1 S1                 0.0000
     32 ****         2.6041  -0.1510  -1.1409 H              1 S1                 0.0000
     33 ****         3.5972  -2.0092  -2.4440 H              1 S1                 0.0000
     34 ****         2.2962  -1.1469  -3.2514 H              1 S1                 0.0000
     35 ****         1.9937  -2.7353  -2.5804 H              1 S1                 0.0000
     36 ****         3.7574  -1.8978   0.0849 H              1 S1                 0.0000
     37 ****         2.3534  -3.8391  -0.7066 H              1 S1                 0.0000
     38 ****         1.0979  -3.3674   0.4314 H              1 S1                 0.0000
     39 ****         2.6801  -3.9111   0.9833 H              1 S1                 0.0000
     40 ****         2.5284  -2.7851   2.7525 H              1 S1                 0.0000
     41 ****         4.0266  -1.9108   2.5133 H              1 S1                 0.0000
     42 ****         1.5994  -1.0097   4.1595 H              1 S1                 0.0000
     43 ****         3.1526  -1.5321   4.7843 H              1 S1                 0.0000
     44 ****         1.5147   1.1145   2.9248 H              1 S1                 0.0000
     45 ****         3.0096   2.0116   2.7331 H              1 S1                 0.0000
     46 ****         3.9436   0.2823   1.2433 H              1 S1                 0.0000
     47 ****         2.3878   0.8398   0.6612 H              1 S1                 0.0000
     48 ****        -3.8082  -0.6195  -0.6200 H              1 S1                 0.0000
     49 ****        -1.2491   2.5528  -1.6804 LP             1 S1                 0.0000
     50 ****        -0.0406   2.0218  -1.7240 LP             1 S1                 0.0000
     51 ****         1.5143   1.2596  -1.6905 LP             1 S1                 0.0000
     52 ****         1.3882  -1.1174   1.5157 LP             1 S1                 0.0000
     53 ****         4.1607   0.2573   3.7165 LP             1 S1                 0.0000
     54 ****         2.9669   0.7803   4.7003 LP             1 S1                 0.0000
@<TRIPOS>BOND
    1    1    2 1     
    2    1   23 1     
    3    1   24 1     
    4    1   25 1     
    5    2   22 ar    
    6    2    3 ar    
    7    3    4 ar    
    8    3   26 1     
    9    4    5 1     
   10    4    6 ar    
   11    5   27 1     
   12    5   28 1     
   13    5   29 1     
   14    6    7 ar    
   15    7    8 1     
   16    7   22 ar    
   17    8    9 am    
   18    8   30 1     
   19    9   10 2     
   20    9   11 am    
   21   11   12 1     
   22   11   31 1     
   23   12   13 1     
   24   12   14 1     
   25   12   32 1     
   26   13   33 1     
   27   13   34 1     
   28   13   35 1     
   29   14   15 1     
   30   14   16 1     
   31   14   36 1     
   32   15   37 1     
   33   15   38 1     
   34   15   39 1     
   35   16   21 1     
   36   16   17 1     
   37   17   18 1     
   38   17   40 1     
   39   17   41 1     
   40   18   19 1     
   41   18   42 1     
   42   18   43 1     
   43   19   20 1     
   44   20   21 1     
   45   20   44 1     
   46   20   45 1     
   47   21   46 1     
   48   21   47 1     
   49   22   48 1     
   50    6   49 1     
   51   10   50 1     
   52   10   51 1     
   53   16   52 1     
   54   19   53 1     
   55   19   54 1     
@<TRIPOS>SUBSTRUCTURE
      1 S1             1
@<TRIPOS>SET
LONE_PAIRS      STATIC     ATOMS    <user>   **** ""
6 49 50 51 52 53 54
DONOR_HYDROGENS      STATIC     ATOMS    <user>   **** ""
2 30 31
ATOM$BLUE        STATIC     ATOMS    COLORGROUP SYSTEM
6 49 50 51 52 53 54
ATOM$RED        STATIC     ATOMS    COLORGROUP SYSTEM
2 30 31
