AV-unprocessed.smi:1444|AV-procd|sdf|5881|dock8
  -GOLD-   22720 5563D 1   1.00000     0.00000
 Structure written by MMmdl.
 43 44  0  0  0  0  0  0  0  0  1 V2000
  145.1486  134.9909  150.8201 C   0  0  0  0  0  0  0  0  0  0  0  0
  146.2604  134.6463  151.6397 O   0  0  0  0  0  0  0  0  0  0  0  0
  146.4447  133.3191  151.9788 C   0  0  0  0  0  0  0  0  0  0  0  0
  145.5996  132.3973  151.4525 N   0  0  0  0  0  0  0  0  0  0  0  0
  145.7805  131.1007  151.7757 C   0  0  0  0  0  0  0  0  0  0  0  0
  146.8074  130.6560  152.6275 C   0  0  0  0  0  0  0  0  0  0  0  0
  147.6853  131.6100  153.1752 C   0  0  0  0  0  0  0  0  0  0  0  0
  147.5012  132.9781  152.8562 C   0  0  0  0  0  0  0  0  0  0  0  0
  148.3298  134.0310  153.3376 N   0  0  0  0  0  0  0  0  0  0  0  0
  149.0254  134.1137  154.4849 C   0  0  0  0  0  0  0  0  0  0  0  0
  149.0643  133.2526  155.3629 O   0  0  0  0  0  0  0  0  0  0  0  0
  149.6834  135.2796  154.5635 N   0  0  0  0  0  0  0  0  0  0  0  0
  150.5417  135.7007  155.6688 C   0  0  2  0  0  0  0  0  0  0  0  0
  149.6494  135.8858  156.9064 C   0  0  0  0  0  0  0  0  0  0  0  0
  151.3331  136.9591  155.2330 C   0  0  0  0  0  0  0  0  0  0  0  0
  150.6700  138.2528  155.4233 N   0  0  0  0  0  0  0  0  0  0  0  0
  149.9105  138.6791  154.2475 C   0  0  0  0  0  0  0  0  0  0  0  0
  149.2478  140.0525  154.4544 C   0  0  0  0  0  0  0  0  0  0  0  0
  150.2417  141.0188  154.7770 O   0  0  0  0  0  0  0  0  0  0  0  0
  150.9864  140.6684  155.9380 C   0  0  0  0  0  0  0  0  0  0  0  0
  151.6473  139.2944  155.7310 C   0  0  0  0  0  0  0  0  0  0  0  0
  145.1539  136.0654  150.6381 H   0  0  0  0  0  0  0  0  0  0  0  0
  144.2029  134.7421  151.3035 H   0  0  0  0  0  0  0  0  0  0  0  0
  145.1982  134.4923  149.8510 H   0  0  0  0  0  0  0  0  0  0  0  0
  145.0892  130.3961  151.3375 H   0  0  0  0  0  0  0  0  0  0  0  0
  146.9218  129.6060  152.8528 H   0  0  0  0  0  0  0  0  0  0  0  0
  148.4820  131.2660  153.8146 H   0  0  0  0  0  0  0  0  0  0  0  0
  148.3618  134.8484  152.7460 H   0  0  0  0  0  0  0  0  0  0  0  0
  149.5880  135.9277  153.7954 H   0  0  0  0  0  0  0  0  0  0  0  0
  151.2478  134.8969  155.8857 H   0  0  0  0  0  0  0  0  0  0  0  0
  150.2367  135.9218  157.8221 H   0  0  0  0  0  0  0  0  0  0  0  0
  148.9629  135.0459  157.0221 H   0  0  0  0  0  0  0  0  0  0  0  0
  149.0520  136.7956  156.8394 H   0  0  0  0  0  0  0  0  0  0  0  0
  152.2480  136.9624  155.8278 H   0  0  0  0  0  0  0  0  0  0  0  0
  151.6704  136.8572  154.2004 H   0  0  0  0  0  0  0  0  0  0  0  0
  150.5702  138.7287  153.3797 H   0  0  0  0  0  0  0  0  0  0  0  0
  149.1353  137.9611  154.0004 H   0  0  0  0  0  0  0  0  0  0  0  0
  148.7299  140.3644  153.5471 H   0  0  0  0  0  0  0  0  0  0  0  0
  148.5023  140.0064  155.2499 H   0  0  0  0  0  0  0  0  0  0  0  0
  151.7444  141.4306  156.1182 H   0  0  0  0  0  0  0  0  0  0  0  0
  150.3306  140.6545  156.8098 H   0  0  0  0  0  0  0  0  0  0  0  0
  152.1994  139.0291  156.6334 H   0  0  0  0  0  0  0  0  0  0  0  0
  152.3808  139.3643  154.9261 H   0  0  0  0  0  0  0  0  0  0  0  0
  1  2  1  0  0  0  0
  1 22  1  0  0  0  0
  1 23  1  0  0  0  0
  1 24  1  0  0  0  0
  2  3  1  0  0  0  0
  3  8  1  0  0  0  0
  3  4  2  0  0  0  0
  4  5  1  0  0  0  0
  5  6  2  0  0  0  0
  5 25  1  0  0  0  0
  6  7  1  0  0  0  0
  6 26  1  0  0  0  0
  7  8  2  0  0  0  0
  7 27  1  0  0  0  0
  8  9  1  0  0  0  0
  9 10  1  0  0  0  0
  9 28  1  0  0  0  0
 10 11  2  0  0  0  0
 10 12  1  0  0  0  0
 12 13  1  0  0  0  0
 12 29  1  0  0  0  0
 13 14  1  0  0  0  0
 13 15  1  0  0  0  0
 13 30  1  0  0  0  0
 14 31  1  0  0  0  0
 14 32  1  0  0  0  0
 14 33  1  0  0  0  0
 15 16  1  0  0  0  0
 15 34  1  0  0  0  0
 15 35  1  0  0  0  0
 16 21  1  0  0  0  0
 16 17  1  0  0  0  0
 17 18  1  0  0  0  0
 17 36  1  0  0  0  0
 17 37  1  0  0  0  0
 18 19  1  0  0  0  0
 18 38  1  0  0  0  0
 18 39  1  0  0  0  0
 19 20  1  0  0  0  0
 20 21  1  0  0  0  0
 20 40  1  0  0  0  0
 20 41  1  0  0  0  0
 21 42  1  0  0  0  0
 21 43  1  0  0  0  0
M  END
> <s_m_source_file>
AV-unprocessed.smi

> <i_m_source_file_index>
1444

> <i_lp_mmshare_version>
43012

> <i_f3d_flags>
0

> <s_epik_input>
W0NIM11PYzFuW2NIXVtjSF1bY0hdYzFbTkhdQyg9TylbTkhdW0NASF0oW0NIM10pW0NIMl1OMltDSDJdW0NIMl1PW0NIMl1bQ0gyXTI=

> <s_epik_cmdline>
J2VwaWtfcHl0aG9uJywgJy1waCcsICc3LjAnLCAnLXRuJywgJzgnLCAnLW1hJywgJzIwMCcsICctbWV0YWxfYmluZGluZycsICctaW1hZScsICc8aW5maWxlLm1hZT4nLCAnLW9tYWUnLCAnPG91dGZpbGUubWFlPic=

> <r_lp_tautomer_probability>
1

> <r_epik_Ionization_Penalty>
0.266086

> <r_epik_Ionization_Penalty_Charging>
0

> <r_epik_Ionization_Penalty_Neutral>
0.266086

> <r_epik_State_Penalty>
0.257924

> <r_epik_Charging_Adjusted_Penalty>
0.257924

> <i_epik_Tot_Q>
0

> <i_epik_Tot_abs_Q>
0

> <r_epik_Metal_State_Penalty>
0.25792

> <b_epik_Metal_Only>
0

> <s_lp_Force_Field>
OPLS_2005

> <r_lp_Energy>
29.2367

> <b_lp_Chiralities_Consistent>
1

> <s_lp_Variant>
AV-unprocessed.smi:1444-1

> <Gold.Version>
5.8.1

> <Gold.Id.Protein>
6NUR|6NUR_protein|mol2

> <Gold.PLP.Fitness>
39.1703

> <Gold.PLP.PLP>
-33.2267

> <Gold.PLP.part.hbond>
-3.0000

> <Gold.PLP.part.metal>
0.0000

> <Gold.PLP.part.buried>
-2.4030

> <Gold.PLP.part.nonpolar>
-27.8181

> <Gold.PLP.part.repulsive>
0.7989

> <Gold.PLP.ligand.clash>
0.0000

> <Gold.PLP.ligand.torsion>
0.9761

> <Gold.PLP.Chemscore.Hbond>
2.6160

> <Gold.PLP.Chemscore.CHOScore>
0.0000

> <Gold.PLP.Chemscore.Metal>
0.0000

> <Gold.Chemscore.Hbonds>
donor molecule, donor type, donor heavy atom, donor atom, acceptor molecule, acceptor atom, score
      L1  H     9    28       P1  7948  1.00
      L1  H    12    29       P1  7948  0.94
      P1  H  7989  7998       L1    19  0.64

> <Gold.PLP.Chemscore.Internal.Correction>
0.0478

> <Gold.Rescore>
     Score         DG    S(hbond)    S(metal)    S(lipo)     H(rot)  DE(clash)    DE(int)     intcor
     13.84     -15.77       1.88        0.00      71.80       1.72       0.16       1.76       ----

> <Gold.Chemscore.Fitness>
13.8403

> <Gold.Chemscore.DG>
-15.7670

> <Gold.Chemscore.ZeroCoef>
-5.4800

> <Gold.Chemscore.Hbond>
1.8823

> <Gold.Chemscore.Metal>
0.0000

> <Gold.Chemscore.Lipo>
71.8000

> <Gold.Chemscore.Internal_Hbond>
0.0000

> <Gold.Chemscore.DEClash>
0.1617

> <Gold.Chemscore.DEInternal>
1.7649

> <Gold.Chemscore.Rot>
1.7189

> <Gold.Chemscore.Internal.Correction>
   9.000000E+99

> <Gold.Chemscore.Hbonds>
donor molecule, donor type, donor heavy atom, donor atom, acceptor molecule, acceptor atom, score
      L1  H     9    28       P1  7948  0.55
      L1  H    12    29       P1  7948  0.34
      P1  H  7989  7998       L1    19  0.10

> <Gold.Chemscore.Hbond.Weighted>
-6.2868

> <Gold.Chemscore.Metal.Weighted>
-0.0000

> <Gold.Chemscore.Lipo.Weighted>
-8.4006

> <Gold.Chemscore.Internal_Hbond.Weighted>
0.0000

> <Gold.Chemscore.DEClash.Weighted>
0.1617

> <Gold.Chemscore.DEInternal.Weighted>
1.7649

> <Gold.Chemscore.Rot.Weighted>
4.4004

> <Gold.Chemscore.Internal.Correction.Weighted>
   9.000000E+99

> <Gold.Protein.RotatedTorsions>
[ 6907 6896 6895 6894 ] final -121.29 input  -60.11 | X-H torsion
[ 7974 7965 7964 7962 ] final  -33.66 input  175.53 | X-H torsion
[ 8008 7997 7996 7995 ] final -133.28 input   59.86 | X-H torsion
[ 10167 10162 10161 10158 ] final   44.01 input  -65.29 | X-H torsion
[ 10718 10713 10712 10709 ] final  157.96 input   66.30 | X-H torsion
[ 10763 10752 10751 10750 ] final   39.72 input  -60.55 | X-H torsion
[ 11005 11000 10999 10996 ] final  152.02 input  -57.11 | X-H torsion

> <Gold.Protein.ActiveResidues>
 VAL166  LYS551  ARG553  GLY616  TRP617  ASP618  TYR619  PRO620  LYS621  CYS622 
 ASP623  PHE694  ASN695  SER759  ASP760  ASP761  ALA762  ILE779  LEU786  VAL792 
 PHE793  MET794  SER795  GLU796  ALA797  LYS798  CYS799  TRP800  GLU811  SER814 

> <Gold.Protein.RotatedAtoms>
  150.8470  133.7846  159.3039 H   0  0  0  0  0  0  0  0  0  0  0  0  # atno 6907 bound_to 6896
  151.5529  135.1065  159.9963 H   0  0  0  0  0  0  0  0  0  0  0  0  # atno 6908 bound_to 6896
  152.4522  133.7608  159.6802 H   0  0  0  0  0  0  0  0  0  0  0  0  # atno 6909 bound_to 6896
  146.0892  140.5944  142.8872 H   0  0  0  0  0  0  0  0  0  0  0  0  # atno 7974 bound_to 7965
  155.3429  140.0473  157.3045 H   0  0  0  0  0  0  0  0  0  0  0  0  # atno 8008 bound_to 7997
  154.5268  140.2243  155.8841 H   0  0  0  0  0  0  0  0  0  0  0  0  # atno 8009 bound_to 7997
  156.1747  140.3088  155.9044 H   0  0  0  0  0  0  0  0  0  0  0  0  # atno 8010 bound_to 7997
  140.3386  144.2498  150.6158 H   0  0  0  0  0  0  0  0  0  0  0  0  # atno 10167 bound_to 10162
  157.1844  131.0640  151.2114 H   0  0  0  0  0  0  0  0  0  0  0  0  # atno 10718 bound_to 10713
  152.9958  135.6212  154.2510 H   0  0  0  0  0  0  0  0  0  0  0  0  # atno 10763 bound_to 10752
  154.2249  135.2794  155.2913 H   0  0  0  0  0  0  0  0  0  0  0  0  # atno 10764 bound_to 10752
  154.5498  135.5736  153.6970 H   0  0  0  0  0  0  0  0  0  0  0  0  # atno 10765 bound_to 10752
  140.1271  134.8826  157.2152 H   0  0  0  0  0  0  0  0  0  0  0  0  # atno 11005 bound_to 11000
  144.7348  140.4777  143.6912 LP  0  0  0  0  0  0  0  0  0  0  0  0  # atno 17320 bound_to 7965
  145.6071  139.1509  143.3097 LP  0  0  0  0  0  0  0  0  0  0  0  0  # atno 17321 bound_to 7965
  140.5330  143.2239  151.8208 LP  0  0  0  0  0  0  0  0  0  0  0  0  # atno 17342 bound_to 10162
  139.4844  144.4696  151.9441 LP  0  0  0  0  0  0  0  0  0  0  0  0  # atno 17343 bound_to 10162
  157.3921  130.7288  149.6705 LP  0  0  0  0  0  0  0  0  0  0  0  0  # atno 17370 bound_to 10713
  155.9720  130.4143  150.4127 LP  0  0  0  0  0  0  0  0  0  0  0  0  # atno 17371 bound_to 10713
  140.2890  134.3262  155.7320 LP  0  0  0  0  0  0  0  0  0  0  0  0  # atno 17394 bound_to 11000
  141.2163  133.7523  156.9476 LP  0  0  0  0  0  0  0  0  0  0  0  0  # atno 17395 bound_to 11000

$$$$
