AV-unprocessed.smi:306|AV-procd|sdf|2282|dock2
  -GOLD-   2262022183D 1   1.00000     0.00000
 Structure written by MMmdl.
 47 49  0  0  0  0  0  0  0  0  1 V2000
  154.8248  141.1205  162.2978 C   0  0  0  0  0  0  0  0  0  0  0  0
  154.6863  140.2948  161.0136 C   0  0  0  0  0  0  0  0  0  0  0  0
  153.6378  140.8540  160.0941 C   0  0  0  0  0  0  0  0  0  0  0  0
  153.0878  142.1664  160.0840 C   0  0  0  0  0  0  0  0  0  0  0  0
  152.1826  142.1466  159.0607 C   0  0  0  0  0  0  0  0  0  0  0  0
  151.2854  143.2297  158.5483 C   0  0  0  0  0  0  0  0  0  0  0  0
  152.0082  144.5646  158.3394 C   0  0  0  0  0  0  0  0  0  0  0  0
  152.2187  140.8727  158.5222 N   0  0  0  0  0  0  0  0  0  0  0  0
  151.4680  140.3588  157.4467 C   0  0  0  0  0  0  0  0  0  0  0  0
  150.2443  140.7845  157.1250 N   0  0  0  0  0  0  0  0  0  0  0  0
  149.9133  139.9708  156.0510 C   0  0  0  0  0  0  0  0  0  0  0  0
  150.9186  139.1011  155.7705 C   0  0  0  0  0  0  0  0  0  0  0  0
  150.8211  138.1023  154.6980 C   0  0  0  0  0  0  0  0  0  0  0  0
  151.7122  137.2976  154.4353 O   0  0  0  0  0  0  0  0  0  0  0  0
  149.6422  138.1533  154.0313 N   0  0  0  0  0  0  0  0  0  0  0  0
  148.5938  139.0022  154.2586 C   0  0  0  0  0  0  0  0  0  0  0  0
  147.5777  138.9228  153.5685 O   0  0  0  0  0  0  0  0  0  0  0  0
  148.7246  139.9212  155.2685 N   0  0  0  0  0  0  0  0  0  0  0  0
  147.6331  140.8532  155.5578 C   0  0  0  0  0  0  0  0  0  0  0  0
  151.9514  139.3547  156.6737 N   0  0  0  0  0  0  0  0  0  0  0  0
  153.2456  138.6888  156.7868 C   0  0  0  0  0  0  0  0  0  0  0  0
  153.1092  137.1614  156.8560 C   0  0  0  0  0  0  0  0  0  0  0  0
  154.3618  136.5505  156.5924 O   0  0  0  0  0  0  0  0  0  0  0  0
  155.3032  136.7723  157.6267 C   0  0  0  0  0  0  0  0  0  0  0  0
  153.1138  140.0846  159.1537 N   0  0  0  0  0  0  0  0  0  0  0  0
  149.5223  137.4853  153.2840 H   0  0  0  0  0  0  0  0  0  0  0  0
  155.5939  140.7013  162.9468 H   0  0  0  0  0  0  0  0  0  0  0  0
  153.8897  141.1383  162.8585 H   0  0  0  0  0  0  0  0  0  0  0  0
  155.1024  142.1510  162.0744 H   0  0  0  0  0  0  0  0  0  0  0  0
  155.6480  140.2620  160.5005 H   0  0  0  0  0  0  0  0  0  0  0  0
  154.4464  139.2623  161.2699 H   0  0  0  0  0  0  0  0  0  0  0  0
  153.3241  142.9986  160.7303 H   0  0  0  0  0  0  0  0  0  0  0  0
  150.8241  142.9190  157.6101 H   0  0  0  0  0  0  0  0  0  0  0  0
  150.4628  143.3746  159.2489 H   0  0  0  0  0  0  0  0  0  0  0  0
  151.3190  145.3261  157.9746 H   0  0  0  0  0  0  0  0  0  0  0  0
  152.8142  144.4705  157.6117 H   0  0  0  0  0  0  0  0  0  0  0  0
  152.4411  144.9260  159.2725 H   0  0  0  0  0  0  0  0  0  0  0  0
  147.3340  141.3920  154.6576 H   0  0  0  0  0  0  0  0  0  0  0  0
  147.9072  141.6006  156.3020 H   0  0  0  0  0  0  0  0  0  0  0  0
  146.7644  140.3140  155.9371 H   0  0  0  0  0  0  0  0  0  0  0  0
  153.8757  138.9758  155.9470 H   0  0  0  0  0  0  0  0  0  0  0  0
  153.7612  139.0570  157.6736 H   0  0  0  0  0  0  0  0  0  0  0  0
  152.7493  136.8675  157.8429 H   0  0  0  0  0  0  0  0  0  0  0  0
  152.3700  136.8215  156.1298 H   0  0  0  0  0  0  0  0  0  0  0  0
  156.2483  136.2946  157.3693 H   0  0  0  0  0  0  0  0  0  0  0  0
  154.9578  136.3492  158.5706 H   0  0  0  0  0  0  0  0  0  0  0  0
  155.4914  137.8375  157.7673 H   0  0  0  0  0  0  0  0  0  0  0  0
  1  2  1  0  0  0  0
  1 27  1  0  0  0  0
  1 28  1  0  0  0  0
  1 29  1  0  0  0  0
  2  3  1  0  0  0  0
  2 30  1  0  0  0  0
  2 31  1  0  0  0  0
  3 25  2  0  0  0  0
  3  4  1  0  0  0  0
  4  5  2  0  0  0  0
  4 32  1  0  0  0  0
  5  6  1  0  0  0  0
  5  8  1  0  0  0  0
  6  7  1  0  0  0  0
  6 33  1  0  0  0  0
  6 34  1  0  0  0  0
  7 35  1  0  0  0  0
  7 36  1  0  0  0  0
  7 37  1  0  0  0  0
  8  9  1  0  0  0  0
  8 25  1  0  0  0  0
  9 20  1  0  0  0  0
  9 10  2  0  0  0  0
 10 11  1  0  0  0  0
 11 18  1  0  0  0  0
 11 12  2  0  0  0  0
 12 13  1  0  0  0  0
 12 20  1  0  0  0  0
 13 14  2  0  0  0  0
 13 15  1  0  0  0  0
 15 26  1  0  0  0  0
 15 16  1  0  0  0  0
 16 17  2  0  0  0  0
 16 18  1  0  0  0  0
 18 19  1  0  0  0  0
 19 38  1  0  0  0  0
 19 39  1  0  0  0  0
 19 40  1  0  0  0  0
 20 21  1  0  0  0  0
 21 22  1  0  0  0  0
 21 41  1  0  0  0  0
 21 42  1  0  0  0  0
 22 23  1  0  0  0  0
 22 43  1  0  0  0  0
 22 44  1  0  0  0  0
 23 24  1  0  0  0  0
 24 45  1  0  0  0  0
 24 46  1  0  0  0  0
 24 47  1  0  0  0  0
M  END
> <s_m_source_file>
AV-unprocessed.smi

> <i_m_source_file_index>
306

> <i_lp_mmshare_version>
43012

> <i_f3d_flags>
0

> <s_epik_input>
W0NIM11bQ0gyXWMxW2NIXWMoW0NIMl1bQ0gzXSluKG4xKS1jKG4yKW4oW0NIMl1bQ0gyXU9bQ0gzXSljKGMyMyljKD1PKVtuSF1jKD1PKW4zW0NIM10=

> <s_epik_cmdline>
J2VwaWtfcHl0aG9uJywgJy1waCcsICc3LjAnLCAnLXRuJywgJzgnLCAnLW1hJywgJzIwMCcsICctbWV0YWxfYmluZGluZycsICctaW1hZScsICc8aW5maWxlLm1hZT4nLCAnLW9tYWUnLCAnPG91dGZpbGUubWFlPic=

> <r_lp_tautomer_probability>
1

> <r_epik_Ionization_Penalty>
0.00167575

> <r_epik_Ionization_Penalty_Charging>
0.000731299

> <r_epik_Ionization_Penalty_Neutral>
0.000944451

> <r_epik_State_Penalty>
-0

> <r_epik_Charging_Adjusted_Penalty>
0.000731299

> <i_epik_Tot_Q>
0

> <i_epik_Tot_abs_Q>
0

> <r_epik_Metal_State_Penalty>
0.260571

> <b_epik_Metal_Only>
0

> <s_lp_Force_Field>
OPLS_2005

> <r_lp_Energy>
22.9752

> <b_lp_Chiralities_Consistent>
1

> <s_lp_Variant>
AV-unprocessed.smi:306-1

> <Gold.Version>
5.8.1

> <Gold.Id.Protein>
6NUR|6NUR_protein|mol2

> <Gold.PLP.Fitness>
49.5742

> <Gold.PLP.PLP>
-41.6142

> <Gold.PLP.part.hbond>
-3.1563

> <Gold.PLP.part.metal>
0.0000

> <Gold.PLP.part.buried>
-2.9323

> <Gold.PLP.part.nonpolar>
-38.1966

> <Gold.PLP.part.repulsive>
2.5124

> <Gold.PLP.ligand.clash>
0.0000

> <Gold.PLP.ligand.torsion>
0.9084

> <Gold.PLP.Chemscore.Hbond>
3.0000

> <Gold.PLP.Chemscore.CHOScore>
0.0000

> <Gold.PLP.Chemscore.Metal>
0.0000

> <Gold.Chemscore.Hbonds>
donor molecule, donor type, donor heavy atom, donor atom, acceptor molecule, acceptor atom, score
      L1  H    15    26       P1  7948  1.00
      P1  H 10752 10764       L1    14  0.93
      P1  H 10752 10765       L1    23  0.85

> <Gold.PLP.Chemscore.Internal.Correction>
0.7769

> <Gold.Rescore>
     Score         DG    S(hbond)    S(metal)    S(lipo)     H(rot)  DE(clash)    DE(int)     intcor
     17.19     -20.62       2.77        0.00      90.65       1.85       0.09       3.34       ----

> <Gold.Chemscore.Fitness>
17.1856

> <Gold.Chemscore.DG>
-20.6164

> <Gold.Chemscore.ZeroCoef>
-5.4800

> <Gold.Chemscore.Hbond>
2.7729

> <Gold.Chemscore.Metal>
0.0000

> <Gold.Chemscore.Lipo>
90.6480

> <Gold.Chemscore.Internal_Hbond>
0.0000

> <Gold.Chemscore.DEClash>
0.0871

> <Gold.Chemscore.DEInternal>
3.3437

> <Gold.Chemscore.Rot>
1.8480

> <Gold.Chemscore.Internal.Correction>
   9.000000E+99

> <Gold.Chemscore.Hbonds>
donor molecule, donor type, donor heavy atom, donor atom, acceptor molecule, acceptor atom, score
      L1  H    15    26       P1  7948  0.87
      P1  H 10752 10764       L1    14  0.84
      P1  H 10752 10765       L1    23  0.59

> <Gold.Chemscore.Hbond.Weighted>
-9.2613

> <Gold.Chemscore.Metal.Weighted>
-0.0000

> <Gold.Chemscore.Lipo.Weighted>
-10.6058

> <Gold.Chemscore.Internal_Hbond.Weighted>
0.0000

> <Gold.Chemscore.DEClash.Weighted>
0.0871

> <Gold.Chemscore.DEInternal.Weighted>
3.3437

> <Gold.Chemscore.Rot.Weighted>
4.7308

> <Gold.Chemscore.Internal.Correction.Weighted>
   9.000000E+99

> <Gold.Protein.RotatedTorsions>
[ 6907 6896 6895 6894 ] final  -10.13 input  -60.11 | X-H torsion
[ 7974 7965 7964 7962 ] final  110.24 input  175.53 | X-H torsion
[ 8008 7997 7996 7995 ] final -161.72 input   59.86 | X-H torsion
[ 10167 10162 10161 10158 ] final -157.68 input  -65.29 | X-H torsion
[ 10718 10713 10712 10709 ] final   82.77 input   66.30 | X-H torsion
[ 10763 10752 10751 10750 ] final  -85.43 input  -60.55 | X-H torsion
[ 11005 11000 10999 10996 ] final   -0.67 input  -57.11 | X-H torsion

> <Gold.Protein.ActiveResidues>
 VAL166  LYS551  ARG553  GLY616  TRP617  ASP618  TYR619  PRO620  LYS621  CYS622 
 ASP623  PHE694  ASN695  SER759  ASP760  ASP761  ALA762  ILE779  LEU786  VAL792 
 PHE793  MET794  SER795  GLU796  ALA797  LYS798  CYS799  TRP800  GLU811  SER814 

> <Gold.Protein.RotatedAtoms>
  151.4067  135.0979  159.9572 H   0  0  0  0  0  0  0  0  0  0  0  0  # atno 6907 bound_to 6896
  152.5033  133.8836  159.7369 H   0  0  0  0  0  0  0  0  0  0  0  0  # atno 6908 bound_to 6896
  150.9322  133.6697  159.2836 H   0  0  0  0  0  0  0  0  0  0  0  0  # atno 6909 bound_to 6896
  145.2575  139.2715  143.4034 H   0  0  0  0  0  0  0  0  0  0  0  0  # atno 7974 bound_to 7965
  155.7964  140.0885  157.1981 H   0  0  0  0  0  0  0  0  0  0  0  0  # atno 8008 bound_to 7997
  154.3983  140.1480  156.3281 H   0  0  0  0  0  0  0  0  0  0  0  0  # atno 8009 bound_to 7997
  155.8507  140.3435  155.5694 H   0  0  0  0  0  0  0  0  0  0  0  0  # atno 8010 bound_to 7997
  139.6751  143.9677  152.2306 H   0  0  0  0  0  0  0  0  0  0  0  0  # atno 10167 bound_to 10162
  157.6864  131.0062  150.2425 H   0  0  0  0  0  0  0  0  0  0  0  0  # atno 10718 bound_to 10713
  154.6110  135.5485  153.7473 H   0  0  0  0  0  0  0  0  0  0  0  0  # atno 10763 bound_to 10752
  153.0195  135.6389  154.1578 H   0  0  0  0  0  0  0  0  0  0  0  0  # atno 10764 bound_to 10752
  154.1515  135.2902  155.3114 H   0  0  0  0  0  0  0  0  0  0  0  0  # atno 10765 bound_to 10752
  140.6389  133.9507  155.8315 H   0  0  0  0  0  0  0  0  0  0  0  0  # atno 11005 bound_to 11000
  146.3285  140.2983  142.8619 LP  0  0  0  0  0  0  0  0  0  0  0  0  # atno 17320 bound_to 7965
  144.9447  140.8116  143.5608 LP  0  0  0  0  0  0  0  0  0  0  0  0  # atno 17321 bound_to 7965
  139.9452  144.6656  150.8227 LP  0  0  0  0  0  0  0  0  0  0  0  0  # atno 17342 bound_to 10162
  140.7632  143.3218  151.2604 LP  0  0  0  0  0  0  0  0  0  0  0  0  # atno 17343 bound_to 10162
  156.3036  130.3762  149.7727 LP  0  0  0  0  0  0  0  0  0  0  0  0  # atno 17370 bound_to 10713
  156.5349  130.8274  151.3249 LP  0  0  0  0  0  0  0  0  0  0  0  0  # atno 17371 bound_to 10713
  141.0621  134.0330  157.3644 LP  0  0  0  0  0  0  0  0  0  0  0  0  # atno 17394 bound_to 11000
  139.9088  135.0185  156.7601 LP  0  0  0  0  0  0  0  0  0  0  0  0  # atno 17395 bound_to 11000

$$$$
