AV-unprocessed.smi:1419|AV-procd|sdf|5781|dock1
  -GOLD-   22720 5423D 1   1.00000     0.00000
 Structure written by MMmdl.
 41 42  0  0  0  0  0  0  0  0  1 V2000
  152.1429  143.7274  156.5356 C   0  0  0  0  0  0  0  0  0  0  0  0
  151.2792  142.4811  156.7707 C   0  0  1  0  0  0  0  0  0  0  0  0
  150.6949  142.4627  158.2000 C   0  0  0  0  0  0  0  0  0  0  0  0
  151.7189  142.5602  159.2253 N   0  0  0  0  0  0  0  0  0  0  0  0
  151.9590  143.6345  160.0716 C   0  0  0  0  0  0  0  0  0  0  0  0
  153.0363  143.2847  160.8540 C   0  0  0  0  0  0  0  0  0  0  0  0
  153.4679  142.0046  160.5140 N   0  0  0  0  0  0  0  0  0  0  0  0
  152.6373  141.6382  159.5469 C   0  0  0  0  0  0  0  0  0  0  0  0
  150.2060  142.4500  155.7780 N   0  0  0  0  0  0  0  0  0  0  0  0
  149.9366  141.4324  154.9411 C   0  0  0  0  0  0  0  0  0  0  0  0
  150.6635  140.4419  154.8529 O   0  0  0  0  0  0  0  0  0  0  0  0
  148.7742  141.5605  154.2559 N   0  0  0  0  0  0  0  0  0  0  0  0
  147.5948  142.3360  154.6606 C   0  0  0  0  0  0  0  0  0  0  0  0
  146.5127  141.3420  155.1267 C   0  0  1  0  0  0  0  0  0  0  0  0
  145.2135  142.0468  155.5297 C   0  0  0  0  0  0  0  0  0  0  0  0
  146.2204  140.4405  154.0584 O   0  0  0  0  0  0  0  0  0  0  0  0
  147.3537  139.7085  153.5891 C   0  0  1  0  0  0  0  0  0  0  0  0
  146.8913  138.7764  152.4648 C   0  0  0  0  0  0  0  0  0  0  0  0
  148.4370  140.7016  153.1194 C   0  0  0  0  0  0  0  0  0  0  0  0
  152.9703  143.7695  157.2444 H   0  0  0  0  0  0  0  0  0  0  0  0
  151.5606  144.6425  156.6494 H   0  0  0  0  0  0  0  0  0  0  0  0
  152.5700  143.7262  155.5321 H   0  0  0  0  0  0  0  0  0  0  0  0
  151.9271  141.6115  156.6462 H   0  0  0  0  0  0  0  0  0  0  0  0
  150.0059  143.2972  158.3351 H   0  0  0  0  0  0  0  0  0  0  0  0
  150.1182  141.5515  158.3658 H   0  0  0  0  0  0  0  0  0  0  0  0
  151.3673  144.5373  160.0400 H   0  0  0  0  0  0  0  0  0  0  0  0
  153.5307  143.8520  161.6286 H   0  0  0  0  0  0  0  0  0  0  0  0
  152.7075  140.6810  159.0515 H   0  0  0  0  0  0  0  0  0  0  0  0
  149.5628  143.2280  155.7859 H   0  0  0  0  0  0  0  0  0  0  0  0
  147.7987  143.0713  155.4391 H   0  0  0  0  0  0  0  0  0  0  0  0
  147.2332  142.9110  153.8067 H   0  0  0  0  0  0  0  0  0  0  0  0
  146.8804  140.7719  155.9815 H   0  0  0  0  0  0  0  0  0  0  0  0
  145.3824  142.7380  156.3556 H   0  0  0  0  0  0  0  0  0  0  0  0
  144.4615  141.3250  155.8490 H   0  0  0  0  0  0  0  0  0  0  0  0
  144.7979  142.6143  154.6967 H   0  0  0  0  0  0  0  0  0  0  0  0
  147.7440  139.0993  154.4070 H   0  0  0  0  0  0  0  0  0  0  0  0
  147.7226  138.1864  152.0781 H   0  0  0  0  0  0  0  0  0  0  0  0
  146.4647  139.3403  151.6347 H   0  0  0  0  0  0  0  0  0  0  0  0
  146.1303  138.0829  152.8232 H   0  0  0  0  0  0  0  0  0  0  0  0
  148.0666  141.3117  152.2941 H   0  0  0  0  0  0  0  0  0  0  0  0
  149.2998  140.1596  152.7295 H   0  0  0  0  0  0  0  0  0  0  0  0
  1  2  1  0  0  0  0
  1 20  1  0  0  0  0
  1 21  1  0  0  0  0
  1 22  1  0  0  0  0
  2  3  1  0  0  0  0
  2  9  1  0  0  0  0
  2 23  1  0  0  0  0
  3  4  1  0  0  0  0
  3 24  1  0  0  0  0
  3 25  1  0  0  0  0
  4  8  1  0  0  0  0
  4  5  1  0  0  0  0
  5  6  2  0  0  0  0
  5 26  1  0  0  0  0
  6  7  1  0  0  0  0
  6 27  1  0  0  0  0
  7  8  2  0  0  0  0
  8 28  1  0  0  0  0
  9 10  1  0  0  0  0
  9 29  1  0  0  0  0
 10 11  2  0  0  0  0
 10 12  1  0  0  0  0
 12 19  1  0  0  0  0
 12 13  1  0  0  0  0
 13 14  1  0  0  0  0
 13 30  1  0  0  0  0
 13 31  1  0  0  0  0
 14 15  1  0  0  0  0
 14 16  1  0  0  0  0
 14 32  1  0  0  0  0
 15 33  1  0  0  0  0
 15 34  1  0  0  0  0
 15 35  1  0  0  0  0
 16 17  1  0  0  0  0
 17 18  1  0  0  0  0
 17 19  1  0  0  0  0
 17 36  1  0  0  0  0
 18 37  1  0  0  0  0
 18 38  1  0  0  0  0
 18 39  1  0  0  0  0
 19 40  1  0  0  0  0
 19 41  1  0  0  0  0
M  END
> <s_m_source_file>
AV-unprocessed.smi

> <i_m_source_file_index>
1419

> <i_lp_mmshare_version>
43012

> <i_f3d_flags>
0

> <s_epik_input>
W2NIXTFuW2NIXVtjSF1uMVtDSDJdW0NAQEhdKFtDSDNdKVtOSF1DKD1PKU4yW0NIMl1bQ0BASF0oW0NIM10pT1tDQEBIXShbQ0gzXSlbQ0gyXTI=

> <s_epik_cmdline>
J2VwaWtfcHl0aG9uJywgJy1waCcsICc3LjAnLCAnLXRuJywgJzgnLCAnLW1hJywgJzIwMCcsICctbWV0YWxfYmluZGluZycsICctaW1hZScsICc8aW5maWxlLm1hZT4nLCAnLW9tYWUnLCAnPG91dGZpbGUubWFlPic=

> <r_lp_tautomer_probability>
1

> <r_epik_Ionization_Penalty>
0.625124

> <r_epik_Ionization_Penalty_Charging>
0.625093

> <r_epik_Ionization_Penalty_Neutral>
3.17415e-05

> <r_epik_State_Penalty>
0.641455

> <r_epik_Charging_Adjusted_Penalty>
1.26655

> <i_epik_Tot_Q>
0

> <i_epik_Tot_abs_Q>
0

> <r_epik_Metal_State_Penalty>
0.307717

> <b_epik_Metal_Only>
0

> <s_lp_Force_Field>
OPLS_2005

> <r_lp_Energy>
27.9017

> <b_lp_Chiralities_Consistent>
1

> <s_lp_Variant>
AV-unprocessed.smi:1419-8

> <Gold.Version>
5.8.1

> <Gold.Id.Protein>
6NUR|6NUR_protein|mol2

> <Gold.PLP.Fitness>
38.2589

> <Gold.PLP.PLP>
-33.2669

> <Gold.PLP.part.hbond>
-2.0000

> <Gold.PLP.part.metal>
0.0000

> <Gold.PLP.part.buried>
-0.5881

> <Gold.PLP.part.nonpolar>
-30.7008

> <Gold.PLP.part.repulsive>
0.9367

> <Gold.PLP.ligand.clash>
0.0000

> <Gold.PLP.ligand.torsion>
0.3284

> <Gold.PLP.Chemscore.Hbond>
1.8480

> <Gold.PLP.Chemscore.CHOScore>
0.0000

> <Gold.PLP.Chemscore.Metal>
0.0000

> <Gold.Chemscore.Hbonds>
donor molecule, donor type, donor heavy atom, donor atom, acceptor molecule, acceptor atom, score
      L1  H     9    29       P1  8028  1.00
      P1  H  7989  7998       L1    11  1.00

> <Gold.PLP.Chemscore.Internal.Correction>
0.1048

> <Gold.Rescore>
     Score         DG    S(hbond)    S(metal)    S(lipo)     H(rot)  DE(clash)    DE(int)     intcor
     13.04     -16.89       1.67        0.00      84.35       1.58       3.59       0.26       ----

> <Gold.Chemscore.Fitness>
13.0397

> <Gold.Chemscore.DG>
-16.8885

> <Gold.Chemscore.ZeroCoef>
-5.4800

> <Gold.Chemscore.Hbond>
1.6695

> <Gold.Chemscore.Metal>
0.0000

> <Gold.Chemscore.Lipo>
84.3544

> <Gold.Chemscore.Internal_Hbond>
0.0000

> <Gold.Chemscore.DEClash>
3.5929

> <Gold.Chemscore.DEInternal>
0.2560

> <Gold.Chemscore.Rot>
1.5769

> <Gold.Chemscore.Internal.Correction>
   9.000000E+99

> <Gold.Chemscore.Hbonds>
donor molecule, donor type, donor heavy atom, donor atom, acceptor molecule, acceptor atom, score
      L1  H     9    29       P1  8028  1.00
      P1  H  7989  7998       L1    11  0.25

> <Gold.Chemscore.Hbond.Weighted>
-5.5760

> <Gold.Chemscore.Metal.Weighted>
-0.0000

> <Gold.Chemscore.Lipo.Weighted>
-9.8695

> <Gold.Chemscore.Internal_Hbond.Weighted>
0.0000

> <Gold.Chemscore.DEClash.Weighted>
3.5929

> <Gold.Chemscore.DEInternal.Weighted>
0.2560

> <Gold.Chemscore.Rot.Weighted>
4.0369

> <Gold.Chemscore.Internal.Correction.Weighted>
   9.000000E+99

> <Gold.Protein.RotatedTorsions>
[ 6907 6896 6895 6894 ] final  -56.29 input  -60.11 | X-H torsion
[ 7974 7965 7964 7962 ] final   56.52 input  175.53 | X-H torsion
[ 8008 7997 7996 7995 ] final   57.10 input   59.86 | X-H torsion
[ 10167 10162 10161 10158 ] final   92.42 input  -65.29 | X-H torsion
[ 10718 10713 10712 10709 ] final  -66.17 input   66.30 | X-H torsion
[ 10763 10752 10751 10750 ] final  -26.82 input  -60.55 | X-H torsion
[ 11005 11000 10999 10996 ] final   36.63 input  -57.11 | X-H torsion

> <Gold.Protein.ActiveResidues>
 VAL166  LYS551  ARG553  GLY616  TRP617  ASP618  TYR619  PRO620  LYS621  CYS622 
 ASP623  PHE694  ASN695  SER759  ASP760  ASP761  ALA762  ILE779  LEU786  VAL792 
 PHE793  MET794  SER795  GLU796  ALA797  LYS798  CYS799  TRP800  GLU811  SER814 

> <Gold.Protein.RotatedAtoms>
  150.8180  134.7373  159.6746 H   0  0  0  0  0  0  0  0  0  0  0  0  # atno 6907 bound_to 6896
  152.4298  134.5797  159.9954 H   0  0  0  0  0  0  0  0  0  0  0  0  # atno 6908 bound_to 6896
  151.5988  133.3321  159.3079 H   0  0  0  0  0  0  0  0  0  0  0  0  # atno 6909 bound_to 6896
  145.9389  139.3871  143.0375 H   0  0  0  0  0  0  0  0  0  0  0  0  # atno 7974 bound_to 7965
  155.5283  140.3481  155.4421 H   0  0  0  0  0  0  0  0  0  0  0  0  # atno 8008 bound_to 7997
  156.0736  140.1369  156.9825 H   0  0  0  0  0  0  0  0  0  0  0  0  # atno 8009 bound_to 7997
  154.4541  140.0960  156.6681 H   0  0  0  0  0  0  0  0  0  0  0  0  # atno 8010 bound_to 7997
  139.8278  144.6701  150.9438 H   0  0  0  0  0  0  0  0  0  0  0  0  # atno 10167 bound_to 10162
  156.0628  130.4258  150.1669 H   0  0  0  0  0  0  0  0  0  0  0  0  # atno 10718 bound_to 10713
  153.7220  135.6944  153.5010 H   0  0  0  0  0  0  0  0  0  0  0  0  # atno 10763 bound_to 10752
  153.2197  135.4374  155.0473 H   0  0  0  0  0  0  0  0  0  0  0  0  # atno 10764 bound_to 10752
  154.8281  135.3457  154.6753 H   0  0  0  0  0  0  0  0  0  0  0  0  # atno 10765 bound_to 10752
  140.2306  134.3531  155.7965 H   0  0  0  0  0  0  0  0  0  0  0  0  # atno 11005 bound_to 11000
  145.8326  140.9623  143.0841 LP  0  0  0  0  0  0  0  0  0  0  0  0  # atno 17320 bound_to 7965
  144.6776  140.0182  143.7484 LP  0  0  0  0  0  0  0  0  0  0  0  0  # atno 17321 bound_to 7965
  140.7809  143.4030  151.1118 LP  0  0  0  0  0  0  0  0  0  0  0  0  # atno 17342 bound_to 10162
  139.7685  143.8529  152.3116 LP  0  0  0  0  0  0  0  0  0  0  0  0  # atno 17343 bound_to 10162
  156.9735  130.9842  151.3453 LP  0  0  0  0  0  0  0  0  0  0  0  0  # atno 17370 bound_to 10713
  157.5648  130.8270  149.8313 LP  0  0  0  0  0  0  0  0  0  0  0  0  # atno 17371 bound_to 10713
  141.2218  133.7243  156.8726 LP  0  0  0  0  0  0  0  0  0  0  0  0  # atno 17394 bound_to 11000
  140.1754  134.9071  157.2884 LP  0  0  0  0  0  0  0  0  0  0  0  0  # atno 17395 bound_to 11000

$$$$
