AV-unprocessed.smi:2190|AV-procd|sdf|8890|dock5
  -GOLD-   2272012 93D 1   1.00000     0.00000
 Structure written by MMmdl.
 47 49  0  0  0  0  0  0  0  0  2 V2000
  147.0822  132.4622  158.5930 C   0  0  0  0  0  0  0  0  0  0  0  0
  147.1456  133.5514  159.6439 C   0  0  0  0  0  0  0  0  0  0  0  0
  146.4961  133.3852  160.8825 C   0  0  0  0  0  0  0  0  0  0  0  0
  146.5585  134.4037  161.8505 C   0  0  0  0  0  0  0  0  0  0  0  0
  147.2700  135.5927  161.5876 C   0  0  0  0  0  0  0  0  0  0  0  0
  147.3265  136.6826  162.6420 C   0  0  0  0  0  0  0  0  0  0  0  0
  147.9286  135.7711  160.3491 C   0  0  0  0  0  0  0  0  0  0  0  0
  148.6055  136.9572  160.1569 O   0  0  0  0  0  0  0  0  0  0  0  0
  149.3298  137.1402  158.9482 C   0  0  0  0  0  0  0  0  0  0  0  0
  149.1017  138.5774  158.4595 C   0  0  2  0  0  0  0  0  0  0  0  0
  147.7434  138.7226  158.0966 O   0  0  0  0  0  0  0  0  0  0  0  0
  150.0107  138.9443  157.2690 C   0  0  0  0  0  0  0  0  0  0  0  0
  150.2913  140.3862  157.1917 N   0  0  0  0  0  0  0  0  0  0  0  0
  149.8313  141.3175  156.3076 C   0  0  0  0  0  0  0  0  0  0  0  0
  148.8977  141.0838  155.1655 C   0  0  0  0  0  0  0  0  0  0  0  0
  148.5324  142.2819  154.5172 O   0  0  0  0  0  0  0  0  0  0  0  0
  150.3748  142.5154  156.6634 N   0  3  0  0  0  0  0  0  0  0  0  0
  151.1928  142.3494  157.7817 C   0  0  0  0  0  0  0  0  0  0  0  0
  151.9513  143.2694  158.4989 C   0  0  0  0  0  0  0  0  0  0  0  0
  152.6813  142.7691  159.5970 C   0  0  0  0  0  0  0  0  0  0  0  0
  152.6388  141.4035  159.9455 C   0  0  0  0  0  0  0  0  0  0  0  0
  151.8640  140.4807  159.2124 C   0  0  0  0  0  0  0  0  0  0  0  0
  151.1450  140.9829  158.1273 C   0  0  0  0  0  0  0  0  0  0  0  0
  147.8584  134.7383  159.3798 C   0  0  0  0  0  0  0  0  0  0  0  0
  146.4807  131.6173  158.9299 H   0  0  0  0  0  0  0  0  0  0  0  0
  148.0843  132.0975  158.3660 H   0  0  0  0  0  0  0  0  0  0  0  0
  146.6408  132.8492  157.6742 H   0  0  0  0  0  0  0  0  0  0  0  0
  145.9476  132.4791  161.0949 H   0  0  0  0  0  0  0  0  0  0  0  0
  146.0561  134.2673  162.7968 H   0  0  0  0  0  0  0  0  0  0  0  0
  148.3620  136.9326  162.8762 H   0  0  0  0  0  0  0  0  0  0  0  0
  146.8369  136.3716  163.5656 H   0  0  0  0  0  0  0  0  0  0  0  0
  146.8291  137.5829  162.2800 H   0  0  0  0  0  0  0  0  0  0  0  0
  150.3954  136.9606  159.1026 H   0  0  0  0  0  0  0  0  0  0  0  0
  148.9697  136.4339  158.1980 H   0  0  0  0  0  0  0  0  0  0  0  0
  149.2909  139.2619  159.2870 H   0  0  0  0  0  0  0  0  0  0  0  0
  147.4046  139.5022  158.5088 H   0  0  0  0  0  0  0  0  0  0  0  0
  150.9731  138.4404  157.3657 H   0  0  0  0  0  0  0  0  0  0  0  0
  149.5883  138.6028  156.3241 H   0  0  0  0  0  0  0  0  0  0  0  0
  149.3673  140.4160  154.4427 H   0  0  0  0  0  0  0  0  0  0  0  0
  147.9979  140.5847  155.5249 H   0  0  0  0  0  0  0  0  0  0  0  0
  148.9724  143.0013  154.9442 H   0  0  0  0  0  0  0  0  0  0  0  0
  151.9853  144.3160  158.2342 H   0  0  0  0  0  0  0  0  0  0  0  0
  153.2858  143.4458  160.1834 H   0  0  0  0  0  0  0  0  0  0  0  0
  153.2122  141.0561  160.7926 H   0  0  0  0  0  0  0  0  0  0  0  0
  151.8421  139.4371  159.4884 H   0  0  0  0  0  0  0  0  0  0  0  0
  148.3436  134.8354  158.4204 H   0  0  0  0  0  0  0  0  0  0  0  0
  150.1941  143.3831  156.1752 H   0  0  0  0  0  0  0  0  0  0  0  0
  1  2  1  0  0  0  0
  1 25  1  0  0  0  0
  1 26  1  0  0  0  0
  1 27  1  0  0  0  0
  2 24  1  0  0  0  0
  2  3  2  0  0  0  0
  3  4  1  0  0  0  0
  3 28  1  0  0  0  0
  4  5  2  0  0  0  0
  4 29  1  0  0  0  0
  5  6  1  0  0  0  0
  5  7  1  0  0  0  0
  6 30  1  0  0  0  0
  6 31  1  0  0  0  0
  6 32  1  0  0  0  0
  7  8  1  0  0  0  0
  7 24  2  0  0  0  0
  8  9  1  0  0  0  0
  9 10  1  0  0  0  0
  9 33  1  0  0  0  0
  9 34  1  0  0  0  0
 10 11  1  0  0  0  0
 10 12  1  0  0  0  0
 10 35  1  0  0  0  0
 11 36  1  0  0  0  0
 12 13  1  0  0  0  0
 12 37  1  0  0  0  0
 12 38  1  0  0  0  0
 13 23  1  0  0  0  0
 13 14  1  0  0  0  0
 14 15  1  0  0  0  0
 14 17  2  0  0  0  0
 15 16  1  0  0  0  0
 15 39  1  0  0  0  0
 15 40  1  0  0  0  0
 16 41  1  0  0  0  0
 17 18  1  0  0  0  0
 17 47  1  0  0  0  0
 18 23  2  0  0  0  0
 18 19  1  0  0  0  0
 19 20  2  0  0  0  0
 19 42  1  0  0  0  0
 20 21  1  0  0  0  0
 20 43  1  0  0  0  0
 21 22  2  0  0  0  0
 21 44  1  0  0  0  0
 22 23  1  0  0  0  0
 22 45  1  0  0  0  0
 24 46  1  0  0  0  0
M  CHG  1  17   1
M  END
> <s_m_source_file>
AV-unprocessed.smi

> <i_m_source_file_index>
2190

> <i_lp_mmshare_version>
43012

> <i_f3d_flags>
0

> <s_epik_input>
W0NIM11jMVtjSF1bY0hdYyhbQ0gzXSljKFtjSF0xKU9bQ0gyXVtDQEhdKFtPSF0pW0NIMl1uKGMobjIpW0NIMl1bT0hdKWMoYzIzKVtjSF1bY0hdW2NIXVtjSF0z

> <s_epik_cmdline>
J2VwaWtfcHl0aG9uJywgJy1waCcsICc3LjAnLCAnLXRuJywgJzgnLCAnLW1hJywgJzIwMCcsICctbWV0YWxfYmluZGluZycsICctaW1hZScsICc8aW5maWxlLm1hZT4nLCAnLW9tYWUnLCAnPG91dGZpbGUubWFlPic=

> <r_lp_tautomer_probability>
1

> <r_epik_Ionization_Penalty>
1.43125

> <r_epik_Ionization_Penalty_Charging>
1.43039

> <r_epik_Ionization_Penalty_Neutral>
0.000858184

> <r_epik_State_Penalty>
1.51493

> <r_epik_Charging_Adjusted_Penalty>
2.94531

> <i_epik_Tot_Q>
1

> <i_epik_Tot_abs_Q>
1

> <r_epik_Metal_State_Penalty>
5.5599

> <b_epik_Metal_Only>
0

> <s_lp_Force_Field>
OPLS_2005

> <r_lp_Energy>
17.5717

> <b_lp_Chiralities_Consistent>
1

> <s_lp_Variant>
AV-unprocessed.smi:2190-3

> <Gold.Version>
5.8.1

> <Gold.Id.Protein>
6NUR|6NUR_protein|mol2

> <Gold.PLP.Fitness>
58.1437

> <Gold.PLP.PLP>
-48.7939

> <Gold.PLP.part.hbond>
-4.6962

> <Gold.PLP.part.metal>
0.0000

> <Gold.PLP.part.buried>
-5.6390

> <Gold.PLP.part.nonpolar>
-39.4335

> <Gold.PLP.part.repulsive>
0.0587

> <Gold.PLP.ligand.clash>
0.0000

> <Gold.PLP.ligand.torsion>
0.7874

> <Gold.PLP.Chemscore.Hbond>
3.6080

> <Gold.PLP.Chemscore.CHOScore>
0.0000

> <Gold.PLP.Chemscore.Metal>
0.0000

> <Gold.Chemscore.Hbonds>
donor molecule, donor type, donor heavy atom, donor atom, acceptor molecule, acceptor atom, score
      L1  H    16    41       P1  8028  0.96
      L1  H    17    47       P1  8028  1.92
      P1  H  6931  6943       L1     8  0.39

> <Gold.PLP.Chemscore.Internal.Correction>
0.1006

> <Gold.Rescore>
     Score         DG    S(hbond)    S(metal)    S(lipo)     H(rot)  DE(clash)    DE(int)     intcor
     20.50     -21.47       2.66        0.00     127.38       3.05       0.06       0.90       ----

> <Gold.Chemscore.Fitness>
20.5049

> <Gold.Chemscore.DG>
-21.4651

> <Gold.Chemscore.ZeroCoef>
-5.4800

> <Gold.Chemscore.Hbond>
2.6597

> <Gold.Chemscore.Metal>
0.0000

> <Gold.Chemscore.Lipo>
127.3817

> <Gold.Chemscore.Internal_Hbond>
0.0000

> <Gold.Chemscore.DEClash>
0.0648

> <Gold.Chemscore.DEInternal>
0.8955

> <Gold.Chemscore.Rot>
3.0476

> <Gold.Chemscore.Internal.Correction>
   9.000000E+99

> <Gold.Chemscore.Hbonds>
donor molecule, donor type, donor heavy atom, donor atom, acceptor molecule, acceptor atom, score
      L1  H    16    41       P1  8028  0.92
      L1  H    17    47       P1  8028  0.92
      P1  H  6931  6943       L1     8  0.36

> <Gold.Chemscore.Hbond.Weighted>
-8.8832

> <Gold.Chemscore.Metal.Weighted>
-0.0000

> <Gold.Chemscore.Lipo.Weighted>
-14.9037

> <Gold.Chemscore.Internal_Hbond.Weighted>
0.0000

> <Gold.Chemscore.DEClash.Weighted>
0.0648

> <Gold.Chemscore.DEInternal.Weighted>
0.8955

> <Gold.Chemscore.Rot.Weighted>
7.8018

> <Gold.Chemscore.Internal.Correction.Weighted>
   9.000000E+99

> <Gold.Protein.RotatedTorsions>
[ 6907 6896 6895 6894 ] final  -91.51 input  -60.11 | X-H torsion
[ 7974 7965 7964 7962 ] final   32.61 input  175.53 | X-H torsion
[ 8008 7997 7996 7995 ] final  -76.06 input   59.86 | X-H torsion
[ 10167 10162 10161 10158 ] final  171.24 input  -65.29 | X-H torsion
[ 10718 10713 10712 10709 ] final -100.78 input   66.30 | X-H torsion
[ 10763 10752 10751 10750 ] final   70.25 input  -60.55 | X-H torsion
[ 11005 11000 10999 10996 ] final  -70.19 input  -57.11 | X-H torsion

> <Gold.Protein.ActiveResidues>
 VAL166  LYS551  ARG553  GLY616  TRP617  ASP618  TYR619  PRO620  LYS621  CYS622 
 ASP623  PHE694  ASN695  SER759  ASP760  ASP761  ALA762  ILE779  LEU786  VAL792 
 PHE793  MET794  SER795  GLU796  ALA797  LYS798  CYS799  TRP800  GLU811  SER814 

> <Gold.Protein.RotatedAtoms>
  150.6893  134.2265  159.4417 H   0  0  0  0  0  0  0  0  0  0  0  0  # atno 6907 bound_to 6896
  152.0219  134.9815  160.0580 H   0  0  0  0  0  0  0  0  0  0  0  0  # atno 6908 bound_to 6896
  152.1389  133.4417  159.4794 H   0  0  0  0  0  0  0  0  0  0  0  0  # atno 6909 bound_to 6896
  146.1475  139.6504  142.9121 H   0  0  0  0  0  0  0  0  0  0  0  0  # atno 7974 bound_to 7965
  154.5471  140.0733  156.8607 H   0  0  0  0  0  0  0  0  0  0  0  0  # atno 8008 bound_to 7997
  155.3065  140.3387  155.4227 H   0  0  0  0  0  0  0  0  0  0  0  0  # atno 8009 bound_to 7997
  156.1928  140.1692  156.8044 H   0  0  0  0  0  0  0  0  0  0  0  0  # atno 8010 bound_to 7997
  139.5041  144.3508  151.9924 H   0  0  0  0  0  0  0  0  0  0  0  0  # atno 10167 bound_to 10162
  156.0174  130.5343  150.6868 H   0  0  0  0  0  0  0  0  0  0  0  0  # atno 10718 bound_to 10713
  153.0331  135.5181  154.7412 H   0  0  0  0  0  0  0  0  0  0  0  0  # atno 10763 bound_to 10752
  154.6411  135.2912  155.0105 H   0  0  0  0  0  0  0  0  0  0  0  0  # atno 10764 bound_to 10752
  154.1022  135.6634  153.4923 H   0  0  0  0  0  0  0  0  0  0  0  0  # atno 10765 bound_to 10752
  141.1569  133.6783  156.6715 H   0  0  0  0  0  0  0  0  0  0  0  0  # atno 11005 bound_to 11000
  145.4902  141.0438  143.2597 LP  0  0  0  0  0  0  0  0  0  0  0  0  # atno 17320 bound_to 7965
  144.7864  139.6418  143.7132 LP  0  0  0  0  0  0  0  0  0  0  0  0  # atno 17321 bound_to 7965
  140.2945  144.3716  150.6078 LP  0  0  0  0  0  0  0  0  0  0  0  0  # atno 17342 bound_to 10162
  140.5921  143.2168  151.7233 LP  0  0  0  0  0  0  0  0  0  0  0  0  # atno 17343 bound_to 10162
  157.4558  131.0877  151.0798 LP  0  0  0  0  0  0  0  0  0  0  0  0  # atno 17370 bound_to 10713
  157.1300  130.6098  149.5527 LP  0  0  0  0  0  0  0  0  0  0  0  0  # atno 17371 bound_to 10713
  140.3171  134.8038  157.4223 LP  0  0  0  0  0  0  0  0  0  0  0  0  # atno 17394 bound_to 11000
  140.1128  134.5322  155.8251 LP  0  0  0  0  0  0  0  0  0  0  0  0  # atno 17395 bound_to 11000

$$$$
