#       Name:                AV-unprocessed.smi:3019
#       Creating user name   scv26
#       Creation time:       Fri Mar 27 16:42:53 2020


#       File generated by GOLD software.
#

@<TRIPOS>MOLECULE
AV-unprocessed.smi:3019
    35    36     1
SMALL
NO_CHARGES


@<TRIPOS>ATOM
      1 ****        -3.7265   0.6654   1.4669 C.3            1 S1                 0.0000
      2 ****        -3.1374   1.4277   0.2709 C.3            1 S1                 0.0000
      3 ****        -3.6741   0.9304  -1.0796 C.3            1 S1                 0.0000
      4 ****        -1.6397   1.4361   0.3025 C.2            1 S1                 0.0000
      5 ****        -0.9579   2.5722   0.4439 N.2            1 S1                 0.0000
      6 ****         0.3202   2.1398   0.4221 N.pl3          1 S1                 0.0000
      7 ****         0.3361   0.8130   0.2770 C.2            1 S1                 0.0000
      8 ****         1.6099   0.0316   0.2055 C.3            1 S1                 0.0000
      9 ****         1.9586  -0.3955  -1.2334 C.3            1 S1                 0.0000
     10 ****         3.1636  -1.2478  -1.2290 N.4            1 S1                 1.0000
     11 ****         3.0055  -2.4028  -0.3229 C.3            1 S1                 0.0000
     12 ****         2.6171  -1.9218   1.0864 C.3            1 S1                 0.0000
     13 ****         1.4369  -1.1286   1.0156 O.3            1 S1                 0.0000
     14 ****        -0.8868   0.2990   0.1908 N.2            1 S1                 0.0000
     15 ****         1.1122   2.7606   0.5079 H              1 S1                 0.0000
     16 ****        -3.3805   1.0881   2.4108 H              1 S1                 0.0000
     17 ****        -3.4400  -0.3866   1.4475 H              1 S1                 0.0000
     18 ****        -4.8157   0.7129   1.4638 H              1 S1                 0.0000
     19 ****        -3.4700   2.4622   0.3717 H              1 S1                 0.0000
     20 ****        -3.2947   1.5386  -1.9013 H              1 S1                 0.0000
     21 ****        -4.7628   0.9774  -1.1099 H              1 S1                 0.0000
     22 ****        -3.3815  -0.1031  -1.2670 H              1 S1                 0.0000
     23 ****         2.4146   0.6423   0.6200 H              1 S1                 0.0000
     24 ****         1.1326  -0.9528  -1.6780 H              1 S1                 0.0000
     25 ****         2.1345   0.4769  -1.8634 H              1 S1                 0.0000
     26 ****         3.3454  -1.5786  -2.1663 H              1 S1                 0.0000
     27 ****         2.2362  -3.0669  -0.7195 H              1 S1                 0.0000
     28 ****         3.9358  -2.9703  -0.2926 H              1 S1                 0.0000
     29 ****         2.4306  -2.7760   1.7377 H              1 S1                 0.0000
     30 ****         3.4269  -1.3471   1.5390 H              1 S1                 0.0000
     31 ****         3.9498  -0.6963  -0.9163 H              1 S1                 0.0000
     32 ****        -1.3042   3.5052   0.5411 LP             1 S1                 0.0000
     33 ****         0.6999  -1.6832   0.6292 LP             1 S1                 0.0000
     34 ****         1.1876  -0.8405   1.9402 LP             1 S1                 0.0000
     35 ****        -1.1754  -0.6516   0.0764 LP             1 S1                 0.0000
@<TRIPOS>BOND
    1    1    2 1     
    2    1   16 1     
    3    1   17 1     
    4    1   18 1     
    5    2    3 1     
    6    2    4 1     
    7    2   19 1     
    8    3   20 1     
    9    3   21 1     
   10    3   22 1     
   11    4   14 1     
   12    4    5 2     
   13    5    6 1     
   14    6   15 1     
   15    6    7 1     
   16    7    8 1     
   17    7   14 2     
   18    8   13 1     
   19    8    9 1     
   20    8   23 1     
   21    9   10 1     
   22    9   24 1     
   23    9   25 1     
   24   10   11 1     
   25   10   26 1     
   26   10   31 1     
   27   11   12 1     
   28   11   27 1     
   29   11   28 1     
   30   12   13 1     
   31   12   29 1     
   32   12   30 1     
   33    5   32 1     
   34   13   33 1     
   35   13   34 1     
   36   14   35 1     
@<TRIPOS>SUBSTRUCTURE
      1 S1             1
@<TRIPOS>SET
LONE_PAIRS      STATIC     ATOMS    <user>   **** ""
4 32 33 34 35
DONOR_HYDROGENS      STATIC     ATOMS    <user>   **** ""
3 15 26 31
ATOM$BLUE        STATIC     ATOMS    COLORGROUP SYSTEM
4 32 33 34 35
ATOM$RED        STATIC     ATOMS    COLORGROUP SYSTEM
3 15 26 31
