AV-unprocessed.smi:1279|AV-procd|sdf|5355|dock2
  -GOLD-   22720 4493D 1   1.00000     0.00000
 Structure written by MMmdl.
 46 47  0  0  0  0  0  0  0  0  2 V2000
  144.3197  133.8045  149.9846 C   0  0  0  0  0  0  0  0  0  0  0  0
  144.2470  134.9560  150.9434 C   0  0  0  0  0  0  0  0  0  0  0  0
  145.1298  136.0704  151.0462 C   0  0  0  0  0  0  0  0  0  0  0  0
  144.5882  136.7891  152.0767 C   0  0  0  0  0  0  0  0  0  0  0  0
  145.0126  137.9623  152.6170 N   0  0  0  0  0  0  0  0  0  0  0  0
  146.0392  138.7412  152.2335 C   0  0  0  0  0  0  0  0  0  0  0  0
  146.7958  138.5158  151.2886 O   0  0  0  0  0  0  0  0  0  0  0  0
  146.1509  139.8193  153.0229 N   0  0  0  0  0  0  0  0  0  0  0  0
  147.1556  140.8655  152.8709 C   0  0  0  0  0  0  0  0  0  0  0  0
  146.9156  142.0303  153.8514 C   0  0  0  0  0  0  0  0  0  0  0  0
  147.8234  141.9804  155.0252 N   0  3  2  0  0  0  0  0  0  0  0  0
  149.1829  141.5025  154.6624 C   0  0  0  0  0  0  0  0  0  0  0  0
  150.1427  141.5867  155.8612 C   0  0  0  0  0  0  0  0  0  0  0  0
  149.6037  140.7967  157.0651 C   0  0  1  0  0  0  0  0  0  0  0  0
  150.5386  140.8989  158.2784 C   0  0  0  0  0  0  0  0  0  0  0  0
  148.1852  141.2884  157.3966 C   0  0  0  0  0  0  0  0  0  0  0  0
  147.2640  141.2094  156.1677 C   0  0  0  0  0  0  0  0  0  0  0  0
  143.4670  136.1338  152.5354 N   0  0  0  0  0  0  0  0  0  0  0  0
  142.5568  136.5002  153.6030 C   0  0  0  0  0  0  0  0  0  0  0  0
  143.2598  135.0005  151.8309 N   0  0  0  0  0  0  0  0  0  0  0  0
  145.1831  133.8949  149.3251 H   0  0  0  0  0  0  0  0  0  0  0  0
  143.4278  133.7573  149.3591 H   0  0  0  0  0  0  0  0  0  0  0  0
  144.4064  132.8563  150.5156 H   0  0  0  0  0  0  0  0  0  0  0  0
  146.0051  136.2861  150.4523 H   0  0  0  0  0  0  0  0  0  0  0  0
  144.4881  138.2787  153.4193 H   0  0  0  0  0  0  0  0  0  0  0  0
  145.4870  139.9294  153.7757 H   0  0  0  0  0  0  0  0  0  0  0  0
  148.1533  140.4460  153.0117 H   0  0  0  0  0  0  0  0  0  0  0  0
  147.1063  141.2083  151.8382 H   0  0  0  0  0  0  0  0  0  0  0  0
  147.0162  142.9920  153.3457 H   0  0  0  0  0  0  0  0  0  0  0  0
  145.8841  141.9753  154.2022 H   0  0  0  0  0  0  0  0  0  0  0  0
  149.1241  140.4756  154.2980 H   0  0  0  0  0  0  0  0  0  0  0  0
  149.5814  142.1063  153.8464 H   0  0  0  0  0  0  0  0  0  0  0  0
  151.1228  141.2051  155.5726 H   0  0  0  0  0  0  0  0  0  0  0  0
  150.2881  142.6320  156.1382 H   0  0  0  0  0  0  0  0  0  0  0  0
  149.5420  139.7448  156.7818 H   0  0  0  0  0  0  0  0  0  0  0  0
  150.6404  141.9306  158.6165 H   0  0  0  0  0  0  0  0  0  0  0  0
  151.5353  140.5276  158.0384 H   0  0  0  0  0  0  0  0  0  0  0  0
  150.1612  140.3100  159.1151 H   0  0  0  0  0  0  0  0  0  0  0  0
  147.7643  140.6936  158.2081 H   0  0  0  0  0  0  0  0  0  0  0  0
  148.2236  142.3177  157.7567 H   0  0  0  0  0  0  0  0  0  0  0  0
  146.2826  141.5934  156.4424 H   0  0  0  0  0  0  0  0  0  0  0  0
  147.1235  140.1685  155.8718 H   0  0  0  0  0  0  0  0  0  0  0  0
  143.1237  136.7669  154.4954 H   0  0  0  0  0  0  0  0  0  0  0  0
  141.8942  135.6677  153.8445 H   0  0  0  0  0  0  0  0  0  0  0  0
  141.9557  137.3549  153.2925 H   0  0  0  0  0  0  0  0  0  0  0  0
  147.9370  142.9339  155.3388 H   0  0  0  0  0  0  0  0  0  0  0  0
  1  2  1  0  0  0  0
  1 21  1  0  0  0  0
  1 22  1  0  0  0  0
  1 23  1  0  0  0  0
  2 20  2  0  0  0  0
  2  3  1  0  0  0  0
  3  4  2  0  0  0  0
  3 24  1  0  0  0  0
  4  5  1  0  0  0  0
  4 18  1  0  0  0  0
  5  6  1  0  0  0  0
  5 25  1  0  0  0  0
  6  7  2  0  0  0  0
  6  8  1  0  0  0  0
  8  9  1  0  0  0  0
  8 26  1  0  0  0  0
  9 10  1  0  0  0  0
  9 27  1  0  0  0  0
  9 28  1  0  0  0  0
 10 11  1  0  0  0  0
 10 29  1  0  0  0  0
 10 30  1  0  0  0  0
 11 17  1  0  0  0  0
 11 12  1  0  0  0  0
 11 46  1  0  0  0  0
 12 13  1  0  0  0  0
 12 31  1  0  0  0  0
 12 32  1  0  0  0  0
 13 14  1  0  0  0  0
 13 33  1  0  0  0  0
 13 34  1  0  0  0  0
 14 15  1  0  0  0  0
 14 16  1  0  0  0  0
 14 35  1  0  0  0  0
 15 36  1  0  0  0  0
 15 37  1  0  0  0  0
 15 38  1  0  0  0  0
 16 17  1  0  0  0  0
 16 39  1  0  0  0  0
 16 40  1  0  0  0  0
 17 41  1  0  0  0  0
 17 42  1  0  0  0  0
 18 19  1  0  0  0  0
 18 20  1  0  0  0  0
 19 43  1  0  0  0  0
 19 44  1  0  0  0  0
 19 45  1  0  0  0  0
M  CHG  1  11   1
M  END
> <s_m_source_file>
AV-unprocessed.smi

> <i_m_source_file_index>
1279

> <i_lp_mmshare_version>
43012

> <i_f3d_flags>
0

> <s_epik_input>
W0NIM11jMVtjSF1jKG4objEpW0NIM10pW05IXUMoPU8pW05IXVtDSDJdW0NIMl1OMltDSDJdW0NIMl1bQ0hdKFtDSDNdKVtDSDJdW0NIMl0y

> <s_epik_cmdline>
J2VwaWtfcHl0aG9uJywgJy1waCcsICc3LjAnLCAnLXRuJywgJzgnLCAnLW1hJywgJzIwMCcsICctbWV0YWxfYmluZGluZycsICctaW1hZScsICc8aW5maWxlLm1hZT4nLCAnLW9tYWUnLCAnPG91dGZpbGUubWFlPic=

> <r_lp_tautomer_probability>
1

> <r_epik_Ionization_Penalty>
0.00166091

> <r_epik_Ionization_Penalty_Charging>
0.0015841

> <r_epik_Ionization_Penalty_Neutral>
7.68112e-05

> <r_epik_State_Penalty>
0.00106518

> <r_epik_Charging_Adjusted_Penalty>
0.00264928

> <i_epik_Tot_Q>
1

> <i_epik_Tot_abs_Q>
1

> <r_epik_Metal_State_Penalty>
-0

> <b_epik_Metal_Only>
0

> <s_lp_Force_Field>
OPLS_2005

> <r_lp_Energy>
17.7032

> <b_lp_Chiralities_Consistent>
1

> <s_lp_Variant>
AV-unprocessed.smi:1279-1

> <Gold.Version>
5.8.1

> <Gold.Id.Protein>
6NUR|6NUR_protein|mol2

> <Gold.PLP.Fitness>
42.1329

> <Gold.PLP.PLP>
-34.3508

> <Gold.PLP.part.hbond>
-4.1106

> <Gold.PLP.part.metal>
0.0000

> <Gold.PLP.part.buried>
-4.3806

> <Gold.PLP.part.nonpolar>
-27.3593

> <Gold.PLP.part.repulsive>
1.2714

> <Gold.PLP.ligand.clash>
0.0000

> <Gold.PLP.ligand.torsion>
0.6278

> <Gold.PLP.Chemscore.Hbond>
3.0000

> <Gold.PLP.Chemscore.CHOScore>
0.0000

> <Gold.PLP.Chemscore.Metal>
0.0000

> <Gold.Chemscore.Hbonds>
donor molecule, donor type, donor heavy atom, donor atom, acceptor molecule, acceptor atom, score
      L1  H    11    46       P1  8028  2.00
      P1  H  7954  7966       L1     7  0.94

> <Gold.PLP.Chemscore.Internal.Correction>
0.0377

> <Gold.Rescore>
     Score         DG    S(hbond)    S(metal)    S(lipo)     H(rot)  DE(clash)    DE(int)     intcor
     13.80     -16.20       1.88        0.00      70.54       1.48       0.59       1.81       ----

> <Gold.Chemscore.Fitness>
13.7982

> <Gold.Chemscore.DG>
-16.1979

> <Gold.Chemscore.ZeroCoef>
-5.4800

> <Gold.Chemscore.Hbond>
1.8752

> <Gold.Chemscore.Metal>
0.0000

> <Gold.Chemscore.Lipo>
70.5413

> <Gold.Chemscore.Internal_Hbond>
0.0000

> <Gold.Chemscore.DEClash>
0.5875

> <Gold.Chemscore.DEInternal>
1.8122

> <Gold.Chemscore.Rot>
1.4838

> <Gold.Chemscore.Internal.Correction>
   9.000000E+99

> <Gold.Chemscore.Hbonds>
donor molecule, donor type, donor heavy atom, donor atom, acceptor molecule, acceptor atom, score
      L1  H     8    26       P1 10175  0.01
      L1  H    11    46       P1  8028  0.77
      P1  H  7954  7966       L1     7  0.89

> <Gold.Chemscore.Hbond.Weighted>
-6.2631

> <Gold.Chemscore.Metal.Weighted>
-0.0000

> <Gold.Chemscore.Lipo.Weighted>
-8.2533

> <Gold.Chemscore.Internal_Hbond.Weighted>
0.0000

> <Gold.Chemscore.DEClash.Weighted>
0.5875

> <Gold.Chemscore.DEInternal.Weighted>
1.8122

> <Gold.Chemscore.Rot.Weighted>
3.7985

> <Gold.Chemscore.Internal.Correction.Weighted>
   9.000000E+99

> <Gold.Protein.RotatedTorsions>
[ 6907 6896 6895 6894 ] final -133.23 input  -60.11 | X-H torsion
[ 7974 7965 7964 7962 ] final  153.69 input  175.53 | X-H torsion
[ 8008 7997 7996 7995 ] final   -4.96 input   59.86 | X-H torsion
[ 10167 10162 10161 10158 ] final   77.33 input  -65.29 | X-H torsion
[ 10718 10713 10712 10709 ] final  -80.25 input   66.30 | X-H torsion
[ 10763 10752 10751 10750 ] final   35.15 input  -60.55 | X-H torsion
[ 11005 11000 10999 10996 ] final  121.21 input  -57.11 | X-H torsion

> <Gold.Protein.ActiveResidues>
 VAL166  LYS551  ARG553  GLY616  TRP617  ASP618  TYR619  PRO620  LYS621  CYS622 
 ASP623  PHE694  ASN695  SER759  ASP760  ASP761  ALA762  ILE779  LEU786  VAL792 
 PHE793  MET794  SER795  GLU796  ALA797  LYS798  CYS799  TRP800  GLU811  SER814 

> <Gold.Protein.RotatedAtoms>
  150.9716  133.6338  159.2736 H   0  0  0  0  0  0  0  0  0  0  0  0  # atno 6907 bound_to 6896
  151.3624  135.0905  159.9448 H   0  0  0  0  0  0  0  0  0  0  0  0  # atno 6908 bound_to 6896
  152.5185  133.9287  159.7624 H   0  0  0  0  0  0  0  0  0  0  0  0  # atno 6909 bound_to 6896
  144.8137  139.6834  143.6130 H   0  0  0  0  0  0  0  0  0  0  0  0  # atno 7974 bound_to 7965
  154.6089  140.2471  155.7695 H   0  0  0  0  0  0  0  0  0  0  0  0  # atno 8008 bound_to 7997
  156.2358  140.2950  156.0260 H   0  0  0  0  0  0  0  0  0  0  0  0  # atno 8009 bound_to 7997
  155.2086  140.0396  157.2920 H   0  0  0  0  0  0  0  0  0  0  0  0  # atno 8010 bound_to 7997
  139.9827  144.5815  150.7887 H   0  0  0  0  0  0  0  0  0  0  0  0  # atno 10167 bound_to 10162
  156.0074  130.4569  150.3772 H   0  0  0  0  0  0  0  0  0  0  0  0  # atno 10718 bound_to 10713
  153.0132  135.6341  154.1780 H   0  0  0  0  0  0  0  0  0  0  0  0  # atno 10763 bound_to 10752
  154.1521  135.2828  155.3134 H   0  0  0  0  0  0  0  0  0  0  0  0  # atno 10764 bound_to 10752
  154.6045  135.5576  153.7470 H   0  0  0  0  0  0  0  0  0  0  0  0  # atno 10765 bound_to 10752
  139.9217  134.9638  156.7924 H   0  0  0  0  0  0  0  0  0  0  0  0  # atno 11005 bound_to 11000
  146.2439  139.6057  142.9473 LP  0  0  0  0  0  0  0  0  0  0  0  0  # atno 17320 bound_to 7965
  145.5263  141.0429  143.2407 LP  0  0  0  0  0  0  0  0  0  0  0  0  # atno 17321 bound_to 7965
  140.7483  143.2920  151.3304 LP  0  0  0  0  0  0  0  0  0  0  0  0  # atno 17342 bound_to 10162
  139.6398  144.0561  152.2545 LP  0  0  0  0  0  0  0  0  0  0  0  0  # atno 17343 bound_to 10162
  157.1853  131.0402  151.2728 LP  0  0  0  0  0  0  0  0  0  0  0  0  # atno 17370 bound_to 10713
  157.4109  130.7385  149.6838 LP  0  0  0  0  0  0  0  0  0  0  0  0  # atno 17371 bound_to 10713
  140.6456  133.9778  155.7729 LP  0  0  0  0  0  0  0  0  0  0  0  0  # atno 17394 bound_to 11000
  141.0742  134.0160  157.3482 LP  0  0  0  0  0  0  0  0  0  0  0  0  # atno 17395 bound_to 11000

$$$$
