#       Name:                AV-unprocessed.smi:2014
#       Creating user name   scv26
#       Creation time:       Fri Mar 27 10:40:49 2020


#       File generated by GOLD software.
#

@<TRIPOS>MOLECULE
AV-unprocessed.smi:2014
    53    55     1
SMALL
NO_CHARGES


@<TRIPOS>ATOM
      1 ****        -5.7661  -3.0502  -2.0035 C.3            1 S1                 0.0000
      2 ****        -4.2744  -2.6878  -1.9784 C.3            1 S1                 0.0000
      3 ****        -3.7497  -2.5623  -0.5353 C.3            1 S1                 0.0000
      4 ****        -2.2574  -2.1958  -0.5037 C.3            1 S1                 0.0000
      5 ****        -1.9754  -0.9044  -1.2980 C.3            1 S1                 0.0000
      6 ****        -0.5441  -0.6197  -1.3209 N.am           1 S1                 0.0000
      7 ****         0.1408  -0.0058  -0.3441 C.2            1 S1                 0.0000
      8 ****        -0.3842   0.4063   0.6916 O.2            1 S1                 0.0000
      9 ****         1.6480   0.1621  -0.5899 C.3            1 S1                 0.0000
     10 ****         2.3980   0.5862   0.6129 N.am           1 S1                 0.0000
     11 ****         2.8411  -0.4105   1.5197 C.2            1 S1                 0.0000
     12 ****         2.6335  -1.6053   1.3005 O.2            1 S1                 0.0000
     13 ****         3.5312   0.0830   2.7091 C.2            1 S1                 0.0000
     14 ****         3.9592  -0.8863   3.6624 C.1            1 S1                 0.0000
     15 ****         4.3162  -1.6553   4.4504 N.1            1 S1                 0.0000
     16 ****         3.7435   1.4025   2.8918 C.2            1 S1                 0.0000
     17 ****         3.3410   2.3517   1.9778 N.am           1 S1                 0.0000
     18 ****         3.4410   3.7551   2.2639 C.3            1 S1                 0.0000
     19 ****         4.1432   4.6867   1.2948 C.3            1 S1                 0.0000
     20 ****         4.7937   4.3376   2.6111 C.3            1 S1                 0.0000
     21 ****         2.6044   1.9692   0.8353 C.2            1 S1                 0.0000
     22 ****         2.1457   2.8121   0.0602 O.2            1 S1                 0.0000
     23 ****        -2.5013  -1.0281  -2.7398 C.3            1 S1                 0.0000
     24 ****        -3.9946  -1.3927  -2.7648 C.3            1 S1                 0.0000
     25 ****        -6.3705  -2.2776  -1.5267 H              1 S1                 0.0000
     26 ****        -5.9506  -3.9881  -1.4788 H              1 S1                 0.0000
     27 ****        -6.1239  -3.1698  -3.0268 H              1 S1                 0.0000
     28 ****        -3.7314  -3.4999  -2.4645 H              1 S1                 0.0000
     29 ****        -4.3198  -1.8014  -0.0003 H              1 S1                 0.0000
     30 ****        -3.9060  -3.4985   0.0018 H              1 S1                 0.0000
     31 ****        -1.9341  -2.0801   0.5316 H              1 S1                 0.0000
     32 ****        -1.6744  -3.0201  -0.9177 H              1 S1                 0.0000
     33 ****        -2.4963  -0.0734  -0.8182 H              1 S1                 0.0000
     34 ****        -0.0338  -0.9222  -2.1380 H              1 S1                 0.0000
     35 ****         2.0476  -0.7763  -0.9781 H              1 S1                 0.0000
     36 ****         1.7841   0.8662  -1.4120 H              1 S1                 0.0000
     37 ****         4.2528   1.7306   3.7866 H              1 S1                 0.0000
     38 ****         2.5926   4.1804   2.7973 H              1 S1                 0.0000
     39 ****         4.5837   4.2599   0.3956 H              1 S1                 0.0000
     40 ****         3.7386   5.6904   1.1833 H              1 S1                 0.0000
     41 ****         4.8256   5.1105   3.3763 H              1 S1                 0.0000
     42 ****         5.6597   3.6792   2.5782 H              1 S1                 0.0000
     43 ****        -2.3437  -0.0919  -3.2771 H              1 S1                 0.0000
     44 ****        -1.9354  -1.7912  -3.2765 H              1 S1                 0.0000
     45 ****        -4.3246  -1.5043  -3.7982 H              1 S1                 0.0000
     46 ****        -4.5754  -0.5712  -2.3429 H              1 S1                 0.0000
     47 ****        -1.3669   0.2895   0.8348 LP             1 S1                 0.0000
     48 ****         0.1725   0.8576   1.3891 LP             1 S1                 0.0000
     49 ****         2.1461  -1.8845   0.4732 LP             1 S1                 0.0000
     50 ****         2.9525  -2.2956   1.9500 LP             1 S1                 0.0000
     51 ****         4.6247  -2.3197   5.1312 LP             1 S1                 0.0000
     52 ****         1.6194   2.5223  -0.7391 LP             1 S1                 0.0000
     53 ****         2.3003   3.7852   0.2312 LP             1 S1                 0.0000
@<TRIPOS>BOND
    1    1    2 1     
    2    1   25 1     
    3    1   26 1     
    4    1   27 1     
    5    2   24 1     
    6    2    3 1     
    7    2   28 1     
    8    3    4 1     
    9    3   29 1     
   10    3   30 1     
   11    4    5 1     
   12    4   31 1     
   13    4   32 1     
   14    5    6 1     
   15    5   23 1     
   16    5   33 1     
   17    6    7 am    
   18    6   34 1     
   19    7    8 2     
   20    7    9 1     
   21    9   10 1     
   22    9   35 1     
   23    9   36 1     
   24   10   21 am    
   25   10   11 am    
   26   11   12 2     
   27   11   13 1     
   28   13   14 1     
   29   13   16 2     
   30   14   15 3     
   31   16   17 1     
   32   16   37 1     
   33   17   18 1     
   34   17   21 am    
   35   18   20 1     
   36   18   19 1     
   37   18   38 1     
   38   19   20 1     
   39   19   39 1     
   40   19   40 1     
   41   20   41 1     
   42   20   42 1     
   43   21   22 2     
   44   23   24 1     
   45   23   43 1     
   46   23   44 1     
   47   24   45 1     
   48   24   46 1     
   49    8   47 1     
   50    8   48 1     
   51   12   49 1     
   52   12   50 1     
   53   15   51 1     
   54   22   52 1     
   55   22   53 1     
@<TRIPOS>SUBSTRUCTURE
      1 S1             1
@<TRIPOS>SET
LONE_PAIRS      STATIC     ATOMS    <user>   **** ""
7 47 48 49 50 51 52 53
DONOR_HYDROGENS      STATIC     ATOMS    <user>   **** ""
1 34
ATOM$BLUE        STATIC     ATOMS    COLORGROUP SYSTEM
7 47 48 49 50 51 52 53
ATOM$RED        STATIC     ATOMS    COLORGROUP SYSTEM
1 34
