#       Name:                AV-unprocessed.smi:2062
#       Creating user name   scv26
#       Creation time:       Fri Mar 27 11:09:45 2020


#       File generated by GOLD software.
#

@<TRIPOS>MOLECULE
AV-unprocessed.smi:2062
    48    49     1
SMALL
NO_CHARGES


@<TRIPOS>ATOM
      1 ****        -4.3347   1.3129   0.1483 C.3            1 S1                 0.0000
      2 ****        -3.6832   1.8186  -1.1504 C.3            1 S1                 0.0000
      3 ****        -4.7040   2.6252  -1.9681 C.3            1 S1                 0.0000
      4 ****        -3.0942   0.6587  -1.9875 C.3            1 S1                 0.0000
      5 ****        -1.6412   0.5004  -1.9126 N.3            1 S1                 0.0000
      6 ****        -1.1741  -0.4796  -2.8867 C.3            1 S1                 0.0000
      7 ****         0.3508  -0.6649  -2.8306 C.3            1 S1                 0.0000
      8 ****         0.7305  -1.0405  -1.5118 O.3            1 S1                 0.0000
      9 ****         0.3491  -0.0811  -0.5282 C.3            1 S1                 0.0000
     10 ****         0.8159  -0.5757   0.8481 C.3            1 S1                 0.0000
     11 ****         2.2705  -0.6282   0.9111 N.am           1 S1                 0.0000
     12 ****         2.9833  -1.0061   1.9801 C.2            1 S1                 0.0000
     13 ****         2.4042  -1.3478   3.0140 O.2            1 S1                 0.0000
     14 ****         4.3212  -0.9654   1.7852 N.pl3          1 S1                -1.0000
     15 ****         5.1564  -1.3221   2.7746 C.2            1 S1                 0.0000
     16 ****         5.7639  -0.4358   3.5719 N.2            1 S1                 0.0000
     17 ****         6.5950  -1.0257   4.5260 C.2            1 S1                 0.0000
     18 ****         6.6289  -2.3927   4.4472 C.2            1 S1                 0.0000
     19 ****         5.6098  -2.9833   3.1657 S.3            1 S1                 0.0000
     20 ****        -1.1806   0.1050  -0.5835 C.3            1 S1                 0.0000
     21 ****        -5.1757   0.6519  -0.0635 H              1 S1                 0.0000
     22 ****        -4.7101   2.1434   0.7467 H              1 S1                 0.0000
     23 ****        -3.6298   0.7594   0.7677 H              1 S1                 0.0000
     24 ****        -2.8796   2.5072  -0.8851 H              1 S1                 0.0000
     25 ****        -5.5433   2.0032  -2.2811 H              1 S1                 0.0000
     26 ****        -4.2460   3.0445  -2.8644 H              1 S1                 0.0000
     27 ****        -5.1039   3.4570  -1.3876 H              1 S1                 0.0000
     28 ****        -3.5869  -0.2797  -1.7279 H              1 S1                 0.0000
     29 ****        -3.3540   0.8343  -3.0325 H              1 S1                 0.0000
     30 ****        -1.6590  -1.4405  -2.7061 H              1 S1                 0.0000
     31 ****        -1.4613  -0.1696  -3.8922 H              1 S1                 0.0000
     32 ****         0.6652  -1.4421  -3.5272 H              1 S1                 0.0000
     33 ****         0.8651   0.2531  -3.1193 H              1 S1                 0.0000
     34 ****         0.8351   0.8713  -0.7493 H              1 S1                 0.0000
     35 ****         0.4543   0.0981   1.6262 H              1 S1                 0.0000
     36 ****         0.4016  -1.5632   1.0575 H              1 S1                 0.0000
     37 ****         2.7766  -0.3603   0.0798 H              1 S1                 0.0000
     38 ****         7.1276  -0.3951   5.2221 H              1 S1                 0.0000
     39 ****         7.1876  -3.0840   5.0595 H              1 S1                 0.0000
     40 ****        -1.4606   0.8625   0.1478 H              1 S1                 0.0000
     41 ****        -1.6724  -0.8214  -0.2826 H              1 S1                 0.0000
     42 ****        -1.2558   1.4000  -2.1181 LP             1 S1                 0.0000
     43 ****         1.7245  -1.1473  -1.4845 LP             1 S1                 0.0000
     44 ****         0.2954  -1.9135  -1.2912 LP             1 S1                 0.0000
     45 ****         1.4050  -1.3423   3.0526 LP             1 S1                 0.0000
     46 ****         2.9339  -1.6305   3.8137 LP             1 S1                 0.0000
     47 ****         4.6888  -0.6695   0.9035 LP             1 S1                 0.0000
     48 ****         5.6352   0.5526   3.4921 LP             1 S1                 0.0000
@<TRIPOS>BOND
    1    1    2 1     
    2    1   21 1     
    3    1   22 1     
    4    1   23 1     
    5    2    3 1     
    6    2    4 1     
    7    2   24 1     
    8    3   25 1     
    9    3   26 1     
   10    3   27 1     
   11    4    5 1     
   12    4   28 1     
   13    4   29 1     
   14    5   20 1     
   15    5    6 1     
   16    6    7 1     
   17    6   30 1     
   18    6   31 1     
   19    7    8 1     
   20    7   32 1     
   21    7   33 1     
   22    8    9 1     
   23    9   10 1     
   24    9   20 1     
   25    9   34 1     
   26   10   11 1     
   27   10   35 1     
   28   10   36 1     
   29   11   12 am    
   30   11   37 1     
   31   12   13 2     
   32   12   14 1     
   33   14   15 1     
   34   15   19 1     
   35   15   16 2     
   36   16   17 1     
   37   17   18 2     
   38   17   38 1     
   39   18   19 1     
   40   18   39 1     
   41   20   40 1     
   42   20   41 1     
   43    5   42 1     
   44    8   43 1     
   45    8   44 1     
   46   13   45 1     
   47   13   46 1     
   48   14   47 1     
   49   16   48 1     
@<TRIPOS>SUBSTRUCTURE
      1 S1             1
@<TRIPOS>SET
LONE_PAIRS      STATIC     ATOMS    <user>   **** ""
7 42 43 44 45 46 47 48
DONOR_HYDROGENS      STATIC     ATOMS    <user>   **** ""
1 37
ATOM$BLUE        STATIC     ATOMS    COLORGROUP SYSTEM
7 42 43 44 45 46 47 48
ATOM$RED        STATIC     ATOMS    COLORGROUP SYSTEM
1 37
