AV-unprocessed.smi:3343|AV-procd|sdf|12895|dock3
  -GOLD-   2272019303D 1   1.00000     0.00000
 Structure written by MMmdl.
 42 43  0  0  0  0  0  0  0  0  2 V2000
  148.5709  140.5908  154.7056 C   0  0  0  0  0  0  0  0  0  0  0  0
  148.8323  139.1315  154.2809 C   0  0  2  0  0  0  0  0  0  0  0  0
  147.9521  138.1164  155.0328 C   0  0  0  0  0  0  0  0  0  0  0  0
  147.2859  138.4603  156.0099 O   0  0  0  0  0  0  0  0  0  0  0  0
  147.9532  136.8602  154.5582 N   0  0  0  0  0  0  0  0  0  0  0  0
  147.2162  135.7450  155.1379 C   0  0  0  0  0  0  0  0  0  0  0  0
  147.4455  134.4691  154.3116 C   0  0  0  0  0  0  0  0  0  0  0  0
  146.9598  134.6014  152.9153 N   0  3  0  0  0  0  0  0  0  0  0  0
  145.6181  135.2289  152.8421 C   0  0  0  0  0  0  0  0  0  0  0  0
  145.1907  135.4324  151.3732 C   0  0  0  0  0  0  0  0  0  0  0  0
  145.1956  134.1785  150.6182 N   0  0  0  0  0  0  0  0  0  0  0  0
  144.1100  133.2788  150.9930 C   0  0  0  0  0  0  0  0  0  0  0  0
  146.5164  133.5527  150.7002 C   0  0  0  0  0  0  0  0  0  0  0  0
  146.9647  133.3236  152.1594 C   0  0  0  0  0  0  0  0  0  0  0  0
  150.2439  138.7841  154.4014 N   0  0  0  0  0  0  0  0  0  0  0  0
  150.8648  137.6225  154.1849 C   0  0  0  0  0  0  0  0  0  0  0  0
  152.1671  137.6540  154.4302 N   0  0  0  0  0  0  0  0  0  0  0  0
  152.2944  138.9570  154.8208 C   0  0  0  0  0  0  0  0  0  0  0  0
  151.1718  139.6754  154.8316 N   0  0  0  0  0  0  0  0  0  0  0  0
  147.5296  140.8700  154.5407 H   0  0  0  0  0  0  0  0  0  0  0  0
  149.1867  141.2797  154.1268 H   0  0  0  0  0  0  0  0  0  0  0  0
  148.7957  140.7545  155.7603 H   0  0  0  0  0  0  0  0  0  0  0  0
  148.5709  139.0494  153.2247 H   0  0  0  0  0  0  0  0  0  0  0  0
  148.5196  136.6628  153.7458 H   0  0  0  0  0  0  0  0  0  0  0  0
  147.5273  135.5698  156.1693 H   0  0  0  0  0  0  0  0  0  0  0  0
  146.1616  136.0175  155.1623 H   0  0  0  0  0  0  0  0  0  0  0  0
  148.5001  134.1889  154.3125 H   0  0  0  0  0  0  0  0  0  0  0  0
  146.9084  133.6526  154.7973 H   0  0  0  0  0  0  0  0  0  0  0  0
  144.8908  134.6234  153.3845 H   0  0  0  0  0  0  0  0  0  0  0  0
  145.6452  136.1998  153.3381 H   0  0  0  0  0  0  0  0  0  0  0  0
  144.2002  135.8863  151.3238 H   0  0  0  0  0  0  0  0  0  0  0  0
  145.8743  136.1312  150.8886 H   0  0  0  0  0  0  0  0  0  0  0  0
  144.1195  132.3921  150.3586 H   0  0  0  0  0  0  0  0  0  0  0  0
  143.1474  133.7720  150.8550 H   0  0  0  0  0  0  0  0  0  0  0  0
  144.1747  132.9512  152.0299 H   0  0  0  0  0  0  0  0  0  0  0  0
  146.5098  132.6102  150.1514 H   0  0  0  0  0  0  0  0  0  0  0  0
  147.2368  134.1982  150.1956 H   0  0  0  0  0  0  0  0  0  0  0  0
  147.9680  132.8998  152.1493 H   0  0  0  0  0  0  0  0  0  0  0  0
  146.3257  132.5916  152.6551 H   0  0  0  0  0  0  0  0  0  0  0  0
  150.3528  136.7336  153.8465 H   0  0  0  0  0  0  0  0  0  0  0  0
  153.2412  139.3868  155.1135 H   0  0  0  0  0  0  0  0  0  0  0  0
  147.5932  135.2307  152.4428 H   0  0  0  0  0  0  0  0  0  0  0  0
  1  2  1  0  0  0  0
  1 20  1  0  0  0  0
  1 21  1  0  0  0  0
  1 22  1  0  0  0  0
  2  3  1  0  0  0  0
  2 15  1  0  0  0  0
  2 23  1  0  0  0  0
  3  4  2  0  0  0  0
  3  5  1  0  0  0  0
  5  6  1  0  0  0  0
  5 24  1  0  0  0  0
  6  7  1  0  0  0  0
  6 25  1  0  0  0  0
  6 26  1  0  0  0  0
  7  8  1  0  0  0  0
  7 27  1  0  0  0  0
  7 28  1  0  0  0  0
  8 14  1  0  0  0  0
  8  9  1  0  0  0  0
  8 42  1  0  0  0  0
  9 10  1  0  0  0  0
  9 29  1  0  0  0  0
  9 30  1  0  0  0  0
 10 11  1  0  0  0  0
 10 31  1  0  0  0  0
 10 32  1  0  0  0  0
 11 12  1  0  0  0  0
 11 13  1  0  0  0  0
 12 33  1  0  0  0  0
 12 34  1  0  0  0  0
 12 35  1  0  0  0  0
 13 14  1  0  0  0  0
 13 36  1  0  0  0  0
 13 37  1  0  0  0  0
 14 38  1  0  0  0  0
 14 39  1  0  0  0  0
 15 19  1  0  0  0  0
 15 16  1  0  0  0  0
 16 17  2  0  0  0  0
 16 40  1  0  0  0  0
 17 18  1  0  0  0  0
 18 19  2  0  0  0  0
 18 41  1  0  0  0  0
M  CHG  1   8   1
M  END
> <s_m_source_file>
AV-unprocessed.smi

> <i_m_source_file_index>
3343

> <i_lp_mmshare_version>
43012

> <i_f3d_flags>
0

> <s_epik_input>
bjFbY0hdbltjSF1uMVtDQEhdKFtDSDNdKUMoPU8pW05IXVtDSDJdW0NIMl1OMltDSDJdW0NIMl1OKFtDSDNdKVtDSDJdW0NIMl0y

> <s_epik_cmdline>
J2VwaWtfcHl0aG9uJywgJy1waCcsICc3LjAnLCAnLXRuJywgJzgnLCAnLW1hJywgJzIwMCcsICctbWV0YWxfYmluZGluZycsICctaW1hZScsICc8aW5maWxlLm1hZT4nLCAnLW9tYWUnLCAnPG91dGZpbGUubWFlPic=

> <r_epik_Ionization_Penalty>
0.559944

> <r_epik_Ionization_Penalty_Charging>
0.558624

> <r_epik_Ionization_Penalty_Neutral>
0.00131959

> <r_epik_State_Penalty>
2.08679

> <r_epik_Charging_Adjusted_Penalty>
2.64542

> <i_epik_Tot_Q>
1

> <i_epik_Tot_abs_Q>
1

> <r_epik_Metal_State_Penalty>
2.0868

> <b_epik_Metal_Only>
0

> <s_lp_Force_Field>
OPLS_2005

> <r_lp_Energy>
23.1114

> <b_lp_Chiralities_Consistent>
1

> <s_lp_Variant>
AV-unprocessed.smi:3343-5

> <Gold.Version>
5.8.1

> <Gold.Id.Protein>
6NUR|6NUR_protein|mol2

> <Gold.PLP.Fitness>
48.2918

> <Gold.PLP.PLP>
-31.7686

> <Gold.PLP.part.hbond>
-4.0000

> <Gold.PLP.part.metal>
0.0000

> <Gold.PLP.part.buried>
-5.1160

> <Gold.PLP.part.nonpolar>
-24.3477

> <Gold.PLP.part.repulsive>
0.7362

> <Gold.PLP.ligand.clash>
0.0000

> <Gold.PLP.ligand.torsion>
0.2900

> <Gold.PLP.Chemscore.Hbond>
4.7680

> <Gold.PLP.Chemscore.CHOScore>
0.8842

> <Gold.PLP.Chemscore.Metal>
0.0000

> <Gold.Chemscore.Hbonds>
donor molecule, donor type, donor heavy atom, donor atom, acceptor molecule, acceptor atom, score
      L1  H     5    24       P1  7948  1.00
      L1  H     8    42       P1  7948  2.00
      P1  H  7989  7998       L1    19  0.85
      P1  H 10752 10765       L1    17  0.53
      L1  C    16    40       P1  7948  0.72
      L1  C    16    40       P1  7949  0.18

> <Gold.PLP.Chemscore.Internal.Correction>
0.1466

> <Gold.Rescore>
     Score         DG    S(hbond)    S(metal)    S(lipo)     H(rot)  DE(clash)    DE(int)     intcor
     15.18     -15.84       3.54        0.00      44.92       2.63       0.23       0.42       ----

> <Gold.Chemscore.Fitness>
15.1845

> <Gold.Chemscore.DG>
-15.8352

> <Gold.Chemscore.ZeroCoef>
-5.4800

> <Gold.Chemscore.Hbond>
3.5410

> <Gold.Chemscore.Metal>
0.0000

> <Gold.Chemscore.Lipo>
44.9179

> <Gold.Chemscore.Internal_Hbond>
0.0000

> <Gold.Chemscore.DEClash>
0.2286

> <Gold.Chemscore.DEInternal>
0.4221

> <Gold.Chemscore.Rot>
2.6278

> <Gold.Chemscore.Internal.Correction>
   9.000000E+99

> <Gold.Chemscore.Hbonds>
donor molecule, donor type, donor heavy atom, donor atom, acceptor molecule, acceptor atom, score
      L1  H     5    24       P1  7948  0.97
      L1  H     8    42       P1  7948  1.00
      P1  H  7989  7998       L1    19  0.12
      P1  H 10752 10765       L1    17  0.39

> <Gold.Chemscore.Hbond.Weighted>
-11.8269

> <Gold.Chemscore.Metal.Weighted>
-0.0000

> <Gold.Chemscore.Lipo.Weighted>
-5.2554

> <Gold.Chemscore.Internal_Hbond.Weighted>
0.0000

> <Gold.Chemscore.DEClash.Weighted>
0.2286

> <Gold.Chemscore.DEInternal.Weighted>
0.4221

> <Gold.Chemscore.Rot.Weighted>
6.7271

> <Gold.Chemscore.Internal.Correction.Weighted>
   9.000000E+99

> <Gold.Protein.RotatedTorsions>
[ 6907 6896 6895 6894 ] final  106.04 input  -60.11 | X-H torsion
[ 7974 7965 7964 7962 ] final   -4.41 input  175.53 | X-H torsion
[ 8008 7997 7996 7995 ] final  118.44 input   59.86 | X-H torsion
[ 10167 10162 10161 10158 ] final -143.61 input  -65.29 | X-H torsion
[ 10718 10713 10712 10709 ] final -147.47 input   66.30 | X-H torsion
[ 10763 10752 10751 10750 ] final  170.21 input  -60.55 | X-H torsion
[ 11005 11000 10999 10996 ] final  174.47 input  -57.11 | X-H torsion

> <Gold.Protein.ActiveResidues>
 VAL166  LYS551  ARG553  GLY616  TRP617  ASP618  TYR619  PRO620  LYS621  CYS622 
 ASP623  PHE694  ASN695  SER759  ASP760  ASP761  ALA762  ILE779  LEU786  VAL792 
 PHE793  MET794  SER795  GLU796  ALA797  LYS798  CYS799  TRP800  GLU811  SER814 

> <Gold.Protein.RotatedAtoms>
  152.5209  133.9440  159.7639 H   0  0  0  0  0  0  0  0  0  0  0  0  # atno 6907 bound_to 6896
  150.9764  133.6282  159.2736 H   0  0  0  0  0  0  0  0  0  0  0  0  # atno 6908 bound_to 6896
  151.3475  135.0883  159.9445 H   0  0  0  0  0  0  0  0  0  0  0  0  # atno 6909 bound_to 6896
  146.2373  140.1867  142.8332 H   0  0  0  0  0  0  0  0  0  0  0  0  # atno 7974 bound_to 7965
  156.2546  140.2875  156.0835 H   0  0  0  0  0  0  0  0  0  0  0  0  # atno 8008 bound_to 7997
  155.1541  140.0398  157.2845 H   0  0  0  0  0  0  0  0  0  0  0  0  # atno 8009 bound_to 7997
  154.6439  140.2529  155.7296 H   0  0  0  0  0  0  0  0  0  0  0  0  # atno 8010 bound_to 7997
  139.7977  143.7877  152.2655 H   0  0  0  0  0  0  0  0  0  0  0  0  # atno 10167 bound_to 10162
  156.4079  130.7966  151.2182 H   0  0  0  0  0  0  0  0  0  0  0  0  # atno 10718 bound_to 10713
  154.3943  135.2754  155.2136 H   0  0  0  0  0  0  0  0  0  0  0  0  # atno 10763 bound_to 10752
  154.4189  135.6005  153.6001 H   0  0  0  0  0  0  0  0  0  0  0  0  # atno 10764 bound_to 10752
  152.9831  135.5967  154.4202 H   0  0  0  0  0  0  0  0  0  0  0  0  # atno 10765 bound_to 10752
  140.3516  134.7190  157.4272 H   0  0  0  0  0  0  0  0  0  0  0  0  # atno 11005 bound_to 11000
  144.9891  140.8530  143.5350 LP  0  0  0  0  0  0  0  0  0  0  0  0  # atno 17320 bound_to 7965
  145.1870  139.2321  143.5262 LP  0  0  0  0  0  0  0  0  0  0  0  0  # atno 17321 bound_to 7965
  139.7988  144.7382  150.9853 LP  0  0  0  0  0  0  0  0  0  0  0  0  # atno 17342 bound_to 10162
  140.7820  143.4366  151.0613 LP  0  0  0  0  0  0  0  0  0  0  0  0  # atno 17343 bound_to 10162
  157.7506  131.0267  150.3972 LP  0  0  0  0  0  0  0  0  0  0  0  0  # atno 17370 bound_to 10713
  156.4264  130.3963  149.6790 LP  0  0  0  0  0  0  0  0  0  0  0  0  # atno 17371 bound_to 10713
  140.0698  134.5878  155.8654 LP  0  0  0  0  0  0  0  0  0  0  0  0  # atno 17394 bound_to 11000
  141.2010  133.6616  156.5928 LP  0  0  0  0  0  0  0  0  0  0  0  0  # atno 17395 bound_to 11000

$$$$
