AV-unprocessed.smi:3259|AV-procd|sdf|12472|dock10
  -GOLD-   2272018373D 1   1.00000     0.00000
 Structure written by MMmdl.
 39 40  0  0  0  0  0  0  0  0  1 V2000
  149.4955  141.5329  154.9492 C   0  0  0  0  0  0  0  0  0  0  0  0
  150.1012  140.2833  154.6449 O   0  0  0  0  0  0  0  0  0  0  0  0
  150.6882  139.5798  155.7411 C   0  0  1  0  0  0  0  0  0  0  0  0
  152.2039  139.8309  155.7756 C   0  0  0  0  0  0  0  0  0  0  0  0
  149.8968  139.7718  157.0476 C   0  0  0  0  0  0  0  0  0  0  0  0
  150.0761  138.2722  157.2740 C   0  0  1  0  0  0  0  0  0  0  0  0
  148.9050  137.6562  157.8849 N   0  0  0  0  0  0  0  0  0  0  0  0
  148.9438  136.8184  158.9318 C   0  0  0  0  0  0  0  0  0  0  0  0
  149.9780  136.5373  159.5369 O   0  0  0  0  0  0  0  0  0  0  0  0
  147.6132  136.1922  159.3524 C   0  0  0  0  0  0  0  0  0  0  0  0
  147.4938  136.1336  160.7995 N   0  0  0  0  0  0  0  0  0  0  0  0
  147.3346  135.0229  161.6024 C   0  0  0  0  0  0  0  0  0  0  0  0
  147.2877  135.4586  162.8954 C   0  0  0  0  0  0  0  0  0  0  0  0
  147.4270  136.8700  162.7815 C   0  0  0  0  0  0  0  0  0  0  0  0
  147.5505  137.2712  161.5266 N   0  0  0  0  0  0  0  0  0  0  0  0
  150.1648  138.1065  155.7347 C   0  0  0  0  0  0  0  0  0  0  0  0
  148.8389  137.8586  154.9849 C   0  0  0  0  0  0  0  0  0  0  0  0
  151.1351  137.0318  155.2345 C   0  0  0  0  0  0  0  0  0  0  0  0
  149.0021  141.9153  154.0559 H   0  0  0  0  0  0  0  0  0  0  0  0
  150.2299  142.2770  155.2561 H   0  0  0  0  0  0  0  0  0  0  0  0
  148.7397  141.4420  155.7295 H   0  0  0  0  0  0  0  0  0  0  0  0
  152.7025  139.2062  156.5164 H   0  0  0  0  0  0  0  0  0  0  0  0
  152.4397  140.8619  156.0376 H   0  0  0  0  0  0  0  0  0  0  0  0
  152.6628  139.6206  154.8094 H   0  0  0  0  0  0  0  0  0  0  0  0
  150.3859  140.4026  157.7905 H   0  0  0  0  0  0  0  0  0  0  0  0
  148.8585  140.0706  156.8921 H   0  0  0  0  0  0  0  0  0  0  0  0
  151.0143  138.0464  157.7860 H   0  0  0  0  0  0  0  0  0  0  0  0
  148.0120  137.8369  157.4498 H   0  0  0  0  0  0  0  0  0  0  0  0
  146.7790  136.7655  158.9451 H   0  0  0  0  0  0  0  0  0  0  0  0
  147.5375  135.1819  158.9485 H   0  0  0  0  0  0  0  0  0  0  0  0
  147.2726  134.0261  161.1910 H   0  0  0  0  0  0  0  0  0  0  0  0
  147.1724  134.8598  163.7866 H   0  0  0  0  0  0  0  0  0  0  0  0
  147.4429  137.6099  163.5682 H   0  0  0  0  0  0  0  0  0  0  0  0
  148.4419  136.8626  155.1845 H   0  0  0  0  0  0  0  0  0  0  0  0
  148.9699  137.9410  153.9055 H   0  0  0  0  0  0  0  0  0  0  0  0
  148.0634  138.5710  155.2668 H   0  0  0  0  0  0  0  0  0  0  0  0
  150.7120  136.0319  155.3346 H   0  0  0  0  0  0  0  0  0  0  0  0
  152.0694  137.0316  155.7955 H   0  0  0  0  0  0  0  0  0  0  0  0
  151.3861  137.1792  154.1838 H   0  0  0  0  0  0  0  0  0  0  0  0
  1  2  1  0  0  0  0
  1 19  1  0  0  0  0
  1 20  1  0  0  0  0
  1 21  1  0  0  0  0
  2  3  1  0  0  0  0
  3 16  1  0  0  0  0
  3  4  1  0  0  0  0
  3  5  1  0  0  0  0
  4 22  1  0  0  0  0
  4 23  1  0  0  0  0
  4 24  1  0  0  0  0
  5  6  1  0  0  0  0
  5 25  1  0  0  0  0
  5 26  1  0  0  0  0
  6  7  1  0  0  0  0
  6 16  1  0  0  0  0
  6 27  1  0  0  0  0
  7  8  1  0  0  0  0
  7 28  1  0  0  0  0
  8  9  2  0  0  0  0
  8 10  1  0  0  0  0
 10 11  1  0  0  0  0
 10 29  1  0  0  0  0
 10 30  1  0  0  0  0
 11 15  1  0  0  0  0
 11 12  1  0  0  0  0
 12 13  2  0  0  0  0
 12 31  1  0  0  0  0
 13 14  1  0  0  0  0
 13 32  1  0  0  0  0
 14 15  2  0  0  0  0
 14 33  1  0  0  0  0
 16 17  1  0  0  0  0
 16 18  1  0  0  0  0
 17 34  1  0  0  0  0
 17 35  1  0  0  0  0
 17 36  1  0  0  0  0
 18 37  1  0  0  0  0
 18 38  1  0  0  0  0
 18 39  1  0  0  0  0
M  END
> <s_m_source_file>
AV-unprocessed.smi

> <i_m_source_file_index>
3259

> <i_lp_mmshare_version>
43012

> <i_f3d_flags>
0

> <s_epik_input>
W0NIM11PW0NAQF0xKFtDSDNdKVtDSDJdW0NASF0oQzEoW0NIM10pW0NIM10pW05IXUMoPU8pW0NIMl1uMltjSF1bY0hdW2NIXW4y

> <s_epik_cmdline>
J2VwaWtfcHl0aG9uJywgJy1waCcsICc3LjAnLCAnLXRuJywgJzgnLCAnLW1hJywgJzIwMCcsICctbWV0YWxfYmluZGluZycsICctaW1hZScsICc8aW5maWxlLm1hZT4nLCAnLW9tYWUnLCAnPG91dGZpbGUubWFlPic=

> <r_lp_tautomer_probability>
1

> <r_epik_Ionization_Penalty>
1.78399e-05

> <r_epik_Ionization_Penalty_Charging>
0

> <r_epik_Ionization_Penalty_Neutral>
1.78399e-05

> <r_epik_State_Penalty>
-0

> <r_epik_Charging_Adjusted_Penalty>
0

> <i_epik_Tot_Q>
0

> <i_epik_Tot_abs_Q>
0

> <r_epik_Metal_State_Penalty>
-0

> <b_epik_Metal_Only>
0

> <s_lp_Force_Field>
OPLS_2005

> <r_lp_Energy>
22.2184

> <b_lp_Chiralities_Consistent>
1

> <s_lp_Variant>
AV-unprocessed.smi:3259-1

> <Gold.Version>
5.8.1

> <Gold.Id.Protein>
6NUR|6NUR_protein|mol2

> <Gold.PLP.Fitness>
40.9484

> <Gold.PLP.PLP>
-32.4949

> <Gold.PLP.part.hbond>
-4.0000

> <Gold.PLP.part.metal>
0.0000

> <Gold.PLP.part.buried>
-3.0089

> <Gold.PLP.part.nonpolar>
-25.7715

> <Gold.PLP.part.repulsive>
0.1716

> <Gold.PLP.ligand.clash>
0.0000

> <Gold.PLP.ligand.torsion>
1.1377

> <Gold.PLP.Chemscore.Hbond>
3.4504

> <Gold.PLP.Chemscore.CHOScore>
0.0000

> <Gold.PLP.Chemscore.Metal>
0.0000

> <Gold.Chemscore.Hbonds>
donor molecule, donor type, donor heavy atom, donor atom, acceptor molecule, acceptor atom, score
      P1  H  6896  6909       L1     9  1.00
      P1  H  6931  6943       L1    15  0.55
      P1  H  6934  6947       L1    15  0.82
      P1  H  7989  7998       L1     2  1.00

> <Gold.PLP.Chemscore.Internal.Correction>
0.3776

> <Gold.Rescore>
     Score         DG    S(hbond)    S(metal)    S(lipo)     H(rot)  DE(clash)    DE(int)     intcor
     16.84     -18.23       2.60        0.00      69.61       1.60       0.07       1.33       ----

> <Gold.Chemscore.Fitness>
16.8422

> <Gold.Chemscore.DG>
-18.2331

> <Gold.Chemscore.ZeroCoef>
-5.4800

> <Gold.Chemscore.Hbond>
2.6031

> <Gold.Chemscore.Metal>
0.0000

> <Gold.Chemscore.Lipo>
69.6139

> <Gold.Chemscore.Internal_Hbond>
0.0000

> <Gold.Chemscore.DEClash>
0.0650

> <Gold.Chemscore.DEInternal>
1.3259

> <Gold.Chemscore.Rot>
1.5962

> <Gold.Chemscore.Internal.Correction>
   9.000000E+99

> <Gold.Chemscore.Hbonds>
donor molecule, donor type, donor heavy atom, donor atom, acceptor molecule, acceptor atom, score
      P1  H  6896  6909       L1     9  1.00
      P1  H  6931  6943       L1    15  0.04
      P1  H  6934  6947       L1    15  0.81
      P1  H  7989  7998       L1     2  0.15

> <Gold.Chemscore.Hbond.Weighted>
-8.6945

> <Gold.Chemscore.Metal.Weighted>
-0.0000

> <Gold.Chemscore.Lipo.Weighted>
-8.1448

> <Gold.Chemscore.Internal_Hbond.Weighted>
0.0000

> <Gold.Chemscore.DEClash.Weighted>
0.0650

> <Gold.Chemscore.DEInternal.Weighted>
1.3259

> <Gold.Chemscore.Rot.Weighted>
4.0862

> <Gold.Chemscore.Internal.Correction.Weighted>
   9.000000E+99

> <Gold.Protein.RotatedTorsions>
[ 6907 6896 6895 6894 ] final   91.14 input  -60.11 | X-H torsion
[ 7974 7965 7964 7962 ] final  147.89 input  175.53 | X-H torsion
[ 8008 7997 7996 7995 ] final   73.26 input   59.86 | X-H torsion
[ 10167 10162 10161 10158 ] final   -0.82 input  -65.29 | X-H torsion
[ 10718 10713 10712 10709 ] final -130.47 input   66.30 | X-H torsion
[ 10763 10752 10751 10750 ] final   58.64 input  -60.55 | X-H torsion
[ 11005 11000 10999 10996 ] final   11.42 input  -57.11 | X-H torsion

> <Gold.Protein.ActiveResidues>
 VAL166  LYS551  ARG553  GLY616  TRP617  ASP618  TYR619  PRO620  LYS621  CYS622 
 ASP623  PHE694  ASN695  SER759  ASP760  ASP761  ALA762  ILE779  LEU786  VAL792 
 PHE793  MET794  SER795  GLU796  ALA797  LYS798  CYS799  TRP800  GLU811  SER814 

> <Gold.Protein.RotatedAtoms>
  152.5448  134.1702  159.8593 H   0  0  0  0  0  0  0  0  0  0  0  0  # atno 6907 bound_to 6896
  151.1713  133.4775  159.2601 H   0  0  0  0  0  0  0  0  0  0  0  0  # atno 6908 bound_to 6896
  151.1272  135.0122  159.8621 H   0  0  0  0  0  0  0  0  0  0  0  0  # atno 6909 bound_to 6896
  144.8556  139.6085  143.5954 H   0  0  0  0  0  0  0  0  0  0  0  0  # atno 7974 bound_to 7965
  155.7811  140.3482  155.5298 H   0  0  0  0  0  0  0  0  0  0  0  0  # atno 8008 bound_to 7997
  155.8727  140.0989  157.1559 H   0  0  0  0  0  0  0  0  0  0  0  0  # atno 8009 bound_to 7997
  154.4019  140.1337  156.4086 H   0  0  0  0  0  0  0  0  0  0  0  0  # atno 8010 bound_to 7997
  140.6784  143.6849  150.8075 H   0  0  0  0  0  0  0  0  0  0  0  0  # atno 10167 bound_to 10162
  156.2148  130.6941  151.0690 H   0  0  0  0  0  0  0  0  0  0  0  0  # atno 10718 bound_to 10713
  152.9875  135.5599  154.5585 H   0  0  0  0  0  0  0  0  0  0  0  0  # atno 10763 bound_to 10752
  154.5008  135.2797  155.1424 H   0  0  0  0  0  0  0  0  0  0  0  0  # atno 10764 bound_to 10752
  154.2855  135.6336  153.5417 H   0  0  0  0  0  0  0  0  0  0  0  0  # atno 10765 bound_to 10752
  140.5034  134.0723  155.7799 H   0  0  0  0  0  0  0  0  0  0  0  0  # atno 11005 bound_to 11000
  146.2820  139.6903  142.9222 LP  0  0  0  0  0  0  0  0  0  0  0  0  # atno 17320 bound_to 7965
  145.4413  141.0422  143.2856 LP  0  0  0  0  0  0  0  0  0  0  0  0  # atno 17321 bound_to 7965
  140.0545  143.5216  152.2657 LP  0  0  0  0  0  0  0  0  0  0  0  0  # atno 17342 bound_to 10162
  139.6090  144.7604  151.2995 LP  0  0  0  0  0  0  0  0  0  0  0  0  # atno 17343 bound_to 10162
  157.7057  131.0757  150.6673 LP  0  0  0  0  0  0  0  0  0  0  0  0  # atno 17370 bound_to 10713
  156.6734  130.4546  149.5650 LP  0  0  0  0  0  0  0  0  0  0  0  0  # atno 17371 bound_to 10713
  141.1423  133.9116  157.2296 LP  0  0  0  0  0  0  0  0  0  0  0  0  # atno 17394 bound_to 11000
  139.9700  135.0131  156.9487 LP  0  0  0  0  0  0  0  0  0  0  0  0  # atno 17395 bound_to 11000

$$$$
