AV-unprocessed.smi:3302|AV-procd|sdf|12656|dock1
  -GOLD-   2272018593D 1   1.00000     0.00000
 Structure written by MMmdl.
 35 36  0  0  0  0  0  0  0  0  1 V2000
  149.5251  141.7212  157.0871 O   0  0  0  0  0  0  0  0  0  0  0  0
  150.6345  141.2170  157.2598 C   0  0  0  0  0  0  0  0  0  0  0  0
  151.0199  139.9664  156.4677 C   0  0  0  0  0  0  0  0  0  0  0  0
  150.6950  140.1534  155.0955 O   0  0  0  0  0  0  0  0  0  0  0  0
  149.3019  140.1671  154.8154 C   0  0  0  0  0  0  0  0  0  0  0  0
  148.9366  139.0445  153.8217 C   0  0  0  0  0  0  0  0  0  0  0  0
  147.4618  139.1314  153.3968 C   0  0  0  0  0  0  0  0  0  0  0  0
  147.1315  140.5120  152.8080 C   0  0  0  0  0  0  0  0  0  0  0  0
  147.4942  141.6360  153.7914 C   0  0  0  0  0  0  0  0  0  0  0  0
  148.9683  141.5461  154.2192 C   0  0  0  0  0  0  0  0  0  0  0  0
  151.5714  141.7210  158.0834 N   0  0  0  0  0  0  0  0  0  0  0  0
  151.4523  142.8541  158.9277 C   0  0  0  0  0  0  0  0  0  0  0  0
  150.4827  143.8263  158.6068 C   0  0  0  0  0  0  0  0  0  0  0  0
  150.3741  144.9692  159.4242 C   0  0  0  0  0  0  0  0  0  0  0  0
  151.1632  145.1925  160.4963 N   0  0  0  0  0  0  0  0  0  0  0  0
  152.1079  144.2722  160.7860 C   0  0  0  0  0  0  0  0  0  0  0  0
  152.3026  143.0955  160.0348 C   0  0  0  0  0  0  0  0  0  0  0  0
  153.3060  142.2469  160.3639 F   0  0  0  0  0  0  0  0  0  0  0  0
  152.0861  139.7791  156.5961 H   0  0  0  0  0  0  0  0  0  0  0  0
  150.4789  139.1100  156.8721 H   0  0  0  0  0  0  0  0  0  0  0  0
  148.7330  140.0453  155.7394 H   0  0  0  0  0  0  0  0  0  0  0  0
  149.5736  139.1168  152.9392 H   0  0  0  0  0  0  0  0  0  0  0  0
  149.1260  138.0646  154.2588 H   0  0  0  0  0  0  0  0  0  0  0  0
  147.2389  138.3529  152.6667 H   0  0  0  0  0  0  0  0  0  0  0  0
  146.8219  138.9391  154.2590 H   0  0  0  0  0  0  0  0  0  0  0  0
  147.6792  140.6516  151.8751 H   0  0  0  0  0  0  0  0  0  0  0  0
  146.0720  140.5654  152.5556 H   0  0  0  0  0  0  0  0  0  0  0  0
  147.2990  142.6065  153.3343 H   0  0  0  0  0  0  0  0  0  0  0  0
  146.8530  141.5733  154.6715 H   0  0  0  0  0  0  0  0  0  0  0  0
  149.1896  142.3279  154.9464 H   0  0  0  0  0  0  0  0  0  0  0  0
  149.6081  141.7368  153.3564 H   0  0  0  0  0  0  0  0  0  0  0  0
  152.4870  141.2986  158.0313 H   0  0  0  0  0  0  0  0  0  0  0  0
  149.8273  143.6985  157.7575 H   0  0  0  0  0  0  0  0  0  0  0  0
  149.6352  145.7265  159.2083 H   0  0  0  0  0  0  0  0  0  0  0  0
  152.7389  144.4871  161.6357 H   0  0  0  0  0  0  0  0  0  0  0  0
  1  2  2  0  0  0  0
  2  3  1  0  0  0  0
  2 11  1  0  0  0  0
  3  4  1  0  0  0  0
  3 19  1  0  0  0  0
  3 20  1  0  0  0  0
  4  5  1  0  0  0  0
  5 10  1  0  0  0  0
  5  6  1  0  0  0  0
  5 21  1  0  0  0  0
  6  7  1  0  0  0  0
  6 22  1  0  0  0  0
  6 23  1  0  0  0  0
  7  8  1  0  0  0  0
  7 24  1  0  0  0  0
  7 25  1  0  0  0  0
  8  9  1  0  0  0  0
  8 26  1  0  0  0  0
  8 27  1  0  0  0  0
  9 10  1  0  0  0  0
  9 28  1  0  0  0  0
  9 29  1  0  0  0  0
 10 30  1  0  0  0  0
 10 31  1  0  0  0  0
 11 12  1  0  0  0  0
 11 32  1  0  0  0  0
 12 17  1  0  0  0  0
 12 13  2  0  0  0  0
 13 14  1  0  0  0  0
 13 33  1  0  0  0  0
 14 15  2  0  0  0  0
 14 34  1  0  0  0  0
 15 16  1  0  0  0  0
 16 17  2  0  0  0  0
 16 35  1  0  0  0  0
 17 18  1  0  0  0  0
M  END
> <s_m_source_file>
AV-unprocessed.smi

> <i_m_source_file_index>
3302

> <i_lp_mmshare_version>
43012

> <i_f3d_flags>
0

> <s_epik_input>
RmMxW2NIXW5bY0hdW2NIXWMxW05IXUMoPU8pW0NIMl1PW0NIXTJbQ0gyXVtDSDJdW0NIMl1bQ0gyXVtDSDJdMg==

> <s_epik_cmdline>
J2VwaWtfcHl0aG9uJywgJy1waCcsICc3LjAnLCAnLXRuJywgJzgnLCAnLW1hJywgJzIwMCcsICctbWV0YWxfYmluZGluZycsICctaW1hZScsICc8aW5maWxlLm1hZT4nLCAnLW9tYWUnLCAnPG91dGZpbGUubWFlPic=

> <r_lp_tautomer_probability>
1

> <r_epik_Ionization_Penalty>
0.000106646

> <r_epik_Ionization_Penalty_Charging>
0

> <r_epik_Ionization_Penalty_Neutral>
0.000106646

> <r_epik_State_Penalty>
-0

> <r_epik_Charging_Adjusted_Penalty>
0

> <i_epik_Tot_Q>
0

> <i_epik_Tot_abs_Q>
0

> <r_epik_Metal_State_Penalty>
-0

> <b_epik_Metal_Only>
0

> <s_lp_Force_Field>
OPLS_2005

> <r_lp_Energy>
19.2883

> <b_lp_Chiralities_Consistent>
1

> <s_lp_Variant>
AV-unprocessed.smi:3302-1

> <Gold.Version>
5.8.1

> <Gold.Id.Protein>
6NUR|6NUR_protein|mol2

> <Gold.PLP.Fitness>
41.3442

> <Gold.PLP.PLP>
-37.1749

> <Gold.PLP.part.hbond>
-1.0000

> <Gold.PLP.part.metal>
0.0000

> <Gold.PLP.part.buried>
-2.4444

> <Gold.PLP.part.nonpolar>
-34.2840

> <Gold.PLP.part.repulsive>
0.4380

> <Gold.PLP.ligand.clash>
0.0000

> <Gold.PLP.ligand.torsion>
0.9985

> <Gold.PLP.Chemscore.Hbond>
1.0000

> <Gold.PLP.Chemscore.CHOScore>
0.9836

> <Gold.PLP.Chemscore.Metal>
0.0000

> <Gold.Chemscore.Hbonds>
donor molecule, donor type, donor heavy atom, donor atom, acceptor molecule, acceptor atom, score
      P1  H  7989  7998       L1     4  1.00
      L1  C    14    34       P1  8029  0.83

> <Gold.PLP.Chemscore.Internal.Correction>
0.2154

> <Gold.Rescore>
     Score         DG    S(hbond)    S(metal)    S(lipo)     H(rot)  DE(clash)    DE(int)     intcor
     13.00     -16.68       0.97        0.00      99.31       1.42       0.05       3.64       ----

> <Gold.Chemscore.Fitness>
12.9977

> <Gold.Chemscore.DG>
-16.6843

> <Gold.Chemscore.ZeroCoef>
-5.4800

> <Gold.Chemscore.Hbond>
0.9676

> <Gold.Chemscore.Metal>
0.0000

> <Gold.Chemscore.Lipo>
99.3115

> <Gold.Chemscore.Internal_Hbond>
0.0000

> <Gold.Chemscore.DEClash>
0.0510

> <Gold.Chemscore.DEInternal>
3.6356

> <Gold.Chemscore.Rot>
1.4245

> <Gold.Chemscore.Internal.Correction>
   9.000000E+99

> <Gold.Chemscore.Hbonds>
donor molecule, donor type, donor heavy atom, donor atom, acceptor molecule, acceptor atom, score
      P1  H  7989  7998       L1     4  0.63

> <Gold.Chemscore.Hbond.Weighted>
-3.2317

> <Gold.Chemscore.Metal.Weighted>
-0.0000

> <Gold.Chemscore.Lipo.Weighted>
-11.6194

> <Gold.Chemscore.Internal_Hbond.Weighted>
0.0000

> <Gold.Chemscore.DEClash.Weighted>
0.0510

> <Gold.Chemscore.DEInternal.Weighted>
3.6356

> <Gold.Chemscore.Rot.Weighted>
3.6468

> <Gold.Chemscore.Internal.Correction.Weighted>
   9.000000E+99

> <Gold.Protein.RotatedTorsions>
[ 6907 6896 6895 6894 ] final  164.50 input  -60.11 | X-H torsion
[ 7974 7965 7964 7962 ] final  -89.52 input  175.53 | X-H torsion
[ 8008 7997 7996 7995 ] final   88.37 input   59.86 | X-H torsion
[ 10167 10162 10161 10158 ] final  163.91 input  -65.29 | X-H torsion
[ 10718 10713 10712 10709 ] final  -75.85 input   66.30 | X-H torsion
[ 10763 10752 10751 10750 ] final  -53.90 input  -60.55 | X-H torsion
[ 11005 11000 10999 10996 ] final  133.10 input  -57.11 | X-H torsion

> <Gold.Protein.ActiveResidues>
 VAL166  LYS551  ARG553  GLY616  TRP617  ASP618  TYR619  PRO620  LYS621  CYS622 
 ASP623  PHE694  ASN695  SER759  ASP760  ASP761  ALA762  ILE779  LEU786  VAL792 
 PHE793  MET794  SER795  GLU796  ALA797  LYS798  CYS799  TRP800  GLU811  SER814 

> <Gold.Protein.RotatedAtoms>
  151.9088  133.3556  159.3856 H   0  0  0  0  0  0  0  0  0  0  0  0  # atno 6907 bound_to 6896
  150.7063  134.4753  159.5454 H   0  0  0  0  0  0  0  0  0  0  0  0  # atno 6908 bound_to 6896
  152.2355  134.8280  160.0518 H   0  0  0  0  0  0  0  0  0  0  0  0  # atno 6909 bound_to 6896
  145.4387  140.9558  143.2087 H   0  0  0  0  0  0  0  0  0  0  0  0  # atno 7974 bound_to 7965
  155.9869  140.3372  155.6716 H   0  0  0  0  0  0  0  0  0  0  0  0  # atno 8008 bound_to 7997
  155.6473  140.0702  157.2616 H   0  0  0  0  0  0  0  0  0  0  0  0  # atno 8009 bound_to 7997
  154.4208  140.1732  156.1624 H   0  0  0  0  0  0  0  0  0  0  0  0  # atno 8010 bound_to 7997
  139.4881  144.4289  151.9094 H   0  0  0  0  0  0  0  0  0  0  0  0  # atno 10167 bound_to 10162
  156.0194  130.4451  150.3104 H   0  0  0  0  0  0  0  0  0  0  0  0  # atno 10718 bound_to 10713
  154.1662  135.6466  153.4998 H   0  0  0  0  0  0  0  0  0  0  0  0  # atno 10763 bound_to 10752
  153.0097  135.5372  154.6660 H   0  0  0  0  0  0  0  0  0  0  0  0  # atno 10764 bound_to 10752
  154.5987  135.2941  155.0531 H   0  0  0  0  0  0  0  0  0  0  0  0  # atno 10765 bound_to 10752
  139.9831  134.9541  156.9677 H   0  0  0  0  0  0  0  0  0  0  0  0  # atno 11005 bound_to 11000
  144.8135  139.5918  143.7019 LP  0  0  0  0  0  0  0  0  0  0  0  0  # atno 17320 bound_to 7965
  146.2568  139.6320  142.9389 LP  0  0  0  0  0  0  0  0  0  0  0  0  # atno 17321 bound_to 7965
  140.3736  144.2824  150.5917 LP  0  0  0  0  0  0  0  0  0  0  0  0  # atno 17342 bound_to 10162
  140.5296  143.2246  151.8259 LP  0  0  0  0  0  0  0  0  0  0  0  0  # atno 17343 bound_to 10162
  157.1206  131.0245  151.3011 LP  0  0  0  0  0  0  0  0  0  0  0  0  # atno 17370 bound_to 10713
  157.4631  130.7665  149.7254 LP  0  0  0  0  0  0  0  0  0  0  0  0  # atno 17371 bound_to 10713
  140.5057  134.1053  155.7259 LP  0  0  0  0  0  0  0  0  0  0  0  0  # atno 17394 bound_to 11000
  141.1500  133.8986  157.2121 LP  0  0  0  0  0  0  0  0  0  0  0  0  # atno 17395 bound_to 11000

$$$$
