AV-unprocessed.smi:3232|AV-procd|sdf|12340|dock3
  -GOLD-   2272018203D 1   1.00000     0.00000
 Structure written by MMmdl.
 40 41  0  0  0  0  0  0  0  0  2 V2000
  145.8045  135.0540  152.1828 C   0  0  0  0  0  0  0  0  0  0  0  0
  144.9299  134.2859  153.1845 C   0  0  0  0  0  0  0  0  0  0  0  0
  144.5802  132.9235  152.7016 N   0  3  1  0  0  0  0  0  0  0  0  0
  143.7962  132.9061  151.4443 C   0  0  0  0  0  0  0  0  0  0  0  0
  144.0808  131.5566  150.7960 C   0  0  0  0  0  0  0  0  0  0  0  0
  145.5450  131.3383  151.1419 C   0  0  0  0  0  0  0  0  0  0  0  0
  145.6846  131.9244  152.5579 C   0  0  1  0  0  0  0  0  0  0  0  0
  147.1147  132.4241  152.8864 C   0  0  0  0  0  0  0  0  0  0  0  0
  148.0740  131.3243  152.8837 N   0  0  0  0  0  0  0  0  0  0  0  0
  148.4184  130.5850  153.9511 C   0  0  0  0  0  0  0  0  0  0  0  0
  147.8855  130.7084  155.0544 O   0  0  0  0  0  0  0  0  0  0  0  0
  149.5579  129.5765  153.7350 C   0  0  2  0  0  0  0  0  0  0  0  0
  149.1113  128.1125  153.9228 C   0  0  0  0  0  0  0  0  0  0  0  0
  150.6897  129.9159  154.5894 N   0  0  0  0  0  0  0  0  0  0  0  0
  151.9036  129.3661  154.6643 C   0  0  0  0  0  0  0  0  0  0  0  0
  152.7161  129.9687  155.5208 N   0  0  0  0  0  0  0  0  0  0  0  0
  151.8837  130.9537  155.9707 C   0  0  0  0  0  0  0  0  0  0  0  0
  150.6632  130.9757  155.4359 N   0  0  0  0  0  0  0  0  0  0  0  0
  145.9800  136.0727  152.5295 H   0  0  0  0  0  0  0  0  0  0  0  0
  145.3245  135.1164  151.2057 H   0  0  0  0  0  0  0  0  0  0  0  0
  146.7797  134.5845  152.0509 H   0  0  0  0  0  0  0  0  0  0  0  0
  145.4348  134.2267  154.1497 H   0  0  0  0  0  0  0  0  0  0  0  0
  144.0181  134.8644  153.3300 H   0  0  0  0  0  0  0  0  0  0  0  0
  142.7326  133.0592  151.6290 H   0  0  0  0  0  0  0  0  0  0  0  0
  144.1418  133.7030  150.7834 H   0  0  0  0  0  0  0  0  0  0  0  0
  143.4669  130.7800  151.2542 H   0  0  0  0  0  0  0  0  0  0  0  0
  143.8918  131.5521  149.7221 H   0  0  0  0  0  0  0  0  0  0  0  0
  145.8400  130.2895  151.0861 H   0  0  0  0  0  0  0  0  0  0  0  0
  146.1638  131.8962  150.4377 H   0  0  0  0  0  0  0  0  0  0  0  0
  145.4411  131.1308  153.2658 H   0  0  0  0  0  0  0  0  0  0  0  0
  147.4248  133.2071  152.1928 H   0  0  0  0  0  0  0  0  0  0  0  0
  147.1454  132.8594  153.8850 H   0  0  0  0  0  0  0  0  0  0  0  0
  148.5557  131.1454  152.0144 H   0  0  0  0  0  0  0  0  0  0  0  0
  149.8910  129.6839  152.7015 H   0  0  0  0  0  0  0  0  0  0  0  0
  148.3018  127.8571  153.2382 H   0  0  0  0  0  0  0  0  0  0  0  0
  148.7603  127.9176  154.9371 H   0  0  0  0  0  0  0  0  0  0  0  0
  149.9353  127.4270  153.7226 H   0  0  0  0  0  0  0  0  0  0  0  0
  152.2029  128.5129  154.0732 H   0  0  0  0  0  0  0  0  0  0  0  0
  152.1896  131.6825  156.7070 H   0  0  0  0  0  0  0  0  0  0  0  0
  143.9725  132.5308  153.4064 H   0  0  0  0  0  0  0  0  0  0  0  0
  1  2  1  0  0  0  0
  1 19  1  0  0  0  0
  1 20  1  0  0  0  0
  1 21  1  0  0  0  0
  2  3  1  0  0  0  0
  2 22  1  0  0  0  0
  2 23  1  0  0  0  0
  3  7  1  0  0  0  0
  3  4  1  0  0  0  0
  3 40  1  0  0  0  0
  4  5  1  0  0  0  0
  4 24  1  0  0  0  0
  4 25  1  0  0  0  0
  5  6  1  0  0  0  0
  5 26  1  0  0  0  0
  5 27  1  0  0  0  0
  6  7  1  0  0  0  0
  6 28  1  0  0  0  0
  6 29  1  0  0  0  0
  7  8  1  0  0  0  0
  7 30  1  0  0  0  0
  8  9  1  0  0  0  0
  8 31  1  0  0  0  0
  8 32  1  0  0  0  0
  9 10  1  0  0  0  0
  9 33  1  0  0  0  0
 10 11  2  0  0  0  0
 10 12  1  0  0  0  0
 12 13  1  0  0  0  0
 12 14  1  0  0  0  0
 12 34  1  0  0  0  0
 13 35  1  0  0  0  0
 13 36  1  0  0  0  0
 13 37  1  0  0  0  0
 14 18  1  0  0  0  0
 14 15  1  0  0  0  0
 15 16  2  0  0  0  0
 15 38  1  0  0  0  0
 16 17  1  0  0  0  0
 17 18  2  0  0  0  0
 17 39  1  0  0  0  0
M  CHG  1   3   1
M  END
> <s_m_source_file>
AV-unprocessed.smi

> <i_m_source_file_index>
3232

> <i_lp_mmshare_version>
43012

> <i_f3d_flags>
0

> <s_epik_input>
W0NIM11bQ0gyXU4xW0NIMl1bQ0gyXVtDSDJdW0NASF0xW0NIMl1bTkhdQyg9TylbQ0BIXShbQ0gzXSluMltjSF1uW2NIXW4y

> <s_epik_cmdline>
J2VwaWtfcHl0aG9uJywgJy1waCcsICc3LjAnLCAnLXRuJywgJzgnLCAnLW1hJywgJzIwMCcsICctbWV0YWxfYmluZGluZycsICctaW1hZScsICc8aW5maWxlLm1hZT4nLCAnLW9tYWUnLCAnPG91dGZpbGUubWFlPic=

> <r_lp_tautomer_probability>
1

> <r_epik_Ionization_Penalty>
0.00177695

> <r_epik_Ionization_Penalty_Charging>
0.00176881

> <r_epik_Ionization_Penalty_Neutral>
8.13528e-06

> <r_epik_State_Penalty>
0.00119827

> <r_epik_Charging_Adjusted_Penalty>
0.00296709

> <i_epik_Tot_Q>
1

> <i_epik_Tot_abs_Q>
1

> <r_epik_Metal_State_Penalty>
-0

> <b_epik_Metal_Only>
0

> <s_lp_Force_Field>
OPLS_2005

> <r_lp_Energy>
36.2264

> <b_lp_Chiralities_Consistent>
1

> <s_lp_Variant>
AV-unprocessed.smi:3232-2

> <Gold.Version>
5.8.1

> <Gold.Id.Protein>
6NUR|6NUR_protein|mol2

> <Gold.PLP.Fitness>
40.7558

> <Gold.PLP.PLP>
-29.1986

> <Gold.PLP.part.hbond>
-1.9502

> <Gold.PLP.part.metal>
0.0000

> <Gold.PLP.part.buried>
-5.8292

> <Gold.PLP.part.nonpolar>
-22.4296

> <Gold.PLP.part.repulsive>
0.0346

> <Gold.PLP.ligand.clash>
0.0000

> <Gold.PLP.ligand.torsion>
0.2667

> <Gold.PLP.Chemscore.Hbond>
2.9825

> <Gold.PLP.Chemscore.CHOScore>
0.9994

> <Gold.PLP.Chemscore.Metal>
0.0000

> <Gold.Chemscore.Hbonds>
donor molecule, donor type, donor heavy atom, donor atom, acceptor molecule, acceptor atom, score
      L1  H     3    40       P1 10957  1.98
      L1  H     9    33       P1 10747  1.00
      L1  C    15    38       P1 10737  1.00

> <Gold.PLP.Chemscore.Internal.Correction>
0.1451

> <Gold.Rescore>
     Score         DG    S(hbond)    S(metal)    S(lipo)     H(rot)  DE(clash)    DE(int)     intcor
      9.09     -10.99       1.88        0.00      47.83       2.49       0.05       1.85       ----

> <Gold.Chemscore.Fitness>
9.0894

> <Gold.Chemscore.DG>
-10.9862

> <Gold.Chemscore.ZeroCoef>
-5.4800

> <Gold.Chemscore.Hbond>
1.8803

> <Gold.Chemscore.Metal>
0.0000

> <Gold.Chemscore.Lipo>
47.8258

> <Gold.Chemscore.Internal_Hbond>
0.0000

> <Gold.Chemscore.DEClash>
0.0456

> <Gold.Chemscore.DEInternal>
1.8511

> <Gold.Chemscore.Rot>
2.4882

> <Gold.Chemscore.Internal.Correction>
   9.000000E+99

> <Gold.Chemscore.Hbonds>
donor molecule, donor type, donor heavy atom, donor atom, acceptor molecule, acceptor atom, score
      L1  H     3    40       P1 10957  0.24
      L1  H     9    33       P1 10747  0.97

> <Gold.Chemscore.Hbond.Weighted>
-6.2803

> <Gold.Chemscore.Metal.Weighted>
-0.0000

> <Gold.Chemscore.Lipo.Weighted>
-5.5956

> <Gold.Chemscore.Internal_Hbond.Weighted>
0.0000

> <Gold.Chemscore.DEClash.Weighted>
0.0456

> <Gold.Chemscore.DEInternal.Weighted>
1.8511

> <Gold.Chemscore.Rot.Weighted>
6.3697

> <Gold.Chemscore.Internal.Correction.Weighted>
   9.000000E+99

> <Gold.Protein.RotatedTorsions>
[ 6907 6896 6895 6894 ] final  -86.10 input  -60.11 | X-H torsion
[ 7974 7965 7964 7962 ] final  160.64 input  175.53 | X-H torsion
[ 8008 7997 7996 7995 ] final  -16.94 input   59.86 | X-H torsion
[ 10167 10162 10161 10158 ] final -146.39 input  -65.29 | X-H torsion
[ 10718 10713 10712 10709 ] final   78.52 input   66.30 | X-H torsion
[ 10763 10752 10751 10750 ] final  151.28 input  -60.55 | X-H torsion
[ 11005 11000 10999 10996 ] final   14.17 input  -57.11 | X-H torsion

> <Gold.Protein.ActiveResidues>
 VAL166  LYS551  ARG553  GLY616  TRP617  ASP618  TYR619  PRO620  LYS621  CYS622 
 ASP623  PHE694  ASN695  SER759  ASP760  ASP761  ALA762  ILE779  LEU786  VAL792 
 PHE793  MET794  SER795  GLU796  ALA797  LYS798  CYS799  TRP800  GLU811  SER814 

> <Gold.Protein.RotatedAtoms>
  150.6868  134.3103  159.4743 H   0  0  0  0  0  0  0  0  0  0  0  0  # atno 6907 bound_to 6896
  152.0990  134.9352  160.0579 H   0  0  0  0  0  0  0  0  0  0  0  0  # atno 6908 bound_to 6896
  152.0639  133.4040  159.4467 H   0  0  0  0  0  0  0  0  0  0  0  0  # atno 6909 bound_to 6896
  144.7726  139.7786  143.6291 H   0  0  0  0  0  0  0  0  0  0  0  0  # atno 7974 bound_to 7965
  154.5015  140.2156  155.9337 H   0  0  0  0  0  0  0  0  0  0  0  0  # atno 8008 bound_to 7997
  156.1440  140.3174  155.8507 H   0  0  0  0  0  0  0  0  0  0  0  0  # atno 8009 bound_to 7997
  155.4067  140.0488  157.3024 H   0  0  0  0  0  0  0  0  0  0  0  0  # atno 8010 bound_to 7997
  139.7717  143.8228  152.2625 H   0  0  0  0  0  0  0  0  0  0  0  0  # atno 10167 bound_to 10162
  157.6747  130.9872  150.1799 H   0  0  0  0  0  0  0  0  0  0  0  0  # atno 10718 bound_to 10713
  154.1012  135.2845  155.3251 H   0  0  0  0  0  0  0  0  0  0  0  0  # atno 10763 bound_to 10752
  154.6554  135.5354  153.7956 H   0  0  0  0  0  0  0  0  0  0  0  0  # atno 10764 bound_to 10752
  153.0378  135.6520  154.1175 H   0  0  0  0  0  0  0  0  0  0  0  0  # atno 10765 bound_to 10752
  140.4725  134.1017  155.7735 H   0  0  0  0  0  0  0  0  0  0  0  0  # atno 11005 bound_to 11000
  146.1884  139.5111  142.9821 LP  0  0  0  0  0  0  0  0  0  0  0  0  # atno 17320 bound_to 7965
  145.6278  141.0310  143.1879 LP  0  0  0  0  0  0  0  0  0  0  0  0  # atno 17321 bound_to 7965
  139.8264  144.7273  150.9506 LP  0  0  0  0  0  0  0  0  0  0  0  0  # atno 17342 bound_to 10162
  140.7814  143.4110  151.0992 LP  0  0  0  0  0  0  0  0  0  0  0  0  # atno 17343 bound_to 10162
  156.2534  130.3703  149.8208 LP  0  0  0  0  0  0  0  0  0  0  0  0  # atno 17370 bound_to 10713
  156.5974  130.8532  151.3423 LP  0  0  0  0  0  0  0  0  0  0  0  0  # atno 17371 bound_to 10713
  141.1570  133.8864  157.1950 LP  0  0  0  0  0  0  0  0  0  0  0  0  # atno 17394 bound_to 11000
  139.9876  135.0076  156.9900 LP  0  0  0  0  0  0  0  0  0  0  0  0  # atno 17395 bound_to 11000

$$$$
