AV-unprocessed.smi:2527|AV-procd|sdf|9947|dock2
  -GOLD-   2272013583D 1   1.00000     0.00000
 Structure written by MMmdl.
 36 38  0  0  0  0  0  0  0  0  3 V2000
  151.0439  137.5037  154.4255 C   0  0  0  0  0  0  0  0  0  0  0  0
  152.3667  137.8571  154.7890 O   0  0  0  0  0  0  0  0  0  0  0  0
  152.4905  139.2303  155.1231 C   0  0  0  0  0  0  0  0  0  0  0  0
  151.9009  139.4851  156.5176 C   0  0  0  0  0  0  0  0  0  0  0  0
  151.2761  140.8118  156.6232 N   0  0  0  0  0  0  0  0  0  0  0  0
  150.2908  141.3799  155.8733 C   0  0  0  0  0  0  0  0  0  0  0  0
  149.4646  140.6365  154.5040 S   0  0  0  0  0  0  0  0  0  0  0  0
  148.0219  141.6852  154.1757 C   0  0  0  0  0  0  0  0  0  0  0  0
  147.0766  141.7987  155.3359 C   0  0  0  0  0  0  0  0  0  0  0  0
  147.3639  141.1402  156.4899 N   0  5  0  0  0  0  0  0  0  0  0  0
  146.3382  141.4556  157.3010 C   0  0  0  0  0  0  0  0  0  0  0  0
  146.1227  141.1143  158.4618 O   0  0  0  0  0  0  0  0  0  0  0  0
  145.5274  142.2548  156.6038 N   0  0  0  0  0  0  0  0  0  0  0  0
  145.9895  142.4749  155.3617 N   0  0  0  0  0  0  0  0  0  0  0  0
  150.0561  142.6242  156.3741 N   0  3  0  0  0  0  0  0  0  0  0  0
  150.8989  142.8551  157.4629 C   0  0  0  0  0  0  0  0  0  0  0  0
  151.0283  143.9627  158.2952 C   0  0  0  0  0  0  0  0  0  0  0  0
  151.9875  143.8742  159.3257 C   0  0  0  0  0  0  0  0  0  0  0  0
  152.2015  145.2083  160.3982 Cl  0  0  0  0  0  0  0  0  0  0  0  0
  152.7729  142.7153  159.4966 C   0  0  0  0  0  0  0  0  0  0  0  0
  152.6344  141.5985  158.6466 C   0  0  0  0  0  0  0  0  0  0  0  0
  151.6845  141.6950  157.6297 C   0  0  0  0  0  0  0  0  0  0  0  0
  144.6634  142.6789  156.9078 H   0  0  0  0  0  0  0  0  0  0  0  0
  151.0032  136.4432  154.1774 H   0  0  0  0  0  0  0  0  0  0  0  0
  150.7104  138.0671  153.5531 H   0  0  0  0  0  0  0  0  0  0  0  0
  150.3485  137.6845  155.2461 H   0  0  0  0  0  0  0  0  0  0  0  0
  153.5409  139.5242  155.1077 H   0  0  0  0  0  0  0  0  0  0  0  0
  151.9702  139.8423  154.3843 H   0  0  0  0  0  0  0  0  0  0  0  0
  151.1707  138.7204  156.7818 H   0  0  0  0  0  0  0  0  0  0  0  0
  152.6874  139.4286  157.2707 H   0  0  0  0  0  0  0  0  0  0  0  0
  148.3767  142.6773  153.8949 H   0  0  0  0  0  0  0  0  0  0  0  0
  147.4979  141.2886  153.3051 H   0  0  0  0  0  0  0  0  0  0  0  0
  150.4257  144.8498  158.1659 H   0  0  0  0  0  0  0  0  0  0  0  0
  153.4972  142.6801  160.2975 H   0  0  0  0  0  0  0  0  0  0  0  0
  153.2378  140.7149  158.7924 H   0  0  0  0  0  0  0  0  0  0  0  0
  149.3697  143.2641  155.9954 H   0  0  0  0  0  0  0  0  0  0  0  0
  1  2  1  0  0  0  0
  1 24  1  0  0  0  0
  1 25  1  0  0  0  0
  1 26  1  0  0  0  0
  2  3  1  0  0  0  0
  3  4  1  0  0  0  0
  3 27  1  0  0  0  0
  3 28  1  0  0  0  0
  4  5  1  0  0  0  0
  4 29  1  0  0  0  0
  4 30  1  0  0  0  0
  5 22  1  0  0  0  0
  5  6  1  0  0  0  0
  6  7  1  0  0  0  0
  6 15  2  0  0  0  0
  7  8  1  0  0  0  0
  8 31  1  0  0  0  0
  8 32  1  0  0  0  0
  8  9  1  0  0  0  0
  9 14  2  0  0  0  0
  9 10  1  0  0  0  0
 10 11  1  0  0  0  0
 11 13  1  0  0  0  0
 11 12  2  0  0  0  0
 13 14  1  0  0  0  0
 13 23  1  0  0  0  0
 15 16  1  0  0  0  0
 15 36  1  0  0  0  0
 16 22  2  0  0  0  0
 16 17  1  0  0  0  0
 17 18  2  0  0  0  0
 17 33  1  0  0  0  0
 18 19  1  0  0  0  0
 18 20  1  0  0  0  0
 20 21  2  0  0  0  0
 20 34  1  0  0  0  0
 21 22  1  0  0  0  0
 21 35  1  0  0  0  0
M  CHG  1  10  -1
M  CHG  1  15   1
M  END
> <s_m_source_file>
AV-unprocessed.smi

> <i_m_source_file_index>
2527

> <i_lp_mmshare_version>
43012

> <i_f3d_flags>
0

> <s_epik_input>
W2NIXTFjKENsKVtjSF1bY0hdYyhjMTIpbihbQ0gyXVtDSDJdT1tDSDNdKWMobjIpU1tDSDJdYzNuYyg9TylbbkhdW25IXTM=

> <s_epik_cmdline>
J2VwaWtfcHl0aG9uJywgJy1waCcsICc3LjAnLCAnLXRuJywgJzgnLCAnLW1hJywgJzIwMCcsICctbWV0YWxfYmluZGluZycsICctaW1hZScsICc8aW5maWxlLm1hZT4nLCAnLW9tYWUnLCAnPG91dGZpbGUubWFlPic=

> <r_lp_tautomer_probability>
0.999897

> <r_epik_Ionization_Penalty>
3.64286

> <r_epik_Ionization_Penalty_Charging>
2.48685

> <r_epik_Ionization_Penalty_Neutral>
1.15601

> <r_epik_State_Penalty>
3.71863

> <r_epik_Charging_Adjusted_Penalty>
6.20549

> <i_epik_Tot_Q>
0

> <i_epik_Tot_abs_Q>
2

> <r_epik_Metal_State_Penalty>
2.92967

> <b_epik_Metal_Only>
1

> <s_lp_Force_Field>
OPLS_2005

> <r_lp_Energy>
23.3692

> <b_lp_Chiralities_Consistent>
1

> <s_lp_Variant>
AV-unprocessed.smi:2527-6

> <Gold.Version>
5.8.1

> <Gold.Id.Protein>
6NUR|6NUR_protein|mol2

> <Gold.PLP.Fitness>
50.5607

> <Gold.PLP.PLP>
-44.9099

> <Gold.PLP.part.hbond>
-2.6756

> <Gold.PLP.part.metal>
0.0000

> <Gold.PLP.part.buried>
-5.5601

> <Gold.PLP.part.nonpolar>
-36.7008

> <Gold.PLP.part.repulsive>
0.3747

> <Gold.PLP.ligand.clash>
0.0000

> <Gold.PLP.ligand.torsion>
0.4531

> <Gold.PLP.Chemscore.Hbond>
2.1539

> <Gold.PLP.Chemscore.CHOScore>
0.0000

> <Gold.PLP.Chemscore.Metal>
0.0000

> <Gold.Chemscore.Hbonds>
donor molecule, donor type, donor heavy atom, donor atom, acceptor molecule, acceptor atom, score
      L1  H    15    36       P1  8028  2.00
      P1  H  6934  6946       L1    12  0.07
      P1  H 10752 10765       L1     2  0.08

> <Gold.PLP.Chemscore.Internal.Correction>
0.0953

> <Gold.Rescore>
     Score         DG    S(hbond)    S(metal)    S(lipo)     H(rot)  DE(clash)    DE(int)     intcor
     13.58     -14.31       0.99        0.00     110.14       2.88       0.28       0.46       ----

> <Gold.Chemscore.Fitness>
13.5774

> <Gold.Chemscore.DG>
-14.3125

> <Gold.Chemscore.ZeroCoef>
-5.4800

> <Gold.Chemscore.Hbond>
0.9912

> <Gold.Chemscore.Metal>
0.0000

> <Gold.Chemscore.Lipo>
110.1434

> <Gold.Chemscore.Internal_Hbond>
0.0000

> <Gold.Chemscore.DEClash>
0.2765

> <Gold.Chemscore.DEInternal>
0.4586

> <Gold.Chemscore.Rot>
2.8770

> <Gold.Chemscore.Internal.Correction>
   9.000000E+99

> <Gold.Chemscore.Hbonds>
donor molecule, donor type, donor heavy atom, donor atom, acceptor molecule, acceptor atom, score
      L1  H    15    36       P1  8028  0.92
      P1  H  6934  6946       L1    12  0.08

> <Gold.Chemscore.Hbond.Weighted>
-3.3107

> <Gold.Chemscore.Metal.Weighted>
-0.0000

> <Gold.Chemscore.Lipo.Weighted>
-12.8868

> <Gold.Chemscore.Internal_Hbond.Weighted>
0.0000

> <Gold.Chemscore.DEClash.Weighted>
0.2765

> <Gold.Chemscore.DEInternal.Weighted>
0.4586

> <Gold.Chemscore.Rot.Weighted>
7.3650

> <Gold.Chemscore.Internal.Correction.Weighted>
   9.000000E+99

> <Gold.Protein.RotatedTorsions>
[ 6907 6896 6895 6894 ] final   77.77 input  -60.11 | X-H torsion
[ 7974 7965 7964 7962 ] final  -24.10 input  175.53 | X-H torsion
[ 8008 7997 7996 7995 ] final  119.09 input   59.86 | X-H torsion
[ 10167 10162 10161 10158 ] final  -44.40 input  -65.29 | X-H torsion
[ 10718 10713 10712 10709 ] final  -87.25 input   66.30 | X-H torsion
[ 10763 10752 10751 10750 ] final  163.67 input  -60.55 | X-H torsion
[ 11005 11000 10999 10996 ] final   26.84 input  -57.11 | X-H torsion

> <Gold.Protein.ActiveResidues>
 VAL166  LYS551  ARG553  GLY616  TRP617  ASP618  TYR619  PRO620  LYS621  CYS622 
 ASP623  PHE694  ASN695  SER759  ASP760  ASP761  ALA762  ILE779  LEU786  VAL792 
 PHE793  MET794  SER795  GLU796  ALA797  LYS798  CYS799  TRP800  GLU811  SER814 

> <Gold.Protein.RotatedAtoms>
  152.5132  134.3766  159.9336 H   0  0  0  0  0  0  0  0  0  0  0  0  # atno 6907 bound_to 6896
  151.3722  133.3844  159.2708 H   0  0  0  0  0  0  0  0  0  0  0  0  # atno 6908 bound_to 6896
  150.9569  134.8982  159.7765 H   0  0  0  0  0  0  0  0  0  0  0  0  # atno 6909 bound_to 6896
  146.1575  140.4706  142.8585 H   0  0  0  0  0  0  0  0  0  0  0  0  # atno 7974 bound_to 7965
  156.2579  140.2860  156.0938 H   0  0  0  0  0  0  0  0  0  0  0  0  # atno 8008 bound_to 7997
  155.1434  140.0396  157.2821 H   0  0  0  0  0  0  0  0  0  0  0  0  # atno 8009 bound_to 7997
  154.6513  140.2545  155.7217 H   0  0  0  0  0  0  0  0  0  0  0  0  # atno 8010 bound_to 7997
  140.6898  143.2932  151.3490 H   0  0  0  0  0  0  0  0  0  0  0  0  # atno 10167 bound_to 10162
  155.9986  130.4793  150.4839 H   0  0  0  0  0  0  0  0  0  0  0  0  # atno 10718 bound_to 10713
  154.2972  135.2760  155.2628 H   0  0  0  0  0  0  0  0  0  0  0  0  # atno 10763 bound_to 10752
  154.5080  135.5790  153.6586 H   0  0  0  0  0  0  0  0  0  0  0  0  # atno 10764 bound_to 10752
  152.9905  135.6174  154.3140 H   0  0  0  0  0  0  0  0  0  0  0  0  # atno 10765 bound_to 10752
  140.3327  134.2420  155.7700 H   0  0  0  0  0  0  0  0  0  0  0  0  # atno 11005 bound_to 11000
  144.7983  140.6164  143.6495 LP  0  0  0  0  0  0  0  0  0  0  0  0  # atno 17320 bound_to 7965
  145.4671  139.1507  143.3834 LP  0  0  0  0  0  0  0  0  0  0  0  0  # atno 17321 bound_to 7965
  139.6290  144.0758  152.2459 LP  0  0  0  0  0  0  0  0  0  0  0  0  # atno 17342 bound_to 10162
  140.0227  144.6141  150.7553 LP  0  0  0  0  0  0  0  0  0  0  0  0  # atno 17343 bound_to 10162
  157.2841  131.0613  151.2178 LP  0  0  0  0  0  0  0  0  0  0  0  0  # atno 17370 bound_to 10713
  157.3213  130.6939  149.6271 LP  0  0  0  0  0  0  0  0  0  0  0  0  # atno 17371 bound_to 10713
  141.2059  133.7847  157.0206 LP  0  0  0  0  0  0  0  0  0  0  0  0  # atno 17394 bound_to 11000
  140.0847  134.9627  157.1681 LP  0  0  0  0  0  0  0  0  0  0  0  0  # atno 17395 bound_to 11000

$$$$
