#       Name:                AV-unprocessed.smi:290
#       Creating user name   scv26
#       Creation time:       Thu Mar 26 22:09:15 2020


#       File generated by GOLD software.
#

@<TRIPOS>MOLECULE
AV-unprocessed.smi:290
    68    71     1
SMALL
NO_CHARGES


@<TRIPOS>ATOM
      1 ****        -3.0916  -3.4021   1.5826 C.3            1 S1                 0.0000
      2 ****        -4.0861  -2.4973   2.3196 C.3            1 S1                 0.0000
      3 ****        -5.2594  -3.2502   2.6004 O.3            1 S1                 0.0000
      4 ****        -6.3004  -2.3323   2.8707 C.3            1 S1                 0.0000
      5 ****        -6.1073  -1.3076   1.7639 C.3            1 S1                 0.0000
      6 ****        -4.5872  -1.2027   1.6086 C.3            1 S1                 0.0000
      7 ****        -4.1627  -0.0969   2.3853 O.3            1 S1                 0.0000
      8 ****        -4.2169  -0.9785   0.1114 C.3            1 S1                 0.0000
      9 ****        -2.8541  -0.5316  -0.1541 N.pl3          1 S1                 0.0000
     10 ****        -1.8192  -1.2854  -0.6573 C.2            1 S1                 0.0000
     11 ****        -0.6949  -0.6467  -0.8253 N.2            1 S1                 0.0000
     12 ****        -0.9785   0.6638  -0.4562 C.ar           1 S1                 0.0000
     13 ****        -0.2320   1.8812  -0.4070 C.ar           1 S1                 0.0000
     14 ****         1.0734   2.0275  -0.7605 N.pl3          1 S1                 0.0000
     15 ****         1.9196   2.9710  -0.0482 C.3            1 S1                 0.0000
     16 ****         3.2932   2.3151  -0.0105 C.3            1 S1                 0.0000
     17 ****         3.3411   1.4654  -1.2905 C.3            1 S1                 0.0000
     18 ****         4.3412   0.3591  -1.1833 N.4            1 S1                 1.0000
     19 ****         4.1891  -0.7148  -2.1955 C.3            1 S1                 0.0000
     20 ****         5.7457   0.8484  -1.1223 C.3            1 S1                 0.0000
     21 ****         6.6246  -0.0428  -0.2295 C.3            1 S1                 0.0000
     22 ****         6.2036   0.0607   1.1145 O.3            1 S1                 0.0000
     23 ****         1.8657   1.0114  -1.4480 C.3            1 S1                 0.0000
     24 ****         1.4163   0.8946  -2.9212 C.3            1 S1                 0.0000
     25 ****        -0.8863   2.9919   0.0231 N.ar           1 S1                 0.0000
     26 ****        -2.1737   2.9328   0.3714 C.ar           1 S1                 0.0000
     27 ****        -2.9875   1.8776   0.3722 N.ar           1 S1                 0.0000
     28 ****        -2.3402   0.7509  -0.0415 C.ar           1 S1                 0.0000
     29 ****         3.6071   2.1114  -2.1293 H              1 S1                 0.0000
     30 ****         1.7326   0.0660  -0.9234 H              1 S1                 0.0000
     31 ****        -2.1295  -2.9075   1.4614 H              1 S1                 0.0000
     32 ****        -3.4619  -3.7060   0.6040 H              1 S1                 0.0000
     33 ****        -2.9085  -4.3110   2.1560 H              1 S1                 0.0000
     34 ****        -3.6496  -2.2438   3.2880 H              1 S1                 0.0000
     35 ****        -7.2801  -2.8093   2.8401 H              1 S1                 0.0000
     36 ****        -6.1598  -1.8837   3.8554 H              1 S1                 0.0000
     37 ****        -6.5525  -1.7035   0.8499 H              1 S1                 0.0000
     38 ****        -6.5978  -0.3564   1.9761 H              1 S1                 0.0000
     39 ****        -4.4961   0.6942   1.9896 H              1 S1                 0.0000
     40 ****        -4.4138  -1.8776  -0.4729 H              1 S1                 0.0000
     41 ****        -4.8773  -0.2164  -0.3050 H              1 S1                 0.0000
     42 ****        -1.9202  -2.3337  -0.8970 H              1 S1                 0.0000
     43 ****         1.9508   3.9068  -0.6073 H              1 S1                 0.0000
     44 ****         1.5616   3.1851   0.9597 H              1 S1                 0.0000
     45 ****         4.0896   3.0559   0.0562 H              1 S1                 0.0000
     46 ****         3.3596   1.6716   0.8684 H              1 S1                 0.0000
     47 ****         4.2642  -0.3115  -3.2060 H              1 S1                 0.0000
     48 ****         3.2350  -1.2300  -2.0910 H              1 S1                 0.0000
     49 ****         4.9615  -1.4751  -2.0840 H              1 S1                 0.0000
     50 ****         6.1581   0.8953  -2.1312 H              1 S1                 0.0000
     51 ****         5.8013   1.8675  -0.7418 H              1 S1                 0.0000
     52 ****         6.6018  -1.0864  -0.5420 H              1 S1                 0.0000
     53 ****         7.6631   0.2840  -0.2889 H              1 S1                 0.0000
     54 ****         6.7897  -0.4483   1.6548 H              1 S1                 0.0000
     55 ****         1.9631   0.1283  -3.4660 H              1 S1                 0.0000
     56 ****         1.5615   1.8372  -3.4497 H              1 S1                 0.0000
     57 ****         0.3595   0.6427  -3.0027 H              1 S1                 0.0000
     58 ****        -2.6144   3.8645   0.6944 H              1 S1                 0.0000
     59 ****         4.1638  -0.0726  -0.2871 H              1 S1                 0.0000
     60 ****        -5.1063  -3.8365   3.3959 LP             1 S1                 0.0000
     61 ****        -5.4992  -3.8153   1.8110 LP             1 S1                 0.0000
     62 ****        -3.1634  -0.0662   2.4102 LP             1 S1                 0.0000
     63 ****        -4.5168  -0.1832   3.3165 LP             1 S1                 0.0000
     64 ****         0.1766  -1.0165  -1.1476 LP             1 S1                 0.0000
     65 ****         5.2720  -0.2916   1.2036 LP             1 S1                 0.0000
     66 ****         6.2268   1.0182   1.4019 LP             1 S1                 0.0000
     67 ****        -0.3981   3.8629   0.0793 LP             1 S1                 0.0000
     68 ****        -3.9500   1.9081   0.6417 LP             1 S1                 0.0000
@<TRIPOS>BOND
    1    1    2 1     
    2    1   31 1     
    3    1   32 1     
    4    1   33 1     
    5    2    6 1     
    6    2    3 1     
    7    2   34 1     
    8    3    4 1     
    9    4    5 1     
   10    4   35 1     
   11    4   36 1     
   12    5    6 1     
   13    5   37 1     
   14    5   38 1     
   15    6    7 1     
   16    6    8 1     
   17    7   39 1     
   18    8    9 1     
   19    8   40 1     
   20    8   41 1     
   21    9   28 1     
   22    9   10 1     
   23   10   11 2     
   24   10   42 1     
   25   11   12 1     
   26   12   28 ar    
   27   12   13 ar    
   28   13   14 1     
   29   13   25 ar    
   30   14   23 1     
   31   14   15 1     
   32   15   16 1     
   33   15   43 1     
   34   15   44 1     
   35   16   17 1     
   36   16   45 1     
   37   16   46 1     
   38   17   29 1     
   39   17   18 1     
   40   17   23 1     
   41   18   19 1     
   42   18   20 1     
   43   18   59 1     
   44   19   47 1     
   45   19   48 1     
   46   19   49 1     
   47   20   21 1     
   48   20   50 1     
   49   20   51 1     
   50   21   22 1     
   51   21   52 1     
   52   21   53 1     
   53   22   54 1     
   54   23   30 1     
   55   23   24 1     
   56   24   55 1     
   57   24   56 1     
   58   24   57 1     
   59   25   26 ar    
   60   26   27 ar    
   61   26   58 1     
   62   27   28 ar    
   63    3   60 1     
   64    3   61 1     
   65    7   62 1     
   66    7   63 1     
   67   11   64 1     
   68   22   65 1     
   69   22   66 1     
   70   25   67 1     
   71   27   68 1     
@<TRIPOS>SUBSTRUCTURE
      1 S1             1
@<TRIPOS>SET
LONE_PAIRS      STATIC     ATOMS    <user>   **** ""
9 60 61 62 63 64 65 66 67 68
DONOR_HYDROGENS      STATIC     ATOMS    <user>   **** ""
3 39 59 54
ATOM$BLUE        STATIC     ATOMS    COLORGROUP SYSTEM
9 60 61 62 63 64 65 66 67 68
ATOM$RED        STATIC     ATOMS    COLORGROUP SYSTEM
3 39 59 54
