AV-unprocessed.smi:1401|AV-procd|sdf|5694|dock7
  -GOLD-   22720 5323D 1   1.00000     0.00000
 Structure written by MMmdl.
 48 50  0  0  0  0  0  0  0  0  1 V2000
  148.1724  140.4885  157.0304 C   0  0  0  0  0  0  0  0  0  0  0  0
  149.0977  139.4618  156.4357 C   0  0  0  0  0  0  0  0  0  0  0  0
  148.7272  138.2272  156.5236 N   0  0  0  0  0  0  0  0  0  0  0  0
  149.4889  137.2051  155.9887 N   0  0  0  0  0  0  0  0  0  0  0  0
  148.8515  135.8806  156.0885 C   0  0  0  0  0  0  0  0  0  0  0  0
  148.9487  135.2480  157.4883 C   0  0  0  0  0  0  0  0  0  0  0  0
  149.6168  134.2271  157.6457 O   0  0  0  0  0  0  0  0  0  0  0  0
  148.3233  135.8759  158.4977 N   0  0  0  0  0  0  0  0  0  0  0  0
  148.4409  135.5693  159.9177 C   0  0  2  0  0  0  0  0  0  0  0  0
  148.0353  134.1101  160.1862 C   0  0  0  0  0  0  0  0  0  0  0  0
  147.5743  136.5688  160.7205 C   0  0  1  0  0  0  0  0  0  0  0  0
  146.0538  136.3040  160.6572 C   0  0  0  0  0  0  0  0  0  0  0  0
  145.6369  136.3320  162.1404 C   0  0  1  0  0  0  0  0  0  0  0  0
  146.1288  135.0444  162.8275 C   0  0  0  0  0  0  0  0  0  0  0  0
  147.6483  135.2720  162.9256 C   0  0  0  0  0  0  0  0  0  0  0  0
  147.8301  136.6455  162.2485 C   0  0  2  0  0  0  0  0  0  0  0  0
  146.5801  137.3785  162.7224 C   0  0  0  0  0  0  0  0  0  0  0  0
  150.6822  137.3802  155.3510 C   0  0  0  0  0  0  0  0  0  0  0  0
  151.3221  136.4429  154.8727 O   0  0  0  0  0  0  0  0  0  0  0  0
  151.1037  138.7805  155.2691 C   0  0  0  0  0  0  0  0  0  0  0  0
  152.3463  139.0087  154.6048 C   0  0  0  0  0  0  0  0  0  0  0  0
  153.3587  139.2077  154.0798 N   0  0  0  0  0  0  0  0  0  0  0  0
  150.3567  139.7926  155.7772 C   0  0  0  0  0  0  0  0  0  0  0  0
  150.7411  141.2637  155.7028 C   0  0  0  0  0  0  0  0  0  0  0  0
  148.6730  141.0519  157.8179 H   0  0  0  0  0  0  0  0  0  0  0  0
  147.2834  140.0305  157.4671 H   0  0  0  0  0  0  0  0  0  0  0  0
  147.8368  141.1927  156.2687 H   0  0  0  0  0  0  0  0  0  0  0  0
  147.8008  135.9207  155.7972 H   0  0  0  0  0  0  0  0  0  0  0  0
  149.3212  135.2026  155.3735 H   0  0  0  0  0  0  0  0  0  0  0  0
  147.7852  136.6979  158.2649 H   0  0  0  0  0  0  0  0  0  0  0  0
  149.4846  135.6932  160.2114 H   0  0  0  0  0  0  0  0  0  0  0  0
  148.1237  133.8652  161.2448 H   0  0  0  0  0  0  0  0  0  0  0  0
  148.6710  133.4140  159.6382 H   0  0  0  0  0  0  0  0  0  0  0  0
  147.0035  133.9229  159.8872 H   0  0  0  0  0  0  0  0  0  0  0  0
  147.7620  137.5663  160.3181 H   0  0  0  0  0  0  0  0  0  0  0  0
  145.5524  137.0922  160.0943 H   0  0  0  0  0  0  0  0  0  0  0  0
  145.8039  135.3525  160.1861 H   0  0  0  0  0  0  0  0  0  0  0  0
  144.5758  136.5300  162.2928 H   0  0  0  0  0  0  0  0  0  0  0  0
  145.6920  134.9412  163.8215 H   0  0  0  0  0  0  0  0  0  0  0  0
  145.8781  134.1493  162.2572 H   0  0  0  0  0  0  0  0  0  0  0  0
  147.9579  135.3201  163.9705 H   0  0  0  0  0  0  0  0  0  0  0  0
  148.2263  134.4779  162.4543 H   0  0  0  0  0  0  0  0  0  0  0  0
  148.7653  137.1404  162.5117 H   0  0  0  0  0  0  0  0  0  0  0  0
  146.4598  138.3671  162.2757 H   0  0  0  0  0  0  0  0  0  0  0  0
  146.5141  137.4662  163.8085 H   0  0  0  0  0  0  0  0  0  0  0  0
  151.6987  141.4156  155.2056 H   0  0  0  0  0  0  0  0  0  0  0  0
  150.8205  141.6906  156.7033 H   0  0  0  0  0  0  0  0  0  0  0  0
  149.9903  141.8268  155.1468 H   0  0  0  0  0  0  0  0  0  0  0  0
  1  2  1  0  0  0  0
  1 25  1  0  0  0  0
  1 26  1  0  0  0  0
  1 27  1  0  0  0  0
  2 23  1  0  0  0  0
  2  3  2  0  0  0  0
  3  4  1  0  0  0  0
  4  5  1  0  0  0  0
  4 18  1  0  0  0  0
  5  6  1  0  0  0  0
  5 28  1  0  0  0  0
  5 29  1  0  0  0  0
  6  7  2  0  0  0  0
  6  8  1  0  0  0  0
  8  9  1  0  0  0  0
  8 30  1  0  0  0  0
  9 10  1  0  0  0  0
  9 11  1  0  0  0  0
  9 31  1  0  0  0  0
 10 32  1  0  0  0  0
 10 33  1  0  0  0  0
 10 34  1  0  0  0  0
 11 16  1  0  0  0  0
 11 12  1  0  0  0  0
 11 35  1  0  0  0  0
 12 13  1  0  0  0  0
 12 36  1  0  0  0  0
 12 37  1  0  0  0  0
 13 17  1  0  0  0  0
 13 14  1  0  0  0  0
 13 38  1  0  0  0  0
 14 15  1  0  0  0  0
 14 39  1  0  0  0  0
 14 40  1  0  0  0  0
 15 16  1  0  0  0  0
 15 41  1  0  0  0  0
 15 42  1  0  0  0  0
 16 17  1  0  0  0  0
 16 43  1  0  0  0  0
 17 44  1  0  0  0  0
 17 45  1  0  0  0  0
 18 19  2  0  0  0  0
 18 20  1  0  0  0  0
 20 21  1  0  0  0  0
 20 23  2  0  0  0  0
 21 22  3  0  0  0  0
 23 24  1  0  0  0  0
 24 46  1  0  0  0  0
 24 47  1  0  0  0  0
 24 48  1  0  0  0  0
M  END
> <s_m_source_file>
AV-unprocessed.smi

> <i_m_source_file_index>
1401

> <i_lp_mmshare_version>
43012

> <i_f3d_flags>
0

> <s_epik_input>
TiNDYyhjMVtDSDNdKWMoPU8pbihuYzFbQ0gzXSlbQ0gyXUMoPU8pW05IXVtDQEhdKFtDSDNdKVtDQEhdKFtDSDJdW0NASF0yMylbQ0BIXShbQ0gyXTMpW0NIMl1bQ0gyXTI=

> <s_epik_cmdline>
J2VwaWtfcHl0aG9uJywgJy1waCcsICc3LjAnLCAnLXRuJywgJzgnLCAnLW1hJywgJzIwMCcsICctbWV0YWxfYmluZGluZycsICctaW1hZScsICc8aW5maWxlLm1hZT4nLCAnLW9tYWUnLCAnPG91dGZpbGUubWFlPic=

> <r_lp_tautomer_probability>
1

> <r_epik_Ionization_Penalty>
2.16501e-08

> <r_epik_Ionization_Penalty_Charging>
2.29436e-11

> <r_epik_Ionization_Penalty_Neutral>
2.16271e-08

> <r_epik_State_Penalty>
-0

> <r_epik_Charging_Adjusted_Penalty>
2.29436e-11

> <i_epik_Tot_Q>
0

> <i_epik_Tot_abs_Q>
0

> <r_epik_Metal_State_Penalty>
-0

> <b_epik_Metal_Only>
0

> <s_lp_Force_Field>
OPLS_2005

> <r_lp_Energy>
65.485

> <b_lp_Chiralities_Consistent>
1

> <s_lp_Variant>
AV-unprocessed.smi:1401-7

> <Gold.Version>
5.8.1

> <Gold.Id.Protein>
6NUR|6NUR_protein|mol2

> <Gold.PLP.Fitness>
45.1913

> <Gold.PLP.PLP>
-37.0085

> <Gold.PLP.part.hbond>
-3.2786

> <Gold.PLP.part.metal>
0.0000

> <Gold.PLP.part.buried>
-5.0571

> <Gold.PLP.part.nonpolar>
-30.3789

> <Gold.PLP.part.repulsive>
0.2035

> <Gold.PLP.ligand.clash>
0.0000

> <Gold.PLP.ligand.torsion>
0.4278

> <Gold.PLP.Chemscore.Hbond>
3.0000

> <Gold.PLP.Chemscore.CHOScore>
0.0000

> <Gold.PLP.Chemscore.Metal>
0.0000

> <Gold.Chemscore.Hbonds>
donor molecule, donor type, donor heavy atom, donor atom, acceptor molecule, acceptor atom, score
      P1  H  6896  6907       L1     7  1.00
      P1  H  7997  8008       L1    22  0.32
      P1  H 10752 10764       L1    19  1.00

> <Gold.PLP.Chemscore.Internal.Correction>
0.0383

> <Gold.Rescore>
     Score         DG    S(hbond)    S(metal)    S(lipo)     H(rot)  DE(clash)    DE(int)     intcor
     18.78     -20.82       2.86        0.00      85.20       1.63       0.08       1.96       ----

> <Gold.Chemscore.Fitness>
18.7837

> <Gold.Chemscore.DG>
-20.8244

> <Gold.Chemscore.ZeroCoef>
-5.4800

> <Gold.Chemscore.Hbond>
2.8573

> <Gold.Chemscore.Metal>
0.0000

> <Gold.Chemscore.Lipo>
85.2029

> <Gold.Chemscore.Internal_Hbond>
0.0000

> <Gold.Chemscore.DEClash>
0.0845

> <Gold.Chemscore.DEInternal>
1.9561

> <Gold.Chemscore.Rot>
1.6281

> <Gold.Chemscore.Internal.Correction>
   9.000000E+99

> <Gold.Chemscore.Hbonds>
donor molecule, donor type, donor heavy atom, donor atom, acceptor molecule, acceptor atom, score
      P1  H  6896  6907       L1     7  0.92
      P1  H  7997  8008       L1    22  0.26
      P1  H 10752 10764       L1    19  1.00

> <Gold.Chemscore.Hbond.Weighted>
-9.5435

> <Gold.Chemscore.Metal.Weighted>
-0.0000

> <Gold.Chemscore.Lipo.Weighted>
-9.9687

> <Gold.Chemscore.Internal_Hbond.Weighted>
0.0000

> <Gold.Chemscore.DEClash.Weighted>
0.0845

> <Gold.Chemscore.DEInternal.Weighted>
1.9561

> <Gold.Chemscore.Rot.Weighted>
4.1678

> <Gold.Chemscore.Internal.Correction.Weighted>
   9.000000E+99

> <Gold.Protein.RotatedTorsions>
[ 6907 6896 6895 6894 ] final -103.99 input  -60.11 | X-H torsion
[ 7974 7965 7964 7962 ] final  114.69 input  175.53 | X-H torsion
[ 8008 7997 7996 7995 ] final   15.97 input   59.86 | X-H torsion
[ 10167 10162 10161 10158 ] final  -21.21 input  -65.29 | X-H torsion
[ 10718 10713 10712 10709 ] final  130.34 input   66.30 | X-H torsion
[ 10763 10752 10751 10750 ] final  -60.03 input  -60.55 | X-H torsion
[ 11005 11000 10999 10996 ] final   17.84 input  -57.11 | X-H torsion

> <Gold.Protein.ActiveResidues>
 VAL166  LYS551  ARG553  GLY616  TRP617  ASP618  TYR619  PRO620  LYS621  CYS622 
 ASP623  PHE694  ASN695  SER759  ASP760  ASP761  ALA762  ILE779  LEU786  VAL792 
 PHE793  MET794  SER795  GLU796  ALA797  LYS798  CYS799  TRP800  GLU811  SER814 

> <Gold.Protein.RotatedAtoms>
  150.7266  134.0346  159.3744 H   0  0  0  0  0  0  0  0  0  0  0  0  # atno 6907 bound_to 6896
  151.8316  135.0617  160.0447 H   0  0  0  0  0  0  0  0  0  0  0  0  # atno 6908 bound_to 6896
  152.2929  133.5543  159.5605 H   0  0  0  0  0  0  0  0  0  0  0  0  # atno 6909 bound_to 6896
  145.2013  139.2951  143.4317 H   0  0  0  0  0  0  0  0  0  0  0  0  # atno 7974 bound_to 7965
  154.8703  140.2957  155.5485 H   0  0  0  0  0  0  0  0  0  0  0  0  # atno 8008 bound_to 7997
  156.3021  140.2461  156.3624 H   0  0  0  0  0  0  0  0  0  0  0  0  # atno 8009 bound_to 7997
  154.8824  140.0397  157.1779 H   0  0  0  0  0  0  0  0  0  0  0  0  # atno 8010 bound_to 7997
  140.7281  143.4650  151.0327 H   0  0  0  0  0  0  0  0  0  0  0  0  # atno 10167 bound_to 10162
  157.5071  131.1096  150.9346 H   0  0  0  0  0  0  0  0  0  0  0  0  # atno 10718 bound_to 10713
  154.2628  135.6305  153.5281 H   0  0  0  0  0  0  0  0  0  0  0  0  # atno 10763 bound_to 10752
  152.9893  135.5591  154.5685 H   0  0  0  0  0  0  0  0  0  0  0  0  # atno 10764 bound_to 10752
  154.5238  135.2884  155.1215 H   0  0  0  0  0  0  0  0  0  0  0  0  # atno 10765 bound_to 10752
  140.4314  134.1416  155.7681 H   0  0  0  0  0  0  0  0  0  0  0  0  # atno 11005 bound_to 11000
  146.3417  140.2258  142.8592 LP  0  0  0  0  0  0  0  0  0  0  0  0  # atno 17320 bound_to 7965
  144.9945  140.8577  143.5319 LP  0  0  0  0  0  0  0  0  0  0  0  0  # atno 17321 bound_to 7965
  139.8337  143.7656  152.3180 LP  0  0  0  0  0  0  0  0  0  0  0  0  # atno 17342 bound_to 10162
  139.7781  144.7454  151.0127 LP  0  0  0  0  0  0  0  0  0  0  0  0  # atno 17343 bound_to 10162
  156.9998  130.5595  149.5310 LP  0  0  0  0  0  0  0  0  0  0  0  0  # atno 17370 bound_to 10713
  156.0265  130.5358  150.8420 LP  0  0  0  0  0  0  0  0  0  0  0  0  # atno 17371 bound_to 10713
  141.1744  133.8544  157.1469 LP  0  0  0  0  0  0  0  0  0  0  0  0  # atno 17394 bound_to 11000
  140.0131  134.9979  157.0438 LP  0  0  0  0  0  0  0  0  0  0  0  0  # atno 17395 bound_to 11000

$$$$
