AV-unprocessed.smi:3049|AV-procd|sdf|11630|dock8
  -GOLD-   2272017 23D 1   1.00000     0.00000
 Structure written by MMmdl.
 52 53  0  0  0  0  0  0  0  0  2 V2000
  151.5223  139.0315  154.8942 C   0  0  0  0  0  0  0  0  0  0  0  0
  151.6894  140.1441  155.9422 C   0  0  0  0  0  0  0  0  0  0  0  0
  150.5909  141.2361  155.8874 C   0  0  0  0  0  0  0  0  0  0  0  0
  151.0188  142.5205  156.6334 C   0  0  0  0  0  0  0  0  0  0  0  0
  151.3015  142.3070  158.1271 C   0  0  0  0  0  0  0  0  0  0  0  0
  149.2433  140.7351  156.4590 C   0  0  0  0  0  0  0  0  0  0  0  0
  149.2234  140.3213  157.6195 O   0  0  0  0  0  0  0  0  0  0  0  0
  148.1325  140.7277  155.6796 N   0  0  0  0  0  0  0  0  0  0  0  0
  148.0188  141.2687  154.3201 C   0  0  0  0  0  0  0  0  0  0  0  0
  147.9563  140.0898  153.3338 C   0  0  0  0  0  0  0  0  0  0  0  0
  146.7757  139.1515  153.6712 C   0  0  0  0  0  0  0  0  0  0  0  0
  146.8581  137.9455  152.8533 N   0  0  0  0  0  0  0  0  0  0  0  0
  145.8814  137.0382  152.7103 C   0  0  0  0  0  0  0  0  0  0  0  0
  144.7833  137.1381  153.2570 O   0  0  0  0  0  0  0  0  0  0  0  0
  146.2815  136.0255  151.9204 N   0  0  0  0  0  0  0  0  0  0  0  0
  145.5552  134.9053  151.4937 C   0  0  0  0  0  0  0  0  0  0  0  0
  144.2289  134.6036  151.7721 C   0  0  0  0  0  0  0  0  0  0  0  0
  143.5057  133.5415  151.3529 N   0  5  0  0  0  0  0  0  0  0  0  0
  144.1109  132.6215  150.5483 C   0  0  0  0  0  0  0  0  0  0  0  0
  143.5114  131.6312  150.1312 O   0  0  0  0  0  0  0  0  0  0  0  0
  145.5234  132.8264  150.1716 C   0  0  0  0  0  0  0  0  0  0  0  0
  146.1981  131.8013  149.2762 C   0  0  0  0  0  0  0  0  0  0  0  0
  146.1851  133.9166  150.6318 C   0  0  0  0  0  0  0  0  0  0  0  0
  146.7473  138.7841  155.1747 C   0  0  0  0  0  0  0  0  0  0  0  0
  146.9012  140.0295  156.0674 C   0  0  0  0  0  0  0  0  0  0  0  0
  152.3529  138.3274  154.9448 H   0  0  0  0  0  0  0  0  0  0  0  0
  151.4990  139.4434  153.8849 H   0  0  0  0  0  0  0  0  0  0  0  0
  150.6040  138.4640  155.0457 H   0  0  0  0  0  0  0  0  0  0  0  0
  151.7374  139.7019  156.9382 H   0  0  0  0  0  0  0  0  0  0  0  0
  152.6644  140.6030  155.7811 H   0  0  0  0  0  0  0  0  0  0  0  0
  150.4701  141.4665  154.8304 H   0  0  0  0  0  0  0  0  0  0  0  0
  151.9243  142.9287  156.1812 H   0  0  0  0  0  0  0  0  0  0  0  0
  150.2547  143.2901  156.5151 H   0  0  0  0  0  0  0  0  0  0  0  0
  151.6557  143.2299  158.5865 H   0  0  0  0  0  0  0  0  0  0  0  0
  152.0694  141.5478  158.2780 H   0  0  0  0  0  0  0  0  0  0  0  0
  150.4088  141.9955  158.6687 H   0  0  0  0  0  0  0  0  0  0  0  0
  147.1028  141.8568  154.2447 H   0  0  0  0  0  0  0  0  0  0  0  0
  148.8121  141.9648  154.0541 H   0  0  0  0  0  0  0  0  0  0  0  0
  147.8591  140.4615  152.3131 H   0  0  0  0  0  0  0  0  0  0  0  0
  148.8970  139.5379  153.3751 H   0  0  0  0  0  0  0  0  0  0  0  0
  145.8544  139.6863  153.4320 H   0  0  0  0  0  0  0  0  0  0  0  0
  147.7291  137.7817  152.3704 H   0  0  0  0  0  0  0  0  0  0  0  0
  147.2349  136.0620  151.5913 H   0  0  0  0  0  0  0  0  0  0  0  0
  143.6434  135.3141  152.3886 H   0  0  0  0  0  0  0  0  0  0  0  0
  147.2324  132.0758  149.0672 H   0  0  0  0  0  0  0  0  0  0  0  0
  145.6719  131.7204  148.3248 H   0  0  0  0  0  0  0  0  0  0  0  0
  146.1997  130.8212  149.7542 H   0  0  0  0  0  0  0  0  0  0  0  0
  147.2191  134.0581  150.3528 H   0  0  0  0  0  0  0  0  0  0  0  0
  145.8189  138.2664  155.4183 H   0  0  0  0  0  0  0  0  0  0  0  0
  147.5562  138.0864  155.3978 H   0  0  0  0  0  0  0  0  0  0  0  0
  146.8901  139.7341  157.1173 H   0  0  0  0  0  0  0  0  0  0  0  0
  146.0450  140.6932  155.9389 H   0  0  0  0  0  0  0  0  0  0  0  0
  1  2  1  0  0  0  0
  1 26  1  0  0  0  0
  1 27  1  0  0  0  0
  1 28  1  0  0  0  0
  2  3  1  0  0  0  0
  2 29  1  0  0  0  0
  2 30  1  0  0  0  0
  3  4  1  0  0  0  0
  3  6  1  0  0  0  0
  3 31  1  0  0  0  0
  4  5  1  0  0  0  0
  4 32  1  0  0  0  0
  4 33  1  0  0  0  0
  5 34  1  0  0  0  0
  5 35  1  0  0  0  0
  5 36  1  0  0  0  0
  6  7  2  0  0  0  0
  6  8  1  0  0  0  0
  8 25  1  0  0  0  0
  8  9  1  0  0  0  0
  9 10  1  0  0  0  0
  9 37  1  0  0  0  0
  9 38  1  0  0  0  0
 10 11  1  0  0  0  0
 10 39  1  0  0  0  0
 10 40  1  0  0  0  0
 11 12  1  0  0  0  0
 11 24  1  0  0  0  0
 11 41  1  0  0  0  0
 12 13  1  0  0  0  0
 12 42  1  0  0  0  0
 13 14  2  0  0  0  0
 13 15  1  0  0  0  0
 15 16  1  0  0  0  0
 15 43  1  0  0  0  0
 16 23  1  0  0  0  0
 16 17  2  0  0  0  0
 17 18  1  0  0  0  0
 17 44  1  0  0  0  0
 18 19  1  0  0  0  0
 19 20  2  0  0  0  0
 19 21  1  0  0  0  0
 21 22  1  0  0  0  0
 21 23  2  0  0  0  0
 22 45  1  0  0  0  0
 22 46  1  0  0  0  0
 22 47  1  0  0  0  0
 23 48  1  0  0  0  0
 24 25  1  0  0  0  0
 24 49  1  0  0  0  0
 24 50  1  0  0  0  0
 25 51  1  0  0  0  0
 25 52  1  0  0  0  0
M  CHG  1  18  -1
M  END
> <s_m_source_file>
AV-unprocessed.smi

> <i_m_source_file_index>
3049

> <i_lp_mmshare_version>
43012

> <i_f3d_flags>
0

> <s_epik_input>
W0NIM11bQ0gyXVtDSF0oW0NIMl1bQ0gzXSlDKD1PKU4xW0NIMl1bQ0gyXVtDSF0oW0NIMl1bQ0gyXTEpW05IXUMoPU8pW05IXWMyW2NIXVtuSF1jKD1PKWMoW0NIM10pW2NIXTI=

> <s_epik_cmdline>
J2VwaWtfcHl0aG9uJywgJy1waCcsICc3LjAnLCAnLXRuJywgJzgnLCAnLW1hJywgJzIwMCcsICctbWV0YWxfYmluZGluZycsICctaW1hZScsICc8aW5maWxlLm1hZT4nLCAnLW9tYWUnLCAnPG91dGZpbGUubWFlPic=

> <r_lp_tautomer_probability>
1

> <r_epik_Ionization_Penalty>
7.58311

> <r_epik_Ionization_Penalty_Charging>
1.51652

> <r_epik_Ionization_Penalty_Neutral>
6.06659

> <r_epik_State_Penalty>
6.06654

> <r_epik_Charging_Adjusted_Penalty>
7.58305

> <i_epik_Tot_Q>
-1

> <i_epik_Tot_abs_Q>
1

> <r_epik_Metal_State_Penalty>
2.01464

> <b_epik_Metal_Only>
1

> <s_lp_Force_Field>
OPLS_2005

> <r_lp_Energy>
39.554

> <b_lp_Chiralities_Consistent>
1

> <s_lp_Variant>
AV-unprocessed.smi:3049-2

> <Gold.Version>
5.8.1

> <Gold.Id.Protein>
6NUR|6NUR_protein|mol2

> <Gold.PLP.Fitness>
46.4940

> <Gold.PLP.PLP>
-38.6743

> <Gold.PLP.part.hbond>
-3.0000

> <Gold.PLP.part.metal>
0.0000

> <Gold.PLP.part.buried>
-2.5547

> <Gold.PLP.part.nonpolar>
-34.9662

> <Gold.PLP.part.repulsive>
1.2808

> <Gold.PLP.ligand.clash>
0.0000

> <Gold.PLP.ligand.torsion>
0.3118

> <Gold.PLP.Chemscore.Hbond>
2.7677

> <Gold.PLP.Chemscore.CHOScore>
0.0000

> <Gold.PLP.Chemscore.Metal>
0.0000

> <Gold.Chemscore.Hbonds>
donor molecule, donor type, donor heavy atom, donor atom, acceptor molecule, acceptor atom, score
      L1  H    12    42       P1  7948  0.82
      L1  H    15    43       P1  7948  1.00
      P1  H 10785 10796       L1    20  0.90

> <Gold.PLP.Chemscore.Internal.Correction>
0.1401

> <Gold.Rescore>
     Score         DG    S(hbond)    S(metal)    S(lipo)     H(rot)  DE(clash)    DE(int)     intcor
     17.74     -22.38       2.76        0.00      99.17       1.54       1.92       2.72       ----

> <Gold.Chemscore.Fitness>
17.7431

> <Gold.Chemscore.DG>
-22.3815

> <Gold.Chemscore.ZeroCoef>
-5.4800

> <Gold.Chemscore.Hbond>
2.7641

> <Gold.Chemscore.Metal>
0.0000

> <Gold.Chemscore.Lipo>
99.1741

> <Gold.Chemscore.Internal_Hbond>
0.0000

> <Gold.Chemscore.DEClash>
1.9222

> <Gold.Chemscore.DEInternal>
2.7162

> <Gold.Chemscore.Rot>
1.5367

> <Gold.Chemscore.Internal.Correction>
   9.000000E+99

> <Gold.Chemscore.Hbonds>
donor molecule, donor type, donor heavy atom, donor atom, acceptor molecule, acceptor atom, score
      L1  H    12    42       P1  7948  0.77
      L1  H    15    43       P1  7948  0.98
      P1  H 10785 10796       L1    20  0.83

> <Gold.Chemscore.Hbond.Weighted>
-9.2321

> <Gold.Chemscore.Metal.Weighted>
-0.0000

> <Gold.Chemscore.Lipo.Weighted>
-11.6034

> <Gold.Chemscore.Internal_Hbond.Weighted>
0.0000

> <Gold.Chemscore.DEClash.Weighted>
1.9222

> <Gold.Chemscore.DEInternal.Weighted>
2.7162

> <Gold.Chemscore.Rot.Weighted>
3.9340

> <Gold.Chemscore.Internal.Correction.Weighted>
   9.000000E+99

> <Gold.Protein.RotatedTorsions>
[ 6907 6896 6895 6894 ] final -111.88 input  -60.11 | X-H torsion
[ 7974 7965 7964 7962 ] final  119.92 input  175.53 | X-H torsion
[ 8008 7997 7996 7995 ] final  -63.86 input   59.86 | X-H torsion
[ 10167 10162 10161 10158 ] final  -59.58 input  -65.29 | X-H torsion
[ 10718 10713 10712 10709 ] final  149.34 input   66.30 | X-H torsion
[ 10763 10752 10751 10750 ] final  -53.44 input  -60.55 | X-H torsion
[ 11005 11000 10999 10996 ] final  -63.05 input  -57.11 | X-H torsion

> <Gold.Protein.ActiveResidues>
 VAL166  LYS551  ARG553  GLY616  TRP617  ASP618  TYR619  PRO620  LYS621  CYS622 
 ASP623  PHE694  ASN695  SER759  ASP760  ASP761  ALA762  ILE779  LEU786  VAL792 
 PHE793  MET794  SER795  GLU796  ALA797  LYS798  CYS799  TRP800  GLU811  SER814 

> <Gold.Protein.RotatedAtoms>
  150.7720  133.9171  159.3386 H   0  0  0  0  0  0  0  0  0  0  0  0  # atno 6907 bound_to 6896
  151.7055  135.0920  160.0268 H   0  0  0  0  0  0  0  0  0  0  0  0  # atno 6908 bound_to 6896
  152.3741  133.6420  159.6146 H   0  0  0  0  0  0  0  0  0  0  0  0  # atno 6909 bound_to 6896
  145.1373  139.3290  143.4634 H   0  0  0  0  0  0  0  0  0  0  0  0  # atno 7974 bound_to 7965
  154.4578  140.0966  156.6808 H   0  0  0  0  0  0  0  0  0  0  0  0  # atno 8008 bound_to 7997
  155.5084  140.3475  155.4365 H   0  0  0  0  0  0  0  0  0  0  0  0  # atno 8009 bound_to 7997
  156.0813  140.1373  156.9698 H   0  0  0  0  0  0  0  0  0  0  0  0  # atno 8010 bound_to 7997
  140.6126  143.2392  151.5673 H   0  0  0  0  0  0  0  0  0  0  0  0  # atno 10167 bound_to 10162
  157.2974  131.0864  151.1416 H   0  0  0  0  0  0  0  0  0  0  0  0  # atno 10718 bound_to 10713
  154.1588  135.6478  153.4981 H   0  0  0  0  0  0  0  0  0  0  0  0  # atno 10763 bound_to 10752
  153.0116  135.5356  154.6732 H   0  0  0  0  0  0  0  0  0  0  0  0  # atno 10764 bound_to 10752
  154.6040  135.2946  155.0476 H   0  0  0  0  0  0  0  0  0  0  0  0  # atno 10765 bound_to 10752
  141.1380  133.6647  156.5620 H   0  0  0  0  0  0  0  0  0  0  0  0  # atno 11005 bound_to 11000
  146.3508  140.1396  142.8595 LP  0  0  0  0  0  0  0  0  0  0  0  0  # atno 17320 bound_to 7965
  145.0570  140.9060  143.4961 LP  0  0  0  0  0  0  0  0  0  0  0  0  # atno 17321 bound_to 7965
  139.5373  144.2745  152.1278 LP  0  0  0  0  0  0  0  0  0  0  0  0  # atno 17342 bound_to 10162
  140.1947  144.4717  150.6461 LP  0  0  0  0  0  0  0  0  0  0  0  0  # atno 17343 bound_to 10162
  157.2789  130.6740  149.6056 LP  0  0  0  0  0  0  0  0  0  0  0  0  # atno 17370 bound_to 10713
  155.9670  130.4456  150.5507 LP  0  0  0  0  0  0  0  0  0  0  0  0  # atno 17371 bound_to 10713
  140.3980  134.7381  157.4762 LP  0  0  0  0  0  0  0  0  0  0  0  0  # atno 17394 bound_to 11000
  140.0517  134.6122  155.8854 LP  0  0  0  0  0  0  0  0  0  0  0  0  # atno 17395 bound_to 11000

$$$$
