AV-unprocessed.smi:3122|AV-procd|sdf|11897|dock1
  -GOLD-   2272017283D 1   1.00000     0.00000
 Structure written by MMmdl.
 30 31  0  0  0  0  0  0  0  0  2 V2000
  152.2769  144.3504  157.7220 C   0  0  0  0  0  0  0  0  0  0  0  0
  151.6522  143.1964  158.5203 C   0  0  0  0  0  0  0  0  0  0  0  0
  152.4675  142.8485  159.7733 C   0  0  0  0  0  0  0  0  0  0  0  0
  151.4164  141.9895  157.6674 C   0  0  0  0  0  0  0  0  0  0  0  0
  151.8074  140.7345  157.9073 N   0  0  0  0  0  0  0  0  0  0  0  0
  151.2858  139.9750  156.8852 N   0  0  0  0  0  0  0  0  0  0  0  0
  150.5721  140.8174  156.1334 C   0  0  0  0  0  0  0  0  0  0  0  0
  149.8441  140.5168  154.8628 C   0  0  1  0  0  0  0  0  0  0  0  0
  149.7973  139.0070  154.5611 C   0  0  0  0  0  0  0  0  0  0  0  0
  148.9853  138.7572  153.3542 N   0  3  0  0  0  0  0  0  0  0  0  0
  147.6374  139.3465  153.4785 C   0  0  0  0  0  0  0  0  0  0  0  0
  147.7433  140.8431  153.8202 C   0  0  0  0  0  0  0  0  0  0  0  0
  148.5144  141.0119  155.0052 O   0  0  0  0  0  0  0  0  0  0  0  0
  150.6183  142.1017  156.5733 O   0  0  0  0  0  0  0  0  0  0  0  0
  151.6521  144.6215  156.8704 H   0  0  0  0  0  0  0  0  0  0  0  0
  153.2627  144.0825  157.3403 H   0  0  0  0  0  0  0  0  0  0  0  0
  152.3923  145.2397  158.3423 H   0  0  0  0  0  0  0  0  0  0  0  0
  150.6741  143.5401  158.8596 H   0  0  0  0  0  0  0  0  0  0  0  0
  151.9694  142.0792  160.3640 H   0  0  0  0  0  0  0  0  0  0  0  0
  152.5985  143.7218  160.4126 H   0  0  0  0  0  0  0  0  0  0  0  0
  153.4583  142.4771  159.5097 H   0  0  0  0  0  0  0  0  0  0  0  0
  150.3431  141.0494  154.0510 H   0  0  0  0  0  0  0  0  0  0  0  0
  150.8021  138.6122  154.4084 H   0  0  0  0  0  0  0  0  0  0  0  0
  149.3616  138.4643  155.4015 H   0  0  0  0  0  0  0  0  0  0  0  0
  149.4491  139.1738  152.5594 H   0  0  0  0  0  0  0  0  0  0  0  0
  147.0913  139.2021  152.5461 H   0  0  0  0  0  0  0  0  0  0  0  0
  147.0867  138.8204  154.2595 H   0  0  0  0  0  0  0  0  0  0  0  0
  148.1950  141.3990  152.9973 H   0  0  0  0  0  0  0  0  0  0  0  0
  146.7505  141.2637  153.9811 H   0  0  0  0  0  0  0  0  0  0  0  0
  148.9045  137.7616  153.2035 H   0  0  0  0  0  0  0  0  0  0  0  0
  1  2  1  0  0  0  0
  1 15  1  0  0  0  0
  1 16  1  0  0  0  0
  1 17  1  0  0  0  0
  2  3  1  0  0  0  0
  2  4  1  0  0  0  0
  2 18  1  0  0  0  0
  3 19  1  0  0  0  0
  3 20  1  0  0  0  0
  3 21  1  0  0  0  0
  4 14  1  0  0  0  0
  4  5  2  0  0  0  0
  5  6  1  0  0  0  0
  6  7  2  0  0  0  0
  7  8  1  0  0  0  0
  7 14  1  0  0  0  0
  8 13  1  0  0  0  0
  8  9  1  0  0  0  0
  8 22  1  0  0  0  0
  9 10  1  0  0  0  0
  9 23  1  0  0  0  0
  9 24  1  0  0  0  0
 10 11  1  0  0  0  0
 10 25  1  0  0  0  0
 10 30  1  0  0  0  0
 11 12  1  0  0  0  0
 11 26  1  0  0  0  0
 11 27  1  0  0  0  0
 12 13  1  0  0  0  0
 12 28  1  0  0  0  0
 12 29  1  0  0  0  0
M  CHG  1  10   1
M  END
> <s_m_source_file>
AV-unprocessed.smi

> <i_m_source_file_index>
3122

> <i_lp_mmshare_version>
43012

> <i_f3d_flags>
0

> <s_epik_input>
W0NIM11bQ0hdKFtDSDNdKWMxbm5jKG8xKVtDQEBIXTJbQ0gyXVtOSF1bQ0gyXVtDSDJdTzI=

> <s_epik_cmdline>
J2VwaWtfcHl0aG9uJywgJy1waCcsICc3LjAnLCAnLXRuJywgJzgnLCAnLW1hJywgJzIwMCcsICctbWV0YWxfYmluZGluZycsICctaW1hZScsICc8aW5maWxlLm1hZT4nLCAnLW9tYWUnLCAnPG91dGZpbGUubWFlPic=

> <r_lp_tautomer_probability>
1

> <r_epik_Ionization_Penalty>
0.0380945

> <r_epik_Ionization_Penalty_Charging>
0.0380945

> <r_epik_Ionization_Penalty_Neutral>
3.26791e-13

> <r_epik_State_Penalty>
0.0319257

> <r_epik_Charging_Adjusted_Penalty>
0.0700202

> <i_epik_Tot_Q>
1

> <i_epik_Tot_abs_Q>
1

> <r_epik_Metal_State_Penalty>
0.0319257

> <b_epik_Metal_Only>
0

> <s_lp_Force_Field>
OPLS_2005

> <r_lp_Energy>
10.6757

> <b_lp_Chiralities_Consistent>
1

> <s_lp_Variant>
AV-unprocessed.smi:3122-2

> <Gold.Version>
5.8.1

> <Gold.Id.Protein>
6NUR|6NUR_protein|mol2

> <Gold.PLP.Fitness>
37.2325

> <Gold.PLP.PLP>
-28.4119

> <Gold.PLP.part.hbond>
-1.9600

> <Gold.PLP.part.metal>
0.0000

> <Gold.PLP.part.buried>
-3.6034

> <Gold.PLP.part.nonpolar>
-23.5701

> <Gold.PLP.part.repulsive>
0.3081

> <Gold.PLP.ligand.clash>
0.0000

> <Gold.PLP.ligand.torsion>
0.1447

> <Gold.PLP.Chemscore.Hbond>
3.0000

> <Gold.PLP.Chemscore.CHOScore>
0.0000

> <Gold.PLP.Chemscore.Metal>
0.0000

> <Gold.Chemscore.Hbonds>
donor molecule, donor type, donor heavy atom, donor atom, acceptor molecule, acceptor atom, score
      L1  H    10    25       P1  7957  1.00
      L1  H    10    30       P1  7948  1.82

> <Gold.PLP.Chemscore.Internal.Correction>
0.1099

> <Gold.Rescore>
     Score         DG    S(hbond)    S(metal)    S(lipo)     H(rot)  DE(clash)    DE(int)     intcor
     15.93     -16.01       1.97        0.00      61.46       1.26       0.00       0.08       ----

> <Gold.Chemscore.Fitness>
15.9277

> <Gold.Chemscore.DG>
-16.0059

> <Gold.Chemscore.ZeroCoef>
-5.4800

> <Gold.Chemscore.Hbond>
1.9660

> <Gold.Chemscore.Metal>
0.0000

> <Gold.Chemscore.Lipo>
61.4649

> <Gold.Chemscore.Internal_Hbond>
0.0000

> <Gold.Chemscore.DEClash>
0.0000

> <Gold.Chemscore.DEInternal>
0.0782

> <Gold.Chemscore.Rot>
1.2625

> <Gold.Chemscore.Internal.Correction>
   9.000000E+99

> <Gold.Chemscore.Hbonds>
donor molecule, donor type, donor heavy atom, donor atom, acceptor molecule, acceptor atom, score
      L1  H    10    25       P1  7957  0.97
      L1  H    10    30       P1  7948  0.85

> <Gold.Chemscore.Hbond.Weighted>
-6.5665

> <Gold.Chemscore.Metal.Weighted>
-0.0000

> <Gold.Chemscore.Lipo.Weighted>
-7.1914

> <Gold.Chemscore.Internal_Hbond.Weighted>
0.0000

> <Gold.Chemscore.DEClash.Weighted>
0.0000

> <Gold.Chemscore.DEInternal.Weighted>
0.0782

> <Gold.Chemscore.Rot.Weighted>
3.2320

> <Gold.Chemscore.Internal.Correction.Weighted>
   9.000000E+99

> <Gold.Protein.RotatedTorsions>
[ 6907 6896 6895 6894 ] final  -39.22 input  -60.11 | X-H torsion
[ 7974 7965 7964 7962 ] final  -48.57 input  175.53 | X-H torsion
[ 8008 7997 7996 7995 ] final -169.30 input   59.86 | X-H torsion
[ 10167 10162 10161 10158 ] final  -21.62 input  -65.29 | X-H torsion
[ 10718 10713 10712 10709 ] final   69.62 input   66.30 | X-H torsion
[ 10763 10752 10751 10750 ] final -140.08 input  -60.55 | X-H torsion
[ 11005 11000 10999 10996 ] final -137.95 input  -57.11 | X-H torsion

> <Gold.Protein.ActiveResidues>
 VAL166  LYS551  ARG553  GLY616  TRP617  ASP618  TYR619  PRO620  LYS621  CYS622 
 ASP623  PHE694  ASN695  SER759  ASP760  ASP761  ALA762  ILE779  LEU786  VAL792 
 PHE793  MET794  SER795  GLU796  ALA797  LYS798  CYS799  TRP800  GLU811  SER814 

> <Gold.Protein.RotatedAtoms>
  150.9929  134.9260  159.7909 H   0  0  0  0  0  0  0  0  0  0  0  0  # atno 6907 bound_to 6896
  152.5256  134.3257  159.9174 H   0  0  0  0  0  0  0  0  0  0  0  0  # atno 6908 bound_to 6896
  151.3263  133.3978  159.2693 H   0  0  0  0  0  0  0  0  0  0  0  0  # atno 6909 bound_to 6896
  145.9498  140.7583  142.9510 H   0  0  0  0  0  0  0  0  0  0  0  0  # atno 7974 bound_to 7965
  155.9030  140.1044  157.1335 H   0  0  0  0  0  0  0  0  0  0  0  0  # atno 8008 bound_to 7997
  154.4029  140.1289  156.4525 H   0  0  0  0  0  0  0  0  0  0  0  0  # atno 8009 bound_to 7997
  155.7400  140.3467  155.5102 H   0  0  0  0  0  0  0  0  0  0  0  0  # atno 8010 bound_to 7997
  140.7283  143.4611  151.0379 H   0  0  0  0  0  0  0  0  0  0  0  0  # atno 10167 bound_to 10162
  157.6356  130.9435  150.0538 H   0  0  0  0  0  0  0  0  0  0  0  0  # atno 10718 bound_to 10713
  154.8590  135.3564  154.5649 H   0  0  0  0  0  0  0  0  0  0  0  0  # atno 10763 bound_to 10752
  153.6264  135.7004  153.5296 H   0  0  0  0  0  0  0  0  0  0  0  0  # atno 10764 bound_to 10752
  153.3086  135.4185  155.1276 H   0  0  0  0  0  0  0  0  0  0  0  0  # atno 10765 bound_to 10752
  140.8662  134.2107  157.4678 H   0  0  0  0  0  0  0  0  0  0  0  0  # atno 11005 bound_to 11000
  144.6793  140.2416  143.7343 LP  0  0  0  0  0  0  0  0  0  0  0  0  # atno 17320 bound_to 7965
  145.8187  139.2034  143.1951 LP  0  0  0  0  0  0  0  0  0  0  0  0  # atno 17321 bound_to 7965
  139.8295  143.7710  152.3179 LP  0  0  0  0  0  0  0  0  0  0  0  0  # atno 17342 bound_to 10162
  139.7821  144.7441  151.0074 LP  0  0  0  0  0  0  0  0  0  0  0  0  # atno 17343 bound_to 10162
  156.1592  130.3643  149.9324 LP  0  0  0  0  0  0  0  0  0  0  0  0  # atno 17370 bound_to 10713
  156.7326  130.9049  151.3627 LP  0  0  0  0  0  0  0  0  0  0  0  0  # atno 17371 bound_to 10713
  139.8709  134.9753  156.4877 LP  0  0  0  0  0  0  0  0  0  0  0  0  # atno 17394 bound_to 11000
  140.8626  133.8048  155.9281 LP  0  0  0  0  0  0  0  0  0  0  0  0  # atno 17395 bound_to 11000

$$$$
