AV-unprocessed.smi:2003|AV-procd|sdf|8118|dock10
  -GOLD-   2272010353D 1   1.00000     0.00000
 Structure written by MMmdl.
 43 44  0  0  0  0  0  0  0  0  1 V2000
  143.7784  132.3225  149.8419 C   0  0  0  0  0  0  0  0  0  0  0  0
  144.8099  133.1394  150.5635 C   0  0  0  0  0  0  0  0  0  0  0  0
  144.8309  134.5509  150.7591 C   0  0  0  0  0  0  0  0  0  0  0  0
  145.9811  134.7395  151.4760 C   0  0  0  0  0  0  0  0  0  0  0  0
  146.5097  135.8997  151.9487 N   0  0  0  0  0  0  0  0  0  0  0  0
  145.8749  136.9587  152.4803 C   0  0  0  0  0  0  0  0  0  0  0  0
  144.6566  137.0641  152.6239 O   0  0  0  0  0  0  0  0  0  0  0  0
  146.7455  137.9088  152.8507 N   0  0  0  0  0  0  0  0  0  0  0  0
  146.3837  139.1724  153.4875 C   0  0  0  0  0  0  0  0  0  0  0  0
  147.4940  140.2583  153.3781 C   0  0  1  0  0  0  0  0  0  0  0  0
  146.8565  141.6487  153.6294 C   0  0  0  0  0  0  0  0  0  0  0  0
  148.6611  139.9965  154.2523 N   0  0  0  0  0  0  0  0  0  0  0  0
  149.3961  141.2223  154.5875 C   0  0  0  0  0  0  0  0  0  0  0  0
  150.6301  140.9603  155.4681 C   0  0  0  0  0  0  0  0  0  0  0  0
  151.4936  140.0377  154.8192 O   0  0  0  0  0  0  0  0  0  0  0  0
  150.8448  138.8035  154.5476 C   0  0  0  0  0  0  0  0  0  0  0  0
  149.6125  139.0489  153.6596 C   0  0  0  0  0  0  0  0  0  0  0  0
  146.5849  133.5166  151.6771 N   0  0  0  0  0  0  0  0  0  0  0  0
  147.8115  133.1817  152.3748 C   0  0  0  0  0  0  0  0  0  0  0  0
  145.8551  132.5309  151.1121 N   0  0  0  0  0  0  0  0  0  0  0  0
  143.0999  132.9591  149.2738 H   0  0  0  0  0  0  0  0  0  0  0  0
  143.1791  131.7413  150.5430 H   0  0  0  0  0  0  0  0  0  0  0  0
  144.2426  131.6271  149.1422 H   0  0  0  0  0  0  0  0  0  0  0  0
  144.1113  135.2818  150.4224 H   0  0  0  0  0  0  0  0  0  0  0  0
  147.5160  135.9629  151.9020 H   0  0  0  0  0  0  0  0  0  0  0  0
  147.7292  137.7437  152.6948 H   0  0  0  0  0  0  0  0  0  0  0  0
  145.4641  139.5341  153.0265 H   0  0  0  0  0  0  0  0  0  0  0  0
  146.1367  138.9388  154.5222 H   0  0  0  0  0  0  0  0  0  0  0  0
  147.8470  140.2543  152.3458 H   0  0  0  0  0  0  0  0  0  0  0  0
  145.9665  141.8152  153.0236 H   0  0  0  0  0  0  0  0  0  0  0  0
  147.5301  142.4644  153.3707 H   0  0  0  0  0  0  0  0  0  0  0  0
  146.5680  141.7668  154.6742 H   0  0  0  0  0  0  0  0  0  0  0  0
  149.7065  141.7292  153.6726 H   0  0  0  0  0  0  0  0  0  0  0  0
  148.7583  141.9154  155.1329 H   0  0  0  0  0  0  0  0  0  0  0  0
  151.1717  141.8895  155.6454 H   0  0  0  0  0  0  0  0  0  0  0  0
  150.3339  140.5709  156.4433 H   0  0  0  0  0  0  0  0  0  0  0  0
  151.5458  138.1362  154.0462 H   0  0  0  0  0  0  0  0  0  0  0  0
  150.5571  138.3210  155.4830 H   0  0  0  0  0  0  0  0  0  0  0  0
  149.1445  138.0800  153.4997 H   0  0  0  0  0  0  0  0  0  0  0  0
  149.9363  139.4112  152.6826 H   0  0  0  0  0  0  0  0  0  0  0  0
  148.3488  134.0841  152.6657 H   0  0  0  0  0  0  0  0  0  0  0  0
  148.4547  132.5863  151.7260 H   0  0  0  0  0  0  0  0  0  0  0  0
  147.5772  132.6060  153.2708 H   0  0  0  0  0  0  0  0  0  0  0  0
  1  2  1  0  0  0  0
  1 21  1  0  0  0  0
  1 22  1  0  0  0  0
  1 23  1  0  0  0  0
  2 20  2  0  0  0  0
  2  3  1  0  0  0  0
  3  4  2  0  0  0  0
  3 24  1  0  0  0  0
  4  5  1  0  0  0  0
  4 18  1  0  0  0  0
  5  6  1  0  0  0  0
  5 25  1  0  0  0  0
  6  7  2  0  0  0  0
  6  8  1  0  0  0  0
  8  9  1  0  0  0  0
  8 26  1  0  0  0  0
  9 10  1  0  0  0  0
  9 27  1  0  0  0  0
  9 28  1  0  0  0  0
 10 11  1  0  0  0  0
 10 12  1  0  0  0  0
 10 29  1  0  0  0  0
 11 30  1  0  0  0  0
 11 31  1  0  0  0  0
 11 32  1  0  0  0  0
 12 17  1  0  0  0  0
 12 13  1  0  0  0  0
 13 14  1  0  0  0  0
 13 33  1  0  0  0  0
 13 34  1  0  0  0  0
 14 15  1  0  0  0  0
 14 35  1  0  0  0  0
 14 36  1  0  0  0  0
 15 16  1  0  0  0  0
 16 17  1  0  0  0  0
 16 37  1  0  0  0  0
 16 38  1  0  0  0  0
 17 39  1  0  0  0  0
 17 40  1  0  0  0  0
 18 19  1  0  0  0  0
 18 20  1  0  0  0  0
 19 41  1  0  0  0  0
 19 42  1  0  0  0  0
 19 43  1  0  0  0  0
M  END
> <s_m_source_file>
AV-unprocessed.smi

> <i_m_source_file_index>
2003

> <i_lp_mmshare_version>
43012

> <i_f3d_flags>
0

> <s_epik_input>
W0NIM11jMVtjSF1jKG4objEpW0NIM10pW05IXUMoPU8pW05IXVtDSDJdW0NASF0oW0NIM10pTjJbQ0gyXVtDSDJdT1tDSDJdW0NIMl0y

> <s_epik_cmdline>
J2VwaWtfcHl0aG9uJywgJy1waCcsICc3LjAnLCAnLXRuJywgJzgnLCAnLW1hJywgJzIwMCcsICctbWV0YWxfYmluZGluZycsICctaW1hZScsICc8aW5maWxlLm1hZT4nLCAnLW9tYWUnLCAnPG91dGZpbGUubWFlPic=

> <r_lp_tautomer_probability>
1

> <r_epik_Ionization_Penalty>
0.233974

> <r_epik_Ionization_Penalty_Charging>
0

> <r_epik_Ionization_Penalty_Neutral>
0.233974

> <r_epik_State_Penalty>
0.224627

> <r_epik_Charging_Adjusted_Penalty>
0.224627

> <i_epik_Tot_Q>
0

> <i_epik_Tot_abs_Q>
0

> <r_epik_Metal_State_Penalty>
0.224624

> <b_epik_Metal_Only>
0

> <s_lp_Force_Field>
OPLS_2005

> <r_lp_Energy>
29.1269

> <b_lp_Chiralities_Consistent>
1

> <s_lp_Variant>
AV-unprocessed.smi:2003-2

> <Gold.Version>
5.8.1

> <Gold.Id.Protein>
6NUR|6NUR_protein|mol2

> <Gold.PLP.Fitness>
40.9509

> <Gold.PLP.PLP>
-36.6462

> <Gold.PLP.part.hbond>
-2.7282

> <Gold.PLP.part.metal>
0.0000

> <Gold.PLP.part.buried>
-1.3251

> <Gold.PLP.part.nonpolar>
-33.1667

> <Gold.PLP.part.repulsive>
0.5865

> <Gold.PLP.ligand.clash>
0.0900

> <Gold.PLP.ligand.torsion>
1.1318

> <Gold.PLP.Chemscore.Hbond>
2.2078

> <Gold.PLP.Chemscore.CHOScore>
0.0000

> <Gold.PLP.Chemscore.Metal>
0.0000

> <Gold.Chemscore.Hbonds>
donor molecule, donor type, donor heavy atom, donor atom, acceptor molecule, acceptor atom, score
      L1  H     5    25       P1  7948  0.76
      L1  H     8    26       P1  7948  0.62
      P1  H  7989  7998       L1    15  0.80

> <Gold.PLP.Chemscore.Internal.Correction>
0.0349

> <Gold.Rescore>
     Score         DG    S(hbond)    S(metal)    S(lipo)     H(rot)  DE(clash)    DE(int)     intcor
     15.81     -16.72       1.82        0.00      76.76       1.49       0.06       0.85       ----

> <Gold.Chemscore.Fitness>
15.8055

> <Gold.Chemscore.DG>
-16.7170

> <Gold.Chemscore.ZeroCoef>
-5.4800

> <Gold.Chemscore.Hbond>
1.8204

> <Gold.Chemscore.Metal>
0.0000

> <Gold.Chemscore.Lipo>
76.7596

> <Gold.Chemscore.Internal_Hbond>
0.0000

> <Gold.Chemscore.DEClash>
0.0601

> <Gold.Chemscore.DEInternal>
0.8514

> <Gold.Chemscore.Rot>
1.4938

> <Gold.Chemscore.Internal.Correction>
   9.000000E+99

> <Gold.Chemscore.Hbonds>
donor molecule, donor type, donor heavy atom, donor atom, acceptor molecule, acceptor atom, score
      L1  H     5    25       P1  7948  0.75
      L1  H     8    26       P1  7948  0.61
      P1  H  7989  7998       L1    15  0.08

> <Gold.Chemscore.Hbond.Weighted>
-6.0803

> <Gold.Chemscore.Metal.Weighted>
-0.0000

> <Gold.Chemscore.Lipo.Weighted>
-8.9809

> <Gold.Chemscore.Internal_Hbond.Weighted>
0.0000

> <Gold.Chemscore.DEClash.Weighted>
0.0601

> <Gold.Chemscore.DEInternal.Weighted>
0.8514

> <Gold.Chemscore.Rot.Weighted>
3.8242

> <Gold.Chemscore.Internal.Correction.Weighted>
   9.000000E+99

> <Gold.Protein.RotatedTorsions>
[ 6907 6896 6895 6894 ] final   51.86 input  -60.11 | X-H torsion
[ 7974 7965 7964 7962 ] final   82.52 input  175.53 | X-H torsion
[ 8008 7997 7996 7995 ] final  -96.12 input   59.86 | X-H torsion
[ 10167 10162 10161 10158 ] final  -78.16 input  -65.29 | X-H torsion
[ 10718 10713 10712 10709 ] final   23.40 input   66.30 | X-H torsion
[ 10763 10752 10751 10750 ] final  -69.47 input  -60.55 | X-H torsion
[ 11005 11000 10999 10996 ] final   19.89 input  -57.11 | X-H torsion

> <Gold.Protein.ActiveResidues>
 VAL166  LYS551  ARG553  GLY616  TRP617  ASP618  TYR619  PRO620  LYS621  CYS622 
 ASP623  PHE694  ASN695  SER759  ASP760  ASP761  ALA762  ILE779  LEU786  VAL792 
 PHE793  MET794  SER795  GLU796  ALA797  LYS798  CYS799  TRP800  GLU811  SER814 

> <Gold.Protein.RotatedAtoms>
  152.3172  134.7425  160.0322 H   0  0  0  0  0  0  0  0  0  0  0  0  # atno 6907 bound_to 6896
  151.7886  133.3351  159.3500 H   0  0  0  0  0  0  0  0  0  0  0  0  # atno 6908 bound_to 6896
  150.7351  134.5795  159.5976 H   0  0  0  0  0  0  0  0  0  0  0  0  # atno 6909 bound_to 6896
  145.6239  139.2391  143.2122 H   0  0  0  0  0  0  0  0  0  0  0  0  # atno 7974 bound_to 7965
  154.7703  140.0474  157.1046 H   0  0  0  0  0  0  0  0  0  0  0  0  # atno 8008 bound_to 7997
  154.9829  140.3103  155.4919 H   0  0  0  0  0  0  0  0  0  0  0  0  # atno 8009 bound_to 7997
  156.2920  140.2233  156.4929 H   0  0  0  0  0  0  0  0  0  0  0  0  # atno 8010 bound_to 7997
  140.4706  143.2428  151.8210 H   0  0  0  0  0  0  0  0  0  0  0  0  # atno 10167 bound_to 10162
  157.1656  130.6736  149.6059 H   0  0  0  0  0  0  0  0  0  0  0  0  # atno 10718 bound_to 10713
  154.4039  135.6024  153.5913 H   0  0  0  0  0  0  0  0  0  0  0  0  # atno 10763 bound_to 10752
  152.9788  135.5913  154.4151 H   0  0  0  0  0  0  0  0  0  0  0  0  # atno 10764 bound_to 10752
  154.3953  135.2842  155.2108 H   0  0  0  0  0  0  0  0  0  0  0  0  # atno 10765 bound_to 10752
  140.4087  134.1642  155.7666 H   0  0  0  0  0  0  0  0  0  0  0  0  # atno 11005 bound_to 11000
  146.1409  140.7058  142.9367 LP  0  0  0  0  0  0  0  0  0  0  0  0  # atno 17320 bound_to 7965
  144.7220  140.4404  143.7001 LP  0  0  0  0  0  0  0  0  0  0  0  0  # atno 17321 bound_to 7965
  139.4818  144.4896  151.9202 LP  0  0  0  0  0  0  0  0  0  0  0  0  # atno 17342 bound_to 10162
  140.3981  144.2528  150.5895 LP  0  0  0  0  0  0  0  0  0  0  0  0  # atno 17343 bound_to 10162
  155.9746  130.4696  150.6403 LP  0  0  0  0  0  0  0  0  0  0  0  0  # atno 17370 bound_to 10713
  157.4091  131.0821  151.1237 LP  0  0  0  0  0  0  0  0  0  0  0  0  # atno 17371 bound_to 10713
  141.1829  133.8374  157.1192 LP  0  0  0  0  0  0  0  0  0  0  0  0  # atno 17394 bound_to 11000
  140.0283  134.9913  157.0731 LP  0  0  0  0  0  0  0  0  0  0  0  0  # atno 17395 bound_to 11000

$$$$
