#       Name:                AV-unprocessed.smi:2319
#       Creating user name   scv26
#       Creation time:       Fri Mar 27 12:50:14 2020


#       File generated by GOLD software.
#

@<TRIPOS>MOLECULE
AV-unprocessed.smi:2319
    53    54     1
SMALL
NO_CHARGES


@<TRIPOS>ATOM
      1 ****        -4.1701   1.9776  -3.0029 C.3            1 S1                 0.0000
      2 ****        -4.3454   0.9247  -1.9037 C.3            1 S1                 0.0000
      3 ****        -4.0919   1.4614  -0.5333 C.2            1 S1                 0.0000
      4 ****        -4.9674   2.3858  -0.0580 O.3            1 S1                 0.0000
      5 ****        -4.5739   2.7620   1.2355 N.2            1 S1                 0.0000
      6 ****        -3.4829   2.0658   1.5192 C.2            1 S1                 0.0000
      7 ****        -2.8572   2.2106   2.8783 C.3            1 S1                 0.0000
      8 ****        -3.1286   1.2462   0.4075 C.2            1 S1                 0.0000
      9 ****        -2.0609   0.3244   0.2720 N.am           1 S1                 0.0000
     10 ****        -0.8035   0.4829   0.7111 C.2            1 S1                 0.0000
     11 ****        -0.3842   1.4782   1.3008 O.2            1 S1                 0.0000
     12 ****        -0.0415  -0.5738   0.3988 N.am           1 S1                 0.0000
     13 ****         1.3877  -0.6919   0.6807 C.3            1 S1                 0.0000
     14 ****         1.8117  -2.1402   0.8234 C.3            1 S1                 0.0000
     15 ****         3.3115  -2.0970   0.5047 C.3            1 S1                 0.0000
     16 ****         4.1610  -1.8697   1.7667 C.3            1 S1                 0.0000
     17 ****         3.7813  -3.3456  -0.2577 C.3            1 S1                 0.0000
     18 ****         3.4900  -0.9583  -0.3367 O.3            1 S1                 0.0000
     19 ****         2.2930  -0.1927  -0.4663 C.3            1 S1                 0.0000
     20 ****         1.7422  -0.4753  -1.8801 C.3            1 S1                 0.0000
     21 ****         2.6638   1.2910  -0.3151 C.3            1 S1                 0.0000
     22 ****        -4.3568   1.5479  -3.9871 H              1 S1                 0.0000
     23 ****        -3.1573   2.3818  -3.0017 H              1 S1                 0.0000
     24 ****        -4.8628   2.8089  -2.8662 H              1 S1                 0.0000
     25 ****        -5.3564   0.5189  -1.9488 H              1 S1                 0.0000
     26 ****        -3.6741   0.0880  -2.0982 H              1 S1                 0.0000
     27 ****        -2.4257   1.2685   3.2167 H              1 S1                 0.0000
     28 ****        -3.5900   2.5188   3.6247 H              1 S1                 0.0000
     29 ****        -2.0650   2.9591   2.8663 H              1 S1                 0.0000
     30 ****        -2.2424  -0.4835  -0.3051 H              1 S1                 0.0000
     31 ****        -0.4727  -1.3444  -0.0899 H              1 S1                 0.0000
     32 ****         1.6370  -0.1743   1.6093 H              1 S1                 0.0000
     33 ****         1.5938  -2.5504   1.8103 H              1 S1                 0.0000
     34 ****         1.2865  -2.7562   0.0917 H              1 S1                 0.0000
     35 ****         4.0614  -2.7015   2.4645 H              1 S1                 0.0000
     36 ****         3.8650  -0.9601   2.2900 H              1 S1                 0.0000
     37 ****         5.2178  -1.7725   1.5162 H              1 S1                 0.0000
     38 ****         3.6448  -4.2472   0.3402 H              1 S1                 0.0000
     39 ****         4.8380  -3.2746  -0.5165 H              1 S1                 0.0000
     40 ****         3.2252  -3.4741  -1.1870 H              1 S1                 0.0000
     41 ****         0.8424   0.1056  -2.0850 H              1 S1                 0.0000
     42 ****         1.4965  -1.5288  -2.0140 H              1 S1                 0.0000
     43 ****         2.4764  -0.2145  -2.6427 H              1 S1                 0.0000
     44 ****         1.7855   1.9301  -0.4068 H              1 S1                 0.0000
     45 ****         3.3772   1.5985  -1.0801 H              1 S1                 0.0000
     46 ****         3.1190   1.4881   0.6558 H              1 S1                 0.0000
     47 ****        -5.8867   1.9934  -0.0284 LP             1 S1                 0.0000
     48 ****        -4.9663   3.1876  -0.6557 LP             1 S1                 0.0000
     49 ****        -5.0287   3.4267   1.8282 LP             1 S1                 0.0000
     50 ****        -0.9978   2.2463   1.4841 LP             1 S1                 0.0000
     51 ****         0.5702   1.5190   1.5967 LP             1 S1                 0.0000
     52 ****         3.7736  -1.2691  -1.2439 LP             1 S1                 0.0000
     53 ****         4.2036  -0.3771   0.0546 LP             1 S1                 0.0000
@<TRIPOS>BOND
    1    1    2 1     
    2    1   22 1     
    3    1   23 1     
    4    1   24 1     
    5    2    3 1     
    6    2   25 1     
    7    2   26 1     
    8    3    8 2     
    9    3    4 1     
   10    4    5 1     
   11    5    6 2     
   12    6    7 1     
   13    6    8 1     
   14    7   27 1     
   15    7   28 1     
   16    7   29 1     
   17    8    9 1     
   18    9   10 am    
   19    9   30 1     
   20   10   11 2     
   21   10   12 am    
   22   12   13 1     
   23   12   31 1     
   24   13   19 1     
   25   13   14 1     
   26   13   32 1     
   27   14   15 1     
   28   14   33 1     
   29   14   34 1     
   30   15   16 1     
   31   15   17 1     
   32   15   18 1     
   33   16   35 1     
   34   16   36 1     
   35   16   37 1     
   36   17   38 1     
   37   17   39 1     
   38   17   40 1     
   39   18   19 1     
   40   19   20 1     
   41   19   21 1     
   42   20   41 1     
   43   20   42 1     
   44   20   43 1     
   45   21   44 1     
   46   21   45 1     
   47   21   46 1     
   48    4   47 1     
   49    4   48 1     
   50    5   49 1     
   51   11   50 1     
   52   11   51 1     
   53   18   52 1     
   54   18   53 1     
@<TRIPOS>SUBSTRUCTURE
      1 S1             1
@<TRIPOS>SET
LONE_PAIRS      STATIC     ATOMS    <user>   **** ""
7 47 48 49 50 51 52 53
DONOR_HYDROGENS      STATIC     ATOMS    <user>   **** ""
2 30 31
ATOM$BLUE        STATIC     ATOMS    COLORGROUP SYSTEM
7 47 48 49 50 51 52 53
ATOM$RED        STATIC     ATOMS    COLORGROUP SYSTEM
2 30 31
