AV-unprocessed.smi:1675|AV-procd|sdf|6717|dock3
  -GOLD-   22720 7463D 1   1.00000     0.00000
 Structure written by MMmdl.
 40 42  0  0  0  0  0  0  0  0  1 V2000
  145.4159  138.5307  152.2837 N   0  0  0  0  0  0  0  0  0  0  0  0
  146.6224  138.9430  151.8867 C   0  0  0  0  0  0  0  0  0  0  0  0
  147.5189  138.1545  151.5931 O   0  0  0  0  0  0  0  0  0  0  0  0
  146.8531  140.4555  151.8106 C   0  0  0  0  0  0  0  0  0  0  0  0
  147.3193  140.9887  153.0791 N   0  0  0  0  0  0  0  0  0  0  0  0
  148.5519  140.8111  153.6775 C   0  0  0  0  0  0  0  0  0  0  0  0
  148.4945  141.5012  154.8551 C   0  0  0  0  0  0  0  0  0  0  0  0
  149.4789  141.6400  155.8657 N   0  0  0  0  0  0  0  0  0  0  0  0
  150.6704  141.0212  155.9396 C   0  0  0  0  0  0  0  0  0  0  0  0
  151.0921  140.2269  155.0994 O   0  0  0  0  0  0  0  0  0  0  0  0
  151.5194  141.3527  157.1723 C   0  0  0  0  0  0  0  0  0  0  0  0
  150.9683  142.5415  157.9916 C   0  0  2  0  0  0  0  0  0  0  0  0
  150.9753  143.9135  157.2788 C   0  0  0  0  0  0  0  0  0  0  0  0
  151.6552  144.8342  158.3098 C   0  0  2  0  0  0  0  0  0  0  0  0
  153.1633  144.5268  158.3386 C   0  0  0  0  0  0  0  0  0  0  0  0
  153.2149  143.1602  159.0459 C   0  0  0  0  0  0  0  0  0  0  0  0
  151.7255  142.8506  159.3046 C   0  0  1  0  0  0  0  0  0  0  0  0
  151.1877  144.2398  159.6339 C   0  0  0  0  0  0  0  0  0  0  0  0
  147.1958  142.0705  154.9074 C   0  0  0  0  0  0  0  0  0  0  0  0
  146.4937  141.7624  153.8279 N   0  0  0  0  0  0  0  0  0  0  0  0
  145.2231  137.5418  152.3495 H   0  0  0  0  0  0  0  0  0  0  0  0
  144.7018  139.2048  152.5186 H   0  0  0  0  0  0  0  0  0  0  0  0
  147.5906  140.6954  151.0430 H   0  0  0  0  0  0  0  0  0  0  0  0
  145.9222  140.9492  151.5273 H   0  0  0  0  0  0  0  0  0  0  0  0
  149.3307  140.2184  153.2208 H   0  0  0  0  0  0  0  0  0  0  0  0
  149.2592  142.2878  156.6084 H   0  0  0  0  0  0  0  0  0  0  0  0
  151.5821  140.4727  157.8142 H   0  0  0  0  0  0  0  0  0  0  0  0
  152.5344  141.5574  156.8314 H   0  0  0  0  0  0  0  0  0  0  0  0
  149.9372  142.3076  158.2643 H   0  0  0  0  0  0  0  0  0  0  0  0
  151.5172  143.9014  156.3321 H   0  0  0  0  0  0  0  0  0  0  0  0
  149.9561  144.2416  157.0717 H   0  0  0  0  0  0  0  0  0  0  0  0
  151.4269  145.8914  158.1707 H   0  0  0  0  0  0  0  0  0  0  0  0
  153.5988  144.4954  157.3391 H   0  0  0  0  0  0  0  0  0  0  0  0
  153.7038  145.2778  158.9158 H   0  0  0  0  0  0  0  0  0  0  0  0
  153.7206  142.3978  158.4545 H   0  0  0  0  0  0  0  0  0  0  0  0
  153.7543  143.2465  159.9899 H   0  0  0  0  0  0  0  0  0  0  0  0
  151.5649  142.1058  160.0847 H   0  0  0  0  0  0  0  0  0  0  0  0
  151.6635  144.6946  160.5045 H   0  0  0  0  0  0  0  0  0  0  0  0
  150.1041  144.2695  159.7631 H   0  0  0  0  0  0  0  0  0  0  0  0
  146.7488  142.6849  155.6751 H   0  0  0  0  0  0  0  0  0  0  0  0
  1  2  1  0  0  0  0
  1 21  1  0  0  0  0
  1 22  1  0  0  0  0
  2  3  2  0  0  0  0
  2  4  1  0  0  0  0
  4  5  1  0  0  0  0
  4 23  1  0  0  0  0
  4 24  1  0  0  0  0
  5 20  1  0  0  0  0
  5  6  1  0  0  0  0
  6  7  2  0  0  0  0
  6 25  1  0  0  0  0
  7  8  1  0  0  0  0
  7 19  1  0  0  0  0
  8  9  1  0  0  0  0
  8 26  1  0  0  0  0
  9 10  2  0  0  0  0
  9 11  1  0  0  0  0
 11 12  1  0  0  0  0
 11 27  1  0  0  0  0
 11 28  1  0  0  0  0
 12 17  1  0  0  0  0
 12 13  1  0  0  0  0
 12 29  1  0  0  0  0
 13 14  1  0  0  0  0
 13 30  1  0  0  0  0
 13 31  1  0  0  0  0
 14 18  1  0  0  0  0
 14 15  1  0  0  0  0
 14 32  1  0  0  0  0
 15 16  1  0  0  0  0
 15 33  1  0  0  0  0
 15 34  1  0  0  0  0
 16 17  1  0  0  0  0
 16 35  1  0  0  0  0
 16 36  1  0  0  0  0
 17 18  1  0  0  0  0
 17 37  1  0  0  0  0
 18 38  1  0  0  0  0
 18 39  1  0  0  0  0
 19 20  2  0  0  0  0
 19 40  1  0  0  0  0
M  END
> <s_m_source_file>
AV-unprocessed.smi

> <i_m_source_file_index>
1675

> <i_lp_mmshare_version>
43012

> <i_f3d_flags>
0

> <s_epik_input>
W05IMl1DKD1PKVtDSDJdbjFbY0hdYyhbY0hdbjEpW05IXUMoPU8pW0NIMl1bQ0BIXShbQ0gyXVtDQEBIXTIzKVtDQEBIXShbQ0gyXTMpW0NIMl1bQ0gyXTI=

> <s_epik_cmdline>
J2VwaWtfcHl0aG9uJywgJy1waCcsICc3LjAnLCAnLXRuJywgJzgnLCAnLW1hJywgJzIwMCcsICctbWV0YWxfYmluZGluZycsICctaW1hZScsICc8aW5maWxlLm1hZT4nLCAnLW9tYWUnLCAnPG91dGZpbGUubWFlPic=

> <r_lp_tautomer_probability>
1

> <r_epik_Ionization_Penalty>
2.17494e-05

> <r_epik_Ionization_Penalty_Charging>
0

> <r_epik_Ionization_Penalty_Neutral>
2.17494e-05

> <r_epik_State_Penalty>
-0

> <r_epik_Charging_Adjusted_Penalty>
0

> <i_epik_Tot_Q>
0

> <i_epik_Tot_abs_Q>
0

> <r_epik_Metal_State_Penalty>
-0

> <b_epik_Metal_Only>
0

> <s_lp_Force_Field>
OPLS_2005

> <r_lp_Energy>
53.8438

> <b_lp_Chiralities_Consistent>
1

> <s_lp_Variant>
AV-unprocessed.smi:1675-3

> <Gold.Version>
5.8.1

> <Gold.Id.Protein>
6NUR|6NUR_protein|mol2

> <Gold.PLP.Fitness>
46.6664

> <Gold.PLP.PLP>
-36.0888

> <Gold.PLP.part.hbond>
-4.4752

> <Gold.PLP.part.metal>
0.0000

> <Gold.PLP.part.buried>
1.3593

> <Gold.PLP.part.nonpolar>
-39.1095

> <Gold.PLP.part.repulsive>
6.3891

> <Gold.PLP.ligand.clash>
0.0802

> <Gold.PLP.ligand.torsion>
0.6062

> <Gold.PLP.Chemscore.Hbond>
3.0000

> <Gold.PLP.Chemscore.CHOScore>
0.9536

> <Gold.PLP.Chemscore.Metal>
0.0000

> <Gold.Chemscore.Hbonds>
donor molecule, donor type, donor heavy atom, donor atom, acceptor molecule, acceptor atom, score
      L1  H     1    22       P1 10175  1.00
      P1  H  7954  7966       L1     3  1.00
      P1  H  7989  7998       L1    10  1.00
      L1  C     6    25       P1  7957  0.88
      L1  C    19    40       P1  8028  0.01

> <Gold.PLP.Chemscore.Internal.Correction>
0.0095

> <Gold.Rescore>
     Score         DG    S(hbond)    S(metal)    S(lipo)     H(rot)  DE(clash)    DE(int)     intcor
     16.32     -22.76       2.87        0.00     112.72       2.15       4.75       1.68       ----

> <Gold.Chemscore.Fitness>
16.3218

> <Gold.Chemscore.DG>
-22.7590

> <Gold.Chemscore.ZeroCoef>
-5.4800

> <Gold.Chemscore.Hbond>
2.8714

> <Gold.Chemscore.Metal>
0.0000

> <Gold.Chemscore.Lipo>
112.7249

> <Gold.Chemscore.Internal_Hbond>
0.0000

> <Gold.Chemscore.DEClash>
4.7536

> <Gold.Chemscore.DEInternal>
1.6836

> <Gold.Chemscore.Rot>
2.1486

> <Gold.Chemscore.Internal.Correction>
   9.000000E+99

> <Gold.Chemscore.Hbonds>
donor molecule, donor type, donor heavy atom, donor atom, acceptor molecule, acceptor atom, score
      L1  H     1    22       P1 10175  0.99
      P1  H  7954  7966       L1     3  0.99
      P1  H  7989  7998       L1    10  0.95

> <Gold.Chemscore.Hbond.Weighted>
-9.5906

> <Gold.Chemscore.Metal.Weighted>
-0.0000

> <Gold.Chemscore.Lipo.Weighted>
-13.1888

> <Gold.Chemscore.Internal_Hbond.Weighted>
0.0000

> <Gold.Chemscore.DEClash.Weighted>
4.7536

> <Gold.Chemscore.DEInternal.Weighted>
1.6836

> <Gold.Chemscore.Rot.Weighted>
5.5004

> <Gold.Chemscore.Internal.Correction.Weighted>
   9.000000E+99

> <Gold.Protein.RotatedTorsions>
[ 6907 6896 6895 6894 ] final  137.38 input  -60.11 | X-H torsion
[ 7974 7965 7964 7962 ] final   13.32 input  175.53 | X-H torsion
[ 8008 7997 7996 7995 ] final   28.35 input   59.86 | X-H torsion
[ 10167 10162 10161 10158 ] final  -47.13 input  -65.29 | X-H torsion
[ 10718 10713 10712 10709 ] final  -48.31 input   66.30 | X-H torsion
[ 10763 10752 10751 10750 ] final  -40.21 input  -60.55 | X-H torsion
[ 11005 11000 10999 10996 ] final  -76.76 input  -57.11 | X-H torsion

> <Gold.Protein.ActiveResidues>
 VAL166  LYS551  ARG553  GLY616  TRP617  ASP618  TYR619  PRO620  LYS621  CYS622 
 ASP623  PHE694  ASN695  SER759  ASP760  ASP761  ALA762  ILE779  LEU786  VAL792 
 PHE793  MET794  SER795  GLU796  ALA797  LYS798  CYS799  TRP800  GLU811  SER814 

> <Gold.Protein.RotatedAtoms>
  152.2787  133.5450  159.5483 H   0  0  0  0  0  0  0  0  0  0  0  0  # atno 6907 bound_to 6896
  150.7187  134.0595  159.3835 H   0  0  0  0  0  0  0  0  0  0  0  0  # atno 6908 bound_to 6896
  151.8506  135.0559  160.0509 H   0  0  0  0  0  0  0  0  0  0  0  0  # atno 6909 bound_to 6896
  146.2332  139.9206  142.8510 H   0  0  0  0  0  0  0  0  0  0  0  0  # atno 7974 bound_to 7965
  155.0572  140.3186  155.4672 H   0  0  0  0  0  0  0  0  0  0  0  0  # atno 8008 bound_to 7997
  156.2821  140.2135  156.5643 H   0  0  0  0  0  0  0  0  0  0  0  0  # atno 8009 bound_to 7997
  154.7162  140.0493  157.0584 H   0  0  0  0  0  0  0  0  0  0  0  0  # atno 8010 bound_to 7997
  140.6788  143.2798  151.3882 H   0  0  0  0  0  0  0  0  0  0  0  0  # atno 10167 bound_to 10162
  156.2000  130.4156  149.9254 H   0  0  0  0  0  0  0  0  0  0  0  0  # atno 10718 bound_to 10713
  153.9422  135.6760  153.4744 H   0  0  0  0  0  0  0  0  0  0  0  0  # atno 10763 bound_to 10752
  153.0926  135.4867  154.8715 H   0  0  0  0  0  0  0  0  0  0  0  0  # atno 10764 bound_to 10752
  154.7371  135.3151  154.8751 H   0  0  0  0  0  0  0  0  0  0  0  0  # atno 10765 bound_to 10752
  141.1656  133.6996  156.7718 H   0  0  0  0  0  0  0  0  0  0  0  0  # atno 11005 bound_to 11000
  145.2140  140.9907  143.4084 LP  0  0  0  0  0  0  0  0  0  0  0  0  # atno 17320 bound_to 7965
  144.9667  139.3923  143.6329 LP  0  0  0  0  0  0  0  0  0  0  0  0  # atno 17321 bound_to 7965
  139.6097  144.1123  152.2286 LP  0  0  0  0  0  0  0  0  0  0  0  0  # atno 17342 bound_to 10162
  140.0534  144.5915  150.7319 LP  0  0  0  0  0  0  0  0  0  0  0  0  # atno 17343 bound_to 10162
  156.6967  130.8917  151.3594 LP  0  0  0  0  0  0  0  0  0  0  0  0  # atno 17370 bound_to 10713
  157.6980  130.9302  150.0701 LP  0  0  0  0  0  0  0  0  0  0  0  0  # atno 17371 bound_to 10713
  140.2458  134.8578  157.3619 LP  0  0  0  0  0  0  0  0  0  0  0  0  # atno 17394 bound_to 11000
  140.1751  134.4560  155.7807 LP  0  0  0  0  0  0  0  0  0  0  0  0  # atno 17395 bound_to 11000

$$$$
