AV-unprocessed.smi:2195|AV-procd|sdf|8905|dock4
  -GOLD-   2272012123D 1   1.00000     0.00000
 Structure written by MMmdl.
 39 41  0  0  0  0  0  0  0  0  1 V2000
  154.4051  142.5948  164.2764 C   0  0  0  0  0  0  0  0  0  0  0  0
  153.7234  142.5543  162.9241 C   0  0  0  0  0  0  0  0  0  0  0  0
  152.7375  143.5041  162.5908 C   0  0  0  0  0  0  0  0  0  0  0  0
  152.1110  143.4587  161.3304 C   0  0  0  0  0  0  0  0  0  0  0  0
  152.4569  142.4701  160.3861 C   0  0  0  0  0  0  0  0  0  0  0  0
  151.7963  142.5019  159.1766 O   0  0  0  0  0  0  0  0  0  0  0  0
  152.1698  141.5604  158.1788 C   0  0  0  0  0  0  0  0  0  0  0  0
  151.0872  141.5405  157.0884 C   0  0  1  0  0  0  0  0  0  0  0  0
  150.7079  142.8744  156.8096 O   0  0  0  0  0  0  0  0  0  0  0  0
  151.5898  140.8833  155.7881 C   0  0  0  0  0  0  0  0  0  0  0  0
  150.5519  140.1247  155.1129 N   0  0  0  0  0  0  0  0  0  0  0  0
  150.5686  138.8122  154.8103 C   0  0  0  0  0  0  0  0  0  0  0  0
  149.5043  138.3173  154.1842 N   0  0  0  0  0  0  0  0  0  0  0  0
  148.7036  139.4403  154.0653 C   0  0  0  0  0  0  0  0  0  0  0  0
  147.4234  139.5972  153.4870 C   0  0  0  0  0  0  0  0  0  0  0  0
  146.7921  140.8585  153.4806 C   0  0  0  0  0  0  0  0  0  0  0  0
  147.4289  141.9801  154.0510 C   0  0  0  0  0  0  0  0  0  0  0  0
  148.7039  141.8482  154.6340 C   0  0  0  0  0  0  0  0  0  0  0  0
  149.3304  140.5881  154.6376 C   0  0  0  0  0  0  0  0  0  0  0  0
  153.4471  141.5153  160.7296 C   0  0  0  0  0  0  0  0  0  0  0  0
  154.0739  141.5598  161.9901 C   0  0  0  0  0  0  0  0  0  0  0  0
  154.1171  143.4821  164.8410 H   0  0  0  0  0  0  0  0  0  0  0  0
  155.4883  142.6076  164.1539 H   0  0  0  0  0  0  0  0  0  0  0  0
  154.1355  141.7152  164.8612 H   0  0  0  0  0  0  0  0  0  0  0  0
  152.4576  144.2709  163.2983 H   0  0  0  0  0  0  0  0  0  0  0  0
  151.3574  144.1926  161.0853 H   0  0  0  0  0  0  0  0  0  0  0  0
  153.1468  141.7904  157.7496 H   0  0  0  0  0  0  0  0  0  0  0  0
  152.2326  140.5746  158.6430 H   0  0  0  0  0  0  0  0  0  0  0  0
  150.2157  140.9925  157.4495 H   0  0  0  0  0  0  0  0  0  0  0  0
  149.8151  142.8718  156.4993 H   0  0  0  0  0  0  0  0  0  0  0  0
  151.9752  141.6387  155.1014 H   0  0  0  0  0  0  0  0  0  0  0  0
  152.4173  140.2058  156.0024 H   0  0  0  0  0  0  0  0  0  0  0  0
  151.4119  138.1854  155.0609 H   0  0  0  0  0  0  0  0  0  0  0  0
  146.9265  138.7454  153.0472 H   0  0  0  0  0  0  0  0  0  0  0  0
  145.8140  140.9657  153.0349 H   0  0  0  0  0  0  0  0  0  0  0  0
  146.9379  142.9422  154.0407 H   0  0  0  0  0  0  0  0  0  0  0  0
  149.1954  142.7042  155.0722 H   0  0  0  0  0  0  0  0  0  0  0  0
  153.7443  140.7368  160.0436 H   0  0  0  0  0  0  0  0  0  0  0  0
  154.8271  140.8264  162.2386 H   0  0  0  0  0  0  0  0  0  0  0  0
  1  2  1  0  0  0  0
  1 22  1  0  0  0  0
  1 23  1  0  0  0  0
  1 24  1  0  0  0  0
  2 21  1  0  0  0  0
  2  3  2  0  0  0  0
  3  4  1  0  0  0  0
  3 25  1  0  0  0  0
  4  5  2  0  0  0  0
  4 26  1  0  0  0  0
  5  6  1  0  0  0  0
  5 20  1  0  0  0  0
  6  7  1  0  0  0  0
  7  8  1  0  0  0  0
  7 27  1  0  0  0  0
  7 28  1  0  0  0  0
  8  9  1  0  0  0  0
  8 10  1  0  0  0  0
  8 29  1  0  0  0  0
  9 30  1  0  0  0  0
 10 11  1  0  0  0  0
 10 31  1  0  0  0  0
 10 32  1  0  0  0  0
 11 19  1  0  0  0  0
 11 12  1  0  0  0  0
 12 13  2  0  0  0  0
 12 33  1  0  0  0  0
 13 14  1  0  0  0  0
 14 19  2  0  0  0  0
 14 15  1  0  0  0  0
 15 16  2  0  0  0  0
 15 34  1  0  0  0  0
 16 17  1  0  0  0  0
 16 35  1  0  0  0  0
 17 18  2  0  0  0  0
 17 36  1  0  0  0  0
 18 19  1  0  0  0  0
 18 37  1  0  0  0  0
 20 21  2  0  0  0  0
 20 38  1  0  0  0  0
 21 39  1  0  0  0  0
M  END
> <s_m_source_file>
AV-unprocessed.smi

> <i_m_source_file_index>
2195

> <i_lp_mmshare_version>
43012

> <i_f3d_flags>
0

> <s_epik_input>
W0NIM11jMVtjSF1bY0hdYyhbY0hdW2NIXTEpT1tDSDJdW0NASF0oW09IXSlbQ0gyXW4oW2NIXW4yKWMoYzIzKVtjSF1bY0hdW2NIXVtjSF0z

> <s_epik_cmdline>
J2VwaWtfcHl0aG9uJywgJy1waCcsICc3LjAnLCAnLXRuJywgJzgnLCAnLW1hJywgJzIwMCcsICctbWV0YWxfYmluZGluZycsICctaW1hZScsICc8aW5maWxlLm1hZT4nLCAnLW9tYWUnLCAnPG91dGZpbGUubWFlPic=

> <r_lp_tautomer_probability>
1

> <r_epik_Ionization_Penalty>
0.0609831

> <r_epik_Ionization_Penalty_Charging>
0

> <r_epik_Ionization_Penalty_Neutral>
0.0609831

> <r_epik_State_Penalty>
0.0529032

> <r_epik_Charging_Adjusted_Penalty>
0.0529032

> <i_epik_Tot_Q>
0

> <i_epik_Tot_abs_Q>
0

> <r_epik_Metal_State_Penalty>
5.53344e-05

> <b_epik_Metal_Only>
0

> <s_lp_Force_Field>
OPLS_2005

> <r_lp_Energy>
16.3269

> <b_lp_Chiralities_Consistent>
1

> <s_lp_Variant>
AV-unprocessed.smi:2195-2

> <Gold.Version>
5.8.1

> <Gold.Id.Protein>
6NUR|6NUR_protein|mol2

> <Gold.PLP.Fitness>
51.3972

> <Gold.PLP.PLP>
-52.3645

> <Gold.PLP.part.hbond>
-1.0000

> <Gold.PLP.part.metal>
0.0000

> <Gold.PLP.part.buried>
-1.8389

> <Gold.PLP.part.nonpolar>
-47.8658

> <Gold.PLP.part.repulsive>
0.2206

> <Gold.PLP.ligand.clash>
0.0000

> <Gold.PLP.ligand.torsion>
0.6838

> <Gold.PLP.Chemscore.Hbond>
0.0967

> <Gold.PLP.Chemscore.CHOScore>
0.0000

> <Gold.PLP.Chemscore.Metal>
0.0000

> <Gold.Chemscore.Hbonds>
donor molecule, donor type, donor heavy atom, donor atom, acceptor molecule, acceptor atom, score
      L1  H     9    30       P1  8028  0.21

> <Gold.PLP.Chemscore.Internal.Correction>
0.1101

> <Gold.Rescore>
     Score         DG    S(hbond)    S(metal)    S(lipo)     H(rot)  DE(clash)    DE(int)     intcor
     16.73     -17.79       0.44        0.00     140.34       2.19       0.41       0.64       ----

> <Gold.Chemscore.Fitness>
16.7334

> <Gold.Chemscore.DG>
-17.7854

> <Gold.Chemscore.ZeroCoef>
-5.4800

> <Gold.Chemscore.Hbond>
0.4449

> <Gold.Chemscore.Metal>
0.0000

> <Gold.Chemscore.Lipo>
140.3410

> <Gold.Chemscore.Internal_Hbond>
0.0000

> <Gold.Chemscore.DEClash>
0.4109

> <Gold.Chemscore.DEInternal>
0.6411

> <Gold.Chemscore.Rot>
2.1877

> <Gold.Chemscore.Internal.Correction>
   9.000000E+99

> <Gold.Chemscore.Hbonds>
donor molecule, donor type, donor heavy atom, donor atom, acceptor molecule, acceptor atom, score
      L1  H     9    30       P1  8028  0.21

> <Gold.Chemscore.Hbond.Weighted>
-1.4860

> <Gold.Chemscore.Metal.Weighted>
-0.0000

> <Gold.Chemscore.Lipo.Weighted>
-16.4199

> <Gold.Chemscore.Internal_Hbond.Weighted>
0.0000

> <Gold.Chemscore.DEClash.Weighted>
0.4109

> <Gold.Chemscore.DEInternal.Weighted>
0.6411

> <Gold.Chemscore.Rot.Weighted>
5.6005

> <Gold.Chemscore.Internal.Correction.Weighted>
   9.000000E+99

> <Gold.Protein.RotatedTorsions>
[ 6907 6896 6895 6894 ] final  138.58 input  -60.11 | X-H torsion
[ 7974 7965 7964 7962 ] final   76.04 input  175.53 | X-H torsion
[ 8008 7997 7996 7995 ] final  -11.59 input   59.86 | X-H torsion
[ 10167 10162 10161 10158 ] final -120.42 input  -65.29 | X-H torsion
[ 10718 10713 10712 10709 ] final    2.43 input   66.30 | X-H torsion
[ 10763 10752 10751 10750 ] final   94.11 input  -60.55 | X-H torsion
[ 11005 11000 10999 10996 ] final  166.18 input  -57.11 | X-H torsion

> <Gold.Protein.ActiveResidues>
 VAL166  LYS551  ARG553  GLY616  TRP617  ASP618  TYR619  PRO620  LYS621  CYS622 
 ASP623  PHE694  ASN695  SER759  ASP760  ASP761  ALA762  ILE779  LEU786  VAL792 
 PHE793  MET794  SER795  GLU796  ALA797  LYS798  CYS799  TRP800  GLU811  SER814 

> <Gold.Protein.RotatedAtoms>
  152.2649  133.5330  159.5403 H   0  0  0  0  0  0  0  0  0  0  0  0  # atno 6907 bound_to 6896
  150.7138  134.0778  159.3896 H   0  0  0  0  0  0  0  0  0  0  0  0  # atno 6908 bound_to 6896
  151.8695  135.0495  160.0528 H   0  0  0  0  0  0  0  0  0  0  0  0  # atno 6909 bound_to 6896
  145.7079  139.2604  143.1668 H   0  0  0  0  0  0  0  0  0  0  0  0  # atno 7974 bound_to 7965
  154.5451  140.2298  155.8576 H   0  0  0  0  0  0  0  0  0  0  0  0  # atno 8008 bound_to 7997
  156.1895  140.3080  155.9267 H   0  0  0  0  0  0  0  0  0  0  0  0  # atno 8009 bound_to 7997
  155.3180  140.0439  157.3028 H   0  0  0  0  0  0  0  0  0  0  0  0  # atno 8010 bound_to 7997
  140.0361  143.5200  152.2153 H   0  0  0  0  0  0  0  0  0  0  0  0  # atno 10167 bound_to 10162
  156.8628  130.5593  149.5662 H   0  0  0  0  0  0  0  0  0  0  0  0  # atno 10718 bound_to 10713
  153.2379  135.4301  155.0666 H   0  0  0  0  0  0  0  0  0  0  0  0  # atno 10763 bound_to 10752
  154.8327  135.3395  154.6692 H   0  0  0  0  0  0  0  0  0  0  0  0  # atno 10764 bound_to 10752
  153.7117  135.7022  153.5092 H   0  0  0  0  0  0  0  0  0  0  0  0  # atno 10765 bound_to 10752
  140.2638  134.7881  157.3614 H   0  0  0  0  0  0  0  0  0  0  0  0  # atno 11005 bound_to 11000
  146.0739  140.7838  142.9674 LP  0  0  0  0  0  0  0  0  0  0  0  0  # atno 17320 bound_to 7965
  144.6950  140.3385  143.7203 LP  0  0  0  0  0  0  0  0  0  0  0  0  # atno 17321 bound_to 7965
  139.6044  144.7592  151.3095 LP  0  0  0  0  0  0  0  0  0  0  0  0  # atno 17342 bound_to 10162
  140.7281  143.6945  150.7895 LP  0  0  0  0  0  0  0  0  0  0  0  0  # atno 17343 bound_to 10162
  156.0767  130.5788  150.9487 LP  0  0  0  0  0  0  0  0  0  0  0  0  # atno 17370 bound_to 10713
  157.6240  131.0927  150.8569 LP  0  0  0  0  0  0  0  0  0  0  0  0  # atno 17371 bound_to 10713
  140.1439  134.4936  155.8011 LP  0  0  0  0  0  0  0  0  0  0  0  0  # atno 17394 bound_to 11000
  141.2187  133.6836  156.7259 LP  0  0  0  0  0  0  0  0  0  0  0  0  # atno 17395 bound_to 11000

$$$$
