AV-unprocessed.smi:3252|AV-procd|sdf|12444|dock4
  -GOLD-   2272018333D 1   1.00000     0.00000
 Structure written by MMmdl.
 36 37  0  0  0  0  0  0  0  0  1 V2000
  150.8033  145.2794  159.7048 C   0  0  0  0  0  0  0  0  0  0  0  0
  151.8383  144.2960  160.2698 C   0  0  0  0  0  0  0  0  0  0  0  0
  151.7281  142.9282  159.7666 N   0  0  0  0  0  0  0  0  0  0  0  0
  152.8627  142.0943  160.1558 C   0  0  0  0  0  0  0  0  0  0  0  0
  152.7500  140.6699  159.5856 C   0  0  0  0  0  0  0  0  0  0  0  0
  152.6098  140.7301  158.1697 O   0  0  0  0  0  0  0  0  0  0  0  0
  151.4741  141.4855  157.7542 C   0  0  2  0  0  0  0  0  0  0  0  0
  151.4168  141.4804  156.2210 C   0  0  0  0  0  0  0  0  0  0  0  0
  150.1440  141.9885  155.7290 N   0  0  0  0  0  0  0  0  0  0  0  0
  149.3191  141.1964  154.9193 C   0  0  0  0  0  0  0  0  0  0  0  0
  147.9916  141.6168  154.6913 C   0  0  0  0  0  0  0  0  0  0  0  0
  147.1593  140.8268  153.8742 C   0  0  0  0  0  0  0  0  0  0  0  0
  147.6825  139.6442  153.3150 C   0  0  0  0  0  0  0  0  0  0  0  0
  146.8643  138.7963  152.4648 C   0  0  0  0  0  0  0  0  0  0  0  0
  146.2130  138.1209  151.7878 N   0  0  0  0  0  0  0  0  0  0  0  0
  149.0206  139.3050  153.6010 C   0  0  0  0  0  0  0  0  0  0  0  0
  149.8235  140.0591  154.3826 N   0  0  0  0  0  0  0  0  0  0  0  0
  151.6101  142.9153  158.3127 C   0  0  0  0  0  0  0  0  0  0  0  0
  151.0147  146.2930  160.0455 H   0  0  0  0  0  0  0  0  0  0  0  0
  149.7904  145.0354  160.0246 H   0  0  0  0  0  0  0  0  0  0  0  0
  150.8222  145.2869  158.6148 H   0  0  0  0  0  0  0  0  0  0  0  0
  152.8264  144.6838  160.0182 H   0  0  0  0  0  0  0  0  0  0  0  0
  151.7853  144.2965  161.3594 H   0  0  0  0  0  0  0  0  0  0  0  0
  153.7918  142.5488  159.8084 H   0  0  0  0  0  0  0  0  0  0  0  0
  152.9313  142.0310  161.2413 H   0  0  0  0  0  0  0  0  0  0  0  0
  153.6406  140.0914  159.8313 H   0  0  0  0  0  0  0  0  0  0  0  0
  151.8973  140.1456  160.0198 H   0  0  0  0  0  0  0  0  0  0  0  0
  150.5657  141.0292  158.1527 H   0  0  0  0  0  0  0  0  0  0  0  0
  152.2145  142.1121  155.8280 H   0  0  0  0  0  0  0  0  0  0  0  0
  151.5852  140.4727  155.8390 H   0  0  0  0  0  0  0  0  0  0  0  0
  149.8735  142.9339  155.9588 H   0  0  0  0  0  0  0  0  0  0  0  0
  147.6151  142.5288  155.1311 H   0  0  0  0  0  0  0  0  0  0  0  0
  146.1395  141.1290  153.6830 H   0  0  0  0  0  0  0  0  0  0  0  0
  149.4642  138.4075  153.1942 H   0  0  0  0  0  0  0  0  0  0  0  0
  150.7420  143.5024  158.0103 H   0  0  0  0  0  0  0  0  0  0  0  0
  152.4815  143.3979  157.8671 H   0  0  0  0  0  0  0  0  0  0  0  0
  1  2  1  0  0  0  0
  1 19  1  0  0  0  0
  1 20  1  0  0  0  0
  1 21  1  0  0  0  0
  2  3  1  0  0  0  0
  2 22  1  0  0  0  0
  2 23  1  0  0  0  0
  3 18  1  0  0  0  0
  3  4  1  0  0  0  0
  4  5  1  0  0  0  0
  4 24  1  0  0  0  0
  4 25  1  0  0  0  0
  5  6  1  0  0  0  0
  5 26  1  0  0  0  0
  5 27  1  0  0  0  0
  6  7  1  0  0  0  0
  7  8  1  0  0  0  0
  7 18  1  0  0  0  0
  7 28  1  0  0  0  0
  8  9  1  0  0  0  0
  8 29  1  0  0  0  0
  8 30  1  0  0  0  0
  9 10  1  0  0  0  0
  9 31  1  0  0  0  0
 10 17  1  0  0  0  0
 10 11  2  0  0  0  0
 11 12  1  0  0  0  0
 11 32  1  0  0  0  0
 12 13  2  0  0  0  0
 12 33  1  0  0  0  0
 13 14  1  0  0  0  0
 13 16  1  0  0  0  0
 14 15  3  0  0  0  0
 16 17  2  0  0  0  0
 16 34  1  0  0  0  0
 18 35  1  0  0  0  0
 18 36  1  0  0  0  0
M  END
> <s_m_source_file>
AV-unprocessed.smi

> <i_m_source_file_index>
3252

> <i_lp_mmshare_version>
43012

> <i_f3d_flags>
0

> <s_epik_input>
W0NIM11bQ0gyXU4xW0NIMl1bQ0gyXU9bQ0BIXShbQ0gyXTEpW0NIMl1bTkhdYzJbY0hdW2NIXWMoQyNOKVtjSF1uMg==

> <s_epik_cmdline>
J2VwaWtfcHl0aG9uJywgJy1waCcsICc3LjAnLCAnLXRuJywgJzgnLCAnLW1hJywgJzIwMCcsICctbWV0YWxfYmluZGluZycsICctaW1hZScsICc8aW5maWxlLm1hZT4nLCAnLW9tYWUnLCAnPG91dGZpbGUubWFlPic=

> <r_epik_Ionization_Penalty>
0.797836

> <r_epik_Ionization_Penalty_Charging>
0

> <r_epik_Ionization_Penalty_Neutral>
0.797836

> <r_epik_State_Penalty>
0.828842

> <r_epik_Charging_Adjusted_Penalty>
0.828842

> <i_epik_Tot_Q>
0

> <i_epik_Tot_abs_Q>
0

> <r_epik_Metal_State_Penalty>
0.828842

> <b_epik_Metal_Only>
0

> <s_lp_Force_Field>
OPLS_2005

> <r_lp_Energy>
23.1529

> <b_lp_Chiralities_Consistent>
1

> <s_lp_Variant>
AV-unprocessed.smi:3252-6

> <Gold.Version>
5.8.1

> <Gold.Id.Protein>
6NUR|6NUR_protein|mol2

> <Gold.PLP.Fitness>
41.2741

> <Gold.PLP.PLP>
-34.0165

> <Gold.PLP.part.hbond>
-2.4246

> <Gold.PLP.part.metal>
0.0000

> <Gold.PLP.part.buried>
-0.3045

> <Gold.PLP.part.nonpolar>
-32.1509

> <Gold.PLP.part.repulsive>
1.2413

> <Gold.PLP.ligand.clash>
0.0000

> <Gold.PLP.ligand.torsion>
0.1704

> <Gold.PLP.Chemscore.Hbond>
1.6755

> <Gold.PLP.Chemscore.CHOScore>
0.8551

> <Gold.PLP.Chemscore.Metal>
0.0000

> <Gold.Chemscore.Hbonds>
donor molecule, donor type, donor heavy atom, donor atom, acceptor molecule, acceptor atom, score
      L1  H     9    31       P1  8028  0.93
      P1  H  7989  7998       L1    17  0.61
      P1  H  7997  8010       L1     6  0.03
      L1  C    16    34       P1  7948  0.91

> <Gold.PLP.Chemscore.Internal.Correction>
0.0067

> <Gold.Rescore>
     Score         DG    S(hbond)    S(metal)    S(lipo)     H(rot)  DE(clash)    DE(int)     intcor
     15.15     -15.63       1.02        0.00      89.11       1.43       0.26       0.22       ----

> <Gold.Chemscore.Fitness>
15.1496

> <Gold.Chemscore.DG>
-15.6281

> <Gold.Chemscore.ZeroCoef>
-5.4800

> <Gold.Chemscore.Hbond>
1.0153

> <Gold.Chemscore.Metal>
0.0000

> <Gold.Chemscore.Lipo>
89.1091

> <Gold.Chemscore.Internal_Hbond>
0.0000

> <Gold.Chemscore.DEClash>
0.2601

> <Gold.Chemscore.DEInternal>
0.2183

> <Gold.Chemscore.Rot>
1.4331

> <Gold.Chemscore.Internal.Correction>
   9.000000E+99

> <Gold.Chemscore.Hbonds>
donor molecule, donor type, donor heavy atom, donor atom, acceptor molecule, acceptor atom, score
      L1  H     9    31       P1  8028  0.87
      P1  H  7989  7998       L1    17  0.13
      P1  H  7997  8010       L1     6  0.05

> <Gold.Chemscore.Hbond.Weighted>
-3.3911

> <Gold.Chemscore.Metal.Weighted>
-0.0000

> <Gold.Chemscore.Lipo.Weighted>
-10.4258

> <Gold.Chemscore.Internal_Hbond.Weighted>
0.0000

> <Gold.Chemscore.DEClash.Weighted>
0.2601

> <Gold.Chemscore.DEInternal.Weighted>
0.2183

> <Gold.Chemscore.Rot.Weighted>
3.6688

> <Gold.Chemscore.Internal.Correction.Weighted>
   9.000000E+99

> <Gold.Protein.RotatedTorsions>
[ 6907 6896 6895 6894 ] final   40.63 input  -60.11 | X-H torsion
[ 7974 7965 7964 7962 ] final    8.50 input  175.53 | X-H torsion
[ 8008 7997 7996 7995 ] final   28.26 input   59.86 | X-H torsion
[ 10167 10162 10161 10158 ] final -152.79 input  -65.29 | X-H torsion
[ 10718 10713 10712 10709 ] final  -34.66 input   66.30 | X-H torsion
[ 10763 10752 10751 10750 ] final  169.91 input  -60.55 | X-H torsion
[ 11005 11000 10999 10996 ] final -157.68 input  -57.11 | X-H torsion

> <Gold.Protein.ActiveResidues>
 VAL166  LYS551  ARG553  GLY616  TRP617  ASP618  TYR619  PRO620  LYS621  CYS622 
 ASP623  PHE694  ASN695  SER759  ASP760  ASP761  ALA762  ILE779  LEU786  VAL792 
 PHE793  MET794  SER795  GLU796  ALA797  LYS798  CYS799  TRP800  GLU811  SER814 

> <Gold.Protein.RotatedAtoms>
  152.1849  134.8722  160.0522 H   0  0  0  0  0  0  0  0  0  0  0  0  # atno 6907 bound_to 6896
  151.9632  133.3697  159.4051 H   0  0  0  0  0  0  0  0  0  0  0  0  # atno 6908 bound_to 6896
  150.6924  134.4141  159.5219 H   0  0  0  0  0  0  0  0  0  0  0  0  # atno 6909 bound_to 6896
  146.2415  139.9924  142.8424 H   0  0  0  0  0  0  0  0  0  0  0  0  # atno 7974 bound_to 7965
  155.0558  140.3185  155.4676 H   0  0  0  0  0  0  0  0  0  0  0  0  # atno 8008 bound_to 7997
  156.2824  140.2137  156.5629 H   0  0  0  0  0  0  0  0  0  0  0  0  # atno 8009 bound_to 7997
  154.7172  140.0493  157.0593 H   0  0  0  0  0  0  0  0  0  0  0  0  # atno 8010 bound_to 7997
  139.7151  143.9046  152.2483 H   0  0  0  0  0  0  0  0  0  0  0  0  # atno 10167 bound_to 10162
  156.3479  130.4303  149.7730 H   0  0  0  0  0  0  0  0  0  0  0  0  # atno 10718 bound_to 10713
  154.3900  135.2754  155.2160 H   0  0  0  0  0  0  0  0  0  0  0  0  # atno 10763 bound_to 10752
  154.4230  135.5995  153.6025 H   0  0  0  0  0  0  0  0  0  0  0  0  # atno 10764 bound_to 10752
  152.9832  135.5977  154.4154 H   0  0  0  0  0  0  0  0  0  0  0  0  # atno 10765 bound_to 10752
  140.6619  134.4340  157.5234 H   0  0  0  0  0  0  0  0  0  0  0  0  # atno 11005 bound_to 11000
  145.1491  140.9613  143.4443 LP  0  0  0  0  0  0  0  0  0  0  0  0  # atno 17320 bound_to 7965
  145.0222  139.3414  143.6066 LP  0  0  0  0  0  0  0  0  0  0  0  0  # atno 17321 bound_to 7965
  139.8926  144.6957  150.8753 LP  0  0  0  0  0  0  0  0  0  0  0  0  # atno 17342 bound_to 10162
  140.7742  143.3574  151.1894 LP  0  0  0  0  0  0  0  0  0  0  0  0  # atno 17343 bound_to 10162
  156.4942  130.8099  151.3107 LP  0  0  0  0  0  0  0  0  0  0  0  0  # atno 17370 bound_to 10713
  157.7457  130.9965  150.2784 LP  0  0  0  0  0  0  0  0  0  0  0  0  # atno 17371 bound_to 10713
  139.9010  134.8556  156.1896 LP  0  0  0  0  0  0  0  0  0  0  0  0  # atno 17394 bound_to 11000
  141.0459  133.6914  156.1682 LP  0  0  0  0  0  0  0  0  0  0  0  0  # atno 17395 bound_to 11000

$$$$
