#       Name:                AV-unprocessed.smi:1994
#       Creating user name   scv26
#       Creation time:       Fri Mar 27 10:28:43 2020


#       File generated by GOLD software.
#

@<TRIPOS>MOLECULE
AV-unprocessed.smi:1994
    44    46     1
SMALL
NO_CHARGES


@<TRIPOS>ATOM
      1 ****        -1.4288   2.0870   3.3259 C.3            1 S1                 0.0000
      2 ****        -1.4805   2.4445   1.8783 C.2            1 S1                 0.0000
      3 ****        -1.9357   3.6196   1.3586 N.pl3          1 S1                 1.0000
      4 ****        -1.8363   3.5905  -0.0335 C.ar           1 S1                 0.0000
      5 ****        -2.1718   4.5417  -0.9921 C.ar           1 S1                 0.0000
      6 ****        -1.9424   4.1907  -2.3390 C.ar           1 S1                 0.0000
      7 ****        -1.4005   2.9369  -2.6894 C.ar           1 S1                 0.0000
      8 ****        -1.0651   1.9801  -1.7085 C.ar           1 S1                 0.0000
      9 ****        -1.2937   2.3363  -0.3798 C.ar           1 S1                 0.0000
     10 ****        -1.0869   1.6656   0.8303 N.pl3          1 S1                 0.0000
     11 ****        -0.5245   0.3069   0.8093 C.3            1 S1                 0.0000
     12 ****         1.0025   0.2897   0.5932 C.3            1 S1                 0.0000
     13 ****         1.6381   1.0366   1.6110 O.3            1 S1                 0.0000
     14 ****         1.5761  -1.1340   0.5979 C.3            1 S1                 0.0000
     15 ****         1.0641  -1.8337  -0.5283 O.3            1 S1                 0.0000
     16 ****         1.4144  -3.1569  -0.6921 C.ar           1 S1                 0.0000
     17 ****         2.3091  -3.8540   0.1595 C.ar           1 S1                 0.0000
     18 ****         2.6127  -5.2083  -0.0801 C.ar           1 S1                 0.0000
     19 ****         2.0300  -5.8814  -1.1697 C.ar           1 S1                 0.0000
     20 ****         1.1424  -5.1976  -2.0206 C.ar           1 S1                 0.0000
     21 ****         0.8376  -3.8435  -1.7820 C.ar           1 S1                 0.0000
     22 ****        -0.0200  -3.1971  -2.6076 F              1 S1                 0.0000
     23 ****        -1.6809   2.9497   3.9431 H              1 S1                 0.0000
     24 ****        -0.4287   1.7484   3.5971 H              1 S1                 0.0000
     25 ****        -2.1377   1.2871   3.5404 H              1 S1                 0.0000
     26 ****        -2.5876   5.5025  -0.7263 H              1 S1                 0.0000
     27 ****        -2.1869   4.8973  -3.1190 H              1 S1                 0.0000
     28 ****        -1.2384   2.7037  -3.7317 H              1 S1                 0.0000
     29 ****        -0.6508   1.0218  -1.9862 H              1 S1                 0.0000
     30 ****        -0.7787  -0.1734   1.7551 H              1 S1                 0.0000
     31 ****        -1.0361  -0.2615   0.0314 H              1 S1                 0.0000
     32 ****         1.2476   0.7630  -0.3579 H              1 S1                 0.0000
     33 ****         1.3266   1.9273   1.5670 H              1 S1                 0.0000
     34 ****         2.6651  -1.0919   0.5360 H              1 S1                 0.0000
     35 ****         1.3075  -1.6430   1.5254 H              1 S1                 0.0000
     36 ****         2.7775  -3.3714   1.0037 H              1 S1                 0.0000
     37 ****         3.2947  -5.7315   0.5739 H              1 S1                 0.0000
     38 ****         2.2637  -6.9199  -1.3525 H              1 S1                 0.0000
     39 ****         0.6940  -5.7120  -2.8577 H              1 S1                 0.0000
     40 ****        -2.2907   4.3842   1.9184 H              1 S1                 0.0000
     41 ****         2.6286   1.0183   1.4746 LP             1 S1                 0.0000
     42 ****         1.4174   0.6456   2.5045 LP             1 S1                 0.0000
     43 ****         1.3693  -1.3437  -1.3448 LP             1 S1                 0.0000
     44 ****         0.0664  -1.7968  -0.4710 LP             1 S1                 0.0000
@<TRIPOS>BOND
    1    1    2 1     
    2    1   23 1     
    3    1   24 1     
    4    1   25 1     
    5    2   10 1     
    6    2    3 2     
    7    3    4 1     
    8    3   40 1     
    9    4    9 ar    
   10    4    5 ar    
   11    5    6 ar    
   12    5   26 1     
   13    6    7 ar    
   14    6   27 1     
   15    7    8 ar    
   16    7   28 1     
   17    8    9 ar    
   18    8   29 1     
   19    9   10 1     
   20   10   11 1     
   21   11   12 1     
   22   11   30 1     
   23   11   31 1     
   24   12   13 1     
   25   12   14 1     
   26   12   32 1     
   27   13   33 1     
   28   14   15 1     
   29   14   34 1     
   30   14   35 1     
   31   15   16 1     
   32   16   21 ar    
   33   16   17 ar    
   34   17   18 ar    
   35   17   36 1     
   36   18   19 ar    
   37   18   37 1     
   38   19   20 ar    
   39   19   38 1     
   40   20   21 ar    
   41   20   39 1     
   42   21   22 1     
   43   13   41 1     
   44   13   42 1     
   45   15   43 1     
   46   15   44 1     
@<TRIPOS>SUBSTRUCTURE
      1 S1             1
@<TRIPOS>SET
LONE_PAIRS      STATIC     ATOMS    <user>   **** ""
4 41 42 43 44
DONOR_HYDROGENS      STATIC     ATOMS    <user>   **** ""
2 40 33
ATOM$BLUE        STATIC     ATOMS    COLORGROUP SYSTEM
4 41 42 43 44
ATOM$RED        STATIC     ATOMS    COLORGROUP SYSTEM
2 40 33
