AV-unprocessed.smi:2300|AV-procd|sdf|9232|dock3
  -GOLD-   2272012453D 1   1.00000     0.00000
 Structure written by MMmdl.
 51 52  0  0  0  0  0  0  0  0  1 V2000
  145.5132  142.7951  161.7089 C   0  0  0  0  0  0  0  0  0  0  0  0
  146.2013  143.1966  160.4085 C   0  0  0  0  0  0  0  0  0  0  0  0
  147.3636  143.6008  160.4242 O   0  0  0  0  0  0  0  0  0  0  0  0
  145.4713  143.0816  159.2893 N   0  0  0  0  0  0  0  0  0  0  0  0
  145.9411  143.4026  157.9459 C   0  0  0  0  0  0  0  0  0  0  0  0
  146.6516  142.2068  157.2895 C   0  0  2  0  0  0  0  0  0  0  0  0
  148.1659  142.2191  157.5712 C   0  0  0  0  0  0  0  0  0  0  0  0
  148.8309  141.1330  156.8538 N   0  0  0  0  0  0  0  0  0  0  0  0
  150.1670  140.8367  157.1998 C   0  0  0  0  0  0  0  0  0  0  0  0
  150.8700  141.6318  158.1358 C   0  0  0  0  0  0  0  0  0  0  0  0
  152.2016  141.2612  158.4200 C   0  0  0  0  0  0  0  0  0  0  0  0
  153.0482  142.0512  159.4079 C   0  0  0  0  0  0  0  0  0  0  0  0
  153.5705  141.1639  160.5486 C   0  0  0  0  0  0  0  0  0  0  0  0
  152.3081  143.2941  159.9265 C   0  0  0  0  0  0  0  0  0  0  0  0
  152.7812  140.1951  157.8259 N   0  0  0  0  0  0  0  0  0  0  0  0
  152.0386  139.5097  156.9522 C   0  0  0  0  0  0  0  0  0  0  0  0
  152.6923  138.3101  156.2792 C   0  0  0  0  0  0  0  0  0  0  0  0
  152.8894  138.5331  154.7718 C   0  0  0  0  0  0  0  0  0  0  0  0
  151.9595  136.9991  156.6032 C   0  0  0  0  0  0  0  0  0  0  0  0
  150.7741  139.7761  156.6123 N   0  0  0  0  0  0  0  0  0  0  0  0
  148.5220  141.1049  155.4265 C   0  0  0  0  0  0  0  0  0  0  0  0
  147.0007  141.1491  155.2058 C   0  0  0  0  0  0  0  0  0  0  0  0
  146.4486  142.2746  155.8799 O   0  0  0  0  0  0  0  0  0  0  0  0
  144.9753  141.8542  161.5871 H   0  0  0  0  0  0  0  0  0  0  0  0
  144.8020  143.5635  162.0128 H   0  0  0  0  0  0  0  0  0  0  0  0
  146.2429  142.6678  162.5093 H   0  0  0  0  0  0  0  0  0  0  0  0
  144.5265  142.7354  159.3710 H   0  0  0  0  0  0  0  0  0  0  0  0
  145.0842  143.7053  157.3436 H   0  0  0  0  0  0  0  0  0  0  0  0
  146.6094  144.2644  157.9869 H   0  0  0  0  0  0  0  0  0  0  0  0
  146.2233  141.2789  157.6737 H   0  0  0  0  0  0  0  0  0  0  0  0
  148.5999  143.1718  157.2639 H   0  0  0  0  0  0  0  0  0  0  0  0
  148.3316  142.1157  158.6443 H   0  0  0  0  0  0  0  0  0  0  0  0
  150.4245  142.4957  158.6053 H   0  0  0  0  0  0  0  0  0  0  0  0
  153.9231  142.4111  158.8648 H   0  0  0  0  0  0  0  0  0  0  0  0
  154.1465  140.3240  160.1585 H   0  0  0  0  0  0  0  0  0  0  0  0
  152.7531  140.7585  161.1459 H   0  0  0  0  0  0  0  0  0  0  0  0
  154.2211  141.7275  161.2176 H   0  0  0  0  0  0  0  0  0  0  0  0
  152.0026  143.9393  159.1023 H   0  0  0  0  0  0  0  0  0  0  0  0
  152.9454  143.8825  160.5871 H   0  0  0  0  0  0  0  0  0  0  0  0
  151.4128  143.0220  160.4864 H   0  0  0  0  0  0  0  0  0  0  0  0
  153.6932  138.2100  156.7035 H   0  0  0  0  0  0  0  0  0  0  0  0
  153.4825  139.4284  154.5836 H   0  0  0  0  0  0  0  0  0  0  0  0
  151.9349  138.6507  154.2578 H   0  0  0  0  0  0  0  0  0  0  0  0
  153.4091  137.6902  154.3155 H   0  0  0  0  0  0  0  0  0  0  0  0
  151.9061  136.8371  157.6800 H   0  0  0  0  0  0  0  0  0  0  0  0
  152.4746  136.1435  156.1659 H   0  0  0  0  0  0  0  0  0  0  0  0
  150.9401  137.0055  156.2157 H   0  0  0  0  0  0  0  0  0  0  0  0
  148.9928  141.9647  154.9484 H   0  0  0  0  0  0  0  0  0  0  0  0
  148.9219  140.2149  154.9429 H   0  0  0  0  0  0  0  0  0  0  0  0
  146.7790  141.2294  154.1417 H   0  0  0  0  0  0  0  0  0  0  0  0
  146.5287  140.2314  155.5602 H   0  0  0  0  0  0  0  0  0  0  0  0
  1  2  1  0  0  0  0
  1 24  1  0  0  0  0
  1 25  1  0  0  0  0
  1 26  1  0  0  0  0
  2  3  2  0  0  0  0
  2  4  1  0  0  0  0
  4  5  1  0  0  0  0
  4 27  1  0  0  0  0
  5  6  1  0  0  0  0
  5 28  1  0  0  0  0
  5 29  1  0  0  0  0
  6 23  1  0  0  0  0
  6  7  1  0  0  0  0
  6 30  1  0  0  0  0
  7  8  1  0  0  0  0
  7 31  1  0  0  0  0
  7 32  1  0  0  0  0
  8  9  1  0  0  0  0
  8 21  1  0  0  0  0
  9 20  1  0  0  0  0
  9 10  2  0  0  0  0
 10 11  1  0  0  0  0
 10 33  1  0  0  0  0
 11 12  1  0  0  0  0
 11 15  2  0  0  0  0
 12 13  1  0  0  0  0
 12 14  1  0  0  0  0
 12 34  1  0  0  0  0
 13 35  1  0  0  0  0
 13 36  1  0  0  0  0
 13 37  1  0  0  0  0
 14 38  1  0  0  0  0
 14 39  1  0  0  0  0
 14 40  1  0  0  0  0
 15 16  1  0  0  0  0
 16 17  1  0  0  0  0
 16 20  2  0  0  0  0
 17 18  1  0  0  0  0
 17 19  1  0  0  0  0
 17 41  1  0  0  0  0
 18 42  1  0  0  0  0
 18 43  1  0  0  0  0
 18 44  1  0  0  0  0
 19 45  1  0  0  0  0
 19 46  1  0  0  0  0
 19 47  1  0  0  0  0
 21 22  1  0  0  0  0
 21 48  1  0  0  0  0
 21 49  1  0  0  0  0
 22 23  1  0  0  0  0
 22 50  1  0  0  0  0
 22 51  1  0  0  0  0
M  END
> <s_m_source_file>
AV-unprocessed.smi

> <i_m_source_file_index>
2300

> <i_lp_mmshare_version>
43012

> <i_f3d_flags>
0

> <s_epik_input>
W0NIM11DKD1PKVtOSF1bQ0gyXVtDQEBIXTFbQ0gyXU4oW0NIMl1bQ0gyXU8xKWMyW2NIXWMoW0NIXShbQ0gzXSlbQ0gzXSluYyhuMilbQ0hdKFtDSDNdKVtDSDNd

> <s_epik_cmdline>
J2VwaWtfcHl0aG9uJywgJy1waCcsICc3LjAnLCAnLXRuJywgJzgnLCAnLW1hJywgJzIwMCcsICctbWV0YWxfYmluZGluZycsICctaW1hZScsICc8aW5maWxlLm1hZT4nLCAnLW9tYWUnLCAnPG91dGZpbGUubWFlPic=

> <r_lp_tautomer_probability>
1

> <r_epik_Ionization_Penalty>
0.0035465

> <r_epik_Ionization_Penalty_Charging>
0

> <r_epik_Ionization_Penalty_Neutral>
0.0035465

> <r_epik_State_Penalty>
0.00247846

> <r_epik_Charging_Adjusted_Penalty>
0.00247846

> <i_epik_Tot_Q>
0

> <i_epik_Tot_abs_Q>
0

> <r_epik_Metal_State_Penalty>
-0

> <b_epik_Metal_Only>
0

> <s_lp_Force_Field>
OPLS_2005

> <r_lp_Energy>
0.953056

> <b_lp_Chiralities_Consistent>
1

> <s_lp_Variant>
AV-unprocessed.smi:2300-1

> <Gold.Version>
5.8.1

> <Gold.Id.Protein>
6NUR|6NUR_protein|mol2

> <Gold.PLP.Fitness>
40.2367

> <Gold.PLP.PLP>
-35.4207

> <Gold.PLP.part.hbond>
-2.0000

> <Gold.PLP.part.metal>
0.0000

> <Gold.PLP.part.buried>
-3.9144

> <Gold.PLP.part.nonpolar>
-29.5368

> <Gold.PLP.part.repulsive>
0.3530

> <Gold.PLP.ligand.clash>
0.0000

> <Gold.PLP.ligand.torsion>
0.8416

> <Gold.PLP.Chemscore.Hbond>
2.0000

> <Gold.PLP.Chemscore.CHOScore>
0.0000

> <Gold.PLP.Chemscore.Metal>
0.0000

> <Gold.Chemscore.Hbonds>
donor molecule, donor type, donor heavy atom, donor atom, acceptor molecule, acceptor atom, score
      P1  H  6933  6944       L1     3  1.00
      P1  H  7997  8008       L1    15  0.74

> <Gold.PLP.Chemscore.Internal.Correction>
0.4993

> <Gold.Rescore>
     Score         DG    S(hbond)    S(metal)    S(lipo)     H(rot)  DE(clash)    DE(int)     intcor
     15.84     -16.87       1.82        0.00      85.10       1.82       0.08       0.95       ----

> <Gold.Chemscore.Fitness>
15.8410

> <Gold.Chemscore.DG>
-16.8671

> <Gold.Chemscore.ZeroCoef>
-5.4800

> <Gold.Chemscore.Hbond>
1.8200

> <Gold.Chemscore.Metal>
0.0000

> <Gold.Chemscore.Lipo>
85.0957

> <Gold.Chemscore.Internal_Hbond>
0.0000

> <Gold.Chemscore.DEClash>
0.0762

> <Gold.Chemscore.DEInternal>
0.9499

> <Gold.Chemscore.Rot>
1.8156

> <Gold.Chemscore.Internal.Correction>
   9.000000E+99

> <Gold.Chemscore.Hbonds>
donor molecule, donor type, donor heavy atom, donor atom, acceptor molecule, acceptor atom, score
      P1  H  6933  6944       L1     3  0.73
      P1  H  7997  8008       L1    15  0.09

> <Gold.Chemscore.Hbond.Weighted>
-6.0790

> <Gold.Chemscore.Metal.Weighted>
-0.0000

> <Gold.Chemscore.Lipo.Weighted>
-9.9562

> <Gold.Chemscore.Internal_Hbond.Weighted>
0.0000

> <Gold.Chemscore.DEClash.Weighted>
0.0762

> <Gold.Chemscore.DEInternal.Weighted>
0.9499

> <Gold.Chemscore.Rot.Weighted>
4.6481

> <Gold.Chemscore.Internal.Correction.Weighted>
   9.000000E+99

> <Gold.Protein.RotatedTorsions>
[ 6907 6896 6895 6894 ] final  170.87 input  -60.11 | X-H torsion
[ 7974 7965 7964 7962 ] final   25.30 input  175.53 | X-H torsion
[ 8008 7997 7996 7995 ] final  -68.03 input   59.86 | X-H torsion
[ 10167 10162 10161 10158 ] final -142.56 input  -65.29 | X-H torsion
[ 10718 10713 10712 10709 ] final  146.88 input   66.30 | X-H torsion
[ 10763 10752 10751 10750 ] final   11.25 input  -60.55 | X-H torsion
[ 11005 11000 10999 10996 ] final  -76.02 input  -57.11 | X-H torsion

> <Gold.Protein.ActiveResidues>
 VAL166  LYS551  ARG553  GLY616  TRP617  ASP618  TYR619  PRO620  LYS621  CYS622 
 ASP623  PHE694  ASN695  SER759  ASP760  ASP761  ALA762  ILE779  LEU786  VAL792 
 PHE793  MET794  SER795  GLU796  ALA797  LYS798  CYS799  TRP800  GLU811  SER814 

> <Gold.Protein.RotatedAtoms>
  151.8092  133.3379  159.3549 H   0  0  0  0  0  0  0  0  0  0  0  0  # atno 6907 bound_to 6896
  150.7332  134.5680  159.5885 H   0  0  0  0  0  0  0  0  0  0  0  0  # atno 6908 bound_to 6896
  152.3087  134.7525  160.0392 H   0  0  0  0  0  0  0  0  0  0  0  0  # atno 6909 bound_to 6896
  146.1895  139.7485  142.8842 H   0  0  0  0  0  0  0  0  0  0  0  0  # atno 7974 bound_to 7965
  154.4840  140.0881  156.7443 H   0  0  0  0  0  0  0  0  0  0  0  0  # atno 8008 bound_to 7997
  155.4398  140.3453  155.4270 H   0  0  0  0  0  0  0  0  0  0  0  0  # atno 8009 bound_to 7997
  156.1233  140.1480  156.9160 H   0  0  0  0  0  0  0  0  0  0  0  0  # atno 8010 bound_to 7997
  139.8077  143.7746  152.2662 H   0  0  0  0  0  0  0  0  0  0  0  0  # atno 10167 bound_to 10162
  157.3279  131.0915  151.1187 H   0  0  0  0  0  0  0  0  0  0  0  0  # atno 10718 bound_to 10713
  153.1946  135.6847  153.8308 H   0  0  0  0  0  0  0  0  0  0  0  0  # atno 10763 bound_to 10752
  153.7595  135.3212  155.3336 H   0  0  0  0  0  0  0  0  0  0  0  0  # atno 10764 bound_to 10752
  154.8137  135.4700  154.0685 H   0  0  0  0  0  0  0  0  0  0  0  0  # atno 10765 bound_to 10752
  141.1650  133.6968  156.7605 H   0  0  0  0  0  0  0  0  0  0  0  0  # atno 11005 bound_to 11000
  145.3835  141.0362  143.3164 LP  0  0  0  0  0  0  0  0  0  0  0  0  # atno 17320 bound_to 7965
  144.8460  139.5396  143.6878 LP  0  0  0  0  0  0  0  0  0  0  0  0  # atno 17321 bound_to 7965
  139.7885  144.7419  150.9987 LP  0  0  0  0  0  0  0  0  0  0  0  0  # atno 17342 bound_to 10162
  140.7819  143.4466  151.0473 LP  0  0  0  0  0  0  0  0  0  0  0  0  # atno 17343 bound_to 10162
  157.2447  130.6586  149.5905 LP  0  0  0  0  0  0  0  0  0  0  0  0  # atno 17370 bound_to 10713
  155.9692  130.4557  150.5898 LP  0  0  0  0  0  0  0  0  0  0  0  0  # atno 17371 bound_to 10713
  140.2537  134.8521  157.3692 LP  0  0  0  0  0  0  0  0  0  0  0  0  # atno 17394 bound_to 11000
  140.1678  134.4647  155.7852 LP  0  0  0  0  0  0  0  0  0  0  0  0  # atno 17395 bound_to 11000

$$$$
