AV-unprocessed.smi:645|AV-procd|sdf|3164|dock2
  -GOLD-   22720 0 83D 1   1.00000     0.00000
 Structure written by MMmdl.
 22 23  0  0  0  0  0  0  0  0  2 V2000
  150.2811  139.6215  158.7119 C   0  0  0  0  0  0  0  0  0  0  0  0
  151.1015  140.4178  157.6735 C   0  0  2  0  0  0  0  0  0  0  0  0
  151.7002  141.7018  158.2814 C   0  0  0  0  0  0  0  0  0  0  0  0
  152.5258  141.6840  159.4336 C   0  0  0  0  0  0  0  0  0  0  0  0
  153.0376  142.8992  159.9295 C   0  0  0  0  0  0  0  0  0  0  0  0
  152.7857  144.0985  159.3653 N   0  0  0  0  0  0  0  0  0  0  0  0
  152.0001  144.1198  158.2691 C   0  0  0  0  0  0  0  0  0  0  0  0
  151.4392  142.9629  157.6941 C   0  0  0  0  0  0  0  0  0  0  0  0
  150.2683  140.6479  156.4985 N   0  5  0  0  0  0  0  0  0  0  0  0
  150.8463  140.0600  155.4251 C   0  0  0  0  0  0  0  0  0  0  0  0
  150.4462  140.0558  154.2633 O   0  0  0  0  0  0  0  0  0  0  0  0
  151.9730  139.4368  155.7801 N   0  0  0  0  0  0  0  0  0  0  0  0
  152.2141  139.5588  157.0817 C   0  0  0  0  0  0  0  0  0  0  0  0
  153.1525  139.0674  157.7089 O   0  0  0  0  0  0  0  0  0  0  0  0
  150.8869  139.3041  159.5604 H   0  0  0  0  0  0  0  0  0  0  0  0
  149.8484  138.7193  158.2764 H   0  0  0  0  0  0  0  0  0  0  0  0
  149.4584  140.2212  159.1028 H   0  0  0  0  0  0  0  0  0  0  0  0
  152.7727  140.7645  159.9427 H   0  0  0  0  0  0  0  0  0  0  0  0
  153.6681  142.9075  160.8064 H   0  0  0  0  0  0  0  0  0  0  0  0
  151.8100  145.0906  157.8360 H   0  0  0  0  0  0  0  0  0  0  0  0
  150.8122  143.0515  156.8197 H   0  0  0  0  0  0  0  0  0  0  0  0
  152.5597  138.9219  155.1408 H   0  0  0  0  0  0  0  0  0  0  0  0
  1  2  1  0  0  0  0
  1 15  1  0  0  0  0
  1 16  1  0  0  0  0
  1 17  1  0  0  0  0
  2 13  1  0  0  0  0
  2  3  1  0  0  0  0
  2  9  1  0  0  0  0
  3  8  1  0  0  0  0
  3  4  2  0  0  0  0
  4  5  1  0  0  0  0
  4 18  1  0  0  0  0
  5  6  2  0  0  0  0
  5 19  1  0  0  0  0
  6  7  1  0  0  0  0
  7  8  2  0  0  0  0
  7 20  1  0  0  0  0
  8 21  1  0  0  0  0
  9 10  1  0  0  0  0
 10 11  2  0  0  0  0
 10 12  1  0  0  0  0
 12 13  1  0  0  0  0
 12 22  1  0  0  0  0
 13 14  2  0  0  0  0
M  CHG  1   9  -1
M  END
> <s_m_source_file>
AV-unprocessed.smi

> <i_m_source_file_index>
645

> <i_lp_mmshare_version>
43012

> <i_f3d_flags>
0

> <s_epik_input>
Tz1DMVtOSF1DKD1PKVtOSF1bQ0BAXTEoW0NIM10pYzJbY0hdW2NIXW5bY0hdW2NIXTI=

> <s_epik_cmdline>
J2VwaWtfcHl0aG9uJywgJy1waCcsICc3LjAnLCAnLXRuJywgJzgnLCAnLW1hJywgJzIwMCcsICctbWV0YWxfYmluZGluZycsICctaW1hZScsICc8aW5maWxlLm1hZT4nLCAnLW9tYWUnLCAnPG91dGZpbGUubWFlPic=

> <r_lp_tautomer_probability>
1

> <r_epik_Ionization_Penalty>
4.86801

> <r_epik_Ionization_Penalty_Charging>
4.8337

> <r_epik_Ionization_Penalty_Neutral>
0.0343087

> <r_epik_State_Penalty>
4.85653

> <r_epik_Charging_Adjusted_Penalty>
9.69023

> <i_epik_Tot_Q>
-1

> <i_epik_Tot_abs_Q>
1

> <r_epik_Metal_State_Penalty>
1.32058

> <b_epik_Metal_Only>
1

> <s_lp_Force_Field>
OPLS_2005

> <r_lp_Energy>
14.3198

> <b_lp_Chiralities_Consistent>
1

> <s_lp_Variant>
AV-unprocessed.smi:645-6

> <Gold.Version>
5.8.1

> <Gold.Id.Protein>
6NUR|6NUR_protein|mol2

> <Gold.PLP.Fitness>
31.4219

> <Gold.PLP.PLP>
-26.1535

> <Gold.PLP.part.hbond>
-2.0000

> <Gold.PLP.part.metal>
0.0000

> <Gold.PLP.part.buried>
-3.5307

> <Gold.PLP.part.nonpolar>
-21.0326

> <Gold.PLP.part.repulsive>
0.5995

> <Gold.PLP.ligand.clash>
0.0000

> <Gold.PLP.ligand.torsion>
0.0834

> <Gold.PLP.Chemscore.Hbond>
1.7936

> <Gold.PLP.Chemscore.CHOScore>
0.0000

> <Gold.PLP.Chemscore.Metal>
0.0000

> <Gold.Chemscore.Hbonds>
donor molecule, donor type, donor heavy atom, donor atom, acceptor molecule, acceptor atom, score
      P1  H  7989  7998       L1    11  1.00
      P1  H  7997  8008       L1    14  0.60

> <Gold.PLP.Chemscore.Internal.Correction>
0.0544

> <Gold.Rescore>
     Score         DG    S(hbond)    S(metal)    S(lipo)     H(rot)  DE(clash)    DE(int)     intcor
     13.39     -13.48       0.98        0.00      62.31       1.00       0.02       0.07       ----

> <Gold.Chemscore.Fitness>
13.3938

> <Gold.Chemscore.DG>
-13.4772

> <Gold.Chemscore.ZeroCoef>
-5.4800

> <Gold.Chemscore.Hbond>
0.9779

> <Gold.Chemscore.Metal>
0.0000

> <Gold.Chemscore.Lipo>
62.3146

> <Gold.Chemscore.Internal_Hbond>
0.0000

> <Gold.Chemscore.DEClash>
0.0162

> <Gold.Chemscore.DEInternal>
0.0672

> <Gold.Chemscore.Rot>
1.0000

> <Gold.Chemscore.Internal.Correction>
   9.000000E+99

> <Gold.Chemscore.Hbonds>
donor molecule, donor type, donor heavy atom, donor atom, acceptor molecule, acceptor atom, score
      P1  H  7989  7998       L1    11  0.39
      P1  H  7997  8008       L1    14  0.04

> <Gold.Chemscore.Hbond.Weighted>
-3.2663

> <Gold.Chemscore.Metal.Weighted>
-0.0000

> <Gold.Chemscore.Lipo.Weighted>
-7.2908

> <Gold.Chemscore.Internal_Hbond.Weighted>
0.0000

> <Gold.Chemscore.DEClash.Weighted>
0.0162

> <Gold.Chemscore.DEInternal.Weighted>
0.0672

> <Gold.Chemscore.Rot.Weighted>
2.5600

> <Gold.Chemscore.Internal.Correction.Weighted>
   9.000000E+99

> <Gold.Protein.RotatedTorsions>
[ 6907 6896 6895 6894 ] final  -98.67 input  -60.11 | X-H torsion
[ 7974 7965 7964 7962 ] final  -32.30 input  175.53 | X-H torsion
[ 8008 7997 7996 7995 ] final  -63.84 input   59.86 | X-H torsion
[ 10167 10162 10161 10158 ] final -150.77 input  -65.29 | X-H torsion
[ 10718 10713 10712 10709 ] final  107.65 input   66.30 | X-H torsion
[ 10763 10752 10751 10750 ] final   56.37 input  -60.55 | X-H torsion
[ 11005 11000 10999 10996 ] final -118.63 input  -57.11 | X-H torsion

> <Gold.Protein.ActiveResidues>
 VAL166  LYS551  ARG553  GLY616  TRP617  ASP618  TYR619  PRO620  LYS621  CYS622 
 ASP623  PHE694  ASN695  SER759  ASP760  ASP761  ALA762  ILE779  LEU786  VAL792 
 PHE793  MET794  SER795  GLU796  ALA797  LYS798  CYS799  TRP800  GLU811  SER814 

> <Gold.Protein.RotatedAtoms>
  150.7054  134.1159  159.4016 H   0  0  0  0  0  0  0  0  0  0  0  0  # atno 6907 bound_to 6896
  151.9145  135.0322  160.0526 H   0  0  0  0  0  0  0  0  0  0  0  0  # atno 6908 bound_to 6896
  152.2308  133.5021  159.5251 H   0  0  0  0  0  0  0  0  0  0  0  0  # atno 6909 bound_to 6896
  146.1001  140.5775  142.8825 H   0  0  0  0  0  0  0  0  0  0  0  0  # atno 7974 bound_to 7965
  154.4577  140.0966  156.6804 H   0  0  0  0  0  0  0  0  0  0  0  0  # atno 8008 bound_to 7997
  155.5089  140.3476  155.4366 H   0  0  0  0  0  0  0  0  0  0  0  0  # atno 8009 bound_to 7997
  156.0809  140.1373  156.9702 H   0  0  0  0  0  0  0  0  0  0  0  0  # atno 8010 bound_to 7997
  139.7326  143.8785  152.2539 H   0  0  0  0  0  0  0  0  0  0  0  0  # atno 10167 bound_to 10162
  157.6619  131.0877  150.6188 H   0  0  0  0  0  0  0  0  0  0  0  0  # atno 10718 bound_to 10713
  152.9831  135.5678  154.5219 H   0  0  0  0  0  0  0  0  0  0  0  0  # atno 10763 bound_to 10752
  154.4705  135.2784  155.1648 H   0  0  0  0  0  0  0  0  0  0  0  0  # atno 10764 bound_to 10752
  154.3198  135.6271  153.5556 H   0  0  0  0  0  0  0  0  0  0  0  0  # atno 10765 bound_to 10752
  141.0273  134.0035  157.3196 H   0  0  0  0  0  0  0  0  0  0  0  0  # atno 11005 bound_to 11000
  144.7426  140.4982  143.6858 LP  0  0  0  0  0  0  0  0  0  0  0  0  # atno 17320 bound_to 7965
  145.5871  139.1493  143.3203 LP  0  0  0  0  0  0  0  0  0  0  0  0  # atno 17321 bound_to 7965
  139.8713  144.7067  150.8984 LP  0  0  0  0  0  0  0  0  0  0  0  0  # atno 17342 bound_to 10162
  140.7773  143.3736  151.1604 LP  0  0  0  0  0  0  0  0  0  0  0  0  # atno 17343 bound_to 10162
  156.6490  130.4480  149.5726 LP  0  0  0  0  0  0  0  0  0  0  0  0  # atno 17370 bound_to 10713
  156.2152  130.6703  151.1311 LP  0  0  0  0  0  0  0  0  0  0  0  0  # atno 17371 bound_to 10713
  139.9184  135.0199  156.7970 LP  0  0  0  0  0  0  0  0  0  0  0  0  # atno 17394 bound_to 11000
  140.6469  133.9766  155.7735 LP  0  0  0  0  0  0  0  0  0  0  0  0  # atno 17395 bound_to 11000

$$$$
