AV-unprocessed.smi:148|AV-procd|sdf|1218|dock1
  -GOLD-   2262018403D 1   1.00000     0.00000
 Structure written by MMmdl.
 63 67  0  0  0  0  0  0  0  0  1 V2000
  147.5401  135.6420  153.7922 O   0  0  0  0  0  0  0  0  0  0  0  0
  146.1362  135.5020  153.7323 C   0  0  0  0  0  0  0  0  0  0  0  0
  145.7327  134.0547  153.3613 C   0  0  2  0  0  0  0  0  0  0  0  0
  146.4215  133.0061  154.2749 C   0  0  0  0  0  0  0  0  0  0  0  0
  146.3788  133.3740  155.6792 N   0  0  0  0  0  0  0  0  0  0  0  0
  145.2540  133.4831  156.4646 C   0  0  0  0  0  0  0  0  0  0  0  0
  145.4721  133.8398  157.7010 N   0  0  0  0  0  0  0  0  0  0  0  0
  146.8524  133.9868  157.7725 C   0  0  0  0  0  0  0  0  0  0  0  0
  147.7624  134.3643  158.8003 C   0  0  0  0  0  0  0  0  0  0  0  0
  147.4081  134.7029  160.0609 N   0  0  0  0  0  0  0  0  0  0  0  0
  147.8708  136.0577  160.3603 C   0  0  0  0  0  0  0  0  0  0  0  0
  147.2774  136.5737  161.6769 C   0  0  0  0  0  0  0  0  0  0  0  0
  147.5912  135.6003  162.8169 C   0  0  0  0  0  0  0  0  0  0  0  0
  147.0779  134.1975  162.4645 C   0  0  0  0  0  0  0  0  0  0  0  0
  147.6496  133.6966  161.1119 C   0  0  1  0  0  0  0  0  0  0  0  0
  147.1470  132.2717  160.7168 C   0  0  2  0  0  0  0  0  0  0  0  0
  145.6198  132.0922  160.6127 C   0  0  0  0  0  0  0  0  0  0  0  0
  145.3311  130.6220  160.9585 C   0  0  0  0  0  0  0  0  0  0  0  0
  146.6918  129.9627  161.2048 C   0  0  0  0  0  0  0  0  0  0  0  0
  147.6027  131.1168  161.6207 C   0  0  1  0  0  0  0  0  0  0  0  0
  148.9648  130.7946  161.4290 O   0  0  0  0  0  0  0  0  0  0  0  0
  149.0853  134.3833  158.5044 N   0  0  0  0  0  0  0  0  0  0  0  0
  149.4980  134.0737  157.2716 C   0  0  0  0  0  0  0  0  0  0  0  0
  148.7689  133.7206  156.2105 N   0  0  0  0  0  0  0  0  0  0  0  0
  147.4390  133.6866  156.5116 C   0  0  0  0  0  0  0  0  0  0  0  0
  145.9202  133.7671  151.8446 C   0  0  1  0  0  0  0  0  0  0  0  0
  145.5006  132.3686  151.3835 C   0  0  0  0  0  0  0  0  0  0  0  0
  144.7067  132.6270  150.1065 C   0  0  0  0  0  0  0  0  0  0  0  0
  144.1243  133.8970  150.3428 O   0  0  0  0  0  0  0  0  0  0  0  0
  145.1386  134.7089  150.9134 C   0  0  0  0  0  0  0  0  0  0  0  0
  147.8717  135.7212  152.9106 H   0  0  0  0  0  0  0  0  0  0  0  0
  145.7014  135.7975  154.6873 H   0  0  0  0  0  0  0  0  0  0  0  0
  145.7785  136.2142  152.9893 H   0  0  0  0  0  0  0  0  0  0  0  0
  144.6619  133.9720  153.5559 H   0  0  0  0  0  0  0  0  0  0  0  0
  145.9465  132.0301  154.1806 H   0  0  0  0  0  0  0  0  0  0  0  0
  147.4639  132.8637  153.9930 H   0  0  0  0  0  0  0  0  0  0  0  0
  144.2598  133.2950  156.0864 H   0  0  0  0  0  0  0  0  0  0  0  0
  148.9601  136.0614  160.4205 H   0  0  0  0  0  0  0  0  0  0  0  0
  147.5957  136.7345  159.5495 H   0  0  0  0  0  0  0  0  0  0  0  0
  147.6772  137.5620  161.9054 H   0  0  0  0  0  0  0  0  0  0  0  0
  146.1974  136.6880  161.5751 H   0  0  0  0  0  0  0  0  0  0  0  0
  148.6676  135.5678  162.9903 H   0  0  0  0  0  0  0  0  0  0  0  0
  147.1343  135.9468  163.7442 H   0  0  0  0  0  0  0  0  0  0  0  0
  147.3506  133.5240  163.2752 H   0  0  0  0  0  0  0  0  0  0  0  0
  145.9893  134.2229  162.4357 H   0  0  0  0  0  0  0  0  0  0  0  0
  148.7298  133.6294  161.2423 H   0  0  0  0  0  0  0  0  0  0  0  0
  147.5446  132.0301  159.7300 H   0  0  0  0  0  0  0  0  0  0  0  0
  145.0823  132.7396  161.3040 H   0  0  0  0  0  0  0  0  0  0  0  0
  145.2686  132.3398  159.6106 H   0  0  0  0  0  0  0  0  0  0  0  0
  144.7254  130.5723  161.8641 H   0  0  0  0  0  0  0  0  0  0  0  0
  144.7773  130.1150  160.1677 H   0  0  0  0  0  0  0  0  0  0  0  0
  146.6462  129.1717  161.9540 H   0  0  0  0  0  0  0  0  0  0  0  0
  147.0505  129.5182  160.2748 H   0  0  0  0  0  0  0  0  0  0  0  0
  147.4258  131.3353  162.6727 H   0  0  0  0  0  0  0  0  0  0  0  0
  149.1967  130.1027  162.0296 H   0  0  0  0  0  0  0  0  0  0  0  0
  150.5653  134.1172  157.1121 H   0  0  0  0  0  0  0  0  0  0  0  0
  146.9755  133.9020  151.6038 H   0  0  0  0  0  0  0  0  0  0  0  0
  146.3548  131.7137  151.2093 H   0  0  0  0  0  0  0  0  0  0  0  0
  144.8608  131.8760  152.1133 H   0  0  0  0  0  0  0  0  0  0  0  0
  145.3671  132.6818  149.2394 H   0  0  0  0  0  0  0  0  0  0  0  0
  143.9510  131.8641  149.9175 H   0  0  0  0  0  0  0  0  0  0  0  0
  144.7206  135.5810  151.4160 H   0  0  0  0  0  0  0  0  0  0  0  0
  145.7855  135.0743  150.1143 H   0  0  0  0  0  0  0  0  0  0  0  0
  1  2  1  0  0  0  0
  1 31  1  0  0  0  0
  2  3  1  0  0  0  0
  2 32  1  0  0  0  0
  2 33  1  0  0  0  0
  3  4  1  0  0  0  0
  3 26  1  0  0  0  0
  3 34  1  0  0  0  0
  4  5  1  0  0  0  0
  4 35  1  0  0  0  0
  4 36  1  0  0  0  0
  5 25  1  0  0  0  0
  5  6  1  0  0  0  0
  6  7  2  0  0  0  0
  6 37  1  0  0  0  0
  7  8  1  0  0  0  0
  8 25  2  0  0  0  0
  8  9  1  0  0  0  0
  9 10  1  0  0  0  0
  9 22  2  0  0  0  0
 10 15  1  0  0  0  0
 10 11  1  0  0  0  0
 11 12  1  0  0  0  0
 11 38  1  0  0  0  0
 11 39  1  0  0  0  0
 12 13  1  0  0  0  0
 12 40  1  0  0  0  0
 12 41  1  0  0  0  0
 13 14  1  0  0  0  0
 13 42  1  0  0  0  0
 13 43  1  0  0  0  0
 14 15  1  0  0  0  0
 14 44  1  0  0  0  0
 14 45  1  0  0  0  0
 15 16  1  0  0  0  0
 15 46  1  0  0  0  0
 16 20  1  0  0  0  0
 16 17  1  0  0  0  0
 16 47  1  0  0  0  0
 17 18  1  0  0  0  0
 17 48  1  0  0  0  0
 17 49  1  0  0  0  0
 18 19  1  0  0  0  0
 18 50  1  0  0  0  0
 18 51  1  0  0  0  0
 19 20  1  0  0  0  0
 19 52  1  0  0  0  0
 19 53  1  0  0  0  0
 20 21  1  0  0  0  0
 20 54  1  0  0  0  0
 21 55  1  0  0  0  0
 22 23  1  0  0  0  0
 23 24  2  0  0  0  0
 23 56  1  0  0  0  0
 24 25  1  0  0  0  0
 26 30  1  0  0  0  0
 26 27  1  0  0  0  0
 26 57  1  0  0  0  0
 27 28  1  0  0  0  0
 27 58  1  0  0  0  0
 27 59  1  0  0  0  0
 28 29  1  0  0  0  0
 28 60  1  0  0  0  0
 28 61  1  0  0  0  0
 29 30  1  0  0  0  0
 30 62  1  0  0  0  0
 30 63  1  0  0  0  0
M  END
> <s_m_source_file>
AV-unprocessed.smi

> <i_m_source_file_index>
148

> <i_lp_mmshare_version>
43012

> <i_f3d_flags>
0

> <s_epik_input>
W0NIMl0xT1tDSDJdW0NIMl1bQ0BIXTFbQ0BIXShbQ0gyXVtPSF0pW0NIMl1uKFtjSF1uMiljKGMyMyluW2NIXW5jM040W0NIMl1bQ0gyXVtDSDJdW0NIMl1bQ0BIXTRbQ0BASF01W0NIMl1bQ0gyXVtDSDJdW0NASF01W09IXQ==

> <s_epik_cmdline>
J2VwaWtfcHl0aG9uJywgJy1waCcsICc3LjAnLCAnLXRuJywgJzgnLCAnLW1hJywgJzIwMCcsICctbWV0YWxfYmluZGluZycsICctaW1hZScsICc8aW5maWxlLm1hZT4nLCAnLW9tYWUnLCAnPG91dGZpbGUubWFlPic=

> <r_lp_tautomer_probability>
1

> <r_epik_Ionization_Penalty>
0.00556303

> <r_epik_Ionization_Penalty_Charging>
0

> <r_epik_Ionization_Penalty_Neutral>
0.00556303

> <r_epik_State_Penalty>
0.00401767

> <r_epik_Charging_Adjusted_Penalty>
0.00401767

> <i_epik_Tot_Q>
0

> <i_epik_Tot_abs_Q>
0

> <r_epik_Metal_State_Penalty>
-0

> <b_epik_Metal_Only>
0

> <s_lp_Force_Field>
OPLS_2005

> <r_lp_Energy>
68.3578

> <b_lp_Chiralities_Consistent>
1

> <s_lp_Variant>
AV-unprocessed.smi:148-17

> <Gold.Version>
5.8.1

> <Gold.Id.Protein>
6NUR|6NUR_protein|mol2

> <Gold.PLP.Fitness>
47.3523

> <Gold.PLP.PLP>
-38.5358

> <Gold.PLP.part.hbond>
-1.8033

> <Gold.PLP.part.metal>
0.0000

> <Gold.PLP.part.buried>
-6.6865

> <Gold.PLP.part.nonpolar>
-30.6322

> <Gold.PLP.part.repulsive>
0.2088

> <Gold.PLP.ligand.clash>
0.0000

> <Gold.PLP.ligand.torsion>
0.4653

> <Gold.PLP.Chemscore.Hbond>
2.0000

> <Gold.PLP.Chemscore.CHOScore>
1.0000

> <Gold.PLP.Chemscore.Metal>
0.0000

> <Gold.Chemscore.Hbonds>
donor molecule, donor type, donor heavy atom, donor atom, acceptor molecule, acceptor atom, score
      L1  H     1    31       P1  7948  1.00
      P1  H  6896  6909       L1    22  1.00
      L1  C     6    37       P1 10957  0.97

> <Gold.PLP.Chemscore.Internal.Correction>
0.7471

> <Gold.Rescore>
     Score         DG    S(hbond)    S(metal)    S(lipo)     H(rot)  DE(clash)    DE(int)     intcor
     13.37     -13.95       1.80        0.00      93.56       3.32       0.12       0.46       ----

> <Gold.Chemscore.Fitness>
13.3703

> <Gold.Chemscore.DG>
-13.9482

> <Gold.Chemscore.ZeroCoef>
-5.4800

> <Gold.Chemscore.Hbond>
1.8028

> <Gold.Chemscore.Metal>
0.0000

> <Gold.Chemscore.Lipo>
93.5627

> <Gold.Chemscore.Internal_Hbond>
0.0000

> <Gold.Chemscore.DEClash>
0.1198

> <Gold.Chemscore.DEInternal>
0.4580

> <Gold.Chemscore.Rot>
3.3203

> <Gold.Chemscore.Internal.Correction>
   9.000000E+99

> <Gold.Chemscore.Hbonds>
donor molecule, donor type, donor heavy atom, donor atom, acceptor molecule, acceptor atom, score
      L1  H     1    31       P1  7948  0.94
      P1  H  6896  6909       L1    22  0.44

> <Gold.Chemscore.Hbond.Weighted>
-6.0214

> <Gold.Chemscore.Metal.Weighted>
-0.0000

> <Gold.Chemscore.Lipo.Weighted>
-10.9468

> <Gold.Chemscore.Internal_Hbond.Weighted>
0.0000

> <Gold.Chemscore.DEClash.Weighted>
0.1198

> <Gold.Chemscore.DEInternal.Weighted>
0.4580

> <Gold.Chemscore.Rot.Weighted>
8.5000

> <Gold.Chemscore.Internal.Correction.Weighted>
   9.000000E+99

> <Gold.Protein.RotatedTorsions>
[ 6907 6896 6895 6894 ] final   42.01 input  -60.11 | X-H torsion
[ 7974 7965 7964 7962 ] final -155.25 input  175.53 | X-H torsion
[ 8008 7997 7996 7995 ] final  137.09 input   59.86 | X-H torsion
[ 10167 10162 10161 10158 ] final   27.73 input  -65.29 | X-H torsion
[ 10718 10713 10712 10709 ] final   52.13 input   66.30 | X-H torsion
[ 10763 10752 10751 10750 ] final  -82.88 input  -60.55 | X-H torsion
[ 11005 11000 10999 10996 ] final -131.50 input  -57.11 | X-H torsion

> <Gold.Protein.ActiveResidues>
 VAL166  LYS551  ARG553  GLY616  TRP617  ASP618  TYR619  PRO620  LYS621  CYS622 
 ASP623  PHE694  ASN695  SER759  ASP760  ASP761  ALA762  ILE779  LEU786  VAL792 
 PHE793  MET794  SER795  GLU796  ALA797  LYS798  CYS799  TRP800  GLU811  SER814 

> <Gold.Protein.RotatedAtoms>
  152.2025  134.8575  160.0506 H   0  0  0  0  0  0  0  0  0  0  0  0  # atno 6907 bound_to 6896
  151.9423  133.3636  159.3978 H   0  0  0  0  0  0  0  0  0  0  0  0  # atno 6908 bound_to 6896
  150.6958  134.4350  159.5310 H   0  0  0  0  0  0  0  0  0  0  0  0  # atno 6909 bound_to 6896
  144.7649  140.4275  143.5949 H   0  0  0  0  0  0  0  0  0  0  0  0  # atno 7974 bound_to 7965
  156.3003  140.2428  156.3853 H   0  0  0  0  0  0  0  0  0  0  0  0  # atno 8008 bound_to 7997
  154.8663  140.0418  157.1716 H   0  0  0  0  0  0  0  0  0  0  0  0  # atno 8009 bound_to 7997
  154.8842  140.2954  155.5411 H   0  0  0  0  0  0  0  0  0  0  0  0  # atno 8010 bound_to 7997
  140.4913  144.0462  150.6298 H   0  0  0  0  0  0  0  0  0  0  0  0  # atno 10167 bound_to 10162
  157.5046  130.8460  149.8358 H   0  0  0  0  0  0  0  0  0  0  0  0  # atno 10718 bound_to 10713
  154.5810  135.5576  153.7186 H   0  0  0  0  0  0  0  0  0  0  0  0  # atno 10763 bound_to 10752
  153.0081  135.6320  154.1982 H   0  0  0  0  0  0  0  0  0  0  0  0  # atno 10764 bound_to 10752
  154.1922  135.2882  155.2998 H   0  0  0  0  0  0  0  0  0  0  0  0  # atno 10765 bound_to 10752
  140.9253  134.1391  157.4281 H   0  0  0  0  0  0  0  0  0  0  0  0  # atno 11005 bound_to 11000
  145.6502  139.1564  143.2866 LP  0  0  0  0  0  0  0  0  0  0  0  0  # atno 17320 bound_to 7965
  146.1747  140.6591  142.9217 LP  0  0  0  0  0  0  0  0  0  0  0  0  # atno 17321 bound_to 7965
  140.3732  143.2843  152.0255 LP  0  0  0  0  0  0  0  0  0  0  0  0  # atno 17342 bound_to 10162
  139.4852  144.6214  151.7249 LP  0  0  0  0  0  0  0  0  0  0  0  0  # atno 17343 bound_to 10162
  156.0250  130.3782  150.1850 LP  0  0  0  0  0  0  0  0  0  0  0  0  # atno 17370 bound_to 10713
  157.0040  130.9931  151.3383 LP  0  0  0  0  0  0  0  0  0  0  0  0  # atno 17371 bound_to 10713
  139.8784  134.9986  156.5908 LP  0  0  0  0  0  0  0  0  0  0  0  0  # atno 17394 bound_to 11000
  140.7935  133.8563  155.8666 LP  0  0  0  0  0  0  0  0  0  0  0  0  # atno 17395 bound_to 11000

$$$$
