AV-unprocessed.smi:496|AV-procd|sdf|2721|dock1
  -GOLD-   2262023163D 1   1.00000     0.00000
 Structure written by MMmdl.
 41 43  0  0  0  0  0  0  0  0  2 V2000
  148.5806  139.3050  154.0825 C   0  0  0  0  0  0  0  0  0  0  0  0
  149.3679  140.4727  154.2575 O   0  0  0  0  0  0  0  0  0  0  0  0
  150.2922  140.3853  155.3324 C   0  0  0  0  0  0  0  0  0  0  0  0
  149.7548  141.0716  156.6007 C   0  0  0  0  0  0  0  0  0  0  0  0
  150.6181  140.8252  157.7570 N   0  0  0  0  0  0  0  0  0  0  0  0
  150.8771  139.6674  158.4409 C   0  0  0  0  0  0  0  0  0  0  0  0
  150.2618  138.3170  158.1120 C   0  0  1  0  0  0  0  0  0  0  0  0
  151.3238  137.3021  157.6637 C   0  0  0  0  0  0  0  0  0  0  0  0
  149.5071  137.7653  159.2389 N   0  5  0  0  0  0  0  0  0  0  0  0
  149.1202  136.4612  159.3328 C   0  0  0  0  0  0  0  0  0  0  0  0
  149.3731  135.5085  158.5869 O   0  0  0  0  0  0  0  0  0  0  0  0
  148.2730  136.2085  160.5222 C   0  0  0  0  0  0  0  0  0  0  0  0
  147.7597  135.0329  161.0027 C   0  0  0  0  0  0  0  0  0  0  0  0
  147.0139  135.3554  162.1700 C   0  0  0  0  0  0  0  0  0  0  0  0
  147.1227  136.7075  162.3229 C   0  0  0  0  0  0  0  0  0  0  0  0
  147.8852  137.2422  161.3316 O   0  0  0  0  0  0  0  0  0  0  0  0
  151.7119  139.7992  159.4775 N   0  0  0  0  0  0  0  0  0  0  0  0
  152.0362  141.1390  159.4577 C   0  0  0  0  0  0  0  0  0  0  0  0
  152.8878  141.8885  160.3004 C   0  0  0  0  0  0  0  0  0  0  0  0
  153.0717  143.2695  160.0834 C   0  0  0  0  0  0  0  0  0  0  0  0
  152.4080  143.9182  159.0224 C   0  0  0  0  0  0  0  0  0  0  0  0
  151.5550  143.1886  158.1721 C   0  0  0  0  0  0  0  0  0  0  0  0
  151.3732  141.8093  158.3933 C   0  0  0  0  0  0  0  0  0  0  0  0
  147.9243  139.4358  153.2222 H   0  0  0  0  0  0  0  0  0  0  0  0
  147.9521  139.1021  154.9493 H   0  0  0  0  0  0  0  0  0  0  0  0
  149.2071  138.4323  153.8940 H   0  0  0  0  0  0  0  0  0  0  0  0
  150.5648  139.3462  155.5227 H   0  0  0  0  0  0  0  0  0  0  0  0
  151.2067  140.8891  155.0185 H   0  0  0  0  0  0  0  0  0  0  0  0
  149.6944  142.1471  156.4343 H   0  0  0  0  0  0  0  0  0  0  0  0
  148.7373  140.7610  156.8337 H   0  0  0  0  0  0  0  0  0  0  0  0
  149.6064  138.4505  157.2513 H   0  0  0  0  0  0  0  0  0  0  0  0
  151.8735  137.6724  156.7981 H   0  0  0  0  0  0  0  0  0  0  0  0
  150.8676  136.3526  157.3818 H   0  0  0  0  0  0  0  0  0  0  0  0
  152.0469  137.1008  158.4550 H   0  0  0  0  0  0  0  0  0  0  0  0
  147.9042  134.0566  160.5640 H   0  0  0  0  0  0  0  0  0  0  0  0
  146.4668  134.6841  162.8147 H   0  0  0  0  0  0  0  0  0  0  0  0
  146.7416  137.4157  163.0436 H   0  0  0  0  0  0  0  0  0  0  0  0
  153.3998  141.3979  161.1149 H   0  0  0  0  0  0  0  0  0  0  0  0
  153.7249  143.8328  160.7334 H   0  0  0  0  0  0  0  0  0  0  0  0
  152.5535  144.9763  158.8618 H   0  0  0  0  0  0  0  0  0  0  0  0
  151.0467  143.6852  157.3593 H   0  0  0  0  0  0  0  0  0  0  0  0
  1  2  1  0  0  0  0
  1 24  1  0  0  0  0
  1 25  1  0  0  0  0
  1 26  1  0  0  0  0
  2  3  1  0  0  0  0
  3  4  1  0  0  0  0
  3 27  1  0  0  0  0
  3 28  1  0  0  0  0
  4  5  1  0  0  0  0
  4 29  1  0  0  0  0
  4 30  1  0  0  0  0
  5 23  1  0  0  0  0
  5  6  1  0  0  0  0
  6  7  1  0  0  0  0
  6 17  2  0  0  0  0
  7  8  1  0  0  0  0
  7  9  1  0  0  0  0
  7 31  1  0  0  0  0
  8 32  1  0  0  0  0
  8 33  1  0  0  0  0
  8 34  1  0  0  0  0
  9 10  1  0  0  0  0
 10 11  2  0  0  0  0
 10 12  1  0  0  0  0
 12 16  1  0  0  0  0
 12 13  2  0  0  0  0
 13 14  1  0  0  0  0
 13 35  1  0  0  0  0
 14 15  2  0  0  0  0
 14 36  1  0  0  0  0
 15 16  1  0  0  0  0
 15 37  1  0  0  0  0
 17 18  1  0  0  0  0
 18 23  2  0  0  0  0
 18 19  1  0  0  0  0
 19 20  2  0  0  0  0
 19 38  1  0  0  0  0
 20 21  1  0  0  0  0
 20 39  1  0  0  0  0
 21 22  2  0  0  0  0
 21 40  1  0  0  0  0
 22 23  1  0  0  0  0
 22 41  1  0  0  0  0
M  CHG  1   9  -1
M  END
> <s_m_source_file>
AV-unprocessed.smi

> <i_m_source_file_index>
496

> <i_lp_mmshare_version>
43012

> <i_f3d_flags>
0

> <s_epik_input>
W2NIXTFbY0hdW2NIXVtjSF1jKGMxMiluKFtDSDJdW0NIMl1PW0NIM10pYyhuMilbQ0BIXShbQ0gzXSlbTkhdQyg9TyljM1tjSF1bY0hdW2NIXW8z

> <s_epik_cmdline>
J2VwaWtfcHl0aG9uJywgJy1waCcsICc3LjAnLCAnLXRuJywgJzgnLCAnLW1hJywgJzIwMCcsICctbWV0YWxfYmluZGluZycsICctaW1hZScsICc8aW5maWxlLm1hZT4nLCAnLW9tYWUnLCAnPG91dGZpbGUubWFlPic=

> <r_epik_Ionization_Penalty>
7.3423

> <r_epik_Ionization_Penalty_Charging>
6.43826

> <r_epik_Ionization_Penalty_Neutral>
0.90404

> <r_epik_State_Penalty>
6.54438

> <r_epik_Charging_Adjusted_Penalty>
12.9826

> <i_epik_Tot_Q>
-1

> <i_epik_Tot_abs_Q>
1

> <r_epik_Metal_State_Penalty>
2.56942

> <b_epik_Metal_Only>
1

> <s_lp_Force_Field>
OPLS_2005

> <r_lp_Energy>
16.0483

> <b_lp_Chiralities_Consistent>
1

> <s_lp_Variant>
AV-unprocessed.smi:496-6

> <Gold.Version>
5.8.1

> <Gold.Id.Protein>
6NUR|6NUR_protein|mol2

> <Gold.PLP.Fitness>
52.7809

> <Gold.PLP.PLP>
-45.6115

> <Gold.PLP.part.hbond>
-4.4530

> <Gold.PLP.part.metal>
0.0000

> <Gold.PLP.part.buried>
-3.9983

> <Gold.PLP.part.nonpolar>
-37.9268

> <Gold.PLP.part.repulsive>
0.1274

> <Gold.PLP.ligand.clash>
0.0000

> <Gold.PLP.ligand.torsion>
0.6241

> <Gold.PLP.Chemscore.Hbond>
2.7040

> <Gold.PLP.Chemscore.CHOScore>
0.0000

> <Gold.PLP.Chemscore.Metal>
0.0000

> <Gold.Chemscore.Hbonds>
donor molecule, donor type, donor heavy atom, donor atom, acceptor molecule, acceptor atom, score
      P1  H  6896  6907       L1    11  1.00
      P1  H  6931  6943       L1    16  1.00
      P1  H  6934  6947       L1    16  0.72

> <Gold.PLP.Chemscore.Internal.Correction>
0.3056

> <Gold.Rescore>
     Score         DG    S(hbond)    S(metal)    S(lipo)     H(rot)  DE(clash)    DE(int)     intcor
     19.53     -21.70       2.18        0.00     115.36       1.78       0.06       2.11       ----

> <Gold.Chemscore.Fitness>
19.5306

> <Gold.Chemscore.DG>
-21.6983

> <Gold.Chemscore.ZeroCoef>
-5.4800

> <Gold.Chemscore.Hbond>
2.1805

> <Gold.Chemscore.Metal>
0.0000

> <Gold.Chemscore.Lipo>
115.3586

> <Gold.Chemscore.Internal_Hbond>
0.0000

> <Gold.Chemscore.DEClash>
0.0580

> <Gold.Chemscore.DEInternal>
2.1097

> <Gold.Chemscore.Rot>
1.7819

> <Gold.Chemscore.Internal.Correction>
   9.000000E+99

> <Gold.Chemscore.Hbonds>
donor molecule, donor type, donor heavy atom, donor atom, acceptor molecule, acceptor atom, score
      P1  H  6896  6907       L1    11  0.50
      P1  H  6931  6943       L1    16  0.75
      P1  H  6934  6947       L1    16  0.46

> <Gold.Chemscore.Hbond.Weighted>
-7.2830

> <Gold.Chemscore.Metal.Weighted>
-0.0000

> <Gold.Chemscore.Lipo.Weighted>
-13.4970

> <Gold.Chemscore.Internal_Hbond.Weighted>
0.0000

> <Gold.Chemscore.DEClash.Weighted>
0.0580

> <Gold.Chemscore.DEInternal.Weighted>
2.1097

> <Gold.Chemscore.Rot.Weighted>
4.5617

> <Gold.Chemscore.Internal.Correction.Weighted>
   9.000000E+99

> <Gold.Protein.RotatedTorsions>
[ 6907 6896 6895 6894 ] final  -76.00 input  -60.11 | X-H torsion
[ 7974 7965 7964 7962 ] final  -94.53 input  175.53 | X-H torsion
[ 8008 7997 7996 7995 ] final  139.30 input   59.86 | X-H torsion
[ 10167 10162 10161 10158 ] final  158.34 input  -65.29 | X-H torsion
[ 10718 10713 10712 10709 ] final  150.66 input   66.30 | X-H torsion
[ 10763 10752 10751 10750 ] final   94.75 input  -60.55 | X-H torsion
[ 11005 11000 10999 10996 ] final  144.80 input  -57.11 | X-H torsion

> <Gold.Protein.ActiveResidues>
 VAL166  LYS551  ARG553  GLY616  TRP617  ASP618  TYR619  PRO620  LYS621  CYS622 
 ASP623  PHE694  ASN695  SER759  ASP760  ASP761  ALA762  ILE779  LEU786  VAL792 
 PHE793  MET794  SER795  GLU796  ALA797  LYS798  CYS799  TRP800  GLU811  SER814 

> <Gold.Protein.RotatedAtoms>
  150.7041  134.4637  159.5392 H   0  0  0  0  0  0  0  0  0  0  0  0  # atno 6907 bound_to 6896
  152.2307  134.8322  160.0483 H   0  0  0  0  0  0  0  0  0  0  0  0  # atno 6908 bound_to 6896
  151.9139  133.3533  159.3910 H   0  0  0  0  0  0  0  0  0  0  0  0  # atno 6909 bound_to 6896
  145.3721  140.9507  143.2441 H   0  0  0  0  0  0  0  0  0  0  0  0  # atno 7974 bound_to 7965
  156.2991  140.2371  156.4214 H   0  0  0  0  0  0  0  0  0  0  0  0  # atno 8008 bound_to 7997
  154.8352  140.0431  157.1524 H   0  0  0  0  0  0  0  0  0  0  0  0  # atno 8009 bound_to 7997
  154.9164  140.2997  155.5243 H   0  0  0  0  0  0  0  0  0  0  0  0  # atno 8010 bound_to 7997
  139.4826  144.4834  151.8412 H   0  0  0  0  0  0  0  0  0  0  0  0  # atno 10167 bound_to 10162
  157.2806  131.0834  151.1534 H   0  0  0  0  0  0  0  0  0  0  0  0  # atno 10718 bound_to 10713
  153.2453  135.4278  155.0740 H   0  0  0  0  0  0  0  0  0  0  0  0  # atno 10763 bound_to 10752
  154.8358  135.3412  154.6591 H   0  0  0  0  0  0  0  0  0  0  0  0  # atno 10764 bound_to 10752
  153.7013  135.7028  153.5119 H   0  0  0  0  0  0  0  0  0  0  0  0  # atno 10765 bound_to 10752
  140.0661  134.9178  157.1267 H   0  0  0  0  0  0  0  0  0  0  0  0  # atno 11005 bound_to 11000
  144.8569  139.5237  143.6830 LP  0  0  0  0  0  0  0  0  0  0  0  0  # atno 17320 bound_to 7965
  146.2880  139.7059  142.9181 LP  0  0  0  0  0  0  0  0  0  0  0  0  # atno 17321 bound_to 7965
  140.4311  144.2114  150.5888 LP  0  0  0  0  0  0  0  0  0  0  0  0  # atno 17342 bound_to 10162
  140.4778  143.2390  151.8998 LP  0  0  0  0  0  0  0  0  0  0  0  0  # atno 17343 bound_to 10162
  157.2970  130.6824  149.6143 LP  0  0  0  0  0  0  0  0  0  0  0  0  # atno 17370 bound_to 10713
  155.9664  130.4403  150.5296 LP  0  0  0  0  0  0  0  0  0  0  0  0  # atno 17371 bound_to 10713
  140.3696  134.2404  155.7179 LP  0  0  0  0  0  0  0  0  0  0  0  0  # atno 17394 bound_to 11000
  141.1993  133.8014  157.0541 LP  0  0  0  0  0  0  0  0  0  0  0  0  # atno 17395 bound_to 11000

$$$$
