AV-unprocessed.smi:1897|AV-procd|sdf|7690|dock3
  -GOLD-   22720 9433D 1   1.00000     0.00000
 Structure written by MMmdl.
 39 41  0  0  0  0  0  0  0  0  2 V2000
  150.5933  141.3014  155.8396 C   0  0  0  0  0  0  0  0  0  0  0  0
  149.5185  140.4335  155.2797 C   0  0  0  0  0  0  0  0  0  0  0  0
  148.2469  140.4931  155.6936 N   0  0  0  0  0  0  0  0  0  0  0  0
  147.4347  139.5879  155.0268 N   0  0  0  0  0  0  0  0  0  0  0  0
  148.1146  138.8794  154.1132 C   0  0  0  0  0  0  0  0  0  0  0  0
  147.5411  137.8637  153.2944 N   0  0  0  0  0  0  0  0  0  0  0  0
  146.2557  137.4982  153.1051 C   0  0  0  0  0  0  0  0  0  0  0  0
  145.3368  138.0681  153.6906 O   0  0  0  0  0  0  0  0  0  0  0  0
  146.0497  136.4827  152.2504 N   0  0  0  0  0  0  0  0  0  0  0  0
  144.7434  135.9592  151.8656 C   0  0  2  0  0  0  0  0  0  0  0  0
  143.9466  135.4069  153.0404 C   0  0  0  0  0  0  0  0  0  0  0  0
  142.9053  134.5117  152.3610 C   0  0  0  0  0  0  0  0  0  0  0  0
  143.4949  134.0672  151.0739 N   0  3  2  0  0  0  0  0  0  0  0  0
  143.5344  132.5898  150.9044 C   0  0  0  0  0  0  0  0  0  0  0  0
  144.4935  132.1916  149.7730 C   0  0  0  0  0  0  0  0  0  0  0  0
  145.9392  132.6261  150.0807 C   0  0  0  0  0  0  0  0  0  0  0  0
  146.0024  133.8098  151.0647 C   0  0  0  0  0  0  0  0  0  0  0  0
  144.7978  134.7680  150.8902 C   0  0  2  0  0  0  0  0  0  0  0  0
  149.8295  139.2445  154.0210 S   0  0  0  0  0  0  0  0  0  0  0  0
  150.1873  141.9853  156.5858 H   0  0  0  0  0  0  0  0  0  0  0  0
  151.0521  141.8866  155.0426 H   0  0  0  0  0  0  0  0  0  0  0  0
  151.3609  140.6870  156.3103 H   0  0  0  0  0  0  0  0  0  0  0  0
  148.2174  137.2777  152.8262 H   0  0  0  0  0  0  0  0  0  0  0  0
  146.8586  136.0633  151.8137 H   0  0  0  0  0  0  0  0  0  0  0  0
  144.1557  136.7605  151.4122 H   0  0  0  0  0  0  0  0  0  0  0  0
  144.5890  134.8037  153.6840 H   0  0  0  0  0  0  0  0  0  0  0  0
  143.4957  136.1882  153.6531 H   0  0  0  0  0  0  0  0  0  0  0  0
  142.6059  133.6848  153.0062 H   0  0  0  0  0  0  0  0  0  0  0  0
  142.0076  135.0882  152.1355 H   0  0  0  0  0  0  0  0  0  0  0  0
  143.8578  132.1124  151.8312 H   0  0  0  0  0  0  0  0  0  0  0  0
  142.5261  132.2289  150.6989 H   0  0  0  0  0  0  0  0  0  0  0  0
  144.4566  131.1156  149.5999 H   0  0  0  0  0  0  0  0  0  0  0  0
  144.1613  132.6603  148.8456 H   0  0  0  0  0  0  0  0  0  0  0  0
  146.5017  131.7903  150.4980 H   0  0  0  0  0  0  0  0  0  0  0  0
  146.4368  132.8891  149.1465 H   0  0  0  0  0  0  0  0  0  0  0  0
  146.0149  133.4293  152.0871 H   0  0  0  0  0  0  0  0  0  0  0  0
  146.9485  134.3337  150.9266 H   0  0  0  0  0  0  0  0  0  0  0  0
  144.8315  135.1527  149.8698 H   0  0  0  0  0  0  0  0  0  0  0  0
  142.8891  134.4238  150.3483 H   0  0  0  0  0  0  0  0  0  0  0  0
  1  2  1  0  0  0  0
  1 20  1  0  0  0  0
  1 21  1  0  0  0  0
  1 22  1  0  0  0  0
  2 19  1  0  0  0  0
  2  3  2  0  0  0  0
  3  4  1  0  0  0  0
  4  5  2  0  0  0  0
  5  6  1  0  0  0  0
  5 19  1  0  0  0  0
  6  7  1  0  0  0  0
  6 23  1  0  0  0  0
  7  8  2  0  0  0  0
  7  9  1  0  0  0  0
  9 10  1  0  0  0  0
  9 24  1  0  0  0  0
 10 18  1  0  0  0  0
 10 11  1  0  0  0  0
 10 25  1  0  0  0  0
 11 12  1  0  0  0  0
 11 26  1  0  0  0  0
 11 27  1  0  0  0  0
 12 13  1  0  0  0  0
 12 28  1  0  0  0  0
 12 29  1  0  0  0  0
 13 18  1  0  0  0  0
 13 14  1  0  0  0  0
 13 39  1  0  0  0  0
 14 15  1  0  0  0  0
 14 30  1  0  0  0  0
 14 31  1  0  0  0  0
 15 16  1  0  0  0  0
 15 32  1  0  0  0  0
 15 33  1  0  0  0  0
 16 17  1  0  0  0  0
 16 34  1  0  0  0  0
 16 35  1  0  0  0  0
 17 18  1  0  0  0  0
 17 36  1  0  0  0  0
 17 37  1  0  0  0  0
 18 38  1  0  0  0  0
M  CHG  1  13   1
M  END
> <s_m_source_file>
AV-unprocessed.smi

> <i_m_source_file_index>
1897

> <i_lp_mmshare_version>
43012

> <i_f3d_flags>
0

> <s_epik_input>
W0NIM11jMW5uYyhzMSlbTkhdQyg9TylbTkhdW0NASF0oW0NIMl1bQ0gyXTIpW0NAQEhdKE4yMylbQ0gyXVtDSDJdW0NIMl1bQ0gyXTM=

> <s_epik_cmdline>
J2VwaWtfcHl0aG9uJywgJy1waCcsICc3LjAnLCAnLXRuJywgJzgnLCAnLW1hJywgJzIwMCcsICctbWV0YWxfYmluZGluZycsICctaW1hZScsICc8aW5maWxlLm1hZT4nLCAnLW9tYWUnLCAnPG91dGZpbGUubWFlPic=

> <r_lp_tautomer_probability>
1

> <r_epik_Ionization_Penalty>
0.00228891

> <r_epik_Ionization_Penalty_Charging>
0.00107044

> <r_epik_Ionization_Penalty_Neutral>
0.00121847

> <r_epik_State_Penalty>
-0

> <r_epik_Charging_Adjusted_Penalty>
0.00107044

> <i_epik_Tot_Q>
1

> <i_epik_Tot_abs_Q>
1

> <r_epik_Metal_State_Penalty>
0.304057

> <b_epik_Metal_Only>
0

> <s_lp_Force_Field>
OPLS_2005

> <r_lp_Energy>
41.6372

> <b_lp_Chiralities_Consistent>
1

> <s_lp_Variant>
AV-unprocessed.smi:1897-7

> <Gold.Version>
5.8.1

> <Gold.Id.Protein>
6NUR|6NUR_protein|mol2

> <Gold.PLP.Fitness>
42.7129

> <Gold.PLP.PLP>
-32.0860

> <Gold.PLP.part.hbond>
-3.0000

> <Gold.PLP.part.metal>
0.0000

> <Gold.PLP.part.buried>
-4.3222

> <Gold.PLP.part.nonpolar>
-26.2523

> <Gold.PLP.part.repulsive>
0.3068

> <Gold.PLP.ligand.clash>
0.0000

> <Gold.PLP.ligand.torsion>
0.0165

> <Gold.PLP.Chemscore.Hbond>
3.5522

> <Gold.PLP.Chemscore.CHOScore>
0.0000

> <Gold.PLP.Chemscore.Metal>
0.0000

> <Gold.Chemscore.Hbonds>
donor molecule, donor type, donor heavy atom, donor atom, acceptor molecule, acceptor atom, score
      L1  H     6    23       P1  7948  1.00
      L1  H     9    24       P1  7948  0.72
      L1  H    13    39       P1 10186  1.84

> <Gold.PLP.Chemscore.Internal.Correction>
0.0034

> <Gold.Rescore>
     Score         DG    S(hbond)    S(metal)    S(lipo)     H(rot)  DE(clash)    DE(int)     intcor
     18.51     -19.82       2.39        0.00      76.26       1.00       0.05       1.26       ----

> <Gold.Chemscore.Fitness>
18.5121

> <Gold.Chemscore.DG>
-19.8167

> <Gold.Chemscore.ZeroCoef>
-5.4800

> <Gold.Chemscore.Hbond>
2.3875

> <Gold.Chemscore.Metal>
0.0000

> <Gold.Chemscore.Lipo>
76.2602

> <Gold.Chemscore.Internal_Hbond>
0.0000

> <Gold.Chemscore.DEClash>
0.0484

> <Gold.Chemscore.DEInternal>
1.2562

> <Gold.Chemscore.Rot>
1.0000

> <Gold.Chemscore.Internal.Correction>
   9.000000E+99

> <Gold.Chemscore.Hbonds>
donor molecule, donor type, donor heavy atom, donor atom, acceptor molecule, acceptor atom, score
      L1  H     6    23       P1  7948  0.98
      L1  H     9    24       P1  7948  0.69
      L1  H    13    39       P1 10186  0.59

> <Gold.Chemscore.Hbond.Weighted>
-7.9743

> <Gold.Chemscore.Metal.Weighted>
-0.0000

> <Gold.Chemscore.Lipo.Weighted>
-8.9224

> <Gold.Chemscore.Internal_Hbond.Weighted>
0.0000

> <Gold.Chemscore.DEClash.Weighted>
0.0484

> <Gold.Chemscore.DEInternal.Weighted>
1.2562

> <Gold.Chemscore.Rot.Weighted>
2.5600

> <Gold.Chemscore.Internal.Correction.Weighted>
   9.000000E+99

> <Gold.Protein.RotatedTorsions>
[ 6907 6896 6895 6894 ] final  176.65 input  -60.11 | X-H torsion
[ 7974 7965 7964 7962 ] final  -11.07 input  175.53 | X-H torsion
[ 8008 7997 7996 7995 ] final -122.19 input   59.86 | X-H torsion
[ 10167 10162 10161 10158 ] final  -89.51 input  -65.29 | X-H torsion
[ 10718 10713 10712 10709 ] final  172.32 input   66.30 | X-H torsion
[ 10763 10752 10751 10750 ] final  124.69 input  -60.55 | X-H torsion
[ 11005 11000 10999 10996 ] final   17.03 input  -57.11 | X-H torsion

> <Gold.Protein.ActiveResidues>
 VAL166  LYS551  ARG553  GLY616  TRP617  ASP618  TYR619  PRO620  LYS621  CYS622 
 ASP623  PHE694  ASN695  SER759  ASP760  ASP761  ALA762  ILE779  LEU786  VAL792 
 PHE793  MET794  SER795  GLU796  ALA797  LYS798  CYS799  TRP800  GLU811  SER814 

> <Gold.Protein.RotatedAtoms>
  151.7168  133.3313  159.3304 H   0  0  0  0  0  0  0  0  0  0  0  0  # atno 6907 bound_to 6896
  150.7670  134.6484  159.6284 H   0  0  0  0  0  0  0  0  0  0  0  0  # atno 6908 bound_to 6896
  152.3677  134.6782  160.0238 H   0  0  0  0  0  0  0  0  0  0  0  0  # atno 6909 bound_to 6896
  146.2200  140.2857  142.8365 H   0  0  0  0  0  0  0  0  0  0  0  0  # atno 7974 bound_to 7965
  155.1602  140.0405  157.2841 H   0  0  0  0  0  0  0  0  0  0  0  0  # atno 8008 bound_to 7997
  154.6342  140.2531  155.7371 H   0  0  0  0  0  0  0  0  0  0  0  0  # atno 8009 bound_to 7997
  156.2500  140.2869  156.0707 H   0  0  0  0  0  0  0  0  0  0  0  0  # atno 8010 bound_to 7997
  140.3641  143.2827  151.9579 H   0  0  0  0  0  0  0  0  0  0  0  0  # atno 10167 bound_to 10162
  156.9807  131.0118  151.2882 H   0  0  0  0  0  0  0  0  0  0  0  0  # atno 10718 bound_to 10713
  153.6653  135.3339  155.3138 H   0  0  0  0  0  0  0  0  0  0  0  0  # atno 10763 bound_to 10752
  154.8504  135.4373  154.1761 H   0  0  0  0  0  0  0  0  0  0  0  0  # atno 10764 bound_to 10752
  153.2738  135.7003  153.7529 H   0  0  0  0  0  0  0  0  0  0  0  0  # atno 10765 bound_to 10752
  140.4405  134.1326  155.7690 H   0  0  0  0  0  0  0  0  0  0  0  0  # atno 11005 bound_to 11000
  144.9164  140.7817  143.5776 LP  0  0  0  0  0  0  0  0  0  0  0  0  # atno 17320 bound_to 7965
  145.2791  139.1925  143.4800 LP  0  0  0  0  0  0  0  0  0  0  0  0  # atno 17321 bound_to 7965
  139.4811  144.5966  151.7679 LP  0  0  0  0  0  0  0  0  0  0  0  0  # atno 17342 bound_to 10162
  140.5098  144.1043  150.5992 LP  0  0  0  0  0  0  0  0  0  0  0  0  # atno 17343 bound_to 10162
  157.5528  130.8193  149.8166 LP  0  0  0  0  0  0  0  0  0  0  0  0  # atno 17370 bound_to 10713
  156.0245  130.3784  150.1862 LP  0  0  0  0  0  0  0  0  0  0  0  0  # atno 17371 bound_to 10713
  141.1707  133.8614  157.1578 LP  0  0  0  0  0  0  0  0  0  0  0  0  # atno 17394 bound_to 11000
  140.0073  135.0003  157.0319 LP  0  0  0  0  0  0  0  0  0  0  0  0  # atno 17395 bound_to 11000

$$$$
