AV-unprocessed.smi:1727|AV-procd|sdf|6966|dock9
  -GOLD-   22720 8183D 1   1.00000     0.00000
 Structure written by MMmdl.
 50 52  0  0  0  0  0  0  0  0  2 V2000
  150.9770  141.3232  158.2027 C   0  0  0  0  0  0  0  0  0  0  0  0
  151.8584  140.3819  157.3785 C   0  0  0  0  0  0  0  0  0  0  0  0
  152.7758  139.7972  157.9546 O   0  0  0  0  0  0  0  0  0  0  0  0
  151.6063  140.2252  156.0566 N   0  0  0  0  0  0  0  0  0  0  0  0
  152.3157  139.3049  155.1592 C   0  0  0  0  0  0  0  0  0  0  0  0
  151.3711  138.1490  154.7851 C   0  0  0  0  0  0  0  0  0  0  0  0
  150.0597  138.6763  154.1575 C   0  0  0  0  0  0  0  0  0  0  0  0
  149.0955  137.5931  153.9905 N   0  0  0  0  0  0  0  0  0  0  0  0
  148.2939  137.1159  154.9529 C   0  0  0  0  0  0  0  0  0  0  0  0
  148.2772  137.5477  156.1055 O   0  0  0  0  0  0  0  0  0  0  0  0
  147.5063  136.1317  154.4886 N   0  0  0  0  0  0  0  0  0  0  0  0
  146.5008  135.4180  155.1988 C   0  0  0  0  0  0  0  0  0  0  0  0
  146.3835  135.5320  156.6079 C   0  0  0  0  0  0  0  0  0  0  0  0
  145.4294  134.7615  157.2983 C   0  0  0  0  0  0  0  0  0  0  0  0
  144.6164  133.8752  156.5712 C   0  0  0  0  0  0  0  0  0  0  0  0
  144.7603  133.7805  155.2332 N   0  3  0  0  0  0  0  0  0  0  0  0
  145.6500  134.5056  154.5099 C   0  0  0  0  0  0  0  0  0  0  0  0
  145.6792  134.3102  153.1101 N   0  0  0  0  0  0  0  0  0  0  0  0
  146.3258  133.1322  152.5429 C   0  0  0  0  0  0  0  0  0  0  0  0
  145.8463  133.0760  151.0950 C   0  0  0  0  0  0  0  0  0  0  0  0
  144.4157  133.5954  151.2035 C   0  0  0  0  0  0  0  0  0  0  0  0
  144.4907  134.6348  152.3271 C   0  0  0  0  0  0  0  0  0  0  0  0
  149.4343  139.7961  155.0167 C   0  0  0  0  0  0  0  0  0  0  0  0
  150.4740  140.8707  155.3822 C   0  0  0  0  0  0  0  0  0  0  0  0
  151.0113  142.3367  157.8017 H   0  0  0  0  0  0  0  0  0  0  0  0
  151.3202  141.3632  159.2370 H   0  0  0  0  0  0  0  0  0  0  0  0
  149.9430  140.9775  158.2087 H   0  0  0  0  0  0  0  0  0  0  0  0
  152.6166  139.8442  154.2599 H   0  0  0  0  0  0  0  0  0  0  0  0
  153.2383  138.9076  155.5796 H   0  0  0  0  0  0  0  0  0  0  0  0
  151.8739  137.4710  154.0947 H   0  0  0  0  0  0  0  0  0  0  0  0
  151.1460  137.5673  155.6804 H   0  0  0  0  0  0  0  0  0  0  0  0
  150.2925  139.1018  153.1792 H   0  0  0  0  0  0  0  0  0  0  0  0
  149.0386  137.1772  153.0724 H   0  0  0  0  0  0  0  0  0  0  0  0
  147.5565  135.9485  153.4970 H   0  0  0  0  0  0  0  0  0  0  0  0
  147.0297  136.1854  157.1748 H   0  0  0  0  0  0  0  0  0  0  0  0
  145.3329  134.8406  158.3713 H   0  0  0  0  0  0  0  0  0  0  0  0
  143.8636  133.2403  157.0153 H   0  0  0  0  0  0  0  0  0  0  0  0
  147.4120  133.2040  152.6072 H   0  0  0  0  0  0  0  0  0  0  0  0
  146.0074  132.2305  153.0679 H   0  0  0  0  0  0  0  0  0  0  0  0
  146.4416  133.7500  150.4772 H   0  0  0  0  0  0  0  0  0  0  0  0
  145.9082  132.0761  150.6645 H   0  0  0  0  0  0  0  0  0  0  0  0
  144.0399  134.0093  150.2673 H   0  0  0  0  0  0  0  0  0  0  0  0
  143.7531  132.7809  151.4995 H   0  0  0  0  0  0  0  0  0  0  0  0
  143.5831  134.6296  152.9326 H   0  0  0  0  0  0  0  0  0  0  0  0
  144.6113  135.6324  151.9037 H   0  0  0  0  0  0  0  0  0  0  0  0
  148.5985  140.2533  154.4857 H   0  0  0  0  0  0  0  0  0  0  0  0
  149.0229  139.3740  155.9351 H   0  0  0  0  0  0  0  0  0  0  0  0
  150.0068  141.6473  155.9894 H   0  0  0  0  0  0  0  0  0  0  0  0
  150.8278  141.3733  154.4808 H   0  0  0  0  0  0  0  0  0  0  0  0
  144.1554  133.1280  154.7341 H   0  0  0  0  0  0  0  0  0  0  0  0
  1  2  1  0  0  0  0
  1 25  1  0  0  0  0
  1 26  1  0  0  0  0
  1 27  1  0  0  0  0
  2  3  2  0  0  0  0
  2  4  1  0  0  0  0
  4 24  1  0  0  0  0
  4  5  1  0  0  0  0
  5  6  1  0  0  0  0
  5 28  1  0  0  0  0
  5 29  1  0  0  0  0
  6  7  1  0  0  0  0
  6 30  1  0  0  0  0
  6 31  1  0  0  0  0
  7  8  1  0  0  0  0
  7 23  1  0  0  0  0
  7 32  1  0  0  0  0
  8  9  1  0  0  0  0
  8 33  1  0  0  0  0
  9 10  2  0  0  0  0
  9 11  1  0  0  0  0
 11 12  1  0  0  0  0
 11 34  1  0  0  0  0
 12 17  1  0  0  0  0
 12 13  2  0  0  0  0
 13 14  1  0  0  0  0
 13 35  1  0  0  0  0
 14 15  2  0  0  0  0
 14 36  1  0  0  0  0
 15 16  1  0  0  0  0
 15 37  1  0  0  0  0
 16 17  2  0  0  0  0
 16 50  1  0  0  0  0
 17 18  1  0  0  0  0
 18 22  1  0  0  0  0
 18 19  1  0  0  0  0
 19 20  1  0  0  0  0
 19 38  1  0  0  0  0
 19 39  1  0  0  0  0
 20 21  1  0  0  0  0
 20 40  1  0  0  0  0
 20 41  1  0  0  0  0
 21 22  1  0  0  0  0
 21 42  1  0  0  0  0
 21 43  1  0  0  0  0
 22 44  1  0  0  0  0
 22 45  1  0  0  0  0
 23 24  1  0  0  0  0
 23 46  1  0  0  0  0
 23 47  1  0  0  0  0
 24 48  1  0  0  0  0
 24 49  1  0  0  0  0
M  CHG  1  16   1
M  END
> <s_m_source_file>
AV-unprocessed.smi

> <i_m_source_file_index>
1727

> <i_lp_mmshare_version>
43012

> <i_f3d_flags>
0

> <s_epik_input>
W0NIM11DKD1PKU4xW0NIMl1bQ0gyXVtDSF0oW0NIMl1bQ0gyXTEpW05IXUMoPU8pW05IXWMyW2NIXVtjSF1bY0hdbmMyTjNbQ0gyXVtDSDJdW0NIMl1bQ0gyXTM=

> <s_epik_cmdline>
J2VwaWtfcHl0aG9uJywgJy1waCcsICc3LjAnLCAnLXRuJywgJzgnLCAnLW1hJywgJzIwMCcsICctbWV0YWxfYmluZGluZycsICctaW1hZScsICc8aW5maWxlLm1hZT4nLCAnLW9tYWUnLCAnPG91dGZpbGUubWFlPic=

> <r_lp_tautomer_probability>
0.999994

> <r_epik_Ionization_Penalty>
1.09439

> <r_epik_Ionization_Penalty_Charging>
1.09437

> <r_epik_Ionization_Penalty_Neutral>
2.13526e-05

> <r_epik_State_Penalty>
1.15094

> <r_epik_Charging_Adjusted_Penalty>
2.24531

> <i_epik_Tot_Q>
1

> <i_epik_Tot_abs_Q>
1

> <r_epik_Metal_State_Penalty>
1.23914

> <b_epik_Metal_Only>
0

> <s_lp_Force_Field>
OPLS_2005

> <r_lp_Energy>
56.6798

> <b_lp_Chiralities_Consistent>
1

> <s_lp_Variant>
AV-unprocessed.smi:1727-2

> <Gold.Version>
5.8.1

> <Gold.Id.Protein>
6NUR|6NUR_protein|mol2

> <Gold.PLP.Fitness>
44.1834

> <Gold.PLP.PLP>
-31.4285

> <Gold.PLP.part.hbond>
-3.9794

> <Gold.PLP.part.metal>
0.0000

> <Gold.PLP.part.buried>
-3.5290

> <Gold.PLP.part.nonpolar>
-25.1597

> <Gold.PLP.part.repulsive>
0.1146

> <Gold.PLP.ligand.clash>
0.0000

> <Gold.PLP.ligand.torsion>
0.5465

> <Gold.PLP.Chemscore.Hbond>
4.4871

> <Gold.PLP.Chemscore.CHOScore>
0.0000

> <Gold.PLP.Chemscore.Metal>
0.0000

> <Gold.Chemscore.Hbonds>
donor molecule, donor type, donor heavy atom, donor atom, acceptor molecule, acceptor atom, score
      L1  H     8    33       P1  7948  0.98
      L1  H    11    34       P1  7948  0.51
      L1  H    16    50       P1 10957  1.95
      P1  H  7997  8009       L1     3  0.98

> <Gold.PLP.Chemscore.Internal.Correction>
0.3866

> <Gold.Rescore>
     Score         DG    S(hbond)    S(metal)    S(lipo)     H(rot)  DE(clash)    DE(int)     intcor
     17.23     -20.63       3.18        0.00      65.38       1.22       0.02       3.38       ----

> <Gold.Chemscore.Fitness>
17.2307

> <Gold.Chemscore.DG>
-20.6251

> <Gold.Chemscore.ZeroCoef>
-5.4800

> <Gold.Chemscore.Hbond>
3.1809

> <Gold.Chemscore.Metal>
0.0000

> <Gold.Chemscore.Lipo>
65.3830

> <Gold.Chemscore.Internal_Hbond>
0.0000

> <Gold.Chemscore.DEClash>
0.0174

> <Gold.Chemscore.DEInternal>
3.3770

> <Gold.Chemscore.Rot>
1.2222

> <Gold.Chemscore.Internal.Correction>
   9.000000E+99

> <Gold.Chemscore.Hbonds>
donor molecule, donor type, donor heavy atom, donor atom, acceptor molecule, acceptor atom, score
      L1  H     8    33       P1  7948  0.91
      L1  H    11    34       P1  7948  0.52
      L1  H    16    50       P1 10957  0.88
      P1  H  7997  8009       L1     3  0.72

> <Gold.Chemscore.Hbond.Weighted>
-10.6242

> <Gold.Chemscore.Metal.Weighted>
-0.0000

> <Gold.Chemscore.Lipo.Weighted>
-7.6498

> <Gold.Chemscore.Internal_Hbond.Weighted>
0.0000

> <Gold.Chemscore.DEClash.Weighted>
0.0174

> <Gold.Chemscore.DEInternal.Weighted>
3.3770

> <Gold.Chemscore.Rot.Weighted>
3.1289

> <Gold.Chemscore.Internal.Correction.Weighted>
   9.000000E+99

> <Gold.Protein.RotatedTorsions>
[ 6907 6896 6895 6894 ] final   37.10 input  -60.11 | X-H torsion
[ 7974 7965 7964 7962 ] final  121.40 input  175.53 | X-H torsion
[ 8008 7997 7996 7995 ] final  157.72 input   59.86 | X-H torsion
[ 10167 10162 10161 10158 ] final   83.13 input  -65.29 | X-H torsion
[ 10718 10713 10712 10709 ] final  -17.35 input   66.30 | X-H torsion
[ 10763 10752 10751 10750 ] final  157.60 input  -60.55 | X-H torsion
[ 11005 11000 10999 10996 ] final   -5.75 input  -57.11 | X-H torsion

> <Gold.Protein.ActiveResidues>
 VAL166  LYS551  ARG553  GLY616  TRP617  ASP618  TYR619  PRO620  LYS621  CYS622 
 ASP623  PHE694  ASN695  SER759  ASP760  ASP761  ALA762  ILE779  LEU786  VAL792 
 PHE793  MET794  SER795  GLU796  ALA797  LYS798  CYS799  TRP800  GLU811  SER814 

> <Gold.Protein.RotatedAtoms>
  152.1386  134.9080  160.0554 H   0  0  0  0  0  0  0  0  0  0  0  0  # atno 6907 bound_to 6896
  152.0156  133.3873  159.4245 H   0  0  0  0  0  0  0  0  0  0  0  0  # atno 6908 bound_to 6896
  150.6863  134.3604  159.4991 H   0  0  0  0  0  0  0  0  0  0  0  0  # atno 6909 bound_to 6896
  145.1198  139.3397  143.4720 H   0  0  0  0  0  0  0  0  0  0  0  0  # atno 7974 bound_to 7965
  156.2347  140.1878  156.7151 H   0  0  0  0  0  0  0  0  0  0  0  0  # atno 8008 bound_to 7997
  154.6085  140.0625  156.9489 H   0  0  0  0  0  0  0  0  0  0  0  0  # atno 8009 bound_to 7997
  155.2056  140.3296  155.4339 H   0  0  0  0  0  0  0  0  0  0  0  0  # atno 8010 bound_to 7997
  139.9216  144.6209  150.8434 H   0  0  0  0  0  0  0  0  0  0  0  0  # atno 10167 bound_to 10162
  156.5747  130.4759  149.6347 H   0  0  0  0  0  0  0  0  0  0  0  0  # atno 10718 bound_to 10713
  154.2027  135.2789  155.2985 H   0  0  0  0  0  0  0  0  0  0  0  0  # atno 10763 bound_to 10752
  154.5841  135.5580  153.7217 H   0  0  0  0  0  0  0  0  0  0  0  0  # atno 10764 bound_to 10752
  153.0083  135.6352  154.2166 H   0  0  0  0  0  0  0  0  0  0  0  0  # atno 10765 bound_to 10752
  140.6945  133.9042  155.8641 H   0  0  0  0  0  0  0  0  0  0  0  0  # atno 11005 bound_to 11000
  146.3521  140.1152  142.8602 LP  0  0  0  0  0  0  0  0  0  0  0  0  # atno 17320 bound_to 7965
  145.0753  140.9184  143.4857 LP  0  0  0  0  0  0  0  0  0  0  0  0  # atno 17321 bound_to 7965
  140.7661  143.3293  151.2446 LP  0  0  0  0  0  0  0  0  0  0  0  0  # atno 17342 bound_to 10162
  139.6857  143.9778  152.2833 LP  0  0  0  0  0  0  0  0  0  0  0  0  # atno 17343 bound_to 10162
  156.2683  130.7002  151.1792 LP  0  0  0  0  0  0  0  0  0  0  0  0  # atno 17370 bound_to 10713
  157.7340  131.0586  150.5547 LP  0  0  0  0  0  0  0  0  0  0  0  0  # atno 17371 bound_to 10713
  141.0214  134.0884  157.4116 LP  0  0  0  0  0  0  0  0  0  0  0  0  # atno 17394 bound_to 11000
  139.8914  135.0118  156.6789 LP  0  0  0  0  0  0  0  0  0  0  0  0  # atno 17395 bound_to 11000

$$$$
