AV-unprocessed.smi:1394|AV-procd|sdf|5665|dock7
  -GOLD-   22720 5283D 1   1.00000     0.00000
 Structure written by MMmdl.
 41 42  0  0  0  0  0  0  0  0  1 V2000
  146.9063  142.3715  157.3485 C   0  0  0  0  0  0  0  0  0  0  0  0
  147.3893  142.0098  155.9321 C   0  0  2  0  0  0  0  0  0  0  0  0
  146.3467  141.1299  155.2129 C   0  0  0  0  0  0  0  0  0  0  0  0
  146.7934  140.7585  153.7912 C   0  0  0  0  0  0  0  0  0  0  0  0
  148.1589  140.0592  153.8101 C   0  0  0  0  0  0  0  0  0  0  0  0
  149.2135  140.9303  154.5077 C   0  0  0  0  0  0  0  0  0  0  0  0
  148.7783  141.3231  155.9360 C   0  0  1  0  0  0  0  0  0  0  0  0
  149.7769  142.2081  156.5318 N   0  0  0  0  0  0  0  0  0  0  0  0
  150.5992  141.8900  157.5428 C   0  0  0  0  0  0  0  0  0  0  0  0
  150.6142  140.7804  158.0779 O   0  0  0  0  0  0  0  0  0  0  0  0
  151.5562  143.0019  157.9964 C   0  0  0  0  0  0  0  0  0  0  0  0
  152.2259  142.7203  159.2780 N   0  0  0  0  0  0  0  0  0  0  0  0
  151.9629  143.6045  160.3394 C   0  0  0  0  0  0  0  0  0  0  0  0
  152.5152  143.4391  161.5488 C   0  0  0  0  0  0  0  0  0  0  0  0
  153.3997  142.3169  161.7469 C   0  0  0  0  0  0  0  0  0  0  0  0
  153.6769  141.4527  160.7431 C   0  0  0  0  0  0  0  0  0  0  0  0
  154.6045  140.2556  160.9386 C   0  0  0  0  0  0  0  0  0  0  0  0
  153.9763  139.1187  160.6358 F   0  0  0  0  0  0  0  0  0  0  0  0
  155.6761  140.3616  160.1520 F   0  0  0  0  0  0  0  0  0  0  0  0
  155.0313  140.1606  162.1989 F   0  0  0  0  0  0  0  0  0  0  0  0
  153.0657  141.6471  159.4121 C   0  0  0  0  0  0  0  0  0  0  0  0
  153.2913  140.8907  158.4658 O   0  0  0  0  0  0  0  0  0  0  0  0
  146.8266  141.4841  157.9771 H   0  0  0  0  0  0  0  0  0  0  0  0
  145.9252  142.8457  157.3177 H   0  0  0  0  0  0  0  0  0  0  0  0
  147.5847  143.0681  157.8413 H   0  0  0  0  0  0  0  0  0  0  0  0
  147.4751  142.9412  155.3695 H   0  0  0  0  0  0  0  0  0  0  0  0
  146.1748  140.2190  155.7877 H   0  0  0  0  0  0  0  0  0  0  0  0
  145.3891  141.6496  155.1668 H   0  0  0  0  0  0  0  0  0  0  0  0
  146.0501  140.1113  153.3246 H   0  0  0  0  0  0  0  0  0  0  0  0
  146.8501  141.6580  153.1770 H   0  0  0  0  0  0  0  0  0  0  0  0
  148.0740  139.1021  154.3263 H   0  0  0  0  0  0  0  0  0  0  0  0
  148.4764  139.8350  152.7915 H   0  0  0  0  0  0  0  0  0  0  0  0
  150.1628  140.3940  154.5370 H   0  0  0  0  0  0  0  0  0  0  0  0
  149.3869  141.8295  153.9148 H   0  0  0  0  0  0  0  0  0  0  0  0
  148.7045  140.4156  156.5390 H   0  0  0  0  0  0  0  0  0  0  0  0
  149.8376  143.1411  156.1504 H   0  0  0  0  0  0  0  0  0  0  0  0
  152.2930  143.1571  157.2071 H   0  0  0  0  0  0  0  0  0  0  0  0
  151.0065  143.9431  158.0590 H   0  0  0  0  0  0  0  0  0  0  0  0
  151.2948  144.4209  160.1063 H   0  0  0  0  0  0  0  0  0  0  0  0
  152.3049  144.1285  162.3532 H   0  0  0  0  0  0  0  0  0  0  0  0
  153.8407  142.1782  162.7227 H   0  0  0  0  0  0  0  0  0  0  0  0
  1  2  1  0  0  0  0
  1 23  1  0  0  0  0
  1 24  1  0  0  0  0
  1 25  1  0  0  0  0
  2  7  1  0  0  0  0
  2  3  1  0  0  0  0
  2 26  1  0  0  0  0
  3  4  1  0  0  0  0
  3 27  1  0  0  0  0
  3 28  1  0  0  0  0
  4  5  1  0  0  0  0
  4 29  1  0  0  0  0
  4 30  1  0  0  0  0
  5  6  1  0  0  0  0
  5 31  1  0  0  0  0
  5 32  1  0  0  0  0
  6  7  1  0  0  0  0
  6 33  1  0  0  0  0
  6 34  1  0  0  0  0
  7  8  1  0  0  0  0
  7 35  1  0  0  0  0
  8  9  1  0  0  0  0
  8 36  1  0  0  0  0
  9 10  2  0  0  0  0
  9 11  1  0  0  0  0
 11 12  1  0  0  0  0
 11 37  1  0  0  0  0
 11 38  1  0  0  0  0
 12 21  1  0  0  0  0
 12 13  1  0  0  0  0
 13 14  2  0  0  0  0
 13 39  1  0  0  0  0
 14 15  1  0  0  0  0
 14 40  1  0  0  0  0
 15 16  2  0  0  0  0
 15 41  1  0  0  0  0
 16 17  1  0  0  0  0
 16 21  1  0  0  0  0
 17 18  1  0  0  0  0
 17 19  1  0  0  0  0
 17 20  1  0  0  0  0
 21 22  2  0  0  0  0
M  END
> <s_m_source_file>
AV-unprocessed.smi

> <i_m_source_file_index>
1394

> <i_lp_mmshare_version>
43012

> <i_f3d_flags>
0

> <s_epik_input>
W0NIM11bQ0BASF0xW0NIMl1bQ0gyXVtDSDJdW0NIMl1bQ0BIXTFbTkhdQyg9TylbQ0gyXW4yW2NIXVtjSF1bY0hdYyhDKEYpKEYpRiljMj1P

> <s_epik_cmdline>
J2VwaWtfcHl0aG9uJywgJy1waCcsICc3LjAnLCAnLXRuJywgJzgnLCAnLW1hJywgJzIwMCcsICctbWV0YWxfYmluZGluZycsICctaW1hZScsICc8aW5maWxlLm1hZT4nLCAnLW9tYWUnLCAnPG91dGZpbGUubWFlPic=

> <r_lp_tautomer_probability>
1

> <r_epik_Ionization_Penalty>
2.11487e-08

> <r_epik_Ionization_Penalty_Charging>
2.10183e-09

> <r_epik_Ionization_Penalty_Neutral>
1.90469e-08

> <r_epik_State_Penalty>
-0

> <r_epik_Charging_Adjusted_Penalty>
2.10183e-09

> <i_epik_Tot_Q>
0

> <i_epik_Tot_abs_Q>
0

> <r_epik_Metal_State_Penalty>
-0

> <b_epik_Metal_Only>
0

> <s_lp_Force_Field>
OPLS_2005

> <r_lp_Energy>
20.2228

> <b_lp_Chiralities_Consistent>
1

> <s_lp_Variant>
AV-unprocessed.smi:1394-1

> <Gold.Version>
5.8.1

> <Gold.Id.Protein>
6NUR|6NUR_protein|mol2

> <Gold.PLP.Fitness>
48.5148

> <Gold.PLP.PLP>
-44.6702

> <Gold.PLP.part.hbond>
-2.0000

> <Gold.PLP.part.metal>
0.0000

> <Gold.PLP.part.buried>
-0.2188

> <Gold.PLP.part.nonpolar>
-41.5919

> <Gold.PLP.part.repulsive>
0.0513

> <Gold.PLP.ligand.clash>
0.3061

> <Gold.PLP.ligand.torsion>
0.2446

> <Gold.PLP.Chemscore.Hbond>
1.4346

> <Gold.PLP.Chemscore.CHOScore>
0.0000

> <Gold.PLP.Chemscore.Metal>
0.0000

> <Gold.Chemscore.Hbonds>
donor molecule, donor type, donor heavy atom, donor atom, acceptor molecule, acceptor atom, score
      L1  H     8    36       P1  8028  0.93
      P1  H  7997  8009       L1    22  0.48

> <Gold.PLP.Chemscore.Internal.Correction>
0.3362

> <Gold.Rescore>
     Score         DG    S(hbond)    S(metal)    S(lipo)     H(rot)  DE(clash)    DE(int)     intcor
     11.85     -17.66       1.46        0.00      95.65       1.52       1.39       4.41       ----

> <Gold.Chemscore.Fitness>
11.8545

> <Gold.Chemscore.DG>
-17.6592

> <Gold.Chemscore.ZeroCoef>
-5.4800

> <Gold.Chemscore.Hbond>
1.4642

> <Gold.Chemscore.Metal>
0.0000

> <Gold.Chemscore.Lipo>
95.6461

> <Gold.Chemscore.Internal_Hbond>
0.0000

> <Gold.Chemscore.DEClash>
1.3900

> <Gold.Chemscore.DEInternal>
4.4148

> <Gold.Chemscore.Rot>
1.5242

> <Gold.Chemscore.Internal.Correction>
   9.000000E+99

> <Gold.Chemscore.Hbonds>
donor molecule, donor type, donor heavy atom, donor atom, acceptor molecule, acceptor atom, score
      L1  H     8    36       P1  8028  0.91
      P1  H  7997  8009       L1    22  0.47

> <Gold.Chemscore.Hbond.Weighted>
-4.8905

> <Gold.Chemscore.Metal.Weighted>
-0.0000

> <Gold.Chemscore.Lipo.Weighted>
-11.1906

> <Gold.Chemscore.Internal_Hbond.Weighted>
0.0000

> <Gold.Chemscore.DEClash.Weighted>
1.3900

> <Gold.Chemscore.DEInternal.Weighted>
4.4148

> <Gold.Chemscore.Rot.Weighted>
3.9019

> <Gold.Chemscore.Internal.Correction.Weighted>
   9.000000E+99

> <Gold.Protein.RotatedTorsions>
[ 6907 6896 6895 6894 ] final  103.67 input  -60.11 | X-H torsion
[ 7974 7965 7964 7962 ] final  174.39 input  175.53 | X-H torsion
[ 8008 7997 7996 7995 ] final  155.59 input   59.86 | X-H torsion
[ 10167 10162 10161 10158 ] final  -77.29 input  -65.29 | X-H torsion
[ 10718 10713 10712 10709 ] final  -85.17 input   66.30 | X-H torsion
[ 10763 10752 10751 10750 ] final -148.40 input  -60.55 | X-H torsion
[ 11005 11000 10999 10996 ] final  111.72 input  -57.11 | X-H torsion

> <Gold.Protein.ActiveResidues>
 VAL166  LYS551  ARG553  GLY616  TRP617  ASP618  TYR619  PRO620  LYS621  CYS622 
 ASP623  PHE694  ASN695  SER759  ASP760  ASP761  ALA762  ILE779  LEU786  VAL792 
 PHE793  MET794  SER795  GLU796  ALA797  LYS798  CYS799  TRP800  GLU811  SER814 

> <Gold.Protein.RotatedAtoms>
  152.5288  133.9791  159.7797 H   0  0  0  0  0  0  0  0  0  0  0  0  # atno 6907 bound_to 6896
  151.0048  133.6013  159.2697 H   0  0  0  0  0  0  0  0  0  0  0  0  # atno 6908 bound_to 6896
  151.3109  135.0800  159.9325 H   0  0  0  0  0  0  0  0  0  0  0  0  # atno 6909 bound_to 6896
  144.7222  139.9790  143.6438 H   0  0  0  0  0  0  0  0  0  0  0  0  # atno 7974 bound_to 7965
  156.2469  140.1935  156.6825 H   0  0  0  0  0  0  0  0  0  0  0  0  # atno 8008 bound_to 7997
  154.6311  140.0595  156.9759 H   0  0  0  0  0  0  0  0  0  0  0  0  # atno 8009 bound_to 7997
  155.1709  140.3268  155.4395 H   0  0  0  0  0  0  0  0  0  0  0  0  # atno 8010 bound_to 7997
  140.4783  143.2409  151.8098 H   0  0  0  0  0  0  0  0  0  0  0  0  # atno 10167 bound_to 10162
  155.9999  130.4722  150.4521 H   0  0  0  0  0  0  0  0  0  0  0  0  # atno 10718 bound_to 10713
  154.8235  135.3335  154.6968 H   0  0  0  0  0  0  0  0  0  0  0  0  # atno 10763 bound_to 10752
  153.7597  135.6933  153.4932 H   0  0  0  0  0  0  0  0  0  0  0  0  # atno 10764 bound_to 10752
  153.2119  135.4479  155.0338 H   0  0  0  0  0  0  0  0  0  0  0  0  # atno 10765 bound_to 10752
  139.8910  134.9514  156.6476 H   0  0  0  0  0  0  0  0  0  0  0  0  # atno 11005 bound_to 11000
  146.0503  139.3504  143.0643 LP  0  0  0  0  0  0  0  0  0  0  0  0  # atno 17320 bound_to 7965
  145.8223  140.9672  143.0892 LP  0  0  0  0  0  0  0  0  0  0  0  0  # atno 17321 bound_to 7965
  139.4829  144.4805  151.9312 LP  0  0  0  0  0  0  0  0  0  0  0  0  # atno 17342 bound_to 10162
  140.3890  144.2639  150.5901 LP  0  0  0  0  0  0  0  0  0  0  0  0  # atno 17343 bound_to 10162
  157.2553  131.0555  151.2354 LP  0  0  0  0  0  0  0  0  0  0  0  0  # atno 17370 bound_to 10713
  157.3488  130.7071  149.6427 LP  0  0  0  0  0  0  0  0  0  0  0  0  # atno 17371 bound_to 10713
  140.7546  133.8869  155.8372 LP  0  0  0  0  0  0  0  0  0  0  0  0  # atno 17394 bound_to 11000
  140.9973  134.1198  157.4351 LP  0  0  0  0  0  0  0  0  0  0  0  0  # atno 17395 bound_to 11000

$$$$
