#       Name:                AV-unprocessed.smi:787
#       Creating user name   scv26
#       Creation time:       Fri Mar 27 01:15:51 2020


#       File generated by GOLD software.
#

@<TRIPOS>MOLECULE
AV-unprocessed.smi:787
    52    54     1
SMALL
NO_CHARGES


@<TRIPOS>ATOM
      1 ****        -3.8752   0.1721  -1.5563 C.3            1 S1                 0.0000
      2 ****        -2.8982   1.0140  -0.8845 N.pl3          1 S1                 0.0000
      3 ****        -2.1968   1.9986  -1.5945 C.ar           1 S1                 0.0000
      4 ****        -2.4075   2.1526  -2.9222 N.ar           1 S1                 0.0000
      5 ****        -1.7230   3.1117  -3.5590 C.ar           1 S1                 0.0000
      6 ****        -0.8239   3.9774  -3.0657 N.ar           1 S1                 0.0000
      7 ****        -0.6057   3.8312  -1.7519 C.ar           1 S1                 0.0000
      8 ****         0.2662   4.5840  -0.9844 N.2            1 S1                 0.0000
      9 ****         0.1058   4.0413   0.2193 C.2            1 S1                 0.0000
     10 ****        -0.7571   3.0114   0.3276 N.pl3          1 S1                 0.0000
     11 ****        -1.0677   2.2656   1.5351 C.3            1 S1                 0.0000
     12 ****        -0.4270   0.8628   1.5518 C.3            1 S1                 0.0000
     13 ****        -0.7734   0.2419   2.7727 O.3            1 S1                 0.0000
     14 ****         1.1118   0.8709   1.4128 C.3            1 S1                 0.0000
     15 ****         1.6557  -0.4995   1.2422 N.4            1 S1                 1.0000
     16 ****         3.0341  -0.6273   1.7688 C.3            1 S1                 0.0000
     17 ****         1.5268  -1.0104  -0.1467 C.3            1 S1                 0.0000
     18 ****         1.4341  -2.5244  -0.1703 C.ar           1 S1                 0.0000
     19 ****         2.5562  -3.3066  -0.5176 C.ar           1 S1                 0.0000
     20 ****         2.4609  -4.7119  -0.5326 C.ar           1 S1                 0.0000
     21 ****         1.2444  -5.3395  -0.2021 C.ar           1 S1                 0.0000
     22 ****         0.1221  -4.5617   0.1420 C.ar           1 S1                 0.0000
     23 ****         0.2162  -3.1566   0.1573 C.ar           1 S1                 0.0000
     24 ****        -1.2663   2.8448  -0.9588 C.ar           1 S1                 0.0000
     25 ****        -4.3223  -0.5202  -0.8430 H              1 S1                 0.0000
     26 ****        -3.4044  -0.4105  -2.3486 H              1 S1                 0.0000
     27 ****        -4.6724   0.7760  -1.9909 H              1 S1                 0.0000
     28 ****        -2.7806   0.9272   0.1146 H              1 S1                 0.0000
     29 ****        -1.9227   3.2008  -4.6166 H              1 S1                 0.0000
     30 ****         0.6589   4.4073   1.0721 H              1 S1                 0.0000
     31 ****        -0.7271   2.8453   2.3948 H              1 S1                 0.0000
     32 ****        -2.1524   2.1922   1.6227 H              1 S1                 0.0000
     33 ****        -0.8686   0.2698   0.7530 H              1 S1                 0.0000
     34 ****        -0.4752   0.7851   3.4869 H              1 S1                 0.0000
     35 ****         1.4347   1.4765   0.5650 H              1 S1                 0.0000
     36 ****         1.5387   1.3415   2.3000 H              1 S1                 0.0000
     37 ****         3.7260   0.0037   1.2094 H              1 S1                 0.0000
     38 ****         3.3846  -1.6577   1.7068 H              1 S1                 0.0000
     39 ****         3.0754  -0.3335   2.8181 H              1 S1                 0.0000
     40 ****         0.6286  -0.6208  -0.6258 H              1 S1                 0.0000
     41 ****         2.3631  -0.6651  -0.7567 H              1 S1                 0.0000
     42 ****         3.4933  -2.8332  -0.7712 H              1 S1                 0.0000
     43 ****         3.3211  -5.3090  -0.7977 H              1 S1                 0.0000
     44 ****         1.1720  -6.4171  -0.2134 H              1 S1                 0.0000
     45 ****        -0.8111  -5.0435   0.3946 H              1 S1                 0.0000
     46 ****        -0.6481  -2.5657   0.4238 H              1 S1                 0.0000
     47 ****         1.0771  -1.0922   1.8211 H              1 S1                 0.0000
     48 ****        -3.0542   1.5685  -3.4128 LP             1 S1                 0.0000
     49 ****        -0.3614   4.6654  -3.6250 LP             1 S1                 0.0000
     50 ****         0.8610   5.3384  -1.2622 LP             1 S1                 0.0000
     51 ****        -0.3369  -0.6560   2.8286 LP             1 S1                 0.0000
     52 ****        -1.7662   0.1337   2.8247 LP             1 S1                 0.0000
@<TRIPOS>BOND
    1    1    2 1     
    2    1   25 1     
    3    1   26 1     
    4    1   27 1     
    5    2    3 1     
    6    2   28 1     
    7    3   24 ar    
    8    3    4 ar    
    9    4    5 ar    
   10    5    6 ar    
   11    5   29 1     
   12    6    7 ar    
   13    7   24 ar    
   14    7    8 1     
   15    8    9 2     
   16    9   10 1     
   17    9   30 1     
   18   10   11 1     
   19   10   24 1     
   20   11   12 1     
   21   11   31 1     
   22   11   32 1     
   23   12   13 1     
   24   12   14 1     
   25   12   33 1     
   26   13   34 1     
   27   14   15 1     
   28   14   35 1     
   29   14   36 1     
   30   15   16 1     
   31   15   17 1     
   32   15   47 1     
   33   16   37 1     
   34   16   38 1     
   35   16   39 1     
   36   17   18 1     
   37   17   40 1     
   38   17   41 1     
   39   18   23 ar    
   40   18   19 ar    
   41   19   20 ar    
   42   19   42 1     
   43   20   21 ar    
   44   20   43 1     
   45   21   22 ar    
   46   21   44 1     
   47   22   23 ar    
   48   22   45 1     
   49   23   46 1     
   50    4   48 1     
   51    6   49 1     
   52    8   50 1     
   53   13   51 1     
   54   13   52 1     
@<TRIPOS>SUBSTRUCTURE
      1 S1             1
@<TRIPOS>SET
LONE_PAIRS      STATIC     ATOMS    <user>   **** ""
5 48 49 50 51 52
DONOR_HYDROGENS      STATIC     ATOMS    <user>   **** ""
3 28 34 47
ATOM$BLUE        STATIC     ATOMS    COLORGROUP SYSTEM
5 48 49 50 51 52
ATOM$RED        STATIC     ATOMS    COLORGROUP SYSTEM
3 28 34 47
