AV-unprocessed.smi:1867|AV-procd|sdf|7579|dock8
  -GOLD-   22720 9293D 1   1.00000     0.00000
 Structure written by MMmdl.
 52 55  0  0  0  0  0  0  0  0  4 V2000
  145.5622  135.7189  154.4508 O   0  0  0  0  0  0  0  0  0  0  0  0
  145.2547  134.5388  154.2948 C   0  0  0  0  0  0  0  0  0  0  0  0
  143.9456  134.2106  154.1643 N   0  0  0  0  0  0  0  0  0  0  0  0
  142.8095  135.0609  154.0953 C   0  0  0  0  0  0  0  0  0  0  0  0
  142.7743  136.1837  154.9479 C   0  0  0  0  0  0  0  0  0  0  0  0
  141.6565  137.0429  154.9286 C   0  0  0  0  0  0  0  0  0  0  0  0
  140.5749  136.7661  154.0594 C   0  0  0  0  0  0  0  0  0  0  0  0
  139.4267  137.5777  153.9874 N   0  0  0  0  0  0  0  0  0  0  0  0
  139.2984  138.7786  154.7984 C   0  0  0  0  0  0  0  0  0  0  0  0
  137.8568  139.2370  154.5850 C   0  0  0  0  0  0  0  0  0  0  0  0
  137.1024  137.9229  154.3845 C   0  0  0  0  0  0  0  0  0  0  0  0
  138.1191  137.0105  153.6884 C   0  0  0  0  0  0  0  0  0  0  0  0
  140.6414  135.6634  153.2761 N   0  3  0  0  0  0  0  0  0  0  0  0
  141.6926  134.8155  153.2621 C   0  0  0  0  0  0  0  0  0  0  0  0
  146.2066  133.5578  154.2731 N   0  5  0  0  0  0  0  0  0  0  0  0
  147.5065  133.5344  153.5800 C   0  0  1  0  0  0  0  0  0  0  0  0
  148.4391  132.5137  154.2449 C   0  0  0  0  0  0  0  0  0  0  0  0
  148.1042  131.1578  153.5941 C   0  0  0  0  0  0  0  0  0  0  0  0
  147.3646  131.4416  152.3373 N   0  3  1  0  0  0  0  0  0  0  0  0
  146.0242  130.7878  152.3008 C   0  0  0  0  0  0  0  0  0  0  0  0
  145.1721  131.2687  151.1205 C   0  0  0  0  0  0  0  0  0  0  0  0
  144.9665  132.7822  151.2098 C   0  0  0  0  0  0  0  0  0  0  0  0
  146.3279  133.4891  151.1679 C   0  0  0  0  0  0  0  0  0  0  0  0
  147.3735  132.9223  152.1693 C   0  0  1  0  0  0  0  0  0  0  0  0
  143.7475  133.2208  154.1564 H   0  0  0  0  0  0  0  0  0  0  0  0
  143.6005  136.3907  155.6122 H   0  0  0  0  0  0  0  0  0  0  0  0
  141.6403  137.8989  155.5865 H   0  0  0  0  0  0  0  0  0  0  0  0
  139.4718  138.5321  155.8469 H   0  0  0  0  0  0  0  0  0  0  0  0
  140.0136  139.5456  154.4991 H   0  0  0  0  0  0  0  0  0  0  0  0
  137.4721  139.8292  155.4157 H   0  0  0  0  0  0  0  0  0  0  0  0
  137.7904  139.8414  153.6792 H   0  0  0  0  0  0  0  0  0  0  0  0
  136.8405  137.5031  155.3568 H   0  0  0  0  0  0  0  0  0  0  0  0
  136.1813  138.0431  153.8135 H   0  0  0  0  0  0  0  0  0  0  0  0
  137.9701  137.0205  152.6082 H   0  0  0  0  0  0  0  0  0  0  0  0
  138.0213  135.9825  154.0382 H   0  0  0  0  0  0  0  0  0  0  0  0
  141.5892  133.9719  152.5962 H   0  0  0  0  0  0  0  0  0  0  0  0
  147.9712  134.5203  153.5328 H   0  0  0  0  0  0  0  0  0  0  0  0
  149.4729  132.7743  154.0140 H   0  0  0  0  0  0  0  0  0  0  0  0
  148.3534  132.4899  155.3324 H   0  0  0  0  0  0  0  0  0  0  0  0
  149.0122  130.5959  153.3742 H   0  0  0  0  0  0  0  0  0  0  0  0
  147.5105  130.5457  154.2761 H   0  0  0  0  0  0  0  0  0  0  0  0
  146.1612  129.7075  152.2463 H   0  0  0  0  0  0  0  0  0  0  0  0
  145.4852  130.9862  153.2287 H   0  0  0  0  0  0  0  0  0  0  0  0
  145.6517  131.0064  150.1764 H   0  0  0  0  0  0  0  0  0  0  0  0
  144.2062  130.7631  151.1320 H   0  0  0  0  0  0  0  0  0  0  0  0
  144.3417  133.1269  150.3856 H   0  0  0  0  0  0  0  0  0  0  0  0
  144.4343  133.0344  152.1276 H   0  0  0  0  0  0  0  0  0  0  0  0
  146.7271  133.3595  150.1609 H   0  0  0  0  0  0  0  0  0  0  0  0
  146.1993  134.5667  151.2856 H   0  0  0  0  0  0  0  0  0  0  0  0
  148.3382  133.1266  151.7006 H   0  0  0  0  0  0  0  0  0  0  0  0
  147.8901  131.0588  151.5653 H   0  0  0  0  0  0  0  0  0  0  0  0
  139.8535  135.4585  152.6617 H   0  0  0  0  0  0  0  0  0  0  0  0
  1  2  2  0  0  0  0
  2  3  1  0  0  0  0
  2 15  1  0  0  0  0
  3  4  1  0  0  0  0
  3 25  1  0  0  0  0
  4 14  1  0  0  0  0
  4  5  2  0  0  0  0
  5  6  1  0  0  0  0
  5 26  1  0  0  0  0
  6  7  2  0  0  0  0
  6 27  1  0  0  0  0
  7  8  1  0  0  0  0
  7 13  1  0  0  0  0
  8 12  1  0  0  0  0
  8  9  1  0  0  0  0
  9 10  1  0  0  0  0
  9 28  1  0  0  0  0
  9 29  1  0  0  0  0
 10 11  1  0  0  0  0
 10 30  1  0  0  0  0
 10 31  1  0  0  0  0
 11 12  1  0  0  0  0
 11 32  1  0  0  0  0
 11 33  1  0  0  0  0
 12 34  1  0  0  0  0
 12 35  1  0  0  0  0
 13 14  2  0  0  0  0
 13 52  1  0  0  0  0
 14 36  1  0  0  0  0
 15 16  1  0  0  0  0
 16 24  1  0  0  0  0
 16 17  1  0  0  0  0
 16 37  1  0  0  0  0
 17 18  1  0  0  0  0
 17 38  1  0  0  0  0
 17 39  1  0  0  0  0
 18 19  1  0  0  0  0
 18 40  1  0  0  0  0
 18 41  1  0  0  0  0
 19 24  1  0  0  0  0
 19 20  1  0  0  0  0
 19 51  1  0  0  0  0
 20 21  1  0  0  0  0
 20 42  1  0  0  0  0
 20 43  1  0  0  0  0
 21 22  1  0  0  0  0
 21 44  1  0  0  0  0
 21 45  1  0  0  0  0
 22 23  1  0  0  0  0
 22 46  1  0  0  0  0
 22 47  1  0  0  0  0
 23 24  1  0  0  0  0
 23 48  1  0  0  0  0
 23 49  1  0  0  0  0
 24 50  1  0  0  0  0
M  CHG  1  13   1
M  CHG  1  15  -1
M  CHG  1  19   1
M  END
> <s_m_source_file>
AV-unprocessed.smi

> <i_m_source_file_index>
1867

> <i_lp_mmshare_version>
43012

> <i_f3d_flags>
0

> <s_epik_input>
W0NIMl0xW0NIMl1bQ0gyXVtDSDJdW0NASF0oTjEyKVtDQEBIXShbQ0gyXVtDSDJdMilbTkhdQyg9TylbTkhdYzNbY0hdW2NIXWMobltjSF0zKU40W0NIMl1bQ0gyXVtDSDJdW0NIMl00

> <s_epik_cmdline>
J2VwaWtfcHl0aG9uJywgJy1waCcsICc3LjAnLCAnLXRuJywgJzgnLCAnLW1hJywgJzIwMCcsICctbWV0YWxfYmluZGluZycsICctaW1hZScsICc8aW5maWxlLm1hZT4nLCAnLW9tYWUnLCAnPG91dGZpbGUubWFlPic=

> <r_lp_tautomer_probability>
0.999994

> <r_epik_Ionization_Penalty>
8.56137

> <r_epik_Ionization_Penalty_Charging>
8.56136

> <r_epik_Ionization_Penalty_Neutral>
3.91889e-06

> <r_epik_State_Penalty>
8.16255

> <r_epik_Charging_Adjusted_Penalty>
16.7239

> <i_epik_Tot_Q>
1

> <i_epik_Tot_abs_Q>
3

> <r_epik_Metal_State_Penalty>
4.14279

> <b_epik_Metal_Only>
1

> <s_lp_Force_Field>
OPLS_2005

> <r_lp_Energy>
73.5992

> <b_lp_Chiralities_Consistent>
1

> <s_lp_Variant>
AV-unprocessed.smi:1867-20

> <Gold.Version>
5.8.1

> <Gold.Id.Protein>
6NUR|6NUR_protein|mol2

> <Gold.PLP.Fitness>
47.8852

> <Gold.PLP.PLP>
-38.4836

> <Gold.PLP.part.hbond>
-3.0000

> <Gold.PLP.part.metal>
0.0000

> <Gold.PLP.part.buried>
-5.8263

> <Gold.PLP.part.nonpolar>
-30.7841

> <Gold.PLP.part.repulsive>
0.2339

> <Gold.PLP.ligand.clash>
0.0000

> <Gold.PLP.ligand.torsion>
1.2086

> <Gold.PLP.Chemscore.Hbond>
3.8480

> <Gold.PLP.Chemscore.CHOScore>
0.0000

> <Gold.PLP.Chemscore.Metal>
0.0000

> <Gold.Chemscore.Hbonds>
donor molecule, donor type, donor heavy atom, donor atom, acceptor molecule, acceptor atom, score
      L1  H     3    25       P1 10957  0.98
      L1  H    13    52       P1 10187  1.86
      L1  H    19    51       P1 10747  1.00

> <Gold.PLP.Chemscore.Internal.Correction>
0.2747

> <Gold.Rescore>
     Score         DG    S(hbond)    S(metal)    S(lipo)     H(rot)  DE(clash)    DE(int)     intcor
     19.29     -21.78       2.38        0.00      93.23       1.00       0.00       2.49       ----

> <Gold.Chemscore.Fitness>
19.2894

> <Gold.Chemscore.DG>
-21.7775

> <Gold.Chemscore.ZeroCoef>
-5.4800

> <Gold.Chemscore.Hbond>
2.3800

> <Gold.Chemscore.Metal>
0.0000

> <Gold.Chemscore.Lipo>
93.2319

> <Gold.Chemscore.Internal_Hbond>
0.0000

> <Gold.Chemscore.DEClash>
0.0000

> <Gold.Chemscore.DEInternal>
2.4880

> <Gold.Chemscore.Rot>
1.0000

> <Gold.Chemscore.Internal.Correction>
   9.000000E+99

> <Gold.Chemscore.Hbonds>
donor molecule, donor type, donor heavy atom, donor atom, acceptor molecule, acceptor atom, score
      L1  H     3    25       P1 10957  0.93
      L1  H    13    52       P1 10187  0.21
      L1  H    19    51       P1 10747  1.00

> <Gold.Chemscore.Hbond.Weighted>
-7.9493

> <Gold.Chemscore.Metal.Weighted>
-0.0000

> <Gold.Chemscore.Lipo.Weighted>
-10.9081

> <Gold.Chemscore.Internal_Hbond.Weighted>
0.0000

> <Gold.Chemscore.DEClash.Weighted>
0.0000

> <Gold.Chemscore.DEInternal.Weighted>
2.4880

> <Gold.Chemscore.Rot.Weighted>
2.5600

> <Gold.Chemscore.Internal.Correction.Weighted>
   9.000000E+99

> <Gold.Protein.RotatedTorsions>
[ 6907 6896 6895 6894 ] final -133.38 input  -60.11 | X-H torsion
[ 7974 7965 7964 7962 ] final -107.89 input  175.53 | X-H torsion
[ 8008 7997 7996 7995 ] final  -32.74 input   59.86 | X-H torsion
[ 10167 10162 10161 10158 ] final  -50.52 input  -65.29 | X-H torsion
[ 10718 10713 10712 10709 ] final   36.72 input   66.30 | X-H torsion
[ 10763 10752 10751 10750 ] final  135.12 input  -60.55 | X-H torsion
[ 11005 11000 10999 10996 ] final   91.23 input  -57.11 | X-H torsion

> <Gold.Protein.ActiveResidues>
 VAL166  LYS551  ARG553  GLY616  TRP617  ASP618  TYR619  PRO620  LYS621  CYS622 
 ASP623  PHE694  ASN695  SER759  ASP760  ASP761  ALA762  ILE779  LEU786  VAL792 
 PHE793  MET794  SER795  GLU796  ALA797  LYS798  CYS799  TRP800  GLU811  SER814 

> <Gold.Protein.RotatedAtoms>
  150.9734  133.6320  159.2734 H   0  0  0  0  0  0  0  0  0  0  0  0  # atno 6907 bound_to 6896
  151.3601  135.0901  159.9441 H   0  0  0  0  0  0  0  0  0  0  0  0  # atno 6908 bound_to 6896
  152.5191  133.9309  159.7635 H   0  0  0  0  0  0  0  0  0  0  0  0  # atno 6909 bound_to 6896
  145.1997  140.9051  143.3377 H   0  0  0  0  0  0  0  0  0  0  0  0  # atno 7974 bound_to 7965
  154.4170  140.1729  156.1775 H   0  0  0  0  0  0  0  0  0  0  0  0  # atno 8008 bound_to 7997
  155.9709  140.3386  155.6551 H   0  0  0  0  0  0  0  0  0  0  0  0  # atno 8009 bound_to 7997
  155.6626  140.0702  157.2539 H   0  0  0  0  0  0  0  0  0  0  0  0  # atno 8010 bound_to 7997
  140.6634  143.2654  151.4371 H   0  0  0  0  0  0  0  0  0  0  0  0  # atno 10167 bound_to 10162
  157.3383  130.7534  149.6894 H   0  0  0  0  0  0  0  0  0  0  0  0  # atno 10718 bound_to 10713
  153.8348  135.3099  155.3421 H   0  0  0  0  0  0  0  0  0  0  0  0  # atno 10763 bound_to 10752
  154.7958  135.4756  154.0160 H   0  0  0  0  0  0  0  0  0  0  0  0  # atno 10764 bound_to 10752
  153.1612  135.6861  153.8831 H   0  0  0  0  0  0  0  0  0  0  0  0  # atno 10765 bound_to 10752
  139.8842  134.8662  156.3399 H   0  0  0  0  0  0  0  0  0  0  0  0  # atno 11005 bound_to 11000
  144.9960  139.3643  143.6191 LP  0  0  0  0  0  0  0  0  0  0  0  0  # atno 17320 bound_to 7965
  146.3420  139.9163  142.8773 LP  0  0  0  0  0  0  0  0  0  0  0  0  # atno 17321 bound_to 7965
  139.5874  144.1574  152.2046 LP  0  0  0  0  0  0  0  0  0  0  0  0  # atno 17342 bound_to 10162
  140.0918  144.5614  150.7049 LP  0  0  0  0  0  0  0  0  0  0  0  0  # atno 17343 bound_to 10162
  155.9704  130.4175  150.4282 LP  0  0  0  0  0  0  0  0  0  0  0  0  # atno 17370 bound_to 10713
  157.2325  131.0507  151.2484 LP  0  0  0  0  0  0  0  0  0  0  0  0  # atno 17371 bound_to 10713
  140.9666  133.7354  156.0475 LP  0  0  0  0  0  0  0  0  0  0  0  0  # atno 17394 bound_to 11000
  140.7923  134.3603  157.5461 LP  0  0  0  0  0  0  0  0  0  0  0  0  # atno 17395 bound_to 11000

$$$$
