AV-unprocessed.smi:21|AV-procd|sdf|143|dock7
  -GOLD-   2262015353D 1   1.00000     0.00000
 Structure written by MMmdl.
 62 65  0  0  0  0  0  0  0  0  2 V2000
  144.4641  134.3973  152.9353 C   0  0  0  0  0  0  0  0  0  0  0  0
  145.0233  133.0932  152.9321 O   0  0  0  0  0  0  0  0  0  0  0  0
  145.9805  132.8821  151.9023 C   0  0  1  0  0  0  0  0  0  0  0  0
  147.2103  133.7256  152.2114 C   0  0  0  0  0  0  0  0  0  0  0  0
  148.0069  132.8611  153.1933 C   0  0  2  0  0  0  0  0  0  0  0  0
  149.5139  133.1907  153.2438 C   0  0  0  0  0  0  0  0  0  0  0  0
  150.0691  133.1057  154.5950 N   0  0  0  0  0  0  0  0  0  0  0  0
  150.4079  131.7915  155.1257 C   0  0  0  0  0  0  0  0  0  0  0  0
  149.8347  134.1317  155.4558 C   0  0  0  0  0  0  0  0  0  0  0  0
  149.1154  133.8655  156.5774 N   0  0  0  0  0  0  0  0  0  0  0  0
  148.8622  134.8285  157.4671 C   0  0  0  0  0  0  0  0  0  0  0  0
  149.2400  136.1063  157.4402 N   0  0  0  0  0  0  0  0  0  0  0  0
  149.9751  136.3839  156.3262 C   0  0  0  0  0  0  0  0  0  0  0  0
  150.3084  135.4678  155.2866 C   0  0  0  0  0  0  0  0  0  0  0  0
  151.0710  136.1181  154.3232 N   0  0  0  0  0  0  0  0  0  0  0  0
  151.1735  137.3420  154.7611 C   0  0  0  0  0  0  0  0  0  0  0  0
  150.5637  137.5863  155.9705 N   0  0  0  0  0  0  0  0  0  0  0  0
  150.5326  138.8503  156.6941 C   0  0  0  0  0  0  0  0  0  0  0  0
  150.6193  140.1121  155.7904 C   0  0  1  0  0  0  0  0  0  0  0  0
  149.4009  140.2397  154.8459 C   0  0  0  0  0  0  0  0  0  0  0  0
  149.7127  141.0463  153.7294 O   0  0  0  0  0  0  0  0  0  0  0  0
  150.8413  141.4124  156.6077 C   0  0  2  0  0  0  0  0  0  0  0  0
  151.9188  141.3274  157.6764 C   0  0  0  0  0  0  0  0  0  0  0  0
  151.5769  142.4998  158.5917 C   0  0  0  0  0  0  0  0  0  0  0  0
  150.1728  142.6975  158.4689 O   0  0  0  0  0  0  0  0  0  0  0  0
  149.6478  141.8261  157.4749 C   0  0  0  0  0  0  0  0  0  0  0  0
  147.7698  131.4696  152.7452 N   0  3  1  0  0  0  0  0  0  0  0  0
  147.7977  130.4691  153.8347 C   0  0  0  0  0  0  0  0  0  0  0  0
  146.5204  131.4443  151.9464 C   0  0  0  0  0  0  0  0  0  0  0  0
  145.5641  133.1447  150.9281 H   0  0  0  0  0  0  0  0  0  0  0  0
  147.5665  132.9808  154.1850 H   0  0  0  0  0  0  0  0  0  0  0  0
  143.7354  134.4775  153.7417 H   0  0  0  0  0  0  0  0  0  0  0  0
  143.9523  134.6231  151.9997 H   0  0  0  0  0  0  0  0  0  0  0  0
  145.2320  135.1535  153.1033 H   0  0  0  0  0  0  0  0  0  0  0  0
  147.7841  133.8793  151.2964 H   0  0  0  0  0  0  0  0  0  0  0  0
  146.9572  134.7070  152.6141 H   0  0  0  0  0  0  0  0  0  0  0  0
  150.0603  132.4810  152.6223 H   0  0  0  0  0  0  0  0  0  0  0  0
  149.7004  134.1674  152.7966 H   0  0  0  0  0  0  0  0  0  0  0  0
  151.1112  131.8736  155.9552 H   0  0  0  0  0  0  0  0  0  0  0  0
  150.8769  131.1796  154.3550 H   0  0  0  0  0  0  0  0  0  0  0  0
  149.5149  131.2709  155.4727 H   0  0  0  0  0  0  0  0  0  0  0  0
  148.2758  134.5323  158.3245 H   0  0  0  0  0  0  0  0  0  0  0  0
  151.7103  138.0999  154.2107 H   0  0  0  0  0  0  0  0  0  0  0  0
  149.6223  138.8751  157.2932 H   0  0  0  0  0  0  0  0  0  0  0  0
  151.3504  138.8488  157.4154 H   0  0  0  0  0  0  0  0  0  0  0  0
  151.4981  139.9831  155.1564 H   0  0  0  0  0  0  0  0  0  0  0  0
  149.0517  139.2633  154.5104 H   0  0  0  0  0  0  0  0  0  0  0  0
  148.5617  140.7160  155.3511 H   0  0  0  0  0  0  0  0  0  0  0  0
  149.3316  140.6551  152.9582 H   0  0  0  0  0  0  0  0  0  0  0  0
  151.0970  142.2348  155.9381 H   0  0  0  0  0  0  0  0  0  0  0  0
  151.8354  140.3888  158.2267 H   0  0  0  0  0  0  0  0  0  0  0  0
  152.9310  141.3998  157.2774 H   0  0  0  0  0  0  0  0  0  0  0  0
  151.8631  142.3125  159.6270 H   0  0  0  0  0  0  0  0  0  0  0  0
  152.0841  143.4059  158.2584 H   0  0  0  0  0  0  0  0  0  0  0  0
  148.8555  142.3155  156.9103 H   0  0  0  0  0  0  0  0  0  0  0  0
  149.2151  140.9579  157.9739 H   0  0  0  0  0  0  0  0  0  0  0  0
  146.9997  130.6521  154.5555 H   0  0  0  0  0  0  0  0  0  0  0  0
  148.7505  130.4983  154.3635 H   0  0  0  0  0  0  0  0  0  0  0  0
  147.6702  129.4642  153.4311 H   0  0  0  0  0  0  0  0  0  0  0  0
  145.7879  130.7362  152.3353 H   0  0  0  0  0  0  0  0  0  0  0  0
  146.7806  131.1141  150.9403 H   0  0  0  0  0  0  0  0  0  0  0  0
  148.5172  131.2402  152.1057 H   0  0  0  0  0  0  0  0  0  0  0  0
  1  2  1  0  0  0  0
  1 32  1  0  0  0  0
  1 33  1  0  0  0  0
  1 34  1  0  0  0  0
  2  3  1  0  0  0  0
  3 30  1  0  0  0  0
  3 29  1  0  0  0  0
  3  4  1  0  0  0  0
  4  5  1  0  0  0  0
  4 35  1  0  0  0  0
  4 36  1  0  0  0  0
  5 31  1  0  0  0  0
  5  6  1  0  0  0  0
  5 27  1  0  0  0  0
  6  7  1  0  0  0  0
  6 37  1  0  0  0  0
  6 38  1  0  0  0  0
  7  8  1  0  0  0  0
  7  9  1  0  0  0  0
  8 39  1  0  0  0  0
  8 40  1  0  0  0  0
  8 41  1  0  0  0  0
  9 14  1  0  0  0  0
  9 10  2  0  0  0  0
 10 11  1  0  0  0  0
 11 12  2  0  0  0  0
 11 42  1  0  0  0  0
 12 13  1  0  0  0  0
 13 17  1  0  0  0  0
 13 14  2  0  0  0  0
 14 15  1  0  0  0  0
 15 16  2  0  0  0  0
 16 17  1  0  0  0  0
 16 43  1  0  0  0  0
 17 18  1  0  0  0  0
 18 19  1  0  0  0  0
 18 44  1  0  0  0  0
 18 45  1  0  0  0  0
 19 20  1  0  0  0  0
 19 22  1  0  0  0  0
 19 46  1  0  0  0  0
 20 21  1  0  0  0  0
 20 47  1  0  0  0  0
 20 48  1  0  0  0  0
 21 49  1  0  0  0  0
 22 26  1  0  0  0  0
 22 23  1  0  0  0  0
 22 50  1  0  0  0  0
 23 24  1  0  0  0  0
 23 51  1  0  0  0  0
 23 52  1  0  0  0  0
 24 25  1  0  0  0  0
 24 53  1  0  0  0  0
 24 54  1  0  0  0  0
 25 26  1  0  0  0  0
 26 55  1  0  0  0  0
 26 56  1  0  0  0  0
 27 28  1  0  0  0  0
 27 29  1  0  0  0  0
 27 62  1  0  0  0  0
 28 57  1  0  0  0  0
 28 58  1  0  0  0  0
 28 59  1  0  0  0  0
 29 60  1  0  0  0  0
 29 61  1  0  0  0  0
M  CHG  1  27   1
M  END
> <s_m_source_file>
AV-unprocessed.smi

> <i_m_source_file_index>
21

> <i_lp_mmshare_version>
43012

> <i_f3d_flags>
0

> <s_epik_input>
W0NIM11PW0NASF0xW0NIMl1bQ0BIXShOKFtDSDNdKVtDSDJdMSlbQ0gyXU4oW0NIM10pYyhuW2NIXW4yKWMoYzIzKW5bY0hdbjNbQ0gyXVtDQEhdKFtDSDJdW09IXSlbQ0BASF00W0NIMl1bQ0gyXU9bQ0gyXTQ=

> <s_epik_cmdline>
J2VwaWtfcHl0aG9uJywgJy1waCcsICc3LjAnLCAnLXRuJywgJzgnLCAnLW1hJywgJzIwMCcsICctbWV0YWxfYmluZGluZycsICctaW1hZScsICc8aW5maWxlLm1hZT4nLCAnLW9tYWUnLCAnPG91dGZpbGUubWFlPic=

> <r_lp_tautomer_probability>
1

> <r_epik_Ionization_Penalty>
0.0157465

> <r_epik_Ionization_Penalty_Charging>
0.015354

> <r_epik_Ionization_Penalty_Neutral>
0.000392529

> <r_epik_State_Penalty>
0.0120612

> <r_epik_Charging_Adjusted_Penalty>
0.0274152

> <i_epik_Tot_Q>
1

> <i_epik_Tot_abs_Q>
1

> <r_epik_Metal_State_Penalty>
0.0121253

> <b_epik_Metal_Only>
0

> <s_lp_Force_Field>
OPLS_2005

> <r_lp_Energy>
58.9185

> <b_lp_Chiralities_Consistent>
1

> <s_lp_Variant>
AV-unprocessed.smi:21-23

> <Gold.Version>
5.8.1

> <Gold.Id.Protein>
6NUR|6NUR_protein|mol2

> <Gold.PLP.Fitness>
44.8761

> <Gold.PLP.PLP>
-39.3248

> <Gold.PLP.part.hbond>
-4.8424

> <Gold.PLP.part.metal>
0.0000

> <Gold.PLP.part.buried>
-3.7199

> <Gold.PLP.part.nonpolar>
-30.3325

> <Gold.PLP.part.repulsive>
1.7600

> <Gold.PLP.ligand.clash>
0.0000

> <Gold.PLP.ligand.torsion>
2.4025

> <Gold.PLP.Chemscore.Hbond>
3.2080

> <Gold.PLP.Chemscore.CHOScore>
0.0000

> <Gold.PLP.Chemscore.Metal>
0.0000

> <Gold.Chemscore.Hbonds>
donor molecule, donor type, donor heavy atom, donor atom, acceptor molecule, acceptor atom, score
      L1  H    21    49       P1  7957  0.93
      L1  H    27    62       P1 10747  0.93
      P1  H  7989  7998       L1    21  0.34
      P1  H 10752 10764       L1    15  0.90

> <Gold.PLP.Chemscore.Internal.Correction>
0.7323

> <Gold.Rescore>
     Score         DG    S(hbond)    S(metal)    S(lipo)     H(rot)  DE(clash)    DE(int)     intcor
     12.53     -15.45       2.21        0.00      89.35       3.08       0.36       2.56       ----

> <Gold.Chemscore.Fitness>
12.5268

> <Gold.Chemscore.DG>
-15.4473

> <Gold.Chemscore.ZeroCoef>
-5.4800

> <Gold.Chemscore.Hbond>
2.2120

> <Gold.Chemscore.Metal>
0.0000

> <Gold.Chemscore.Lipo>
89.3454

> <Gold.Chemscore.Internal_Hbond>
0.0000

> <Gold.Chemscore.DEClash>
0.3600

> <Gold.Chemscore.DEInternal>
2.5604

> <Gold.Chemscore.Rot>
3.0758

> <Gold.Chemscore.Internal.Correction>
   9.000000E+99

> <Gold.Chemscore.Hbonds>
donor molecule, donor type, donor heavy atom, donor atom, acceptor molecule, acceptor atom, score
      L1  H    21    49       P1  7957  0.91
      L1  H    27    62       P1 10747  0.89
      P1  H  7989  7998       L1    21  0.10
      P1  H 10752 10764       L1    15  0.12

> <Gold.Chemscore.Hbond.Weighted>
-7.3880

> <Gold.Chemscore.Metal.Weighted>
-0.0000

> <Gold.Chemscore.Lipo.Weighted>
-10.4534

> <Gold.Chemscore.Internal_Hbond.Weighted>
0.0000

> <Gold.Chemscore.DEClash.Weighted>
0.3600

> <Gold.Chemscore.DEInternal.Weighted>
2.5604

> <Gold.Chemscore.Rot.Weighted>
7.8741

> <Gold.Chemscore.Internal.Correction.Weighted>
   9.000000E+99

> <Gold.Protein.RotatedTorsions>
[ 6907 6896 6895 6894 ] final  112.93 input  -60.11 | X-H torsion
[ 7974 7965 7964 7962 ] final -122.34 input  175.53 | X-H torsion
[ 8008 7997 7996 7995 ] final  124.71 input   59.86 | X-H torsion
[ 10167 10162 10161 10158 ] final   86.62 input  -65.29 | X-H torsion
[ 10718 10713 10712 10709 ] final  149.44 input   66.30 | X-H torsion
[ 10763 10752 10751 10750 ] final  -60.83 input  -60.55 | X-H torsion
[ 11005 11000 10999 10996 ] final  -37.50 input  -57.11 | X-H torsion

> <Gold.Protein.ActiveResidues>
 VAL166  LYS551  ARG553  GLY616  TRP617  ASP618  TYR619  PRO620  LYS621  CYS622 
 ASP623  PHE694  ASN695  SER759  ASP760  ASP761  ALA762  ILE779  LEU786  VAL792 
 PHE793  MET794  SER795  GLU796  ALA797  LYS798  CYS799  TRP800  GLU811  SER814 

> <Gold.Protein.RotatedAtoms>
  152.4889  133.8447  159.7170 H   0  0  0  0  0  0  0  0  0  0  0  0  # atno 6907 bound_to 6896
  150.9001  133.7121  159.2888 H   0  0  0  0  0  0  0  0  0  0  0  0  # atno 6908 bound_to 6896
  151.4565  135.1038  159.9765 H   0  0  0  0  0  0  0  0  0  0  0  0  # atno 6909 bound_to 6896
  145.0305  140.8064  143.4326 H   0  0  0  0  0  0  0  0  0  0  0  0  # atno 7974 bound_to 7965
  156.2810  140.2733  156.1832 H   0  0  0  0  0  0  0  0  0  0  0  0  # atno 8008 bound_to 7997
  155.0535  140.0386  157.2570 H   0  0  0  0  0  0  0  0  0  0  0  0  # atno 8009 bound_to 7997
  154.7176  140.2681  155.6577 H   0  0  0  0  0  0  0  0  0  0  0  0  # atno 8010 bound_to 7997
  139.8857  144.6415  150.8794 H   0  0  0  0  0  0  0  0  0  0  0  0  # atno 10167 bound_to 10162
  157.2960  131.0862  151.1426 H   0  0  0  0  0  0  0  0  0  0  0  0  # atno 10718 bound_to 10713
  154.2753  135.6282  153.5326 H   0  0  0  0  0  0  0  0  0  0  0  0  # atno 10763 bound_to 10752
  152.9874  135.5620  154.5555 H   0  0  0  0  0  0  0  0  0  0  0  0  # atno 10764 bound_to 10752
  154.5134  135.2878  155.1299 H   0  0  0  0  0  0  0  0  0  0  0  0  # atno 10765 bound_to 10752
  140.9957  133.6981  156.1930 H   0  0  0  0  0  0  0  0  0  0  0  0  # atno 11005 bound_to 11000
  145.1776  139.2369  143.5309 LP  0  0  0  0  0  0  0  0  0  0  0  0  # atno 17320 bound_to 7965
  146.3498  140.1543  142.8592 LP  0  0  0  0  0  0  0  0  0  0  0  0  # atno 17321 bound_to 7965
  140.7736  143.3550  151.1939 LP  0  0  0  0  0  0  0  0  0  0  0  0  # atno 17342 bound_to 10162
  139.7156  143.9307  152.2965 LP  0  0  0  0  0  0  0  0  0  0  0  0  # atno 17343 bound_to 10162
  157.2803  130.6747  149.6063 LP  0  0  0  0  0  0  0  0  0  0  0  0  # atno 17370 bound_to 10713
  155.9669  130.4452  150.5490 LP  0  0  0  0  0  0  0  0  0  0  0  0  # atno 17371 bound_to 10713
  140.6970  134.4605  157.5587 LP  0  0  0  0  0  0  0  0  0  0  0  0  # atno 17394 bound_to 11000
  139.9013  134.8549  156.1883 LP  0  0  0  0  0  0  0  0  0  0  0  0  # atno 17395 bound_to 11000

$$$$
