AV-unprocessed.smi:2083|AV-procd|sdf|8505|dock7
  -GOLD-   2272011213D 1   1.00000     0.00000
 Structure written by MMmdl.
 44 45  0  0  0  0  0  0  0  0  3 V2000
  142.2715  144.8553  161.2733 C   0  0  0  0  0  0  0  0  0  0  0  0
  143.2390  143.7643  160.9645 C   0  0  0  0  0  0  0  0  0  0  0  0
  144.3143  143.6882  160.1255 C   0  0  0  0  0  0  0  0  0  0  0  0
  144.7826  142.3596  160.3170 C   0  0  0  0  0  0  0  0  0  0  0  0
  145.8437  141.8028  159.7130 N   0  5  0  0  0  0  0  0  0  0  0  0
  146.1888  142.1781  158.4608 C   0  0  0  0  0  0  0  0  0  0  0  0
  145.7325  143.1346  157.8303 O   0  0  0  0  0  0  0  0  0  0  0  0
  147.1291  141.4002  157.9056 N   0  0  0  0  0  0  0  0  0  0  0  0
  147.7119  141.5817  156.5794 C   0  0  0  0  0  0  0  0  0  0  0  0
  149.2660  141.6205  156.6044 C   0  0  1  0  0  0  0  0  0  0  0  0
  149.8316  141.4029  155.1833 C   0  0  0  0  0  0  0  0  0  0  0  0
  149.8476  142.8721  157.1917 N   0  3  2  0  0  0  0  0  0  0  0  0
  151.3308  142.9129  157.0488 C   0  0  0  0  0  0  0  0  0  0  0  0
  151.9016  144.2793  157.4544 C   0  0  0  0  0  0  0  0  0  0  0  0
  151.5135  144.6204  158.8958 C   0  0  0  0  0  0  0  0  0  0  0  0
  149.9872  144.5601  159.0543 C   0  0  2  0  0  0  0  0  0  0  0  0
  149.5627  144.8749  160.4959 C   0  0  0  0  0  0  0  0  0  0  0  0
  149.4436  143.1914  158.5929 C   0  0  0  0  0  0  0  0  0  0  0  0
  144.0653  141.6936  161.2064 N   0  0  0  0  0  0  0  0  0  0  0  0
  143.0696  142.5856  161.6222 O   0  0  0  0  0  0  0  0  0  0  0  0
  142.7701  145.6795  161.7834 H   0  0  0  0  0  0  0  0  0  0  0  0
  141.4663  144.4974  161.9154 H   0  0  0  0  0  0  0  0  0  0  0  0
  141.8248  145.2442  160.3583 H   0  0  0  0  0  0  0  0  0  0  0  0
  144.7030  144.4580  159.4761 H   0  0  0  0  0  0  0  0  0  0  0  0
  147.4706  140.6246  158.4545 H   0  0  0  0  0  0  0  0  0  0  0  0
  147.3649  140.7606  155.9512 H   0  0  0  0  0  0  0  0  0  0  0  0
  147.2942  142.4990  156.1619 H   0  0  0  0  0  0  0  0  0  0  0  0
  149.5933  140.7896  157.2312 H   0  0  0  0  0  0  0  0  0  0  0  0
  149.4964  140.4581  154.7555 H   0  0  0  0  0  0  0  0  0  0  0  0
  150.9198  141.3742  155.1661 H   0  0  0  0  0  0  0  0  0  0  0  0
  149.5138  142.1992  154.5097 H   0  0  0  0  0  0  0  0  0  0  0  0
  151.7752  142.1284  157.6639 H   0  0  0  0  0  0  0  0  0  0  0  0
  151.6284  142.7053  156.0223 H   0  0  0  0  0  0  0  0  0  0  0  0
  152.9874  144.2735  157.3542 H   0  0  0  0  0  0  0  0  0  0  0  0
  151.5311  145.0502  156.7772 H   0  0  0  0  0  0  0  0  0  0  0  0
  151.9896  143.9180  159.5816 H   0  0  0  0  0  0  0  0  0  0  0  0
  151.8842  145.6127  159.1560 H   0  0  0  0  0  0  0  0  0  0  0  0
  149.5524  145.3266  158.4108 H   0  0  0  0  0  0  0  0  0  0  0  0
  149.9627  144.1410  161.1964 H   0  0  0  0  0  0  0  0  0  0  0  0
  148.4769  144.8725  160.5956 H   0  0  0  0  0  0  0  0  0  0  0  0
  149.9185  145.8583  160.8044 H   0  0  0  0  0  0  0  0  0  0  0  0
  148.3582  143.2403  158.6732 H   0  0  0  0  0  0  0  0  0  0  0  0
  149.7850  142.3986  159.2608 H   0  0  0  0  0  0  0  0  0  0  0  0
  149.4811  143.6281  156.6316 H   0  0  0  0  0  0  0  0  0  0  0  0
  1  2  1  0  0  0  0
  1 21  1  0  0  0  0
  1 22  1  0  0  0  0
  1 23  1  0  0  0  0
  2 20  1  0  0  0  0
  2  3  2  0  0  0  0
  3  4  1  0  0  0  0
  3 24  1  0  0  0  0
  4  5  1  0  0  0  0
  4 19  2  0  0  0  0
  5  6  1  0  0  0  0
  6  7  2  0  0  0  0
  6  8  1  0  0  0  0
  8  9  1  0  0  0  0
  8 25  1  0  0  0  0
  9 10  1  0  0  0  0
  9 26  1  0  0  0  0
  9 27  1  0  0  0  0
 10 11  1  0  0  0  0
 10 12  1  0  0  0  0
 10 28  1  0  0  0  0
 11 29  1  0  0  0  0
 11 30  1  0  0  0  0
 11 31  1  0  0  0  0
 12 18  1  0  0  0  0
 12 13  1  0  0  0  0
 12 44  1  0  0  0  0
 13 14  1  0  0  0  0
 13 32  1  0  0  0  0
 13 33  1  0  0  0  0
 14 15  1  0  0  0  0
 14 34  1  0  0  0  0
 14 35  1  0  0  0  0
 15 16  1  0  0  0  0
 15 36  1  0  0  0  0
 15 37  1  0  0  0  0
 16 17  1  0  0  0  0
 16 18  1  0  0  0  0
 16 38  1  0  0  0  0
 17 39  1  0  0  0  0
 17 40  1  0  0  0  0
 17 41  1  0  0  0  0
 18 42  1  0  0  0  0
 18 43  1  0  0  0  0
 19 20  1  0  0  0  0
M  CHG  1   5  -1
M  CHG  1  12   1
M  END
> <s_m_source_file>
AV-unprocessed.smi

> <i_m_source_file_index>
2083

> <i_lp_mmshare_version>
43012

> <i_f3d_flags>
0

> <s_epik_input>
W0NIM11jMVtjSF1jKG5vMSlbTkhdQyg9TylbTkhdW0NIMl1bQ0BIXShbQ0gzXSlOMltDSDJdW0NIMl1bQ0gyXVtDQEBIXShbQ0gzXSlbQ0gyXTI=

> <s_epik_cmdline>
J2VwaWtfcHl0aG9uJywgJy1waCcsICc3LjAnLCAnLXRuJywgJzgnLCAnLW1hJywgJzIwMCcsICctbWV0YWxfYmluZGluZycsICctaW1hZScsICc8aW5maWxlLm1hZT4nLCAnLW9tYWUnLCAnPG91dGZpbGUubWFlPic=

> <r_epik_Ionization_Penalty>
6.22434

> <r_epik_Ionization_Penalty_Charging>
6.22425

> <r_epik_Ionization_Penalty_Neutral>
9.62407e-05

> <r_epik_State_Penalty>
6.22423

> <r_epik_Charging_Adjusted_Penalty>
12.4485

> <i_epik_Tot_Q>
0

> <i_epik_Tot_abs_Q>
2

> <r_epik_Metal_State_Penalty>
2.16764

> <b_epik_Metal_Only>
1

> <s_lp_Force_Field>
OPLS_2005

> <r_lp_Energy>
9.644

> <b_lp_Chiralities_Consistent>
1

> <s_lp_Variant>
AV-unprocessed.smi:2083-16

> <Gold.Version>
5.8.1

> <Gold.Id.Protein>
6NUR|6NUR_protein|mol2

> <Gold.PLP.Fitness>
42.8783

> <Gold.PLP.PLP>
-31.5074

> <Gold.PLP.part.hbond>
-4.5805

> <Gold.PLP.part.metal>
0.0000

> <Gold.PLP.part.buried>
-4.3675

> <Gold.PLP.part.nonpolar>
-21.9832

> <Gold.PLP.part.repulsive>
0.2599

> <Gold.PLP.ligand.clash>
0.0000

> <Gold.PLP.ligand.torsion>
0.3882

> <Gold.PLP.Chemscore.Hbond>
4.0000

> <Gold.PLP.Chemscore.CHOScore>
0.0000

> <Gold.PLP.Chemscore.Metal>
0.0000

> <Gold.Chemscore.Hbonds>
donor molecule, donor type, donor heavy atom, donor atom, acceptor molecule, acceptor atom, score
      L1  H    12    44       P1  8028  2.00
      P1  H  6934  6946       L1     5  2.00

> <Gold.PLP.Chemscore.Internal.Correction>
0.1474

> <Gold.Rescore>
     Score         DG    S(hbond)    S(metal)    S(lipo)     H(rot)  DE(clash)    DE(int)     intcor
     15.14     -18.10       1.93        0.00      86.05       1.52       0.04       2.92       ----

> <Gold.Chemscore.Fitness>
15.1352

> <Gold.Chemscore.DG>
-18.1010

> <Gold.Chemscore.ZeroCoef>
-5.4800

> <Gold.Chemscore.Hbond>
1.9288

> <Gold.Chemscore.Metal>
0.0000

> <Gold.Chemscore.Lipo>
86.0454

> <Gold.Chemscore.Internal_Hbond>
0.0000

> <Gold.Chemscore.DEClash>
0.0411

> <Gold.Chemscore.DEInternal>
2.9246

> <Gold.Chemscore.Rot>
1.5190

> <Gold.Chemscore.Internal.Correction>
   9.000000E+99

> <Gold.Chemscore.Hbonds>
donor molecule, donor type, donor heavy atom, donor atom, acceptor molecule, acceptor atom, score
      L1  H    12    44       P1  8028  0.97
      P1  H  6934  6946       L1     5  0.93

> <Gold.Chemscore.Hbond.Weighted>
-6.4423

> <Gold.Chemscore.Metal.Weighted>
-0.0000

> <Gold.Chemscore.Lipo.Weighted>
-10.0673

> <Gold.Chemscore.Internal_Hbond.Weighted>
0.0000

> <Gold.Chemscore.DEClash.Weighted>
0.0411

> <Gold.Chemscore.DEInternal.Weighted>
2.9246

> <Gold.Chemscore.Rot.Weighted>
3.8886

> <Gold.Chemscore.Internal.Correction.Weighted>
   9.000000E+99

> <Gold.Protein.RotatedTorsions>
[ 6907 6896 6895 6894 ] final  -86.23 input  -60.11 | X-H torsion
[ 7974 7965 7964 7962 ] final   37.78 input  175.53 | X-H torsion
[ 8008 7997 7996 7995 ] final -103.22 input   59.86 | X-H torsion
[ 10167 10162 10161 10158 ] final  162.53 input  -65.29 | X-H torsion
[ 10718 10713 10712 10709 ] final   71.12 input   66.30 | X-H torsion
[ 10763 10752 10751 10750 ] final   16.99 input  -60.55 | X-H torsion
[ 11005 11000 10999 10996 ] final -151.60 input  -57.11 | X-H torsion

> <Gold.Protein.ActiveResidues>
 VAL166  LYS551  ARG553  GLY616  TRP617  ASP618  TYR619  PRO620  LYS621  CYS622 
 ASP623  PHE694  ASN695  SER759  ASP760  ASP761  ALA762  ILE779  LEU786  VAL792 
 PHE793  MET794  SER795  GLU796  ALA797  LYS798  CYS799  TRP800  GLU811  SER814 

> <Gold.Protein.RotatedAtoms>
  150.6867  134.3083  159.4735 H   0  0  0  0  0  0  0  0  0  0  0  0  # atno 6907 bound_to 6896
  152.0971  134.9364  160.0579 H   0  0  0  0  0  0  0  0  0  0  0  0  # atno 6908 bound_to 6896
  152.0658  133.4048  159.4474 H   0  0  0  0  0  0  0  0  0  0  0  0  # atno 6909 bound_to 6896
  146.1112  139.5852  142.9351 H   0  0  0  0  0  0  0  0  0  0  0  0  # atno 7974 bound_to 7965
  154.8678  140.0424  157.1705 H   0  0  0  0  0  0  0  0  0  0  0  0  # atno 8008 bound_to 7997
  154.8771  140.2967  155.5426 H   0  0  0  0  0  0  0  0  0  0  0  0  # atno 8009 bound_to 7997
  156.2999  140.2418  156.3769 H   0  0  0  0  0  0  0  0  0  0  0  0  # atno 8010 bound_to 7997
  139.4862  144.4428  151.8929 H   0  0  0  0  0  0  0  0  0  0  0  0  # atno 10167 bound_to 10162
  157.6435  130.9512  150.0745 H   0  0  0  0  0  0  0  0  0  0  0  0  # atno 10718 bound_to 10713
  153.1380  135.6754  153.9072 H   0  0  0  0  0  0  0  0  0  0  0  0  # atno 10763 bound_to 10752
  153.8538  135.3090  155.3435 H   0  0  0  0  0  0  0  0  0  0  0  0  # atno 10764 bound_to 10752
  154.7764  135.4912  153.9835 H   0  0  0  0  0  0  0  0  0  0  0  0  # atno 10765 bound_to 10752
  140.7278  134.3655  157.5172 H   0  0  0  0  0  0  0  0  0  0  0  0  # atno 11005 bound_to 11000
  145.5660  141.0399  143.2200 LP  0  0  0  0  0  0  0  0  0  0  0  0  # atno 17320 bound_to 7965
  144.7513  139.7187  143.7272 LP  0  0  0  0  0  0  0  0  0  0  0  0  # atno 17321 bound_to 7965
  140.3881  144.2650  150.5902 LP  0  0  0  0  0  0  0  0  0  0  0  0  # atno 17342 bound_to 10162
  140.5171  143.2275  151.8446 LP  0  0  0  0  0  0  0  0  0  0  0  0  # atno 17343 bound_to 10162
  156.1739  130.3647  149.9126 LP  0  0  0  0  0  0  0  0  0  0  0  0  # atno 17370 bound_to 10713
  156.7095  130.8964  151.3608 LP  0  0  0  0  0  0  0  0  0  0  0  0  # atno 17371 bound_to 10713
  139.8833  134.8998  156.2774 LP  0  0  0  0  0  0  0  0  0  0  0  0  # atno 17394 bound_to 11000
  140.9947  133.7187  156.0868 LP  0  0  0  0  0  0  0  0  0  0  0  0  # atno 17395 bound_to 11000

$$$$
