#       Name:                AV-unprocessed.smi:193
#       Creating user name   scv26
#       Creation time:       Thu Mar 26 19:32:34 2020


#       File generated by GOLD software.
#

@<TRIPOS>MOLECULE
AV-unprocessed.smi:193
    70    74     1
SMALL
NO_CHARGES


@<TRIPOS>ATOM
      1 ****        -3.4697  -3.5223   1.1881 C.3            1 S1                 0.0000
      2 ****        -3.0456  -2.3525   0.2863 C.3            1 S1                 0.0000
      3 ****        -1.5232  -2.1364   0.4211 C.3            1 S1                 0.0000
      4 ****        -0.9645  -1.2199  -0.5677 N.3            1 S1                 0.0000
      5 ****         0.3852  -1.2371  -0.5651 C.ar           1 S1                 0.0000
      6 ****         1.0016  -1.9716  -1.5228 N.ar           1 S1                 0.0000
      7 ****         2.3368  -2.0262  -1.5633 C.ar           1 S1                 0.0000
      8 ****         3.2221  -1.4376  -0.7555 N.ar           1 S1                 0.0000
      9 ****         2.6013  -0.7044   0.2129 C.ar           1 S1                 0.0000
     10 ****         1.1968  -0.5504   0.3804 C.ar           1 S1                 0.0000
     11 ****         0.9339   0.2626   1.4761 N.2            1 S1                 0.0000
     12 ****         2.1180   0.5732   1.9303 C.2            1 S1                 0.0000
     13 ****         3.1757   0.0394   1.2285 N.pl3          1 S1                 0.0000
     14 ****         4.5914   0.2182   1.5142 C.3            1 S1                 0.0000
     15 ****         5.1849   1.5334   0.9517 C.3            1 S1                 0.0000
     16 ****         4.5650   2.6105   1.6337 O.3            1 S1                 0.0000
     17 ****         6.7019   1.5972   1.2198 C.3            1 S1                 0.0000
     18 ****         7.3630   2.8052   0.5321 C.3            1 S1                 0.0000
     19 ****         7.0836   2.7852  -0.8624 O.3            1 S1                 0.0000
     20 ****         5.6949   2.9027  -1.1471 C.3            1 S1                 0.0000
     21 ****         4.9303   1.7019  -0.5622 C.3            1 S1                 0.0000
     22 ****        -1.5359   0.1178  -0.6894 C.3            1 S1                 0.0000
     23 ****        -2.9065   0.0748  -1.3814 C.3            1 S1                 0.0000
     24 ****        -4.0514  -0.1182  -0.4541 N.4            1 S1                 1.0000
     25 ****        -5.3060  -0.3946  -1.1911 C.3            1 S1                 0.0000
     26 ****        -5.9567   0.8410  -1.7692 C.3            1 S1                 0.0000
     27 ****        -6.5414   0.1846  -0.5371 C.3            1 S1                 0.0000
     28 ****        -7.8683  -0.5379  -0.6169 C.3            1 S1                 0.0000
     29 ****        -3.8366  -1.0777   0.6640 C.3            1 S1                 0.0000
     30 ****        -3.2702  -3.3071   2.2384 H              1 S1                 0.0000
     31 ****        -2.9329  -4.4352   0.9281 H              1 S1                 0.0000
     32 ****        -4.5349  -3.7329   1.0871 H              1 S1                 0.0000
     33 ****        -3.2829  -2.6472  -0.7368 H              1 S1                 0.0000
     34 ****        -1.2829  -1.7781   1.4234 H              1 S1                 0.0000
     35 ****        -1.0202  -3.0991   0.3121 H              1 S1                 0.0000
     36 ****         2.7562  -2.6278  -2.3564 H              1 S1                 0.0000
     37 ****         2.2551   1.2075   2.7942 H              1 S1                 0.0000
     38 ****         4.7303   0.1692   2.5951 H              1 S1                 0.0000
     39 ****         5.1283  -0.6375   1.1026 H              1 S1                 0.0000
     40 ****         4.9294   3.4200   1.3094 H              1 S1                 0.0000
     41 ****         6.9015   1.6214   2.2920 H              1 S1                 0.0000
     42 ****         7.1731   0.6881   0.8434 H              1 S1                 0.0000
     43 ****         7.0220   3.7444   0.9703 H              1 S1                 0.0000
     44 ****         8.4434   2.7671   0.6720 H              1 S1                 0.0000
     45 ****         5.3096   3.8441  -0.7526 H              1 S1                 0.0000
     46 ****         5.5610   2.9374  -2.2284 H              1 S1                 0.0000
     47 ****         5.2529   0.7992  -1.0825 H              1 S1                 0.0000
     48 ****         3.8650   1.8104  -0.7698 H              1 S1                 0.0000
     49 ****        -1.5961   0.6102   0.2820 H              1 S1                 0.0000
     50 ****        -0.8663   0.7255  -1.3008 H              1 S1                 0.0000
     51 ****        -3.0675   1.0239  -1.8933 H              1 S1                 0.0000
     52 ****        -2.9091  -0.6891  -2.1612 H              1 S1                 0.0000
     53 ****        -5.3520  -1.3418  -1.7262 H              1 S1                 0.0000
     54 ****        -5.4609   1.8006  -1.6348 H              1 S1                 0.0000
     55 ****        -6.4988   0.7281  -2.7060 H              1 S1                 0.0000
     56 ****        -6.3945   0.7190   0.4000 H              1 S1                 0.0000
     57 ****        -7.9686  -1.0611  -1.5684 H              1 S1                 0.0000
     58 ****        -8.6883   0.1746  -0.5241 H              1 S1                 0.0000
     59 ****        -7.9467  -1.2661   0.1903 H              1 S1                 0.0000
     60 ****        -4.8111  -1.3451   1.0754 H              1 S1                 0.0000
     61 ****        -3.3270  -0.5567   1.4752 H              1 S1                 0.0000
     62 ****        -4.1951   0.7744  -0.0040 H              1 S1                 0.0000
     63 ****        -1.2895  -1.6169  -1.4261 LP             1 S1                 0.0000
     64 ****         0.4589  -2.4717  -2.1977 LP             1 S1                 0.0000
     65 ****         4.2140  -1.5234  -0.8486 LP             1 S1                 0.0000
     66 ****         0.0437   0.5446   1.8340 LP             1 S1                 0.0000
     67 ****         4.7377   2.5322   2.6156 LP             1 S1                 0.0000
     68 ****         3.5792   2.5932   1.4662 LP             1 S1                 0.0000
     69 ****         7.4159   1.9221  -1.2427 LP             1 S1                 0.0000
     70 ****         7.5643   3.5475  -1.2957 LP             1 S1                 0.0000
@<TRIPOS>BOND
    1    1    2 1     
    2    1   30 1     
    3    1   31 1     
    4    1   32 1     
    5    2   29 1     
    6    2    3 1     
    7    2   33 1     
    8    3    4 1     
    9    3   34 1     
   10    3   35 1     
   11    4    5 1     
   12    4   22 1     
   13    5   10 ar    
   14    5    6 ar    
   15    6    7 ar    
   16    7    8 ar    
   17    7   36 1     
   18    8    9 ar    
   19    9   13 1     
   20    9   10 ar    
   21   10   11 1     
   22   11   12 2     
   23   12   13 1     
   24   12   37 1     
   25   13   14 1     
   26   14   15 1     
   27   14   38 1     
   28   14   39 1     
   29   15   21 1     
   30   15   16 1     
   31   15   17 1     
   32   16   40 1     
   33   17   18 1     
   34   17   41 1     
   35   17   42 1     
   36   18   19 1     
   37   18   43 1     
   38   18   44 1     
   39   19   20 1     
   40   20   21 1     
   41   20   45 1     
   42   20   46 1     
   43   21   47 1     
   44   21   48 1     
   45   22   23 1     
   46   22   49 1     
   47   22   50 1     
   48   23   24 1     
   49   23   51 1     
   50   23   52 1     
   51   24   25 1     
   52   24   29 1     
   53   24   62 1     
   54   25   27 1     
   55   25   26 1     
   56   25   53 1     
   57   26   27 1     
   58   26   54 1     
   59   26   55 1     
   60   27   28 1     
   61   27   56 1     
   62   28   57 1     
   63   28   58 1     
   64   28   59 1     
   65   29   60 1     
   66   29   61 1     
   67    4   63 1     
   68    6   64 1     
   69    8   65 1     
   70   11   66 1     
   71   16   67 1     
   72   16   68 1     
   73   19   69 1     
   74   19   70 1     
@<TRIPOS>SUBSTRUCTURE
      1 S1             1
@<TRIPOS>SET
LONE_PAIRS      STATIC     ATOMS    <user>   **** ""
8 63 64 65 66 67 68 69 70
DONOR_HYDROGENS      STATIC     ATOMS    <user>   **** ""
2 40 62
ATOM$BLUE        STATIC     ATOMS    COLORGROUP SYSTEM
8 63 64 65 66 67 68 69 70
ATOM$RED        STATIC     ATOMS    COLORGROUP SYSTEM
2 40 62
