#       Name:                AV-unprocessed.smi:2424
#       Creating user name   scv26
#       Creation time:       Fri Mar 27 13:20:32 2020


#       File generated by GOLD software.
#

@<TRIPOS>MOLECULE
AV-unprocessed.smi:2424
    56    57     1
SMALL
NO_CHARGES


@<TRIPOS>ATOM
      1 ****        -1.4608  -3.6240   1.6437 C.3            1 S1                 0.0000
      2 ****        -0.7843  -2.4963   0.8464 C.3            1 S1                 0.0000
      3 ****        -1.7219  -1.3408   0.4059 C.3            1 S1                 0.0000
      4 ****        -2.2981  -0.6545   1.6659 C.3            1 S1                 0.0000
      5 ****        -1.2636   0.0428   2.5636 C.3            1 S1                 0.0000
      6 ****        -1.1640  -0.3621  -0.6620 C.3            1 S1                 0.0000
      7 ****         0.2941  -0.2964  -0.7195 N.am           1 S1                 0.0000
      8 ****         1.0270   0.8068  -0.5195 C.2            1 S1                 0.0000
      9 ****         0.5373   1.9078  -0.2704 O.2            1 S1                 0.0000
     10 ****         2.3389   0.5322  -0.6266 N.am           1 S1                 0.0000
     11 ****         3.4301   1.3989  -0.4827 C.2            1 S1                 0.0000
     12 ****         4.7181   0.9277  -0.6370 C.2            1 S1                 0.0000
     13 ****         5.8847   1.6010  -0.5376 N.pl3          1 S1                -1.0000
     14 ****         5.8355   2.9325  -0.2463 C.2            1 S1                 0.0000
     15 ****         6.8570   3.6106  -0.1412 O.2            1 S1                 0.0000
     16 ****         4.5178   3.5707  -0.0532 C.2            1 S1                 0.0000
     17 ****         4.4655   5.0535   0.2735 C.3            1 S1                 0.0000
     18 ****         3.3890   2.8274  -0.1696 C.2            1 S1                 0.0000
     19 ****        -1.7506  -1.2475  -1.7646 C.3            1 S1                 0.0000
     20 ****        -2.2558  -0.6167  -3.0564 C.3            1 S1                 0.0000
     21 ****        -2.7459  -1.7368  -0.7003 C.3            1 S1                 0.0000
     22 ****        -3.9247  -0.9396  -0.7194 O.3            1 S1                 0.0000
     23 ****        -5.0306  -1.5699  -0.0955 C.3            1 S1                 0.0000
     24 ****        -0.7652  -4.4482   1.8012 H              1 S1                 0.0000
     25 ****        -2.3289  -4.0248   1.1209 H              1 S1                 0.0000
     26 ****        -1.7841  -3.2884   2.6284 H              1 S1                 0.0000
     27 ****         0.0600  -2.1154   1.4204 H              1 S1                 0.0000
     28 ****        -0.3282  -2.9577  -0.0293 H              1 S1                 0.0000
     29 ****        -3.0154   0.1106   1.3684 H              1 S1                 0.0000
     30 ****        -2.8772  -1.3559   2.2647 H              1 S1                 0.0000
     31 ****        -1.7612   0.5711   3.3770 H              1 S1                 0.0000
     32 ****        -0.6830   0.7775   2.0066 H              1 S1                 0.0000
     33 ****        -0.5708  -0.6643   3.0181 H              1 S1                 0.0000
     34 ****        -1.6627   0.6098  -0.6300 H              1 S1                 0.0000
     35 ****         0.7808  -1.1577  -0.9195 H              1 S1                 0.0000
     36 ****         2.5836  -0.4242  -0.8376 H              1 S1                 0.0000
     37 ****         4.8280  -0.1521  -0.8767 H              1 S1                 0.0000
     38 ****         3.4380   5.3995   0.3881 H              1 S1                 0.0000
     39 ****         4.9300   5.6359  -0.5227 H              1 S1                 0.0000
     40 ****         4.9952   5.2574   1.2046 H              1 S1                 0.0000
     41 ****         2.4466   3.3285  -0.0213 H              1 S1                 0.0000
     42 ****        -1.0626  -2.0628  -1.9961 H              1 S1                 0.0000
     43 ****        -2.8872   0.2502  -2.8606 H              1 S1                 0.0000
     44 ****        -2.8416  -1.3274  -3.6390 H              1 S1                 0.0000
     45 ****        -1.4261  -0.2815  -3.6789 H              1 S1                 0.0000
     46 ****        -2.9460  -2.8056  -0.7922 H              1 S1                 0.0000
     47 ****        -5.8867  -0.8957  -0.1032 H              1 S1                 0.0000
     48 ****        -4.8154  -1.8293   0.9409 H              1 S1                 0.0000
     49 ****        -5.3137  -2.4780  -0.6290 H              1 S1                 0.0000
     50 ****        -0.4555   2.0111  -0.2087 LP             1 S1                 0.0000
     51 ****         1.1320   2.6993  -0.1297 LP             1 S1                 0.0000
     52 ****         6.7597   1.1365  -0.6737 LP             1 S1                 0.0000
     53 ****         7.7537   3.1872  -0.2703 LP             1 S1                 0.0000
     54 ****         6.7904   4.5851   0.0732 LP             1 S1                 0.0000
     55 ****        -4.1633  -0.7465  -1.6711 LP             1 S1                 0.0000
     56 ****        -3.7365  -0.0811  -0.2423 LP             1 S1                 0.0000
@<TRIPOS>BOND
    1    1    2 1     
    2    1   24 1     
    3    1   25 1     
    4    1   26 1     
    5    2    3 1     
    6    2   27 1     
    7    2   28 1     
    8    3   21 1     
    9    3    4 1     
   10    3    6 1     
   11    4    5 1     
   12    4   29 1     
   13    4   30 1     
   14    5   31 1     
   15    5   32 1     
   16    5   33 1     
   17    6    7 1     
   18    6   19 1     
   19    6   34 1     
   20    7    8 am    
   21    7   35 1     
   22    8    9 2     
   23    8   10 am    
   24   10   11 1     
   25   10   36 1     
   26   11   18 1     
   27   11   12 2     
   28   12   13 1     
   29   12   37 1     
   30   13   14 1     
   31   14   15 2     
   32   14   16 1     
   33   16   17 1     
   34   16   18 2     
   35   17   38 1     
   36   17   39 1     
   37   17   40 1     
   38   18   41 1     
   39   19   20 1     
   40   19   21 1     
   41   19   42 1     
   42   20   43 1     
   43   20   44 1     
   44   20   45 1     
   45   21   22 1     
   46   21   46 1     
   47   22   23 1     
   48   23   47 1     
   49   23   48 1     
   50   23   49 1     
   51    9   50 1     
   52    9   51 1     
   53   13   52 1     
   54   15   53 1     
   55   15   54 1     
   56   22   55 1     
   57   22   56 1     
@<TRIPOS>SUBSTRUCTURE
      1 S1             1
@<TRIPOS>SET
LONE_PAIRS      STATIC     ATOMS    <user>   **** ""
7 50 51 52 53 54 55 56
DONOR_HYDROGENS      STATIC     ATOMS    <user>   **** ""
2 35 36
ATOM$BLUE        STATIC     ATOMS    COLORGROUP SYSTEM
7 50 51 52 53 54 55 56
ATOM$RED        STATIC     ATOMS    COLORGROUP SYSTEM
2 35 36
