AV-unprocessed.smi:1648|AV-procd|sdf|6632|dock10
  -GOLD-   22720 7333D 1   1.00000     0.00000
 Structure written by MMmdl.
 41 41  0  0  0  0  0  0  0  0  1 V2000
  154.7847  140.1029  161.4888 C   0  0  0  0  0  0  0  0  0  0  0  0
  154.1598  140.6652  160.2106 C   0  0  0  0  0  0  0  0  0  0  0  0
  154.1334  139.9716  159.1966 O   0  0  0  0  0  0  0  0  0  0  0  0
  153.6474  141.9084  160.2181 N   0  0  0  0  0  0  0  0  0  0  0  0
  153.0108  142.6220  159.1061 C   0  0  1  0  0  0  0  0  0  0  0  0
  151.7608  141.8376  158.6584 C   0  0  0  0  0  0  0  0  0  0  0  0
  151.1907  141.0713  159.4363 O   0  0  0  0  0  0  0  0  0  0  0  0
  151.3510  142.0454  157.3967 N   0  0  0  0  0  0  0  0  0  0  0  0
  150.2383  141.3689  156.7322 C   0  0  2  0  0  0  0  0  0  0  0  0
  150.4800  139.8547  156.7972 C   0  0  0  0  0  0  0  0  0  0  0  0
  150.0783  141.8449  155.2715 C   0  0  0  0  0  0  0  0  0  0  0  0
  148.9004  141.3028  154.6174 N   0  0  0  0  0  0  0  0  0  0  0  0
  148.6427  139.9704  154.3207 C   0  0  0  0  0  0  0  0  0  0  0  0
  147.4172  139.9357  153.6950 C   0  0  0  0  0  0  0  0  0  0  0  0
  146.9156  141.2294  153.5753 N   0  0  0  0  0  0  0  0  0  0  0  0
  147.8522  141.9841  154.1345 C   0  0  0  0  0  0  0  0  0  0  0  0
  152.6015  144.0452  159.5900 C   0  0  0  0  0  0  0  0  0  0  0  0
  151.7913  144.0217  160.9022 C   0  0  0  0  0  0  0  0  0  0  0  0
  151.7956  144.8142  158.5235 C   0  0  0  0  0  0  0  0  0  0  0  0
  155.6313  140.7110  161.8078 H   0  0  0  0  0  0  0  0  0  0  0  0
  155.1479  139.0883  161.3223 H   0  0  0  0  0  0  0  0  0  0  0  0
  154.0529  140.0673  162.2958 H   0  0  0  0  0  0  0  0  0  0  0  0
  153.6910  142.4111  161.0927 H   0  0  0  0  0  0  0  0  0  0  0  0
  153.7123  142.7159  158.2754 H   0  0  0  0  0  0  0  0  0  0  0  0
  151.8760  142.7027  156.8381 H   0  0  0  0  0  0  0  0  0  0  0  0
  149.3129  141.5656  157.2771 H   0  0  0  0  0  0  0  0  0  0  0  0
  149.6523  139.3053  156.3477 H   0  0  0  0  0  0  0  0  0  0  0  0
  150.5757  139.5155  157.8293 H   0  0  0  0  0  0  0  0  0  0  0  0
  151.3915  139.5746  156.2677 H   0  0  0  0  0  0  0  0  0  0  0  0
  150.0428  142.9344  155.2253 H   0  0  0  0  0  0  0  0  0  0  0  0
  150.9439  141.5375  154.6835 H   0  0  0  0  0  0  0  0  0  0  0  0
  149.3286  139.1780  154.5808 H   0  0  0  0  0  0  0  0  0  0  0  0
  146.8663  139.0868  153.3177 H   0  0  0  0  0  0  0  0  0  0  0  0
  147.7715  143.0596  154.1951 H   0  0  0  0  0  0  0  0  0  0  0  0
  153.5095  144.6211  159.7794 H   0  0  0  0  0  0  0  0  0  0  0  0
  150.8780  143.4362  160.7920 H   0  0  0  0  0  0  0  0  0  0  0  0
  151.5035  145.0292  161.2036 H   0  0  0  0  0  0  0  0  0  0  0  0
  152.3585  143.5977  161.7284 H   0  0  0  0  0  0  0  0  0  0  0  0
  150.8890  144.2740  158.2489 H   0  0  0  0  0  0  0  0  0  0  0  0
  152.3724  144.9813  157.6139 H   0  0  0  0  0  0  0  0  0  0  0  0
  151.4964  145.7965  158.8905 H   0  0  0  0  0  0  0  0  0  0  0  0
  1  2  1  0  0  0  0
  1 20  1  0  0  0  0
  1 21  1  0  0  0  0
  1 22  1  0  0  0  0
  2  3  2  0  0  0  0
  2  4  1  0  0  0  0
  4  5  1  0  0  0  0
  4 23  1  0  0  0  0
  5  6  1  0  0  0  0
  5 17  1  0  0  0  0
  5 24  1  0  0  0  0
  6  7  2  0  0  0  0
  6  8  1  0  0  0  0
  8  9  1  0  0  0  0
  8 25  1  0  0  0  0
  9 10  1  0  0  0  0
  9 11  1  0  0  0  0
  9 26  1  0  0  0  0
 10 27  1  0  0  0  0
 10 28  1  0  0  0  0
 10 29  1  0  0  0  0
 11 12  1  0  0  0  0
 11 30  1  0  0  0  0
 11 31  1  0  0  0  0
 12 16  1  0  0  0  0
 12 13  1  0  0  0  0
 13 14  2  0  0  0  0
 13 32  1  0  0  0  0
 14 15  1  0  0  0  0
 14 33  1  0  0  0  0
 15 16  2  0  0  0  0
 16 34  1  0  0  0  0
 17 18  1  0  0  0  0
 17 19  1  0  0  0  0
 17 35  1  0  0  0  0
 18 36  1  0  0  0  0
 18 37  1  0  0  0  0
 18 38  1  0  0  0  0
 19 39  1  0  0  0  0
 19 40  1  0  0  0  0
 19 41  1  0  0  0  0
M  END
> <s_m_source_file>
AV-unprocessed.smi

> <i_m_source_file_index>
1648

> <i_lp_mmshare_version>
43012

> <i_f3d_flags>
0

> <s_epik_input>
W0NIM11DKD1PKVtOSF1bQ0BASF0oW0NIXShbQ0gzXSlbQ0gzXSlDKD1PKVtOSF1bQ0BIXShbQ0gzXSlbQ0gyXW4xW2NIXVtjSF1uW2NIXTE=

> <s_epik_cmdline>
J2VwaWtfcHl0aG9uJywgJy1waCcsICc3LjAnLCAnLXRuJywgJzgnLCAnLW1hJywgJzIwMCcsICctbWV0YWxfYmluZGluZycsICctaW1hZScsICc8aW5maWxlLm1hZT4nLCAnLW9tYWUnLCAnPG91dGZpbGUubWFlPic=

> <r_lp_tautomer_probability>
1

> <r_epik_Ionization_Penalty>
0.628885

> <r_epik_Ionization_Penalty_Charging>
0.628884

> <r_epik_Ionization_Penalty_Neutral>
4.35155e-07

> <r_epik_State_Penalty>
0.64556

> <r_epik_Charging_Adjusted_Penalty>
1.27444

> <i_epik_Tot_Q>
0

> <i_epik_Tot_abs_Q>
0

> <r_epik_Metal_State_Penalty>
0.30874

> <b_epik_Metal_Only>
0

> <s_lp_Force_Field>
OPLS_2005

> <r_lp_Energy>
9.77282

> <b_lp_Chiralities_Consistent>
1

> <s_lp_Variant>
AV-unprocessed.smi:1648-6

> <Gold.Version>
5.8.1

> <Gold.Id.Protein>
6NUR|6NUR_protein|mol2

> <Gold.PLP.Fitness>
43.5812

> <Gold.PLP.PLP>
-39.0915

> <Gold.PLP.part.hbond>
-1.5564

> <Gold.PLP.part.metal>
0.0000

> <Gold.PLP.part.buried>
-4.6255

> <Gold.PLP.part.nonpolar>
-33.4192

> <Gold.PLP.part.repulsive>
0.2703

> <Gold.PLP.ligand.clash>
0.0000

> <Gold.PLP.ligand.torsion>
0.7738

> <Gold.PLP.Chemscore.Hbond>
1.0000

> <Gold.PLP.Chemscore.CHOScore>
1.0000

> <Gold.PLP.Chemscore.Metal>
0.0000

> <Gold.Chemscore.Hbonds>
donor molecule, donor type, donor heavy atom, donor atom, acceptor molecule, acceptor atom, score
      P1  H  7997  8010       L1     3  0.88
      L1  C    16    34       P1  8028  1.00

> <Gold.PLP.Chemscore.Internal.Correction>
0.0373

> <Gold.Rescore>
     Score         DG    S(hbond)    S(metal)    S(lipo)     H(rot)  DE(clash)    DE(int)     intcor
     11.67     -12.60       0.94        0.00      89.19       2.52       0.09       0.84       ----

> <Gold.Chemscore.Fitness>
11.6693

> <Gold.Chemscore.DG>
-12.6042

> <Gold.Chemscore.ZeroCoef>
-5.4800

> <Gold.Chemscore.Hbond>
0.9413

> <Gold.Chemscore.Metal>
0.0000

> <Gold.Chemscore.Lipo>
89.1923

> <Gold.Chemscore.Internal_Hbond>
0.0000

> <Gold.Chemscore.DEClash>
0.0935

> <Gold.Chemscore.DEInternal>
0.8413

> <Gold.Chemscore.Rot>
2.5216

> <Gold.Chemscore.Internal.Correction>
   9.000000E+99

> <Gold.Chemscore.Hbonds>
donor molecule, donor type, donor heavy atom, donor atom, acceptor molecule, acceptor atom, score
      P1  H  7997  8010       L1     3  0.83

> <Gold.Chemscore.Hbond.Weighted>
-3.1440

> <Gold.Chemscore.Metal.Weighted>
-0.0000

> <Gold.Chemscore.Lipo.Weighted>
-10.4355

> <Gold.Chemscore.Internal_Hbond.Weighted>
0.0000

> <Gold.Chemscore.DEClash.Weighted>
0.0935

> <Gold.Chemscore.DEInternal.Weighted>
0.8413

> <Gold.Chemscore.Rot.Weighted>
6.4553

> <Gold.Chemscore.Internal.Correction.Weighted>
   9.000000E+99

> <Gold.Protein.RotatedTorsions>
[ 6907 6896 6895 6894 ] final  175.43 input  -60.11 | X-H torsion
[ 7974 7965 7964 7962 ] final  -19.83 input  175.53 | X-H torsion
[ 8008 7997 7996 7995 ] final   11.17 input   59.86 | X-H torsion
[ 10167 10162 10161 10158 ] final  132.54 input  -65.29 | X-H torsion
[ 10718 10713 10712 10709 ] final  168.57 input   66.30 | X-H torsion
[ 10763 10752 10751 10750 ] final  -96.05 input  -60.55 | X-H torsion
[ 11005 11000 10999 10996 ] final -143.60 input  -57.11 | X-H torsion

> <Gold.Protein.ActiveResidues>
 VAL166  LYS551  ARG553  GLY616  TRP617  ASP618  TYR619  PRO620  LYS621  CYS622 
 ASP623  PHE694  ASN695  SER759  ASP760  ASP761  ALA762  ILE779  LEU786  VAL792 
 PHE793  MET794  SER795  GLU796  ALA797  LYS798  CYS799  TRP800  GLU811  SER814 

> <Gold.Protein.RotatedAtoms>
  151.7363  133.3320  159.3353 H   0  0  0  0  0  0  0  0  0  0  0  0  # atno 6907 bound_to 6896
  150.7591  134.6318  159.6200 H   0  0  0  0  0  0  0  0  0  0  0  0  # atno 6908 bound_to 6896
  152.3559  134.6943  160.0274 H   0  0  0  0  0  0  0  0  0  0  0  0  # atno 6909 bound_to 6896
  146.1820  140.4117  142.8491 H   0  0  0  0  0  0  0  0  0  0  0  0  # atno 7974 bound_to 7965
  154.8033  140.2855  155.5906 H   0  0  0  0  0  0  0  0  0  0  0  0  # atno 8008 bound_to 7997
  156.2980  140.2582  156.2835 H   0  0  0  0  0  0  0  0  0  0  0  0  # atno 8009 bound_to 7997
  154.9533  140.0379  157.2144 H   0  0  0  0  0  0  0  0  0  0  0  0  # atno 8010 bound_to 7997
  139.5335  144.6657  151.4867 H   0  0  0  0  0  0  0  0  0  0  0  0  # atno 10167 bound_to 10162
  157.0352  131.0271  151.2731 H   0  0  0  0  0  0  0  0  0  0  0  0  # atno 10718 bound_to 10713
  154.7204  135.5098  153.8804 H   0  0  0  0  0  0  0  0  0  0  0  0  # atno 10763 bound_to 10752
  153.0858  135.6645  153.9962 H   0  0  0  0  0  0  0  0  0  0  0  0  # atno 10764 bound_to 10752
  153.9785  135.3031  155.3401 H   0  0  0  0  0  0  0  0  0  0  0  0  # atno 10765 bound_to 10752
  140.8109  134.2745  157.4941 H   0  0  0  0  0  0  0  0  0  0  0  0  # atno 11005 bound_to 11000
  144.8332  140.6740  143.6277 LP  0  0  0  0  0  0  0  0  0  0  0  0  # atno 17320 bound_to 7965
  145.4047  139.1591  143.4158 LP  0  0  0  0  0  0  0  0  0  0  0  0  # atno 17321 bound_to 7965
  140.6528  143.8662  150.6803 LP  0  0  0  0  0  0  0  0  0  0  0  0  # atno 17342 bound_to 10162
  140.2032  143.3943  152.1776 LP  0  0  0  0  0  0  0  0  0  0  0  0  # atno 17343 bound_to 10162
  157.5147  130.7960  149.7743 LP  0  0  0  0  0  0  0  0  0  0  0  0  # atno 17370 bound_to 10713
  156.0056  130.3857  150.2443 LP  0  0  0  0  0  0  0  0  0  0  0  0  # atno 17371 bound_to 10713
  139.8714  134.9482  156.3991 LP  0  0  0  0  0  0  0  0  0  0  0  0  # atno 17394 bound_to 11000
  140.9199  133.7652  155.9893 LP  0  0  0  0  0  0  0  0  0  0  0  0  # atno 17395 bound_to 11000

$$$$
