AV-unprocessed.smi:53|AV-procd|sdf|526|dock8
  -GOLD-   2262016403D 1   1.00000     0.00000
 Structure written by MMmdl.
 30 31  0  0  0  0  0  0  0  0  1 V2000
  152.3582  143.4113  159.6751 N   0  0  0  0  0  0  0  0  0  0  0  0
  151.9873  142.3706  158.9157 C   0  0  0  0  0  0  0  0  0  0  0  0
  150.7169  142.3864  158.2265 C   0  0  0  0  0  0  0  0  0  0  0  0
  150.4120  141.3014  157.4809 C   0  0  0  0  0  0  0  0  0  0  0  0
  151.2693  140.2134  157.3725 N   0  0  0  0  0  0  0  0  0  0  0  0
  150.9256  138.9887  156.5420 C   0  0  1  0  0  0  0  0  0  0  0  0
  149.6122  139.0877  156.0727 O   0  0  0  0  0  0  0  0  0  0  0  0
  149.6095  139.3569  154.6741 C   0  0  2  0  0  0  0  0  0  0  0  0
  148.2728  138.9502  154.0305 C   0  0  0  0  0  0  0  0  0  0  0  0
  148.3999  138.9251  152.6247 O   0  0  0  0  0  0  0  0  0  0  0  0
  150.8440  138.5946  154.1785 C   0  0  2  0  0  0  0  0  0  0  0  0
  150.5640  137.2153  154.0169 O   0  0  0  0  0  0  0  0  0  0  0  0
  151.8442  138.8083  155.3069 C   0  0  1  0  0  0  0  0  0  0  0  0
  152.6475  139.9404  155.0183 O   0  0  0  0  0  0  0  0  0  0  0  0
  152.5075  140.2298  158.0585 C   0  0  0  0  0  0  0  0  0  0  0  0
  153.3014  139.2929  157.9794 O   0  0  0  0  0  0  0  0  0  0  0  0
  152.7994  141.3369  158.8094 N   0  0  0  0  0  0  0  0  0  0  0  0
  150.9590  138.1437  157.2327 H   0  0  0  0  0  0  0  0  0  0  0  0
  149.7901  140.4216  154.5147 H   0  0  0  0  0  0  0  0  0  0  0  0
  151.2017  138.9783  153.2218 H   0  0  0  0  0  0  0  0  0  0  0  0
  152.4999  137.9491  155.4546 H   0  0  0  0  0  0  0  0  0  0  0  0
  153.2463  143.3972  160.1551 H   0  0  0  0  0  0  0  0  0  0  0  0
  151.7467  144.2100  159.7643 H   0  0  0  0  0  0  0  0  0  0  0  0
  150.0199  143.2102  158.2843 H   0  0  0  0  0  0  0  0  0  0  0  0
  149.4637  141.3092  156.9659 H   0  0  0  0  0  0  0  0  0  0  0  0
  147.9934  137.9458  154.3497 H   0  0  0  0  0  0  0  0  0  0  0  0
  147.4669  139.6234  154.3245 H   0  0  0  0  0  0  0  0  0  0  0  0
  148.8587  138.1366  152.3778 H   0  0  0  0  0  0  0  0  0  0  0  0
  149.9113  137.1179  153.3407 H   0  0  0  0  0  0  0  0  0  0  0  0
  153.5171  139.6382  154.8028 H   0  0  0  0  0  0  0  0  0  0  0  0
  1  2  1  0  0  0  0
  1 22  1  0  0  0  0
  1 23  1  0  0  0  0
  2 17  2  0  0  0  0
  2  3  1  0  0  0  0
  3  4  2  0  0  0  0
  3 24  1  0  0  0  0
  4  5  1  0  0  0  0
  4 25  1  0  0  0  0
  5  6  1  0  0  0  0
  5 15  1  0  0  0  0
  6 18  1  0  0  0  0
  6 13  1  0  0  0  0
  6  7  1  0  0  0  0
  7  8  1  0  0  0  0
  8 19  1  0  0  0  0
  8  9  1  0  0  0  0
  8 11  1  0  0  0  0
  9 10  1  0  0  0  0
  9 26  1  0  0  0  0
  9 27  1  0  0  0  0
 10 28  1  0  0  0  0
 11 20  1  0  0  0  0
 11 12  1  0  0  0  0
 11 13  1  0  0  0  0
 12 29  1  0  0  0  0
 13 21  1  0  0  0  0
 13 14  1  0  0  0  0
 14 30  1  0  0  0  0
 15 16  2  0  0  0  0
 15 17  1  0  0  0  0
M  END
> <s_m_source_file>
AV-unprocessed.smi

> <i_m_source_file_index>
53

> <i_lp_mmshare_version>
43012

> <i_f3d_flags>
0

> <s_epik_input>
W05IMl1jMVtjSF1bY0hdbihjKD1PKW4xKVtDQEBIXTJPW0NASF0oW0NIMl1bT0hdKVtDQEBIXShbT0hdKVtDQEBIXTJbT0hd

> <s_epik_cmdline>
J2VwaWtfcHl0aG9uJywgJy1waCcsICc3LjAnLCAnLXRuJywgJzgnLCAnLW1hJywgJzIwMCcsICctbWV0YWxfYmluZGluZycsICctaW1hZScsICc8aW5maWxlLm1hZT4nLCAnLW9tYWUnLCAnPG91dGZpbGUubWFlPic=

> <r_lp_tautomer_probability>
0.99996

> <r_epik_Ionization_Penalty>
0.00069087

> <r_epik_Ionization_Penalty_Charging>
2.61959e-08

> <r_epik_Ionization_Penalty_Neutral>
0.000690844

> <r_epik_State_Penalty>
1.15523e-05

> <r_epik_Charging_Adjusted_Penalty>
1.15785e-05

> <i_epik_Tot_Q>
0

> <i_epik_Tot_abs_Q>
0

> <r_epik_Metal_State_Penalty>
-0

> <b_epik_Metal_Only>
0

> <s_epik_Chemistry_Notes>
This compound contains an acetal/aminal-like group ( X-CH(R)-Y where X, Y are N, S, or O) that may be acid/base labile, releasing an aldehyde.

> <s_lp_Force_Field>
OPLS_2005

> <r_lp_Energy>
36.7572

> <b_lp_Chiralities_Consistent>
1

> <s_lp_Variant>
AV-unprocessed.smi:53-14

> <Gold.Version>
5.8.1

> <Gold.Id.Protein>
6NUR|6NUR_protein|mol2

> <Gold.PLP.Fitness>
37.5933

> <Gold.PLP.PLP>
-27.1793

> <Gold.PLP.part.hbond>
-6.2102

> <Gold.PLP.part.metal>
0.0000

> <Gold.PLP.part.buried>
-3.7289

> <Gold.PLP.part.nonpolar>
-16.0598

> <Gold.PLP.part.repulsive>
0.0340

> <Gold.PLP.ligand.clash>
0.0000

> <Gold.PLP.ligand.torsion>
0.1635

> <Gold.PLP.Chemscore.Hbond>
3.5600

> <Gold.PLP.Chemscore.CHOScore>
0.0000

> <Gold.PLP.Chemscore.Metal>
0.0000

> <Gold.Chemscore.Hbonds>
donor molecule, donor type, donor heavy atom, donor atom, acceptor molecule, acceptor atom, score
      L1  H    10    28       P1  7948  1.00
      L1  H    12    29       P1  7948  1.00
      P1  H  7989  7998       L1    14  0.51
      P1  H  7997  8010       L1    16  1.00

> <Gold.PLP.Chemscore.Internal.Correction>
0.0610

> <Gold.Rescore>
     Score         DG    S(hbond)    S(metal)    S(lipo)     H(rot)  DE(clash)    DE(int)     intcor
     10.59     -10.95       3.09        0.00      39.67       3.71       0.09       0.27       ----

> <Gold.Chemscore.Fitness>
10.5899

> <Gold.Chemscore.DG>
-10.9498

> <Gold.Chemscore.ZeroCoef>
-5.4800

> <Gold.Chemscore.Hbond>
3.0912

> <Gold.Chemscore.Metal>
0.0000

> <Gold.Chemscore.Lipo>
39.6722

> <Gold.Chemscore.Internal_Hbond>
0.0000

> <Gold.Chemscore.DEClash>
0.0939

> <Gold.Chemscore.DEInternal>
0.2660

> <Gold.Chemscore.Rot>
3.7095

> <Gold.Chemscore.Internal.Correction>
   9.000000E+99

> <Gold.Chemscore.Hbonds>
donor molecule, donor type, donor heavy atom, donor atom, acceptor molecule, acceptor atom, score
      L1  H    10    28       P1  7948  0.97
      L1  H    12    29       P1  7948  0.34
      P1  H  7989  7998       L1    14  0.22
      P1  H  7997  8010       L1    16  0.30

> <Gold.Chemscore.Hbond.Weighted>
-10.3245

> <Gold.Chemscore.Metal.Weighted>
-0.0000

> <Gold.Chemscore.Lipo.Weighted>
-4.6417

> <Gold.Chemscore.Internal_Hbond.Weighted>
0.0000

> <Gold.Chemscore.DEClash.Weighted>
0.0939

> <Gold.Chemscore.DEInternal.Weighted>
0.2660

> <Gold.Chemscore.Rot.Weighted>
9.4964

> <Gold.Chemscore.Internal.Correction.Weighted>
   9.000000E+99

> <Gold.Protein.RotatedTorsions>
[ 6907 6896 6895 6894 ] final  -22.55 input  -60.11 | X-H torsion
[ 7974 7965 7964 7962 ] final  -41.63 input  175.53 | X-H torsion
[ 8008 7997 7996 7995 ] final   34.83 input   59.86 | X-H torsion
[ 10167 10162 10161 10158 ] final  -43.62 input  -65.29 | X-H torsion
[ 10718 10713 10712 10709 ] final  -88.14 input   66.30 | X-H torsion
[ 10763 10752 10751 10750 ] final  -79.97 input  -60.55 | X-H torsion
[ 11005 11000 10999 10996 ] final   77.51 input  -57.11 | X-H torsion

> <Gold.Protein.ActiveResidues>
 VAL166  LYS551  ARG553  GLY616  TRP617  ASP618  TYR619  PRO620  LYS621  CYS622 
 ASP623  PHE694  ASN695  SER759  ASP760  ASP761  ALA762  ILE779  LEU786  VAL792 
 PHE793  MET794  SER795  GLU796  ALA797  LYS798  CYS799  TRP800  GLU811  SER814 

> <Gold.Protein.RotatedAtoms>
  151.2169  135.0503  159.8933 H   0  0  0  0  0  0  0  0  0  0  0  0  # atno 6907 bound_to 6896
  152.5419  134.0683  159.8193 H   0  0  0  0  0  0  0  0  0  0  0  0  # atno 6908 bound_to 6896
  151.0844  133.5317  159.2650 H   0  0  0  0  0  0  0  0  0  0  0  0  # atno 6909 bound_to 6896
  146.0193  140.6869  142.9186 H   0  0  0  0  0  0  0  0  0  0  0  0  # atno 7974 bound_to 7965
  155.1613  140.3283  155.4411 H   0  0  0  0  0  0  0  0  0  0  0  0  # atno 8008 bound_to 7997
  156.2542  140.1960  156.6671 H   0  0  0  0  0  0  0  0  0  0  0  0  # atno 8009 bound_to 7997
  154.6403  140.0571  156.9824 H   0  0  0  0  0  0  0  0  0  0  0  0  # atno 8010 bound_to 7997
  140.6927  143.2973  151.3379 H   0  0  0  0  0  0  0  0  0  0  0  0  # atno 10167 bound_to 10162
  155.9984  130.4825  150.4973 H   0  0  0  0  0  0  0  0  0  0  0  0  # atno 10718 bound_to 10713
  154.5453  135.5677  153.6875 H   0  0  0  0  0  0  0  0  0  0  0  0  # atno 10763 bound_to 10752
  152.9974  135.6238  154.2446 H   0  0  0  0  0  0  0  0  0  0  0  0  # atno 10764 bound_to 10752
  154.2379  135.2863  155.2845 H   0  0  0  0  0  0  0  0  0  0  0  0  # atno 10765 bound_to 10752
  139.9251  134.7689  156.1531 H   0  0  0  0  0  0  0  0  0  0  0  0  # atno 11005 bound_to 11000
  144.6983  140.3537  143.7177 LP  0  0  0  0  0  0  0  0  0  0  0  0  # atno 17320 bound_to 7965
  145.7219  139.1712  143.2480 LP  0  0  0  0  0  0  0  0  0  0  0  0  # atno 17321 bound_to 7965
  139.6347  144.0654  152.2505 LP  0  0  0  0  0  0  0  0  0  0  0  0  # atno 17342 bound_to 10162
  140.0140  144.6203  150.7623 LP  0  0  0  0  0  0  0  0  0  0  0  0  # atno 17343 bound_to 10162
  157.2962  131.0636  151.2100 LP  0  0  0  0  0  0  0  0  0  0  0  0  # atno 17370 bound_to 10713
  157.3095  130.6883  149.6208 LP  0  0  0  0  0  0  0  0  0  0  0  0  # atno 17371 bound_to 10713
  141.0803  133.6757  156.2322 LP  0  0  0  0  0  0  0  0  0  0  0  0  # atno 17394 bound_to 11000
  140.6359  134.5216  157.5564 LP  0  0  0  0  0  0  0  0  0  0  0  0  # atno 17395 bound_to 11000

$$$$
