AV-unprocessed.smi:19|AV-procd|sdf|111|dock6
  -GOLD-   2262015273D 1   1.00000     0.00000
 Structure written by MMmdl.
 57 60  0  0  0  0  0  0  0  0  1 V2000
  152.8102  142.6191  160.5332 C   0  0  0  0  0  0  0  0  0  0  0  0
  152.0308  142.3133  159.3903 O   0  0  0  0  0  0  0  0  0  0  0  0
  152.2896  141.0127  158.8880 C   0  0  0  0  0  0  0  0  0  0  0  0
  151.9767  140.9817  157.3864 C   0  0  2  0  0  0  0  0  0  0  0  0
  150.4683  141.1332  157.1132 C   0  0  0  0  0  0  0  0  0  0  0  0
  150.1973  140.9929  155.6845 N   0  0  0  0  0  0  0  0  0  0  0  0
  148.9671  141.3421  155.2293 C   0  0  0  0  0  0  0  0  0  0  0  0
  148.7297  141.4074  153.8914 N   0  0  0  0  0  0  0  0  0  0  0  0
  147.5238  141.7581  153.4352 C   0  0  0  0  0  0  0  0  0  0  0  0
  146.4302  142.0779  154.1292 N   0  0  0  0  0  0  0  0  0  0  0  0
  146.6582  142.0104  155.4718 C   0  0  0  0  0  0  0  0  0  0  0  0
  147.8837  141.6497  156.1005 C   0  0  0  0  0  0  0  0  0  0  0  0
  147.7276  141.6676  157.4814 N   0  0  0  0  0  0  0  0  0  0  0  0
  146.4860  142.0263  157.6579 C   0  0  0  0  0  0  0  0  0  0  0  0
  145.7739  142.2708  156.5051 N   0  0  0  0  0  0  0  0  0  0  0  0
  144.3790  142.6792  156.4117 C   0  0  0  0  0  0  0  0  0  0  0  0
  144.1516  144.1183  155.8600 C   0  0  0  0  0  0  0  0  0  0  0  0
  144.8800  145.1708  156.7446 C   0  0  0  0  0  0  0  0  0  0  0  0
  144.4807  145.1039  158.0985 O   0  0  0  0  0  0  0  0  0  0  0  0
  144.6580  144.1631  154.3960 C   0  0  0  0  0  0  0  0  0  0  0  0
  144.2298  145.4393  153.6506 C   0  0  0  0  0  0  0  0  0  0  0  0
  142.8136  145.5588  153.6767 O   0  0  0  0  0  0  0  0  0  0  0  0
  142.2976  145.6896  154.9943 C   0  0  0  0  0  0  0  0  0  0  0  0
  142.6346  144.4364  155.8241 C   0  0  0  0  0  0  0  0  0  0  0  0
  150.7331  139.7584  155.1211 C   0  0  0  0  0  0  0  0  0  0  0  0
  152.2307  139.6294  155.4534 C   0  0  2  0  0  0  0  0  0  0  0  0
  152.8107  138.2905  154.9858 C   0  0  0  0  0  0  0  0  0  0  0  0
  152.4038  139.7251  156.8649 O   0  0  0  0  0  0  0  0  0  0  0  0
  152.5807  143.6285  160.8743 H   0  0  0  0  0  0  0  0  0  0  0  0
  153.8764  142.5742  160.3077 H   0  0  0  0  0  0  0  0  0  0  0  0
  152.5960  141.9308  161.3518 H   0  0  0  0  0  0  0  0  0  0  0  0
  153.3260  140.7230  159.0701 H   0  0  0  0  0  0  0  0  0  0  0  0
  151.6524  140.2978  159.4111 H   0  0  0  0  0  0  0  0  0  0  0  0
  152.5176  141.7917  156.8934 H   0  0  0  0  0  0  0  0  0  0  0  0
  149.9104  140.3747  157.6645 H   0  0  0  0  0  0  0  0  0  0  0  0
  150.1275  142.1087  157.4633 H   0  0  0  0  0  0  0  0  0  0  0  0
  147.4211  141.7886  152.3604 H   0  0  0  0  0  0  0  0  0  0  0  0
  146.0539  142.1278  158.6429 H   0  0  0  0  0  0  0  0  0  0  0  0
  143.8515  141.9493  155.7963 H   0  0  0  0  0  0  0  0  0  0  0  0
  143.9439  142.5873  157.4079 H   0  0  0  0  0  0  0  0  0  0  0  0
  145.9602  145.0386  156.7183 H   0  0  0  0  0  0  0  0  0  0  0  0
  144.6945  146.1816  156.3812 H   0  0  0  0  0  0  0  0  0  0  0  0
  144.5564  144.2072  158.3891 H   0  0  0  0  0  0  0  0  0  0  0  0
  145.7426  144.0583  154.3568 H   0  0  0  0  0  0  0  0  0  0  0  0
  144.2593  143.3078  153.8486 H   0  0  0  0  0  0  0  0  0  0  0  0
  144.6950  146.3296  154.0748 H   0  0  0  0  0  0  0  0  0  0  0  0
  144.5528  145.3851  152.6111 H   0  0  0  0  0  0  0  0  0  0  0  0
  142.6816  146.5972  155.4607 H   0  0  0  0  0  0  0  0  0  0  0  0
  141.2160  145.8101  154.9314 H   0  0  0  0  0  0  0  0  0  0  0  0
  142.0972  143.5912  155.3918 H   0  0  0  0  0  0  0  0  0  0  0  0
  142.2434  144.5614  156.8341 H   0  0  0  0  0  0  0  0  0  0  0  0
  150.1814  138.9145  155.5378 H   0  0  0  0  0  0  0  0  0  0  0  0
  150.5976  139.7206  154.0409 H   0  0  0  0  0  0  0  0  0  0  0  0
  152.7845  140.4357  154.9691 H   0  0  0  0  0  0  0  0  0  0  0  0
  152.7016  138.1705  153.9077 H   0  0  0  0  0  0  0  0  0  0  0  0
  152.3080  137.4523  155.4690 H   0  0  0  0  0  0  0  0  0  0  0  0
  153.8731  138.2227  155.2215 H   0  0  0  0  0  0  0  0  0  0  0  0
  1  2  1  0  0  0  0
  1 29  1  0  0  0  0
  1 30  1  0  0  0  0
  1 31  1  0  0  0  0
  2  3  1  0  0  0  0
  3  4  1  0  0  0  0
  3 32  1  0  0  0  0
  3 33  1  0  0  0  0
  4 28  1  0  0  0  0
  4  5  1  0  0  0  0
  4 34  1  0  0  0  0
  5  6  1  0  0  0  0
  5 35  1  0  0  0  0
  5 36  1  0  0  0  0
  6  7  1  0  0  0  0
  6 25  1  0  0  0  0
  7 12  1  0  0  0  0
  7  8  2  0  0  0  0
  8  9  1  0  0  0  0
  9 10  2  0  0  0  0
  9 37  1  0  0  0  0
 10 11  1  0  0  0  0
 11 15  1  0  0  0  0
 11 12  2  0  0  0  0
 12 13  1  0  0  0  0
 13 14  2  0  0  0  0
 14 15  1  0  0  0  0
 14 38  1  0  0  0  0
 15 16  1  0  0  0  0
 16 17  1  0  0  0  0
 16 39  1  0  0  0  0
 16 40  1  0  0  0  0
 17 24  1  0  0  0  0
 17 18  1  0  0  0  0
 17 20  1  0  0  0  0
 18 19  1  0  0  0  0
 18 41  1  0  0  0  0
 18 42  1  0  0  0  0
 19 43  1  0  0  0  0
 20 21  1  0  0  0  0
 20 44  1  0  0  0  0
 20 45  1  0  0  0  0
 21 22  1  0  0  0  0
 21 46  1  0  0  0  0
 21 47  1  0  0  0  0
 22 23  1  0  0  0  0
 23 24  1  0  0  0  0
 23 48  1  0  0  0  0
 23 49  1  0  0  0  0
 24 50  1  0  0  0  0
 24 51  1  0  0  0  0
 25 26  1  0  0  0  0
 25 52  1  0  0  0  0
 25 53  1  0  0  0  0
 26 27  1  0  0  0  0
 26 28  1  0  0  0  0
 26 54  1  0  0  0  0
 27 55  1  0  0  0  0
 27 56  1  0  0  0  0
 27 57  1  0  0  0  0
M  END
> <s_m_source_file>
AV-unprocessed.smi

> <i_m_source_file_index>
19

> <i_lp_mmshare_version>
43012

> <i_f3d_flags>
0

> <s_epik_input>
W0NIM11PW0NIMl1bQ0BASF0xW0NIMl1OKFtDSDJdW0NASF0oTzEpW0NIM10pYyhuW2NIXW4yKWMoYzIzKW5bY0hdbjNbQ0gyXUM0KFtDSDJdW09IXSlbQ0gyXVtDSDJdT1tDSDJdW0NIMl00

> <s_epik_cmdline>
J2VwaWtfcHl0aG9uJywgJy1waCcsICc3LjAnLCAnLXRuJywgJzgnLCAnLW1hJywgJzIwMCcsICctbWV0YWxfYmluZGluZycsICctaW1hZScsICc8aW5maWxlLm1hZT4nLCAnLW9tYWUnLCAnPG91dGZpbGUubWFlPic=

> <r_lp_tautomer_probability>
1

> <r_epik_Ionization_Penalty>
6.20357e-05

> <r_epik_Ionization_Penalty_Charging>
0

> <r_epik_Ionization_Penalty_Neutral>
6.20357e-05

> <r_epik_State_Penalty>
-0

> <r_epik_Charging_Adjusted_Penalty>
0

> <i_epik_Tot_Q>
0

> <i_epik_Tot_abs_Q>
0

> <r_epik_Metal_State_Penalty>
-0

> <b_epik_Metal_Only>
0

> <s_lp_Force_Field>
OPLS_2005

> <r_lp_Energy>
33.9592

> <b_lp_Chiralities_Consistent>
1

> <s_lp_Variant>
AV-unprocessed.smi:19-3

> <Gold.Version>
5.8.1

> <Gold.Id.Protein>
6NUR|6NUR_protein|mol2

> <Gold.PLP.Fitness>
45.5357

> <Gold.PLP.PLP>
-41.3004

> <Gold.PLP.part.hbond>
-3.0000

> <Gold.PLP.part.metal>
0.0000

> <Gold.PLP.part.buried>
-5.2793

> <Gold.PLP.part.nonpolar>
-32.0637

> <Gold.PLP.part.repulsive>
0.6357

> <Gold.PLP.ligand.clash>
0.0188

> <Gold.PLP.ligand.torsion>
0.4088

> <Gold.PLP.Chemscore.Hbond>
1.5737

> <Gold.PLP.Chemscore.CHOScore>
0.0000

> <Gold.PLP.Chemscore.Metal>
0.0000

> <Gold.Chemscore.Hbonds>
donor molecule, donor type, donor heavy atom, donor atom, acceptor molecule, acceptor atom, score
      P1  H  7997  8010       L1    28  0.67
      P1  H  8011  8017       L1     8  0.38

> <Gold.PLP.Chemscore.Internal.Correction>
0.3508

> <Gold.Rescore>
     Score         DG    S(hbond)    S(metal)    S(lipo)     H(rot)  DE(clash)    DE(int)     intcor
      5.28      -8.59       0.01        0.00      89.15       2.87       0.16       3.14       ----

> <Gold.Chemscore.Fitness>
5.2841

> <Gold.Chemscore.DG>
-8.5874

> <Gold.Chemscore.ZeroCoef>
-5.4800

> <Gold.Chemscore.Hbond>
0.0093

> <Gold.Chemscore.Metal>
0.0000

> <Gold.Chemscore.Lipo>
89.1530

> <Gold.Chemscore.Internal_Hbond>
0.0000

> <Gold.Chemscore.DEClash>
0.1611

> <Gold.Chemscore.DEInternal>
3.1422

> <Gold.Chemscore.Rot>
2.8729

> <Gold.Chemscore.Internal.Correction>
   9.000000E+99

> <Gold.Chemscore.Hbonds>
donor molecule, donor type, donor heavy atom, donor atom, acceptor molecule, acceptor atom, score
      P1  H  7997  8010       L1    28  0.02
      P1  H  8011  8017       L1     8  0.04

> <Gold.Chemscore.Hbond.Weighted>
-0.0311

> <Gold.Chemscore.Metal.Weighted>
-0.0000

> <Gold.Chemscore.Lipo.Weighted>
-10.4309

> <Gold.Chemscore.Internal_Hbond.Weighted>
0.0000

> <Gold.Chemscore.DEClash.Weighted>
0.1611

> <Gold.Chemscore.DEInternal.Weighted>
3.1422

> <Gold.Chemscore.Rot.Weighted>
7.3546

> <Gold.Chemscore.Internal.Correction.Weighted>
   9.000000E+99

> <Gold.Protein.RotatedTorsions>
[ 6907 6896 6895 6894 ] final  168.34 input  -60.11 | X-H torsion
[ 7974 7965 7964 7962 ] final   82.37 input  175.53 | X-H torsion
[ 8008 7997 7996 7995 ] final   51.97 input   59.86 | X-H torsion
[ 10167 10162 10161 10158 ] final  -88.83 input  -65.29 | X-H torsion
[ 10718 10713 10712 10709 ] final   12.03 input   66.30 | X-H torsion
[ 10763 10752 10751 10750 ] final -100.13 input  -60.55 | X-H torsion
[ 11005 11000 10999 10996 ] final   72.73 input  -57.11 | X-H torsion

> <Gold.Protein.ActiveResidues>
 VAL166  LYS551  ARG553  GLY616  TRP617  ASP618  TYR619  PRO620  LYS621  CYS622 
 ASP623  PHE694  ASN695  SER759  ASP760  ASP761  ALA762  ILE779  LEU786  VAL792 
 PHE793  MET794  SER795  GLU796  ALA797  LYS798  CYS799  TRP800  GLU811  SER814 

> <Gold.Protein.RotatedAtoms>
  151.8492  133.3437  159.3667 H   0  0  0  0  0  0  0  0  0  0  0  0  # atno 6907 bound_to 6896
  150.7211  134.5316  159.5712 H   0  0  0  0  0  0  0  0  0  0  0  0  # atno 6908 bound_to 6896
  152.2806  134.7833  160.0448 H   0  0  0  0  0  0  0  0  0  0  0  0  # atno 6909 bound_to 6896
  145.6259  139.2395  143.2112 H   0  0  0  0  0  0  0  0  0  0  0  0  # atno 7974 bound_to 7965
  155.4441  140.3455  155.4293 H   0  0  0  0  0  0  0  0  0  0  0  0  # atno 8008 bound_to 7997
  156.1261  140.1501  156.9165 H   0  0  0  0  0  0  0  0  0  0  0  0  # atno 8009 bound_to 7997
  154.4859  140.0855  156.7464 H   0  0  0  0  0  0  0  0  0  0  0  0  # atno 8010 bound_to 7997
  140.3708  143.2795  151.9503 H   0  0  0  0  0  0  0  0  0  0  0  0  # atno 10167 bound_to 10162
  157.0043  130.6092  149.5700 H   0  0  0  0  0  0  0  0  0  0  0  0  # atno 10718 bound_to 10713
  154.7554  135.4946  153.9366 H   0  0  0  0  0  0  0  0  0  0  0  0  # atno 10763 bound_to 10752
  153.1190  135.6727  153.9376 H   0  0  0  0  0  0  0  0  0  0  0  0  # atno 10764 bound_to 10752
  153.9113  135.3098  155.3427 H   0  0  0  0  0  0  0  0  0  0  0  0  # atno 10765 bound_to 10752
  139.9476  134.7285  156.0941 H   0  0  0  0  0  0  0  0  0  0  0  0  # atno 11005 bound_to 11000
  146.1395  140.7077  142.9374 LP  0  0  0  0  0  0  0  0  0  0  0  0  # atno 17320 bound_to 7965
  144.7213  140.4381  143.7006 LP  0  0  0  0  0  0  0  0  0  0  0  0  # atno 17321 bound_to 7965
  139.4804  144.5909  151.7774 LP  0  0  0  0  0  0  0  0  0  0  0  0  # atno 17342 bound_to 10162
  140.5035  144.1133  150.5977 LP  0  0  0  0  0  0  0  0  0  0  0  0  # atno 17343 bound_to 10162
  156.0159  130.5253  150.8134 LP  0  0  0  0  0  0  0  0  0  0  0  0  # atno 17370 bound_to 10713
  157.5367  131.0939  150.9882 LP  0  0  0  0  0  0  0  0  0  0  0  0  # atno 17371 bound_to 10713
  141.1130  133.6637  156.3026 LP  0  0  0  0  0  0  0  0  0  0  0  0  # atno 17394 bound_to 11000
  140.5797  134.5758  157.5477 LP  0  0  0  0  0  0  0  0  0  0  0  0  # atno 17395 bound_to 11000

$$$$
