AV-unprocessed.smi:819|AV-procd|sdf|3835|dock4
  -GOLD-   22720 1273D 1   1.00000     0.00000
 Structure written by MMmdl.
 40 41  0  0  0  0  0  0  0  0  1 V2000
  146.7920  139.7628  151.5712 C   0  0  0  0  0  0  0  0  0  0  0  0
  146.6292  138.7446  152.7121 C   0  0  1  0  0  0  0  0  0  0  0  0
  146.7480  137.4017  152.1458 N   0  0  0  0  0  0  0  0  0  0  0  0
  145.7307  136.5451  151.9685 C   0  0  0  0  0  0  0  0  0  0  0  0
  144.5654  136.8118  152.2607 O   0  0  0  0  0  0  0  0  0  0  0  0
  146.1635  135.3826  151.4505 N   0  0  0  0  0  0  0  0  0  0  0  0
  145.4260  134.2160  151.1053 C   0  0  0  0  0  0  0  0  0  0  0  0
  145.9724  133.0618  150.4910 C   0  0  0  0  0  0  0  0  0  0  0  0
  145.1237  131.9729  150.2133 C   0  0  0  0  0  0  0  0  0  0  0  0
  143.7632  132.0727  150.5619 C   0  0  0  0  0  0  0  0  0  0  0  0
  143.2296  133.1620  151.1530 N   0  0  0  0  0  0  0  0  0  0  0  0
  144.0490  134.2024  151.4150 C   0  0  0  0  0  0  0  0  0  0  0  0
  147.7368  138.9901  153.7488 C   0  0  0  0  0  0  0  0  0  0  0  0
  147.7209  139.9992  154.4559 O   0  0  0  0  0  0  0  0  0  0  0  0
  148.6923  138.0520  153.8254 N   0  0  0  0  0  0  0  0  0  0  0  0
  149.8482  138.0979  154.7161 C   0  0  0  0  0  0  0  0  0  0  0  0
  149.4163  138.1988  156.1930 C   0  0  0  0  0  0  0  0  0  0  0  0
  149.7262  139.6325  156.6231 C   0  0  0  0  0  0  0  0  0  0  0  0
  150.9463  140.0137  155.7908 C   0  0  0  0  0  0  0  0  0  0  0  0
  150.7048  139.3480  154.4346 C   0  0  0  0  0  0  0  0  0  0  0  0
  146.7175  140.7866  151.9402 H   0  0  0  0  0  0  0  0  0  0  0  0
  146.0125  139.6323  150.8202 H   0  0  0  0  0  0  0  0  0  0  0  0
  147.7547  139.6602  151.0675 H   0  0  0  0  0  0  0  0  0  0  0  0
  145.6456  138.8665  153.1706 H   0  0  0  0  0  0  0  0  0  0  0  0
  147.6759  137.0996  151.8880 H   0  0  0  0  0  0  0  0  0  0  0  0
  147.1602  135.3142  151.3051 H   0  0  0  0  0  0  0  0  0  0  0  0
  147.0153  132.9773  150.2326 H   0  0  0  0  0  0  0  0  0  0  0  0
  145.5084  131.0790  149.7448 H   0  0  0  0  0  0  0  0  0  0  0  0
  143.0869  131.2545  150.3638 H   0  0  0  0  0  0  0  0  0  0  0  0
  143.5863  135.0558  151.8892 H   0  0  0  0  0  0  0  0  0  0  0  0
  148.6267  137.2587  153.2042 H   0  0  0  0  0  0  0  0  0  0  0  0
  150.4542  137.2012  154.5735 H   0  0  0  0  0  0  0  0  0  0  0  0
  148.3700  137.9393  156.3617 H   0  0  0  0  0  0  0  0  0  0  0  0
  150.0152  137.5082  156.7884 H   0  0  0  0  0  0  0  0  0  0  0  0
  148.8880  140.2824  156.3676 H   0  0  0  0  0  0  0  0  0  0  0  0
  149.9032  139.7207  157.6953 H   0  0  0  0  0  0  0  0  0  0  0  0
  151.0803  141.0928  155.7109 H   0  0  0  0  0  0  0  0  0  0  0  0
  151.8454  139.5990  156.2486 H   0  0  0  0  0  0  0  0  0  0  0  0
  151.6407  139.1005  153.9326 H   0  0  0  0  0  0  0  0  0  0  0  0
  150.1693  140.0456  153.7885 H   0  0  0  0  0  0  0  0  0  0  0  0
  1  2  1  0  0  0  0
  1 21  1  0  0  0  0
  1 22  1  0  0  0  0
  1 23  1  0  0  0  0
  2  3  1  0  0  0  0
  2 13  1  0  0  0  0
  2 24  1  0  0  0  0
  3  4  1  0  0  0  0
  3 25  1  0  0  0  0
  4  5  2  0  0  0  0
  4  6  1  0  0  0  0
  6  7  1  0  0  0  0
  6 26  1  0  0  0  0
  7 12  1  0  0  0  0
  7  8  2  0  0  0  0
  8  9  1  0  0  0  0
  8 27  1  0  0  0  0
  9 10  2  0  0  0  0
  9 28  1  0  0  0  0
 10 11  1  0  0  0  0
 10 29  1  0  0  0  0
 11 12  2  0  0  0  0
 12 30  1  0  0  0  0
 13 14  2  0  0  0  0
 13 15  1  0  0  0  0
 15 16  1  0  0  0  0
 15 31  1  0  0  0  0
 16 20  1  0  0  0  0
 16 17  1  0  0  0  0
 16 32  1  0  0  0  0
 17 18  1  0  0  0  0
 17 33  1  0  0  0  0
 17 34  1  0  0  0  0
 18 19  1  0  0  0  0
 18 35  1  0  0  0  0
 18 36  1  0  0  0  0
 19 20  1  0  0  0  0
 19 37  1  0  0  0  0
 19 38  1  0  0  0  0
 20 39  1  0  0  0  0
 20 40  1  0  0  0  0
M  END
> <s_m_source_file>
AV-unprocessed.smi

> <i_m_source_file_index>
819

> <i_lp_mmshare_version>
43012

> <i_f3d_flags>
0

> <s_epik_input>
W0NIMl0xW0NIMl1bQ0gyXVtDSDJdW0NIXTFbTkhdQyg9TylbQ0BIXShbQ0gzXSlbTkhdQyg9TylbTkhdYzJbY0hdW2NIXVtjSF1uW2NIXTI=

> <s_epik_cmdline>
J2VwaWtfcHl0aG9uJywgJy1waCcsICc3LjAnLCAnLXRuJywgJzgnLCAnLW1hJywgJzIwMCcsICctbWV0YWxfYmluZGluZycsICctaW1hZScsICc8aW5maWxlLm1hZT4nLCAnLW9tYWUnLCAnPG91dGZpbGUubWFlPic=

> <r_epik_Ionization_Penalty>
0.00416979

> <r_epik_Ionization_Penalty_Charging>
0

> <r_epik_Ionization_Penalty_Neutral>
0.00416979

> <r_epik_State_Penalty>
0.00297037

> <r_epik_Charging_Adjusted_Penalty>
0.00297037

> <i_epik_Tot_Q>
0

> <i_epik_Tot_abs_Q>
0

> <r_epik_Metal_State_Penalty>
-0

> <b_epik_Metal_Only>
0

> <s_lp_Force_Field>
OPLS_2005

> <r_lp_Energy>
20.1385

> <b_lp_Chiralities_Consistent>
1

> <s_lp_Variant>
AV-unprocessed.smi:819-2

> <Gold.Version>
5.8.1

> <Gold.Id.Protein>
6NUR|6NUR_protein|mol2

> <Gold.PLP.Fitness>
43.0171

> <Gold.PLP.PLP>
-32.4496

> <Gold.PLP.part.hbond>
-2.8759

> <Gold.PLP.part.metal>
0.0000

> <Gold.PLP.part.buried>
-2.7492

> <Gold.PLP.part.nonpolar>
-29.3868

> <Gold.PLP.part.repulsive>
1.8137

> <Gold.PLP.ligand.clash>
0.0000

> <Gold.PLP.ligand.torsion>
0.3351

> <Gold.PLP.Chemscore.Hbond>
2.8314

> <Gold.PLP.Chemscore.CHOScore>
0.9076

> <Gold.PLP.Chemscore.Metal>
0.0000

> <Gold.Chemscore.Hbonds>
donor molecule, donor type, donor heavy atom, donor atom, acceptor molecule, acceptor atom, score
      L1  H     3    25       P1  7948  0.98
      L1  H     6    26       P1  7948  0.86
      L1  H    15    31       P1  7948  1.00
      L1  C    10    29       P1 10952  0.91

> <Gold.PLP.Chemscore.Internal.Correction>
0.0205

> <Gold.Rescore>
     Score         DG    S(hbond)    S(metal)    S(lipo)     H(rot)  DE(clash)    DE(int)     intcor
     16.23     -20.15       2.86        0.00      77.19       1.52       0.76       3.16       ----

> <Gold.Chemscore.Fitness>
16.2333

> <Gold.Chemscore.DG>
-20.1543

> <Gold.Chemscore.ZeroCoef>
-5.4800

> <Gold.Chemscore.Hbond>
2.8564

> <Gold.Chemscore.Metal>
0.0000

> <Gold.Chemscore.Lipo>
77.1934

> <Gold.Chemscore.Internal_Hbond>
0.0000

> <Gold.Chemscore.DEClash>
0.7617

> <Gold.Chemscore.DEInternal>
3.1593

> <Gold.Chemscore.Rot>
1.5225

> <Gold.Chemscore.Internal.Correction>
   9.000000E+99

> <Gold.Chemscore.Hbonds>
donor molecule, donor type, donor heavy atom, donor atom, acceptor molecule, acceptor atom, score
      L1  H     3    25       P1  7948  0.91
      L1  H     6    26       P1  7948  0.67
      L1  H    15    31       P1  7948  0.99

> <Gold.Chemscore.Hbond.Weighted>
-9.5404

> <Gold.Chemscore.Metal.Weighted>
-0.0000

> <Gold.Chemscore.Lipo.Weighted>
-9.0316

> <Gold.Chemscore.Internal_Hbond.Weighted>
0.0000

> <Gold.Chemscore.DEClash.Weighted>
0.7617

> <Gold.Chemscore.DEInternal.Weighted>
3.1593

> <Gold.Chemscore.Rot.Weighted>
3.8977

> <Gold.Chemscore.Internal.Correction.Weighted>
   9.000000E+99

> <Gold.Protein.RotatedTorsions>
[ 6907 6896 6895 6894 ] final -104.81 input  -60.11 | X-H torsion
[ 7974 7965 7964 7962 ] final -151.81 input  175.53 | X-H torsion
[ 8008 7997 7996 7995 ] final  -98.87 input   59.86 | X-H torsion
[ 10167 10162 10161 10158 ] final -179.17 input  -65.29 | X-H torsion
[ 10718 10713 10712 10709 ] final   12.79 input   66.30 | X-H torsion
[ 10763 10752 10751 10750 ] final   32.07 input  -60.55 | X-H torsion
[ 11005 11000 10999 10996 ] final -122.05 input  -57.11 | X-H torsion

> <Gold.Protein.ActiveResidues>
 VAL166  LYS551  ARG553  GLY616  TRP617  ASP618  TYR619  PRO620  LYS621  CYS622 
 ASP623  PHE694  ASN695  SER759  ASP760  ASP761  ALA762  ILE779  LEU786  VAL792 
 PHE793  MET794  SER795  GLU796  ALA797  LYS798  CYS799  TRP800  GLU811  SER814 

> <Gold.Protein.RotatedAtoms>
  150.7305  134.0222  159.3704 H   0  0  0  0  0  0  0  0  0  0  0  0  # atno 6907 bound_to 6896
  151.8187  135.0656  160.0431 H   0  0  0  0  0  0  0  0  0  0  0  0  # atno 6908 bound_to 6896
  152.3019  133.5628  159.5660 H   0  0  0  0  0  0  0  0  0  0  0  0  # atno 6909 bound_to 6896
  144.7829  140.4747  143.5827 H   0  0  0  0  0  0  0  0  0  0  0  0  # atno 7974 bound_to 7965
  154.8071  140.0452  157.1315 H   0  0  0  0  0  0  0  0  0  0  0  0  # atno 8008 bound_to 7997
  154.9411  140.3052  155.5100 H   0  0  0  0  0  0  0  0  0  0  0  0  # atno 8009 bound_to 7997
  156.2968  140.2305  156.4480 H   0  0  0  0  0  0  0  0  0  0  0  0  # atno 8010 bound_to 7997
  139.5398  144.2394  152.0872 H   0  0  0  0  0  0  0  0  0  0  0  0  # atno 10167 bound_to 10162
  157.0153  130.6133  149.5713 H   0  0  0  0  0  0  0  0  0  0  0  0  # atno 10718 bound_to 10713
  153.0281  135.6422  154.1298 H   0  0  0  0  0  0  0  0  0  0  0  0  # atno 10763 bound_to 10752
  154.1024  135.2858  155.3250 H   0  0  0  0  0  0  0  0  0  0  0  0  # atno 10764 bound_to 10752
  154.6389  135.5466  153.7829 H   0  0  0  0  0  0  0  0  0  0  0  0  # atno 10765 bound_to 10752
  141.0025  134.0383  157.3520 H   0  0  0  0  0  0  0  0  0  0  0  0  # atno 11005 bound_to 11000
  145.6001  139.1503  143.3134 LP  0  0  0  0  0  0  0  0  0  0  0  0  # atno 17320 bound_to 7965
  146.2046  140.6123  142.9087 LP  0  0  0  0  0  0  0  0  0  0  0  0  # atno 17321 bound_to 7965
  140.1870  144.4789  150.6498 LP  0  0  0  0  0  0  0  0  0  0  0  0  # atno 17342 bound_to 10162
  140.6623  143.2256  151.5826 LP  0  0  0  0  0  0  0  0  0  0  0  0  # atno 17343 bound_to 10162
  156.0121  130.5214  150.8022 LP  0  0  0  0  0  0  0  0  0  0  0  0  # atno 17370 bound_to 10713
  157.5290  131.0935  150.9979 LP  0  0  0  0  0  0  0  0  0  0  0  0  # atno 17371 bound_to 10713
  139.9046  135.0175  156.7426 LP  0  0  0  0  0  0  0  0  0  0  0  0  # atno 17394 bound_to 11000
  140.6867  133.9426  155.7942 LP  0  0  0  0  0  0  0  0  0  0  0  0  # atno 17395 bound_to 11000

$$$$
