AV-unprocessed.smi:199|AV-procd|sdf|1563|dock1
  -GOLD-   2262019433D 1   1.00000     0.00000
 Structure written by MMmdl.
 51 55  0  0  0  0  0  0  0  0  1 V2000
  146.7846  132.6597  161.2448 C   0  0  0  0  0  0  0  0  0  0  0  0
  146.2380  134.0346  161.6597 C   0  0  1  0  0  0  0  0  0  0  0  0
  146.8519  134.3890  162.8965 O   0  0  0  0  0  0  0  0  0  0  0  0
  146.9721  135.7989  162.9617 C   0  0  0  0  0  0  0  0  0  0  0  0
  147.3748  136.1574  161.5400 C   0  0  0  0  0  0  0  0  0  0  0  0
  146.5178  135.2205  160.6931 C   0  0  2  0  0  0  0  0  0  0  0  0
  145.2822  135.8703  160.4429 O   0  0  0  0  0  0  0  0  0  0  0  0
  147.1545  134.8619  159.3241 C   0  0  0  0  0  0  0  0  0  0  0  0
  147.5205  136.0281  158.5342 N   0  0  0  0  0  0  0  0  0  0  0  0
  146.7457  136.6570  157.5875 C   0  0  0  0  0  0  0  0  0  0  0  0
  147.2993  137.6895  157.0146 N   0  0  0  0  0  0  0  0  0  0  0  0
  148.5535  137.7863  157.6074 C   0  0  0  0  0  0  0  0  0  0  0  0
  149.6650  138.6698  157.4661 C   0  0  0  0  0  0  0  0  0  0  0  0
  149.7113  139.7275  156.6091 N   0  0  0  0  0  0  0  0  0  0  0  0
  150.8640  140.6119  156.5490 C   0  0  1  0  0  0  0  0  0  0  0  0
  151.9323  139.7761  155.8159 C   0  0  0  0  0  0  0  0  0  0  0  0
  151.0639  138.9675  154.8374 C   0  0  0  0  0  0  0  0  0  0  0  0
  149.6543  139.5045  155.1692 C   0  0  2  0  0  0  0  0  0  0  0  0
  149.5253  140.9347  154.6009 C   0  0  1  0  0  0  0  0  0  0  0  0
  148.0755  141.4333  154.4183 C   0  0  0  0  0  0  0  0  0  0  0  0
  148.0078  142.7857  154.0126 O   0  0  0  0  0  0  0  0  0  0  0  0
  150.3641  141.7322  155.6191 C   0  0  0  0  0  0  0  0  0  0  0  0
  150.7620  138.4106  158.2269 N   0  0  0  0  0  0  0  0  0  0  0  0
  150.7739  137.3825  159.0783 C   0  0  0  0  0  0  0  0  0  0  0  0
  149.8122  136.4926  159.3223 N   0  0  0  0  0  0  0  0  0  0  0  0
  148.7104  136.7347  158.5572 C   0  0  0  0  0  0  0  0  0  0  0  0
  146.3427  132.3212  160.3077 H   0  0  0  0  0  0  0  0  0  0  0  0
  146.5531  131.9107  162.0024 H   0  0  0  0  0  0  0  0  0  0  0  0
  147.8680  132.6784  161.1259 H   0  0  0  0  0  0  0  0  0  0  0  0
  145.1659  133.9363  161.8410 H   0  0  0  0  0  0  0  0  0  0  0  0
  146.0105  136.2428  163.2236 H   0  0  0  0  0  0  0  0  0  0  0  0
  147.7116  136.1071  163.7012 H   0  0  0  0  0  0  0  0  0  0  0  0
  147.2403  137.2144  161.3056 H   0  0  0  0  0  0  0  0  0  0  0  0
  148.4311  135.9195  161.4107 H   0  0  0  0  0  0  0  0  0  0  0  0
  144.8075  135.3718  159.7957 H   0  0  0  0  0  0  0  0  0  0  0  0
  148.0538  134.2619  159.4652 H   0  0  0  0  0  0  0  0  0  0  0  0
  146.4684  134.2549  158.7320 H   0  0  0  0  0  0  0  0  0  0  0  0
  145.7482  136.3266  157.3372 H   0  0  0  0  0  0  0  0  0  0  0  0
  151.2055  141.0113  157.5017 H   0  0  0  0  0  0  0  0  0  0  0  0
  152.6760  140.3950  155.3128 H   0  0  0  0  0  0  0  0  0  0  0  0
  152.4539  139.1124  156.5068 H   0  0  0  0  0  0  0  0  0  0  0  0
  151.3443  139.1186  153.7945 H   0  0  0  0  0  0  0  0  0  0  0  0
  151.1379  137.9007  155.0522 H   0  0  0  0  0  0  0  0  0  0  0  0
  148.8535  138.8457  154.8316 H   0  0  0  0  0  0  0  0  0  0  0  0
  150.0012  140.9819  153.6204 H   0  0  0  0  0  0  0  0  0  0  0  0
  147.5608  140.8220  153.6764 H   0  0  0  0  0  0  0  0  0  0  0  0
  147.5251  141.3262  155.3534 H   0  0  0  0  0  0  0  0  0  0  0  0
  148.5018  143.3092  154.6251 H   0  0  0  0  0  0  0  0  0  0  0  0
  149.7515  142.4436  156.1741 H   0  0  0  0  0  0  0  0  0  0  0  0
  151.1793  142.2867  155.1530 H   0  0  0  0  0  0  0  0  0  0  0  0
  151.6840  137.2549  159.6454 H   0  0  0  0  0  0  0  0  0  0  0  0
  1  2  1  0  0  0  0
  1 27  1  0  0  0  0
  1 28  1  0  0  0  0
  1 29  1  0  0  0  0
  2  6  1  0  0  0  0
  2  3  1  0  0  0  0
  2 30  1  0  0  0  0
  3  4  1  0  0  0  0
  4  5  1  0  0  0  0
  4 31  1  0  0  0  0
  4 32  1  0  0  0  0
  5  6  1  0  0  0  0
  5 33  1  0  0  0  0
  5 34  1  0  0  0  0
  6  7  1  0  0  0  0
  6  8  1  0  0  0  0
  7 35  1  0  0  0  0
  8  9  1  0  0  0  0
  8 36  1  0  0  0  0
  8 37  1  0  0  0  0
  9 26  1  0  0  0  0
  9 10  1  0  0  0  0
 10 11  2  0  0  0  0
 10 38  1  0  0  0  0
 11 12  1  0  0  0  0
 12 26  2  0  0  0  0
 12 13  1  0  0  0  0
 13 14  1  0  0  0  0
 13 23  2  0  0  0  0
 14 18  1  0  0  0  0
 14 15  1  0  0  0  0
 15 22  1  0  0  0  0
 15 16  1  0  0  0  0
 15 39  1  0  0  0  0
 16 17  1  0  0  0  0
 16 40  1  0  0  0  0
 16 41  1  0  0  0  0
 17 18  1  0  0  0  0
 17 42  1  0  0  0  0
 17 43  1  0  0  0  0
 18 19  1  0  0  0  0
 18 44  1  0  0  0  0
 19 20  1  0  0  0  0
 19 22  1  0  0  0  0
 19 45  1  0  0  0  0
 20 21  1  0  0  0  0
 20 46  1  0  0  0  0
 20 47  1  0  0  0  0
 21 48  1  0  0  0  0
 22 49  1  0  0  0  0
 22 50  1  0  0  0  0
 23 24  1  0  0  0  0
 24 25  2  0  0  0  0
 24 51  1  0  0  0  0
 25 26  1  0  0  0  0
M  END
> <s_m_source_file>
AV-unprocessed.smi

> <i_m_source_file_index>
199

> <i_lp_mmshare_version>
43012

> <i_f3d_flags>
0

> <s_epik_input>
W0NIMl0xW0NIMl1PW0NAQEhdKFtDSDNdKVtDQEBdMShbT0hdKVtDSDJdbihbY0hdbjIpYyhjMjMpbltjSF1uYzNOKFtDQEBIXTQ1KVtDQEhdKFtDSDJdW0NIMl00KVtDQEhdKFtDSDJdNSlbQ0gyXVtPSF0=

> <s_epik_cmdline>
J2VwaWtfcHl0aG9uJywgJy1waCcsICc3LjAnLCAnLXRuJywgJzgnLCAnLW1hJywgJzIwMCcsICctbWV0YWxfYmluZGluZycsICctaW1hZScsICc8aW5maWxlLm1hZT4nLCAnLW9tYWUnLCAnPG91dGZpbGUubWFlPic=

> <r_lp_tautomer_probability>
1

> <r_epik_Ionization_Penalty>
0.00583903

> <r_epik_Ionization_Penalty_Charging>
0

> <r_epik_Ionization_Penalty_Neutral>
0.00583903

> <r_epik_State_Penalty>
-0

> <r_epik_Charging_Adjusted_Penalty>
0

> <i_epik_Tot_Q>
0

> <i_epik_Tot_abs_Q>
0

> <r_epik_Metal_State_Penalty>
-0

> <b_epik_Metal_Only>
0

> <s_lp_Force_Field>
OPLS_2005

> <r_lp_Energy>
85.2134

> <b_lp_Chiralities_Consistent>
1

> <s_lp_Variant>
AV-unprocessed.smi:199-4

> <Gold.Version>
5.8.1

> <Gold.Id.Protein>
6NUR|6NUR_protein|mol2

> <Gold.PLP.Fitness>
50.2032

> <Gold.PLP.PLP>
-45.0015

> <Gold.PLP.part.hbond>
-5.3628

> <Gold.PLP.part.metal>
0.0000

> <Gold.PLP.part.buried>
-3.5229

> <Gold.PLP.part.nonpolar>
-35.7086

> <Gold.PLP.part.repulsive>
0.0238

> <Gold.PLP.ligand.clash>
0.0000

> <Gold.PLP.ligand.torsion>
0.4356

> <Gold.PLP.Chemscore.Hbond>
2.0000

> <Gold.PLP.Chemscore.CHOScore>
0.0000

> <Gold.PLP.Chemscore.Metal>
0.0000

> <Gold.Chemscore.Hbonds>
donor molecule, donor type, donor heavy atom, donor atom, acceptor molecule, acceptor atom, score
      L1  H    21    48       P1  8028  1.00
      P1  H  6896  6908       L1    25  1.00

> <Gold.PLP.Chemscore.Internal.Correction>
0.0728

> <Gold.Rescore>
     Score         DG    S(hbond)    S(metal)    S(lipo)     H(rot)  DE(clash)    DE(int)     intcor
     12.80     -14.05       1.64        0.00      93.79       3.07       0.05       1.20       ----

> <Gold.Chemscore.Fitness>
12.7991

> <Gold.Chemscore.DG>
-14.0520

> <Gold.Chemscore.ZeroCoef>
-5.4800

> <Gold.Chemscore.Hbond>
1.6363

> <Gold.Chemscore.Metal>
0.0000

> <Gold.Chemscore.Lipo>
93.7895

> <Gold.Chemscore.Internal_Hbond>
0.0000

> <Gold.Chemscore.DEClash>
0.0532

> <Gold.Chemscore.DEInternal>
1.1997

> <Gold.Chemscore.Rot>
3.0729

> <Gold.Chemscore.Internal.Correction>
   9.000000E+99

> <Gold.Chemscore.Hbonds>
donor molecule, donor type, donor heavy atom, donor atom, acceptor molecule, acceptor atom, score
      L1  H    21    48       P1  8028  0.98
      P1  H  6896  6908       L1    25  0.34

> <Gold.Chemscore.Hbond.Weighted>
-5.4653

> <Gold.Chemscore.Metal.Weighted>
-0.0000

> <Gold.Chemscore.Lipo.Weighted>
-10.9734

> <Gold.Chemscore.Internal_Hbond.Weighted>
0.0000

> <Gold.Chemscore.DEClash.Weighted>
0.0532

> <Gold.Chemscore.DEInternal.Weighted>
1.1997

> <Gold.Chemscore.Rot.Weighted>
7.8667

> <Gold.Chemscore.Internal.Correction.Weighted>
   9.000000E+99

> <Gold.Protein.RotatedTorsions>
[ 6907 6896 6895 6894 ] final -170.38 input  -60.11 | X-H torsion
[ 7974 7965 7964 7962 ] final   60.49 input  175.53 | X-H torsion
[ 8008 7997 7996 7995 ] final  145.98 input   59.86 | X-H torsion
[ 10167 10162 10161 10158 ] final  -59.34 input  -65.29 | X-H torsion
[ 10718 10713 10712 10709 ] final  149.29 input   66.30 | X-H torsion
[ 10763 10752 10751 10750 ] final  -25.33 input  -60.55 | X-H torsion
[ 11005 11000 10999 10996 ] final   18.65 input  -57.11 | X-H torsion

> <Gold.Protein.ActiveResidues>
 VAL166  LYS551  ARG553  GLY616  TRP617  ASP618  TYR619  PRO620  LYS621  CYS622 
 ASP623  PHE694  ASN695  SER759  ASP760  ASP761  ALA762  ILE779  LEU786  VAL792 
 PHE793  MET794  SER795  GLU796  ALA797  LYS798  CYS799  TRP800  GLU811  SER814 

> <Gold.Protein.RotatedAtoms>
  151.5068  133.3493  159.2877 H   0  0  0  0  0  0  0  0  0  0  0  0  # atno 6907 bound_to 6896
  150.8737  134.8118  159.7185 H   0  0  0  0  0  0  0  0  0  0  0  0  # atno 6908 bound_to 6896
  152.4716  134.4956  159.9760 H   0  0  0  0  0  0  0  0  0  0  0  0  # atno 6909 bound_to 6896
  145.8954  139.3542  143.0624 H   0  0  0  0  0  0  0  0  0  0  0  0  # atno 7974 bound_to 7965
  156.2868  140.2194  156.5303 H   0  0  0  0  0  0  0  0  0  0  0  0  # atno 8008 bound_to 7997
  154.7454  140.0484  157.0870 H   0  0  0  0  0  0  0  0  0  0  0  0  # atno 8009 bound_to 7997
  155.0177  140.3120  155.4808 H   0  0  0  0  0  0  0  0  0  0  0  0  # atno 8010 bound_to 7997
  140.6141  143.2396  151.5640 H   0  0  0  0  0  0  0  0  0  0  0  0  # atno 10167 bound_to 10162
  157.2980  131.0865  151.1412 H   0  0  0  0  0  0  0  0  0  0  0  0  # atno 10718 bound_to 10713
  153.6981  135.6958  153.5071 H   0  0  0  0  0  0  0  0  0  0  0  0  # atno 10763 bound_to 10752
  153.2363  135.4321  155.0649 H   0  0  0  0  0  0  0  0  0  0  0  0  # atno 10764 bound_to 10752
  154.8352  135.3496  154.6521 H   0  0  0  0  0  0  0  0  0  0  0  0  # atno 10765 bound_to 10752
  140.4224  134.1504  155.7674 H   0  0  0  0  0  0  0  0  0  0  0  0  # atno 11005 bound_to 11000
  145.8856  140.9335  143.0578 LP  0  0  0  0  0  0  0  0  0  0  0  0  # atno 17320 bound_to 7965
  144.6732  140.0838  143.7468 LP  0  0  0  0  0  0  0  0  0  0  0  0  # atno 17321 bound_to 7965
  139.5384  144.2715  152.1300 LP  0  0  0  0  0  0  0  0  0  0  0  0  # atno 17342 bound_to 10162
  140.1921  144.4742  150.6474 LP  0  0  0  0  0  0  0  0  0  0  0  0  # atno 17343 bound_to 10162
  157.2782  130.6737  149.6053 LP  0  0  0  0  0  0  0  0  0  0  0  0  # atno 17370 bound_to 10713
  155.9670  130.4458  150.5515 LP  0  0  0  0  0  0  0  0  0  0  0  0  # atno 17371 bound_to 10713
  141.1778  133.8477  157.1361 LP  0  0  0  0  0  0  0  0  0  0  0  0  # atno 17394 bound_to 11000
  140.0191  134.9954  157.0554 LP  0  0  0  0  0  0  0  0  0  0  0  0  # atno 17395 bound_to 11000

$$$$
