AV-unprocessed.smi:1302|AV-procd|sdf|5425|dock5
  -GOLD-   22720 4583D 1   1.00000     0.00000
 Structure written by MMmdl.
 43 44  0  0  0  0  0  0  0  0  1 V2000
  150.1894  139.7498  155.1368 C   0  0  0  0  0  0  0  0  0  0  0  0
  150.9776  138.4690  155.4532 C   0  0  0  0  0  0  0  0  0  0  0  0
  152.3530  138.4675  154.7731 C   0  0  0  0  0  0  0  0  0  0  0  0
  150.2253  137.2916  155.0303 N   0  0  0  0  0  0  0  0  0  0  0  0
  150.5662  136.0166  155.2823 C   0  0  0  0  0  0  0  0  0  0  0  0
  151.5880  135.6909  155.8872 O   0  0  0  0  0  0  0  0  0  0  0  0
  149.6434  134.9756  154.7177 C   0  0  0  0  0  0  0  0  0  0  0  0
  150.0762  133.6433  154.5543 C   0  0  0  0  0  0  0  0  0  0  0  0
  149.1772  132.6868  154.0446 C   0  0  0  0  0  0  0  0  0  0  0  0
  147.8596  133.0833  153.7149 C   0  0  0  0  0  0  0  0  0  0  0  0
  146.9425  132.1416  153.1994 N   0  0  0  0  0  0  0  0  0  0  0  0
  147.4332  130.7695  153.1024 C   0  0  0  0  0  0  0  0  0  0  0  0
  146.2672  129.7984  152.8367 C   0  0  2  0  0  0  0  0  0  0  0  0
  146.7552  128.3648  152.6037 C   0  0  0  0  0  0  0  0  0  0  0  0
  145.5575  130.2225  151.6763 O   0  0  0  0  0  0  0  0  0  0  0  0
  144.9888  131.5199  151.8298 C   0  0  2  0  0  0  0  0  0  0  0  0
  144.1720  131.8391  150.5735 C   0  0  0  0  0  0  0  0  0  0  0  0
  146.1179  132.5408  152.0608 C   0  0  0  0  0  0  0  0  0  0  0  0
  147.4398  134.3605  153.8903 N   0  0  0  0  0  0  0  0  0  0  0  0
  148.3051  135.2740  154.3784 C   0  0  0  0  0  0  0  0  0  0  0  0
  150.7387  140.6353  155.4569 H   0  0  0  0  0  0  0  0  0  0  0  0
  149.2267  139.7590  155.6488 H   0  0  0  0  0  0  0  0  0  0  0  0
  149.9990  139.8450  154.0671 H   0  0  0  0  0  0  0  0  0  0  0  0
  151.1417  138.4202  156.5311 H   0  0  0  0  0  0  0  0  0  0  0  0
  152.9486  139.3230  155.0932 H   0  0  0  0  0  0  0  0  0  0  0  0
  152.2608  138.5144  153.6875 H   0  0  0  0  0  0  0  0  0  0  0  0
  152.9133  137.5655  155.0221 H   0  0  0  0  0  0  0  0  0  0  0  0
  149.3796  137.4594  154.5045 H   0  0  0  0  0  0  0  0  0  0  0  0
  151.0832  133.3496  154.8135 H   0  0  0  0  0  0  0  0  0  0  0  0
  149.5030  131.6640  153.9287 H   0  0  0  0  0  0  0  0  0  0  0  0
  148.1598  130.7157  152.2905 H   0  0  0  0  0  0  0  0  0  0  0  0
  147.9507  130.4622  154.0102 H   0  0  0  0  0  0  0  0  0  0  0  0
  145.5878  129.7984  153.6911 H   0  0  0  0  0  0  0  0  0  0  0  0
  147.2941  127.9874  153.4730 H   0  0  0  0  0  0  0  0  0  0  0  0
  147.4247  128.3106  151.7447 H   0  0  0  0  0  0  0  0  0  0  0  0
  145.9168  127.6938  152.4152 H   0  0  0  0  0  0  0  0  0  0  0  0
  144.3153  131.5166  152.6887 H   0  0  0  0  0  0  0  0  0  0  0  0
  143.7080  132.8230  150.6466 H   0  0  0  0  0  0  0  0  0  0  0  0
  143.3773  131.1068  150.4294 H   0  0  0  0  0  0  0  0  0  0  0  0
  144.7996  131.8297  149.6819 H   0  0  0  0  0  0  0  0  0  0  0  0
  145.6837  133.5256  152.2384 H   0  0  0  0  0  0  0  0  0  0  0  0
  146.7460  132.6155  151.1718 H   0  0  0  0  0  0  0  0  0  0  0  0
  147.9057  136.2700  154.5028 H   0  0  0  0  0  0  0  0  0  0  0  0
  1  2  1  0  0  0  0
  1 21  1  0  0  0  0
  1 22  1  0  0  0  0
  1 23  1  0  0  0  0
  2  3  1  0  0  0  0
  2  4  1  0  0  0  0
  2 24  1  0  0  0  0
  3 25  1  0  0  0  0
  3 26  1  0  0  0  0
  3 27  1  0  0  0  0
  4  5  1  0  0  0  0
  4 28  1  0  0  0  0
  5  6  2  0  0  0  0
  5  7  1  0  0  0  0
  7 20  1  0  0  0  0
  7  8  2  0  0  0  0
  8  9  1  0  0  0  0
  8 29  1  0  0  0  0
  9 10  2  0  0  0  0
  9 30  1  0  0  0  0
 10 11  1  0  0  0  0
 10 19  1  0  0  0  0
 11 18  1  0  0  0  0
 11 12  1  0  0  0  0
 12 13  1  0  0  0  0
 12 31  1  0  0  0  0
 12 32  1  0  0  0  0
 13 14  1  0  0  0  0
 13 15  1  0  0  0  0
 13 33  1  0  0  0  0
 14 34  1  0  0  0  0
 14 35  1  0  0  0  0
 14 36  1  0  0  0  0
 15 16  1  0  0  0  0
 16 17  1  0  0  0  0
 16 18  1  0  0  0  0
 16 37  1  0  0  0  0
 17 38  1  0  0  0  0
 17 39  1  0  0  0  0
 17 40  1  0  0  0  0
 18 41  1  0  0  0  0
 18 42  1  0  0  0  0
 19 20  2  0  0  0  0
 20 43  1  0  0  0  0
M  END
> <s_m_source_file>
AV-unprocessed.smi

> <i_m_source_file_index>
1302

> <i_lp_mmshare_version>
43012

> <i_f3d_flags>
0

> <s_epik_input>
W0NIM11bQ0hdKFtDSDNdKVtOSF1DKD1PKWMxW2NIXVtjSF1jKG5bY0hdMSlOMltDSDJdW0NAQEhdKFtDSDNdKU9bQ0BASF0oW0NIM10pW0NIMl0y

> <s_epik_cmdline>
J2VwaWtfcHl0aG9uJywgJy1waCcsICc3LjAnLCAnLXRuJywgJzgnLCAnLW1hJywgJzIwMCcsICctbWV0YWxfYmluZGluZycsICctaW1hZScsICc8aW5maWxlLm1hZT4nLCAnLW9tYWUnLCAnPG91dGZpbGUubWFlPic=

> <r_lp_tautomer_probability>
1

> <r_epik_Ionization_Penalty>
2.23089e-05

> <r_epik_Ionization_Penalty_Charging>
0

> <r_epik_Ionization_Penalty_Neutral>
2.23089e-05

> <r_epik_State_Penalty>
-0

> <r_epik_Charging_Adjusted_Penalty>
0

> <i_epik_Tot_Q>
0

> <i_epik_Tot_abs_Q>
0

> <r_epik_Metal_State_Penalty>
-0

> <b_epik_Metal_Only>
0

> <s_lp_Force_Field>
OPLS_2005

> <r_lp_Energy>
16.9164

> <b_lp_Chiralities_Consistent>
1

> <s_lp_Variant>
AV-unprocessed.smi:1302-1

> <Gold.Version>
5.8.1

> <Gold.Id.Protein>
6NUR|6NUR_protein|mol2

> <Gold.PLP.Fitness>
34.0926

> <Gold.PLP.PLP>
-31.5595

> <Gold.PLP.part.hbond>
-1.0000

> <Gold.PLP.part.metal>
0.0000

> <Gold.PLP.part.buried>
-1.1352

> <Gold.PLP.part.nonpolar>
-29.1727

> <Gold.PLP.part.repulsive>
0.9392

> <Gold.PLP.ligand.clash>
0.0000

> <Gold.PLP.ligand.torsion>
0.4030

> <Gold.PLP.Chemscore.Hbond>
1.0000

> <Gold.PLP.Chemscore.CHOScore>
0.0000

> <Gold.PLP.Chemscore.Metal>
0.0000

> <Gold.Chemscore.Hbonds>
donor molecule, donor type, donor heavy atom, donor atom, acceptor molecule, acceptor atom, score
      P1  H 10752 10763       L1     6  1.00

> <Gold.PLP.Chemscore.Internal.Correction>
0.3390

> <Gold.Rescore>
     Score         DG    S(hbond)    S(metal)    S(lipo)     H(rot)  DE(clash)    DE(int)     intcor
     14.28     -16.00       0.98        0.00      87.04       1.15       1.33       0.39       ----

> <Gold.Chemscore.Fitness>
14.2791

> <Gold.Chemscore.DG>
-16.0044

> <Gold.Chemscore.ZeroCoef>
-5.4800

> <Gold.Chemscore.Hbond>
0.9842

> <Gold.Chemscore.Metal>
0.0000

> <Gold.Chemscore.Lipo>
87.0368

> <Gold.Chemscore.Internal_Hbond>
0.0000

> <Gold.Chemscore.DEClash>
1.3349

> <Gold.Chemscore.DEInternal>
0.3905

> <Gold.Chemscore.Rot>
1.1508

> <Gold.Chemscore.Internal.Correction>
   9.000000E+99

> <Gold.Chemscore.Hbonds>
donor molecule, donor type, donor heavy atom, donor atom, acceptor molecule, acceptor atom, score
      P1  H 10752 10763       L1     6  0.99

> <Gold.Chemscore.Hbond.Weighted>
-3.2873

> <Gold.Chemscore.Metal.Weighted>
-0.0000

> <Gold.Chemscore.Lipo.Weighted>
-10.1833

> <Gold.Chemscore.Internal_Hbond.Weighted>
0.0000

> <Gold.Chemscore.DEClash.Weighted>
1.3349

> <Gold.Chemscore.DEInternal.Weighted>
0.3905

> <Gold.Chemscore.Rot.Weighted>
2.9461

> <Gold.Chemscore.Internal.Correction.Weighted>
   9.000000E+99

> <Gold.Protein.RotatedTorsions>
[ 6907 6896 6895 6894 ] final -118.81 input  -60.11 | X-H torsion
[ 7974 7965 7964 7962 ] final   37.82 input  175.53 | X-H torsion
[ 8008 7997 7996 7995 ] final   -3.31 input   59.86 | X-H torsion
[ 10167 10162 10161 10158 ] final  -55.57 input  -65.29 | X-H torsion
[ 10718 10713 10712 10709 ] final  178.74 input   66.30 | X-H torsion
[ 10763 10752 10751 10750 ] final   90.87 input  -60.55 | X-H torsion
[ 11005 11000 10999 10996 ] final   78.25 input  -57.11 | X-H torsion

> <Gold.Protein.ActiveResidues>
 VAL166  LYS551  ARG553  GLY616  TRP617  ASP618  TYR619  PRO620  LYS621  CYS622 
 ASP623  PHE694  ASN695  SER759  ASP760  ASP761  ALA762  ILE779  LEU786  VAL792 
 PHE793  MET794  SER795  GLU796  ALA797  LYS798  CYS799  TRP800  GLU811  SER814 

> <Gold.Protein.RotatedAtoms>
  150.8252  133.8185  159.3121 H   0  0  0  0  0  0  0  0  0  0  0  0  # atno 6907 bound_to 6896
  151.5931  135.1050  160.0053 H   0  0  0  0  0  0  0  0  0  0  0  0  # atno 6908 bound_to 6896
  152.4337  133.7282  159.6629 H   0  0  0  0  0  0  0  0  0  0  0  0  # atno 6909 bound_to 6896
  146.1109  139.5847  142.9353 H   0  0  0  0  0  0  0  0  0  0  0  0  # atno 7974 bound_to 7965
  154.6262  140.2512  155.7489 H   0  0  0  0  0  0  0  0  0  0  0  0  # atno 8008 bound_to 7997
  156.2454  140.2916  156.0513 H   0  0  0  0  0  0  0  0  0  0  0  0  # atno 8009 bound_to 7997
  155.1817  140.0389  157.2874 H   0  0  0  0  0  0  0  0  0  0  0  0  # atno 8010 bound_to 7997
  140.6367  143.2486  151.5100 H   0  0  0  0  0  0  0  0  0  0  0  0  # atno 10167 bound_to 10162
  156.8861  130.9832  151.3055 H   0  0  0  0  0  0  0  0  0  0  0  0  # atno 10718 bound_to 10713
  153.2022  135.4418  155.0280 H   0  0  0  0  0  0  0  0  0  0  0  0  # atno 10763 bound_to 10752
  154.8153  135.3312  154.7195 H   0  0  0  0  0  0  0  0  0  0  0  0  # atno 10764 bound_to 10752
  153.7639  135.6989  153.4975 H   0  0  0  0  0  0  0  0  0  0  0  0  # atno 10765 bound_to 10752
  139.9220  134.7748  156.1625 H   0  0  0  0  0  0  0  0  0  0  0  0  # atno 11005 bound_to 11000
  145.5666  141.0399  143.2197 LP  0  0  0  0  0  0  0  0  0  0  0  0  # atno 17320 bound_to 7965
  144.7510  139.7193  143.7273 LP  0  0  0  0  0  0  0  0  0  0  0  0  # atno 17321 bound_to 7965
  139.5577  144.2234  152.1639 LP  0  0  0  0  0  0  0  0  0  0  0  0  # atno 17342 bound_to 10162
  140.1493  144.5129  150.6697 LP  0  0  0  0  0  0  0  0  0  0  0  0  # atno 17343 bound_to 10162
  157.6111  130.8584  149.8953 LP  0  0  0  0  0  0  0  0  0  0  0  0  # atno 17370 bound_to 10713
  156.0652  130.3693  150.0894 LP  0  0  0  0  0  0  0  0  0  0  0  0  # atno 17371 bound_to 10713
  141.0749  133.6780  156.2216 LP  0  0  0  0  0  0  0  0  0  0  0  0  # atno 17394 bound_to 11000
  140.6445  134.5131  157.5572 LP  0  0  0  0  0  0  0  0  0  0  0  0  # atno 17395 bound_to 11000

$$$$
