AV-unprocessed.smi:91|AV-procd|sdf|834|dock8
  -GOLD-   2262017263D 1   1.00000     0.00000
 Structure written by MMmdl.
 60 63  0  0  0  0  0  0  0  0  1 V2000
  155.8951  137.9508  152.8414 C   0  0  0  0  0  0  0  0  0  0  0  0
  155.9153  136.5601  152.5607 O   0  0  0  0  0  0  0  0  0  0  0  0
  156.9990  136.1457  151.7389 C   0  0  0  0  0  0  0  0  0  0  0  0
  158.2442  135.7527  152.5537 C   0  0  1  0  0  0  0  0  0  0  0  0
  157.9312  134.6687  153.6008 C   0  0  0  0  0  0  0  0  0  0  0  0
  159.1630  134.2037  154.2283 N   0  0  0  0  0  0  0  0  0  0  0  0
  159.0228  133.5550  155.4132 C   0  0  0  0  0  0  0  0  0  0  0  0
  159.7342  134.0333  156.4674 N   0  0  0  0  0  0  0  0  0  0  0  0
  159.6584  133.4429  157.6629 C   0  0  0  0  0  0  0  0  0  0  0  0
  158.9394  132.3793  158.0228 N   0  0  0  0  0  0  0  0  0  0  0  0
  158.2146  131.8955  156.9746 C   0  0  0  0  0  0  0  0  0  0  0  0
  158.1989  132.4116  155.6459 C   0  0  0  0  0  0  0  0  0  0  0  0
  157.3367  131.6483  154.8642 N   0  0  0  0  0  0  0  0  0  0  0  0
  156.8783  130.7371  155.6768 C   0  0  0  0  0  0  0  0  0  0  0  0
  157.3381  130.8243  156.9702 N   0  0  0  0  0  0  0  0  0  0  0  0
  156.9947  129.9447  158.0737 C   0  0  0  0  0  0  0  0  0  0  0  0
  155.5467  130.0978  158.6120 C   0  0  2  0  0  0  0  0  0  0  0  0
  154.6019  129.3633  157.6297 C   0  0  0  0  0  0  0  0  0  0  0  0
  154.8945  127.9840  157.5421 O   0  0  0  0  0  0  0  0  0  0  0  0
  155.1317  131.5841  158.8427 C   0  0  2  0  0  0  0  0  0  0  0  0
  156.1347  132.4424  159.6169 C   0  0  0  0  0  0  0  0  0  0  0  0
  155.2838  133.4114  160.4429 C   0  0  0  0  0  0  0  0  0  0  0  0
  153.9450  133.1647  160.0459 O   0  0  0  0  0  0  0  0  0  0  0  0
  153.8657  131.8005  159.6772 C   0  0  0  0  0  0  0  0  0  0  0  0
  160.1610  133.7384  153.2737 C   0  0  0  0  0  0  0  0  0  0  0  0
  160.4533  134.8150  152.2058 C   0  0  0  0  0  0  0  0  0  0  0  0
  161.2573  135.9986  152.7858 C   0  0  0  0  0  0  0  0  0  0  0  0
  161.2425  134.1912  151.0447 C   0  0  0  0  0  0  0  0  0  0  0  0
  159.2174  135.2571  151.6330 O   0  0  0  0  0  0  0  0  0  0  0  0
  155.0013  138.1897  153.4174 H   0  0  0  0  0  0  0  0  0  0  0  0
  155.8673  138.5399  151.9238 H   0  0  0  0  0  0  0  0  0  0  0  0
  156.7581  138.2592  153.4311 H   0  0  0  0  0  0  0  0  0  0  0  0
  156.6636  135.2837  151.1615 H   0  0  0  0  0  0  0  0  0  0  0  0
  157.2415  136.9224  151.0120 H   0  0  0  0  0  0  0  0  0  0  0  0
  158.6401  136.6390  153.0466 H   0  0  0  0  0  0  0  0  0  0  0  0
  157.2329  135.0680  154.3366 H   0  0  0  0  0  0  0  0  0  0  0  0
  157.4391  133.8181  153.1273 H   0  0  0  0  0  0  0  0  0  0  0  0
  160.2599  133.8868  158.4423 H   0  0  0  0  0  0  0  0  0  0  0  0
  156.1763  129.9811  155.3556 H   0  0  0  0  0  0  0  0  0  0  0  0
  157.1655  128.9140  157.7599 H   0  0  0  0  0  0  0  0  0  0  0  0
  157.7125  130.1430  158.8708 H   0  0  0  0  0  0  0  0  0  0  0  0
  155.4923  129.5728  159.5666 H   0  0  0  0  0  0  0  0  0  0  0  0
  153.5584  129.5033  157.9137 H   0  0  0  0  0  0  0  0  0  0  0  0
  154.7076  129.7629  156.6208 H   0  0  0  0  0  0  0  0  0  0  0  0
  154.6172  127.6707  156.6948 H   0  0  0  0  0  0  0  0  0  0  0  0
  154.9599  132.0537  157.8727 H   0  0  0  0  0  0  0  0  0  0  0  0
  156.7514  131.8396  160.2843 H   0  0  0  0  0  0  0  0  0  0  0  0
  156.7988  132.9844  158.9445 H   0  0  0  0  0  0  0  0  0  0  0  0
  155.3902  133.2033  161.5085 H   0  0  0  0  0  0  0  0  0  0  0  0
  155.5525  134.4540  160.2716 H   0  0  0  0  0  0  0  0  0  0  0  0
  152.9503  131.6006  159.1198 H   0  0  0  0  0  0  0  0  0  0  0  0
  153.8686  131.1832  160.5773 H   0  0  0  0  0  0  0  0  0  0  0  0
  161.0850  133.4718  153.7885 H   0  0  0  0  0  0  0  0  0  0  0  0
  159.7827  132.8351  152.7931 H   0  0  0  0  0  0  0  0  0  0  0  0
  162.2483  135.6759  153.1060 H   0  0  0  0  0  0  0  0  0  0  0  0
  160.7762  136.4448  153.6557 H   0  0  0  0  0  0  0  0  0  0  0  0
  161.3916  136.7843  152.0419 H   0  0  0  0  0  0  0  0  0  0  0  0
  162.2015  133.7973  151.3829 H   0  0  0  0  0  0  0  0  0  0  0  0
  161.4419  134.9253  150.2633 H   0  0  0  0  0  0  0  0  0  0  0  0
  160.6902  133.3691  150.5883 H   0  0  0  0  0  0  0  0  0  0  0  0
  1  2  1  0  0  0  0
  1 30  1  0  0  0  0
  1 31  1  0  0  0  0
  1 32  1  0  0  0  0
  2  3  1  0  0  0  0
  3  4  1  0  0  0  0
  3 33  1  0  0  0  0
  3 34  1  0  0  0  0
  4 29  1  0  0  0  0
  4  5  1  0  0  0  0
  4 35  1  0  0  0  0
  5  6  1  0  0  0  0
  5 36  1  0  0  0  0
  5 37  1  0  0  0  0
  6  7  1  0  0  0  0
  6 25  1  0  0  0  0
  7 12  1  0  0  0  0
  7  8  2  0  0  0  0
  8  9  1  0  0  0  0
  9 10  2  0  0  0  0
  9 38  1  0  0  0  0
 10 11  1  0  0  0  0
 11 15  1  0  0  0  0
 11 12  2  0  0  0  0
 12 13  1  0  0  0  0
 13 14  2  0  0  0  0
 14 15  1  0  0  0  0
 14 39  1  0  0  0  0
 15 16  1  0  0  0  0
 16 17  1  0  0  0  0
 16 40  1  0  0  0  0
 16 41  1  0  0  0  0
 17 18  1  0  0  0  0
 17 20  1  0  0  0  0
 17 42  1  0  0  0  0
 18 19  1  0  0  0  0
 18 43  1  0  0  0  0
 18 44  1  0  0  0  0
 19 45  1  0  0  0  0
 20 24  1  0  0  0  0
 20 21  1  0  0  0  0
 20 46  1  0  0  0  0
 21 22  1  0  0  0  0
 21 47  1  0  0  0  0
 21 48  1  0  0  0  0
 22 23  1  0  0  0  0
 22 49  1  0  0  0  0
 22 50  1  0  0  0  0
 23 24  1  0  0  0  0
 24 51  1  0  0  0  0
 24 52  1  0  0  0  0
 25 26  1  0  0  0  0
 25 53  1  0  0  0  0
 25 54  1  0  0  0  0
 26 27  1  0  0  0  0
 26 28  1  0  0  0  0
 26 29  1  0  0  0  0
 27 55  1  0  0  0  0
 27 56  1  0  0  0  0
 27 57  1  0  0  0  0
 28 58  1  0  0  0  0
 28 59  1  0  0  0  0
 28 60  1  0  0  0  0
M  END
> <s_m_source_file>
AV-unprocessed.smi

> <i_m_source_file_index>
91

> <i_lp_mmshare_version>
43012

> <i_f3d_flags>
0

> <s_epik_input>
W0NIM11PW0NIMl1bQ0BASF0oTzEpW0NIMl1OKFtDSDJdQzEoW0NIM10pW0NIM10pYyhuW2NIXW4yKWMoYzIzKW5bY0hdbjNbQ0gyXVtDQEhdKFtDSDJdW09IXSlbQ0BASF00W0NIMl1bQ0gyXU9bQ0gyXTQ=

> <s_epik_cmdline>
J2VwaWtfcHl0aG9uJywgJy1waCcsICc3LjAnLCAnLXRuJywgJzgnLCAnLW1hJywgJzIwMCcsICctbWV0YWxfYmluZGluZycsICctaW1hZScsICc8aW5maWxlLm1hZT4nLCAnLW9tYWUnLCAnPG91dGZpbGUubWFlPic=

> <r_lp_tautomer_probability>
1

> <r_epik_Ionization_Penalty>
8.63591e-05

> <r_epik_Ionization_Penalty_Charging>
0

> <r_epik_Ionization_Penalty_Neutral>
8.63591e-05

> <r_epik_State_Penalty>
-0

> <r_epik_Charging_Adjusted_Penalty>
0

> <i_epik_Tot_Q>
0

> <i_epik_Tot_abs_Q>
0

> <r_epik_Metal_State_Penalty>
-0

> <b_epik_Metal_Only>
0

> <s_lp_Force_Field>
OPLS_2005

> <r_lp_Energy>
49.706

> <b_lp_Chiralities_Consistent>
1

> <s_lp_Variant>
AV-unprocessed.smi:91-2

> <Gold.Version>
5.8.1

> <Gold.Id.Protein>
6NUR|6NUR_protein|mol2

> <Gold.PLP.Fitness>
48.9708

> <Gold.PLP.PLP>
-38.5059

> <Gold.PLP.part.hbond>
-3.9685

> <Gold.PLP.part.metal>
0.0000

> <Gold.PLP.part.buried>
-4.2852

> <Gold.PLP.part.nonpolar>
-31.4789

> <Gold.PLP.part.repulsive>
0.1934

> <Gold.PLP.ligand.clash>
0.0000

> <Gold.PLP.ligand.torsion>
0.9623

> <Gold.PLP.Chemscore.Hbond>
3.9425

> <Gold.PLP.Chemscore.CHOScore>
0.0000

> <Gold.PLP.Chemscore.Metal>
0.0000

> <Gold.Chemscore.Hbonds>
donor molecule, donor type, donor heavy atom, donor atom, acceptor molecule, acceptor atom, score
      P1  H  6896  6907       L1    23  0.02
      P1  H 10752 10764       L1     2  1.00

> <Gold.PLP.Chemscore.Internal.Correction>
0.5620

> <Gold.Rescore>
     Score         DG    S(hbond)    S(metal)    S(lipo)     H(rot)  DE(clash)    DE(int)     intcor
     20.86     -22.15       3.55        0.00     107.32       3.03       0.12       1.16       ----

> <Gold.Chemscore.Fitness>
20.8633

> <Gold.Chemscore.DG>
-22.1502

> <Gold.Chemscore.ZeroCoef>
-5.4800

> <Gold.Chemscore.Hbond>
3.5528

> <Gold.Chemscore.Metal>
0.0000

> <Gold.Chemscore.Lipo>
107.3223

> <Gold.Chemscore.Internal_Hbond>
0.0000

> <Gold.Chemscore.DEClash>
0.1238

> <Gold.Chemscore.DEInternal>
1.1631

> <Gold.Chemscore.Rot>
3.0284

> <Gold.Chemscore.Internal.Correction>
   9.000000E+99

> <Gold.Chemscore.Hbonds>
donor molecule, donor type, donor heavy atom, donor atom, acceptor molecule, acceptor atom, score
      P1  H 10752 10764       L1     2  0.73

> <Gold.Chemscore.Hbond.Weighted>
-11.8663

> <Gold.Chemscore.Metal.Weighted>
-0.0000

> <Gold.Chemscore.Lipo.Weighted>
-12.5567

> <Gold.Chemscore.Internal_Hbond.Weighted>
0.0000

> <Gold.Chemscore.DEClash.Weighted>
0.1238

> <Gold.Chemscore.DEInternal.Weighted>
1.1631

> <Gold.Chemscore.Rot.Weighted>
7.7528

> <Gold.Chemscore.Internal.Correction.Weighted>
   9.000000E+99

> <Gold.Protein.RotatedTorsions>
[ 6907 6896 6895 6894 ] final  164.93 input  -60.11 | X-H torsion
[ 7974 7965 7964 7962 ] final -135.00 input  175.53 | X-H torsion
[ 8008 7997 7996 7995 ] final   16.07 input   59.86 | X-H torsion
[ 10167 10162 10161 10158 ] final  -25.47 input  -65.29 | X-H torsion
[ 10718 10713 10712 10709 ] final -153.94 input   66.30 | X-H torsion
[ 10763 10752 10751 10750 ] final  141.03 input  -60.55 | X-H torsion
[ 11005 11000 10999 10996 ] final -129.20 input  -57.11 | X-H torsion

> <Gold.Protein.ActiveResidues>
 VAL166  LYS551  ARG553  GLY616  TRP617  ASP618  TYR619  PRO620  LYS621  CYS622 
 ASP623  PHE694  ASN695  SER759  ASP760  ASP761  ALA762  ILE779  LEU786  VAL792 
 PHE793  MET794  SER795  GLU796  ALA797  LYS798  CYS799  TRP800  GLU811  SER814 

> <Gold.Protein.RotatedAtoms>
  151.9023  133.3541  159.3834 H   0  0  0  0  0  0  0  0  0  0  0  0  # atno 6907 bound_to 6896
  150.7077  134.4816  159.5482 H   0  0  0  0  0  0  0  0  0  0  0  0  # atno 6908 bound_to 6896
  152.2406  134.8232  160.0511 H   0  0  0  0  0  0  0  0  0  0  0  0  # atno 6909 bound_to 6896
  144.9052  140.6824  143.5059 H   0  0  0  0  0  0  0  0  0  0  0  0  # atno 7974 bound_to 7965
  154.8717  140.2960  155.5477 H   0  0  0  0  0  0  0  0  0  0  0  0  # atno 8008 bound_to 7997
  156.3021  140.2459  156.3640 H   0  0  0  0  0  0  0  0  0  0  0  0  # atno 8009 bound_to 7997
  154.8809  140.0398  157.1771 H   0  0  0  0  0  0  0  0  0  0  0  0  # atno 8010 bound_to 7997
  140.7286  143.4262  151.0873 H   0  0  0  0  0  0  0  0  0  0  0  0  # atno 10167 bound_to 10162
  156.4926  130.8354  151.2576 H   0  0  0  0  0  0  0  0  0  0  0  0  # atno 10718 bound_to 10713
  153.9324  135.2988  155.3445 H   0  0  0  0  0  0  0  0  0  0  0  0  # atno 10763 bound_to 10752
  154.7520  135.4976  153.9309 H   0  0  0  0  0  0  0  0  0  0  0  0  # atno 10764 bound_to 10752
  153.1084  135.6753  153.9649 H   0  0  0  0  0  0  0  0  0  0  0  0  # atno 10765 bound_to 10752
  140.9452  134.1140  157.4114 H   0  0  0  0  0  0  0  0  0  0  0  0  # atno 11005 bound_to 11000
  145.3547  139.1697  143.4415 LP  0  0  0  0  0  0  0  0  0  0  0  0  # atno 17320 bound_to 7965
  146.3130  140.3603  142.8664 LP  0  0  0  0  0  0  0  0  0  0  0  0  # atno 17321 bound_to 7965
  139.7914  143.8214  152.3152 LP  0  0  0  0  0  0  0  0  0  0  0  0  # atno 17342 bound_to 10162
  139.8199  144.7300  150.9587 LP  0  0  0  0  0  0  0  0  0  0  0  0  # atno 17343 bound_to 10162
  157.7472  131.0008  150.2941 LP  0  0  0  0  0  0  0  0  0  0  0  0  # atno 17370 bound_to 10713
  156.3411  130.3815  149.7408 LP  0  0  0  0  0  0  0  0  0  0  0  0  # atno 17371 bound_to 10713
  139.8831  135.0049  156.6278 LP  0  0  0  0  0  0  0  0  0  0  0  0  # atno 17394 bound_to 11000
  140.7680  133.8762  155.8469 LP  0  0  0  0  0  0  0  0  0  0  0  0  # atno 17395 bound_to 11000

$$$$
