AV-unprocessed.smi:671|AV-procd|sdf|3277|dock1
  -GOLD-   22720 0233D 1   1.00000     0.00000
 Structure written by MMmdl.
 49 50  0  0  0  0  0  0  0  0  1 V2000
  153.1053  138.2289  155.4630 C   0  0  0  0  0  0  0  0  0  0  0  0
  151.6862  138.6014  155.1395 C   0  0  0  0  0  0  0  0  0  0  0  0
  151.3820  139.8776  154.9758 N   0  0  0  0  0  0  0  0  0  0  0  0
  150.0616  139.8851  154.7041 N   0  0  0  0  0  0  0  0  0  0  0  0
  149.3914  141.1490  154.4675 C   0  0  0  0  0  0  0  0  0  0  0  0
  149.5301  138.6103  154.6942 C   0  0  0  0  0  0  0  0  0  0  0  0
  148.0839  138.3550  154.4146 C   0  0  0  0  0  0  0  0  0  0  0  0
  150.5560  137.7469  154.9732 C   0  0  0  0  0  0  0  0  0  0  0  0
  150.5240  136.2442  155.0850 C   0  0  0  0  0  0  0  0  0  0  0  0
  149.1256  135.7138  155.4735 C   0  0  2  0  0  0  0  0  0  0  0  0
  149.1955  134.5543  156.4795 C   0  0  0  0  0  0  0  0  0  0  0  0
  148.3988  135.2635  154.2831 N   0  0  0  0  0  0  0  0  0  0  0  0
  147.1624  134.7361  154.2145 C   0  0  0  0  0  0  0  0  0  0  0  0
  146.4740  134.5619  155.2180 O   0  0  0  0  0  0  0  0  0  0  0  0
  146.7629  134.4168  152.9719 N   0  0  0  0  0  0  0  0  0  0  0  0
  145.4898  133.8033  152.5971 C   0  0  2  0  0  0  0  0  0  0  0  0
  145.6562  132.2733  152.5112 C   0  0  0  0  0  0  0  0  0  0  0  0
  145.5692  131.8958  151.0254 C   0  0  0  0  0  0  0  0  0  0  0  0
  145.6520  133.2119  150.2525 C   0  0  0  0  0  0  0  0  0  0  0  0
  145.0247  134.2412  151.1931 C   0  0  2  0  0  0  0  0  0  0  0  0
  145.3093  135.7010  150.7999 C   0  0  0  0  0  0  0  0  0  0  0  0
  153.2414  137.1487  155.4796 H   0  0  0  0  0  0  0  0  0  0  0  0
  153.3978  138.6114  156.4409 H   0  0  0  0  0  0  0  0  0  0  0  0
  153.7968  138.6344  154.7244 H   0  0  0  0  0  0  0  0  0  0  0  0
  149.0092  141.1755  153.4469 H   0  0  0  0  0  0  0  0  0  0  0  0
  150.0801  141.9834  154.6080 H   0  0  0  0  0  0  0  0  0  0  0  0
  148.5592  141.2585  155.1632 H   0  0  0  0  0  0  0  0  0  0  0  0
  147.8831  137.2905  154.2979 H   0  0  0  0  0  0  0  0  0  0  0  0
  147.7717  138.8520  153.4958 H   0  0  0  0  0  0  0  0  0  0  0  0
  147.4617  138.7263  155.2291 H   0  0  0  0  0  0  0  0  0  0  0  0
  150.8335  135.8064  154.1358 H   0  0  0  0  0  0  0  0  0  0  0  0
  151.2592  135.8885  155.8074 H   0  0  0  0  0  0  0  0  0  0  0  0
  148.5567  136.5159  155.9465 H   0  0  0  0  0  0  0  0  0  0  0  0
  149.6591  134.8665  157.4155 H   0  0  0  0  0  0  0  0  0  0  0  0
  149.7740  133.7188  156.0840 H   0  0  0  0  0  0  0  0  0  0  0  0
  148.1985  134.1844  156.7210 H   0  0  0  0  0  0  0  0  0  0  0  0
  148.8995  135.3441  153.4099 H   0  0  0  0  0  0  0  0  0  0  0  0
  147.4051  134.6058  152.2165 H   0  0  0  0  0  0  0  0  0  0  0  0
  144.7240  134.0505  153.3345 H   0  0  0  0  0  0  0  0  0  0  0  0
  146.6042  131.9445  152.9398 H   0  0  0  0  0  0  0  0  0  0  0  0
  144.8686  131.7681  153.0708 H   0  0  0  0  0  0  0  0  0  0  0  0
  146.3522  131.1970  150.7295 H   0  0  0  0  0  0  0  0  0  0  0  0
  144.6103  131.4157  150.8273 H   0  0  0  0  0  0  0  0  0  0  0  0
  146.6967  133.4643  150.0659 H   0  0  0  0  0  0  0  0  0  0  0  0
  145.1457  133.1603  149.2883 H   0  0  0  0  0  0  0  0  0  0  0  0
  143.9436  134.0963  151.1558 H   0  0  0  0  0  0  0  0  0  0  0  0
  146.3787  135.9051  150.7371 H   0  0  0  0  0  0  0  0  0  0  0  0
  144.8779  136.3911  151.5253 H   0  0  0  0  0  0  0  0  0  0  0  0
  144.8755  135.9308  149.8265 H   0  0  0  0  0  0  0  0  0  0  0  0
  1  2  1  0  0  0  0
  1 22  1  0  0  0  0
  1 23  1  0  0  0  0
  1 24  1  0  0  0  0
  2  8  1  0  0  0  0
  2  3  2  0  0  0  0
  3  4  1  0  0  0  0
  4  5  1  0  0  0  0
  4  6  1  0  0  0  0
  5 25  1  0  0  0  0
  5 26  1  0  0  0  0
  5 27  1  0  0  0  0
  6  7  1  0  0  0  0
  6  8  2  0  0  0  0
  7 28  1  0  0  0  0
  7 29  1  0  0  0  0
  7 30  1  0  0  0  0
  8  9  1  0  0  0  0
  9 10  1  0  0  0  0
  9 31  1  0  0  0  0
  9 32  1  0  0  0  0
 10 11  1  0  0  0  0
 10 12  1  0  0  0  0
 10 33  1  0  0  0  0
 11 34  1  0  0  0  0
 11 35  1  0  0  0  0
 11 36  1  0  0  0  0
 12 13  1  0  0  0  0
 12 37  1  0  0  0  0
 13 14  2  0  0  0  0
 13 15  1  0  0  0  0
 15 16  1  0  0  0  0
 15 38  1  0  0  0  0
 16 20  1  0  0  0  0
 16 17  1  0  0  0  0
 16 39  1  0  0  0  0
 17 18  1  0  0  0  0
 17 40  1  0  0  0  0
 17 41  1  0  0  0  0
 18 19  1  0  0  0  0
 18 42  1  0  0  0  0
 18 43  1  0  0  0  0
 19 20  1  0  0  0  0
 19 44  1  0  0  0  0
 19 45  1  0  0  0  0
 20 21  1  0  0  0  0
 20 46  1  0  0  0  0
 21 47  1  0  0  0  0
 21 48  1  0  0  0  0
 21 49  1  0  0  0  0
M  END
> <s_m_source_file>
AV-unprocessed.smi

> <i_m_source_file_index>
671

> <i_lp_mmshare_version>
43012

> <i_f3d_flags>
0

> <s_epik_input>
W0NIM11jMW5uKFtDSDNdKWMoW0NIM10pYzFbQ0gyXVtDQEhdKFtDSDNdKVtOSF1DKD1PKVtOSF1bQ0BASF0yW0NIMl1bQ0gyXVtDSDJdW0NASF0yW0NIM10=

> <s_epik_cmdline>
J2VwaWtfcHl0aG9uJywgJy1waCcsICc3LjAnLCAnLXRuJywgJzgnLCAnLW1hJywgJzIwMCcsICctbWV0YWxfYmluZGluZycsICctaW1hZScsICc8aW5maWxlLm1hZT4nLCAnLW9tYWUnLCAnPG91dGZpbGUubWFlPic=

> <r_lp_tautomer_probability>
1

> <r_epik_Ionization_Penalty>
0.0126855

> <r_epik_Ionization_Penalty_Charging>
0

> <r_epik_Ionization_Penalty_Neutral>
0.0126855

> <r_epik_State_Penalty>
0.00977547

> <r_epik_Charging_Adjusted_Penalty>
0.00977547

> <i_epik_Tot_Q>
0

> <i_epik_Tot_abs_Q>
0

> <r_epik_Metal_State_Penalty>
0.00957132

> <b_epik_Metal_Only>
0

> <s_lp_Force_Field>
OPLS_2005

> <r_lp_Energy>
22.3824

> <b_lp_Chiralities_Consistent>
1

> <s_lp_Variant>
AV-unprocessed.smi:671-5

> <Gold.Version>
5.8.1

> <Gold.Id.Protein>
6NUR|6NUR_protein|mol2

> <Gold.PLP.Fitness>
42.7478

> <Gold.PLP.PLP>
-38.2722

> <Gold.PLP.part.hbond>
-2.6696

> <Gold.PLP.part.metal>
0.0000

> <Gold.PLP.part.buried>
-2.3314

> <Gold.PLP.part.nonpolar>
-32.3197

> <Gold.PLP.part.repulsive>
0.1092

> <Gold.PLP.ligand.clash>
0.0000

> <Gold.PLP.ligand.torsion>
1.2786

> <Gold.PLP.Chemscore.Hbond>
2.3254

> <Gold.PLP.Chemscore.CHOScore>
0.0000

> <Gold.PLP.Chemscore.Metal>
0.0000

> <Gold.Chemscore.Hbonds>
donor molecule, donor type, donor heavy atom, donor atom, acceptor molecule, acceptor atom, score
      L1  H    12    37       P1  7948  0.91
      L1  H    15    38       P1  7948  0.35
      P1  H  7989  7998       L1     3  0.45

> <Gold.PLP.Chemscore.Internal.Correction>
0.0567

> <Gold.Rescore>
     Score         DG    S(hbond)    S(metal)    S(lipo)     H(rot)  DE(clash)    DE(int)     intcor
     13.95     -15.48       0.82        0.00      93.87       1.45       0.18       1.35       ----

> <Gold.Chemscore.Fitness>
13.9494

> <Gold.Chemscore.DG>
-15.4754

> <Gold.Chemscore.ZeroCoef>
-5.4800

> <Gold.Chemscore.Hbond>
0.8157

> <Gold.Chemscore.Metal>
0.0000

> <Gold.Chemscore.Lipo>
93.8701

> <Gold.Chemscore.Internal_Hbond>
0.0000

> <Gold.Chemscore.DEClash>
0.1776

> <Gold.Chemscore.DEInternal>
1.3484

> <Gold.Chemscore.Rot>
1.4499

> <Gold.Chemscore.Internal.Correction>
   9.000000E+99

> <Gold.Chemscore.Hbonds>
donor molecule, donor type, donor heavy atom, donor atom, acceptor molecule, acceptor atom, score
      L1  H    12    37       P1  7948  0.62
      L1  H    15    38       P1  7948  0.29
      P1  H  7989  7998       L1     3  0.02

> <Gold.Chemscore.Hbond.Weighted>
-2.7244

> <Gold.Chemscore.Metal.Weighted>
-0.0000

> <Gold.Chemscore.Lipo.Weighted>
-10.9828

> <Gold.Chemscore.Internal_Hbond.Weighted>
0.0000

> <Gold.Chemscore.DEClash.Weighted>
0.1776

> <Gold.Chemscore.DEInternal.Weighted>
1.3484

> <Gold.Chemscore.Rot.Weighted>
3.7118

> <Gold.Chemscore.Internal.Correction.Weighted>
   9.000000E+99

> <Gold.Protein.RotatedTorsions>
[ 6907 6896 6895 6894 ] final -176.42 input  -60.11 | X-H torsion
[ 7974 7965 7964 7962 ] final  167.35 input  175.53 | X-H torsion
[ 8008 7997 7996 7995 ] final  171.65 input   59.86 | X-H torsion
[ 10167 10162 10161 10158 ] final  -48.18 input  -65.29 | X-H torsion
[ 10718 10713 10712 10709 ] final  164.08 input   66.30 | X-H torsion
[ 10763 10752 10751 10750 ] final  172.32 input  -60.55 | X-H torsion
[ 11005 11000 10999 10996 ] final -179.38 input  -57.11 | X-H torsion

> <Gold.Protein.ActiveResidues>
 VAL166  LYS551  ARG553  GLY616  TRP617  ASP618  TYR619  PRO620  LYS621  CYS622 
 ASP623  PHE694  ASN695  SER759  ASP760  ASP761  ALA762  ILE779  LEU786  VAL792 
 PHE793  MET794  SER795  GLU796  ALA797  LYS798  CYS799  TRP800  GLU811  SER814 

> <Gold.Protein.RotatedAtoms>
  151.6046  133.3353  159.3054 H   0  0  0  0  0  0  0  0  0  0  0  0  # atno 6907 bound_to 6896
  150.8189  134.7390  159.6766 H   0  0  0  0  0  0  0  0  0  0  0  0  # atno 6908 bound_to 6896
  152.4284  134.5830  160.0004 H   0  0  0  0  0  0  0  0  0  0  0  0  # atno 6909 bound_to 6896
  144.7427  139.8749  143.6392 H   0  0  0  0  0  0  0  0  0  0  0  0  # atno 7974 bound_to 7965
  156.1250  140.1506  156.9149 H   0  0  0  0  0  0  0  0  0  0  0  0  # atno 8008 bound_to 7997
  154.4865  140.0864  156.7538 H   0  0  0  0  0  0  0  0  0  0  0  0  # atno 8009 bound_to 7997
  155.4359  140.3429  155.4287 H   0  0  0  0  0  0  0  0  0  0  0  0  # atno 8010 bound_to 7997
  140.6742  143.2751  151.4034 H   0  0  0  0  0  0  0  0  0  0  0  0  # atno 10167 bound_to 10162
  157.0994  131.0439  151.2504 H   0  0  0  0  0  0  0  0  0  0  0  0  # atno 10718 bound_to 10713
  154.4244  135.2758  155.1954 H   0  0  0  0  0  0  0  0  0  0  0  0  # atno 10763 bound_to 10752
  154.3886  135.6071  153.5834 H   0  0  0  0  0  0  0  0  0  0  0  0  # atno 10764 bound_to 10752
  152.9834  135.5898  154.4545 H   0  0  0  0  0  0  0  0  0  0  0  0  # atno 10765 bound_to 10752
  140.4193  134.6620  157.4656 H   0  0  0  0  0  0  0  0  0  0  0  0  # atno 11005 bound_to 11000
  146.1253  139.4279  143.0202 LP  0  0  0  0  0  0  0  0  0  0  0  0  # atno 17320 bound_to 7965
  145.7243  141.0064  143.1385 LP  0  0  0  0  0  0  0  0  0  0  0  0  # atno 17321 bound_to 7965
  139.6026  144.1264  152.2214 LP  0  0  0  0  0  0  0  0  0  0  0  0  # atno 17342 bound_to 10162
  140.0653  144.5823  150.7232 LP  0  0  0  0  0  0  0  0  0  0  0  0  # atno 17343 bound_to 10162
  157.4654  130.7677  149.7274 LP  0  0  0  0  0  0  0  0  0  0  0  0  # atno 17370 bound_to 10713
  155.9877  130.3964  150.3150 LP  0  0  0  0  0  0  0  0  0  0  0  0  # atno 17371 bound_to 10713
  140.0211  134.6545  155.9238 LP  0  0  0  0  0  0  0  0  0  0  0  0  # atno 17394 bound_to 11000
  141.1790  133.6544  156.4944 LP  0  0  0  0  0  0  0  0  0  0  0  0  # atno 17395 bound_to 11000

$$$$
