AV-unprocessed.smi:1252|AV-procd|sdf|5266|dock10
  -GOLD-   22720 4383D 1   1.00000     0.00000
 Structure written by MMmdl.
 44 45  0  0  0  0  0  0  0  0  2 V2000
  149.2721  141.1029  154.3504 C   0  0  0  0  0  0  0  0  0  0  0  0
  149.1648  139.5959  154.0513 C   0  0  2  0  0  0  0  0  0  0  0  0
  147.9126  138.9458  154.6585 C   0  0  0  0  0  0  0  0  0  0  0  0
  147.2562  139.5172  155.5292 O   0  0  0  0  0  0  0  0  0  0  0  0
  147.6240  137.7153  154.2084 N   0  0  0  0  0  0  0  0  0  0  0  0
  146.6144  136.8125  154.7563 C   0  0  0  0  0  0  0  0  0  0  0  0
  145.9572  135.9048  153.6719 C   0  0  0  0  0  0  0  0  0  0  0  0
  144.6620  135.3085  154.2777 C   0  0  0  0  0  0  0  0  0  0  0  0
  145.5495  136.7927  152.4739 C   0  0  0  0  0  0  0  0  0  0  0  0
  146.8981  134.8011  153.2562 N   0  3  0  0  0  0  0  0  0  0  0  0
  147.6051  134.0919  154.3597 C   0  0  0  0  0  0  0  0  0  0  0  0
  148.6479  133.1114  153.7957 C   0  0  0  0  0  0  0  0  0  0  0  0
  148.0234  132.1932  152.9099 O   0  0  0  0  0  0  0  0  0  0  0  0
  147.4275  132.8535  151.8027 C   0  0  0  0  0  0  0  0  0  0  0  0
  146.3302  133.8046  152.3055 C   0  0  0  0  0  0  0  0  0  0  0  0
  150.3513  138.8826  154.5077 N   0  0  0  0  0  0  0  0  0  0  0  0
  150.6425  137.5787  154.5066 C   0  0  0  0  0  0  0  0  0  0  0  0
  151.8566  137.2998  154.9590 N   0  0  0  0  0  0  0  0  0  0  0  0
  152.2869  138.5624  155.2522 C   0  0  0  0  0  0  0  0  0  0  0  0
  151.4314  139.5482  154.9828 N   0  0  0  0  0  0  0  0  0  0  0  0
  148.4076  141.6435  153.9633 H   0  0  0  0  0  0  0  0  0  0  0  0
  150.1592  141.5295  153.8814 H   0  0  0  0  0  0  0  0  0  0  0  0
  149.3377  141.3017  155.4209 H   0  0  0  0  0  0  0  0  0  0  0  0
  149.0951  139.4792  152.9683 H   0  0  0  0  0  0  0  0  0  0  0  0
  148.2058  137.3451  153.4705 H   0  0  0  0  0  0  0  0  0  0  0  0
  147.0338  136.2122  155.5657 H   0  0  0  0  0  0  0  0  0  0  0  0
  145.8604  137.4353  155.2378 H   0  0  0  0  0  0  0  0  0  0  0  0
  144.0589  136.0775  154.7617 H   0  0  0  0  0  0  0  0  0  0  0  0
  144.8776  134.5451  155.0257 H   0  0  0  0  0  0  0  0  0  0  0  0
  144.0220  134.8562  153.5200 H   0  0  0  0  0  0  0  0  0  0  0  0
  144.8426  137.5626  152.7859 H   0  0  0  0  0  0  0  0  0  0  0  0
  145.0651  136.2196  151.6837 H   0  0  0  0  0  0  0  0  0  0  0  0
  146.4014  137.3103  152.0338 H   0  0  0  0  0  0  0  0  0  0  0  0
  148.1320  134.7875  155.0101 H   0  0  0  0  0  0  0  0  0  0  0  0
  146.8887  133.5496  154.9771 H   0  0  0  0  0  0  0  0  0  0  0  0
  149.4460  133.6459  153.2798 H   0  0  0  0  0  0  0  0  0  0  0  0
  149.1150  132.5538  154.6077 H   0  0  0  0  0  0  0  0  0  0  0  0
  148.1827  133.3943  151.2303 H   0  0  0  0  0  0  0  0  0  0  0  0
  146.9988  132.1048  151.1364 H   0  0  0  0  0  0  0  0  0  0  0  0
  145.5472  133.2229  152.7927 H   0  0  0  0  0  0  0  0  0  0  0  0
  145.8787  134.2894  151.4420 H   0  0  0  0  0  0  0  0  0  0  0  0
  149.9581  136.8207  154.1542 H   0  0  0  0  0  0  0  0  0  0  0  0
  153.2674  138.7630  155.6582 H   0  0  0  0  0  0  0  0  0  0  0  0
  147.6285  135.2729  152.7421 H   0  0  0  0  0  0  0  0  0  0  0  0
  1  2  1  0  0  0  0
  1 21  1  0  0  0  0
  1 22  1  0  0  0  0
  1 23  1  0  0  0  0
  2  3  1  0  0  0  0
  2 16  1  0  0  0  0
  2 24  1  0  0  0  0
  3  4  2  0  0  0  0
  3  5  1  0  0  0  0
  5  6  1  0  0  0  0
  5 25  1  0  0  0  0
  6  7  1  0  0  0  0
  6 26  1  0  0  0  0
  6 27  1  0  0  0  0
  7  8  1  0  0  0  0
  7  9  1  0  0  0  0
  7 10  1  0  0  0  0
  8 28  1  0  0  0  0
  8 29  1  0  0  0  0
  8 30  1  0  0  0  0
  9 31  1  0  0  0  0
  9 32  1  0  0  0  0
  9 33  1  0  0  0  0
 10 15  1  0  0  0  0
 10 11  1  0  0  0  0
 10 44  1  0  0  0  0
 11 12  1  0  0  0  0
 11 34  1  0  0  0  0
 11 35  1  0  0  0  0
 12 13  1  0  0  0  0
 12 36  1  0  0  0  0
 12 37  1  0  0  0  0
 13 14  1  0  0  0  0
 14 15  1  0  0  0  0
 14 38  1  0  0  0  0
 14 39  1  0  0  0  0
 15 40  1  0  0  0  0
 15 41  1  0  0  0  0
 16 20  1  0  0  0  0
 16 17  1  0  0  0  0
 17 18  2  0  0  0  0
 17 42  1  0  0  0  0
 18 19  1  0  0  0  0
 19 20  2  0  0  0  0
 19 43  1  0  0  0  0
M  CHG  1  10   1
M  END
> <s_m_source_file>
AV-unprocessed.smi

> <i_m_source_file_index>
1252

> <i_lp_mmshare_version>
43012

> <i_f3d_flags>
0

> <s_epik_input>
bjFbY0hdbltjSF1uMVtDQEhdKFtDSDNdKUMoPU8pW05IXVtDSDJdQyhbQ0gzXSkoW0NIM10pTjJbQ0gyXVtDSDJdT1tDSDJdW0NIMl0y

> <s_epik_cmdline>
J2VwaWtfcHl0aG9uJywgJy1waCcsICc3LjAnLCAnLXRuJywgJzgnLCAnLW1hJywgJzIwMCcsICctbWV0YWxfYmluZGluZycsICctaW1hZScsICc8aW5maWxlLm1hZT4nLCAnLW9tYWUnLCAnPG91dGZpbGUubWFlPic=

> <r_lp_tautomer_probability>
1

> <r_epik_Ionization_Penalty>
0.71326

> <r_epik_Ionization_Penalty_Charging>
0.713252

> <r_epik_Ionization_Penalty_Neutral>
8.22342e-06

> <r_epik_State_Penalty>
0.737017

> <r_epik_Charging_Adjusted_Penalty>
1.45027

> <i_epik_Tot_Q>
1

> <i_epik_Tot_abs_Q>
1

> <r_epik_Metal_State_Penalty>
0.73702

> <b_epik_Metal_Only>
0

> <s_lp_Force_Field>
OPLS_2005

> <r_lp_Energy>
34.1677

> <b_lp_Chiralities_Consistent>
1

> <s_lp_Variant>
AV-unprocessed.smi:1252-3

> <Gold.Version>
5.8.1

> <Gold.Id.Protein>
6NUR|6NUR_protein|mol2

> <Gold.PLP.Fitness>
42.6326

> <Gold.PLP.PLP>
-27.0895

> <Gold.PLP.part.hbond>
-3.9548

> <Gold.PLP.part.metal>
0.0000

> <Gold.PLP.part.buried>
-0.0805

> <Gold.PLP.part.nonpolar>
-24.5125

> <Gold.PLP.part.repulsive>
0.7679

> <Gold.PLP.ligand.clash>
0.0000

> <Gold.PLP.ligand.torsion>
0.9098

> <Gold.PLP.Chemscore.Hbond>
4.7265

> <Gold.PLP.Chemscore.CHOScore>
1.0000

> <Gold.PLP.Chemscore.Metal>
0.0000

> <Gold.Chemscore.Hbonds>
donor molecule, donor type, donor heavy atom, donor atom, acceptor molecule, acceptor atom, score
      L1  H     5    25       P1  7948  0.86
      L1  H    10    44       P1  7948  2.00
      P1  H  7989  7998       L1    20  0.95
      P1  H 10752 10765       L1    18  0.74
      L1  C    17    42       P1  7948  0.99

> <Gold.PLP.Chemscore.Internal.Correction>
0.1832

> <Gold.Rescore>
     Score         DG    S(hbond)    S(metal)    S(lipo)     H(rot)  DE(clash)    DE(int)     intcor
     12.53     -14.12       2.87        0.00      48.38       2.59       0.81       0.78       ----

> <Gold.Chemscore.Fitness>
12.5291

> <Gold.Chemscore.DG>
-14.1216

> <Gold.Chemscore.ZeroCoef>
-5.4800

> <Gold.Chemscore.Hbond>
2.8749

> <Gold.Chemscore.Metal>
0.0000

> <Gold.Chemscore.Lipo>
48.3820

> <Gold.Chemscore.Internal_Hbond>
0.0000

> <Gold.Chemscore.DEClash>
0.8103

> <Gold.Chemscore.DEInternal>
0.7823

> <Gold.Chemscore.Rot>
2.5864

> <Gold.Chemscore.Internal.Correction>
   9.000000E+99

> <Gold.Chemscore.Hbonds>
donor molecule, donor type, donor heavy atom, donor atom, acceptor molecule, acceptor atom, score
      L1  H     5    25       P1  7948  0.84
      L1  H    10    44       P1  7948  1.00
      P1  H  7989  7998       L1    20  0.21
      P1  H 10752 10765       L1    18  0.70

> <Gold.Chemscore.Hbond.Weighted>
-9.6021

> <Gold.Chemscore.Metal.Weighted>
-0.0000

> <Gold.Chemscore.Lipo.Weighted>
-5.6607

> <Gold.Chemscore.Internal_Hbond.Weighted>
0.0000

> <Gold.Chemscore.DEClash.Weighted>
0.8103

> <Gold.Chemscore.DEInternal.Weighted>
0.7823

> <Gold.Chemscore.Rot.Weighted>
6.6211

> <Gold.Chemscore.Internal.Correction.Weighted>
   9.000000E+99

> <Gold.Protein.RotatedTorsions>
[ 6907 6896 6895 6894 ] final   61.35 input  -60.11 | X-H torsion
[ 7974 7965 7964 7962 ] final  133.99 input  175.53 | X-H torsion
[ 8008 7997 7996 7995 ] final  127.42 input   59.86 | X-H torsion
[ 10167 10162 10161 10158 ] final  168.94 input  -65.29 | X-H torsion
[ 10718 10713 10712 10709 ] final  -33.14 input   66.30 | X-H torsion
[ 10763 10752 10751 10750 ] final -167.55 input  -60.55 | X-H torsion
[ 11005 11000 10999 10996 ] final  -24.45 input  -57.11 | X-H torsion

> <Gold.Protein.ActiveResidues>
 VAL166  LYS551  ARG553  GLY616  TRP617  ASP618  TYR619  PRO620  LYS621  CYS622 
 ASP623  PHE694  ASN695  SER759  ASP760  ASP761  ALA762  ILE779  LEU786  VAL792 
 PHE793  MET794  SER795  GLU796  ALA797  LYS798  CYS799  TRP800  GLU811  SER814 

> <Gold.Protein.RotatedAtoms>
  152.4082  134.6171  160.0040 H   0  0  0  0  0  0  0  0  0  0  0  0  # atno 6907 bound_to 6896
  151.6356  133.3323  159.3126 H   0  0  0  0  0  0  0  0  0  0  0  0  # atno 6908 bound_to 6896
  150.7975  134.7085  159.6635 H   0  0  0  0  0  0  0  0  0  0  0  0  # atno 6909 bound_to 6896
  144.9809  139.4505  143.5386 H   0  0  0  0  0  0  0  0  0  0  0  0  # atno 7974 bound_to 7965
  156.2890  140.2669  156.2270 H   0  0  0  0  0  0  0  0  0  0  0  0  # atno 8008 bound_to 7997
  155.0110  140.0387  157.2417 H   0  0  0  0  0  0  0  0  0  0  0  0  # atno 8009 bound_to 7997
  154.7518  140.2744  155.6291 H   0  0  0  0  0  0  0  0  0  0  0  0  # atno 8010 bound_to 7997
  139.4980  144.3760  151.9673 H   0  0  0  0  0  0  0  0  0  0  0  0  # atno 10167 bound_to 10162
  156.3663  130.4332  149.7582 H   0  0  0  0  0  0  0  0  0  0  0  0  # atno 10718 bound_to 10713
  154.6720  135.2941  154.9729 H   0  0  0  0  0  0  0  0  0  0  0  0  # atno 10763 bound_to 10752
  154.0753  135.6612  153.4834 H   0  0  0  0  0  0  0  0  0  0  0  0  # atno 10764 bound_to 10752
  153.0493  135.5184  154.7721 H   0  0  0  0  0  0  0  0  0  0  0  0  # atno 10765 bound_to 10752
  140.8847  133.7630  156.0345 H   0  0  0  0  0  0  0  0  0  0  0  0  # atno 11005 bound_to 11000
  146.3408  139.9081  142.8784 LP  0  0  0  0  0  0  0  0  0  0  0  0  # atno 17320 bound_to 7965
  145.2422  141.0013  143.3929 LP  0  0  0  0  0  0  0  0  0  0  0  0  # atno 17321 bound_to 7965
  140.3196  144.3443  150.6013 LP  0  0  0  0  0  0  0  0  0  0  0  0  # atno 17342 bound_to 10162
  140.5733  143.2179  151.7560 LP  0  0  0  0  0  0  0  0  0  0  0  0  # atno 17343 bound_to 10162
  156.4726  130.8004  151.3021 LP  0  0  0  0  0  0  0  0  0  0  0  0  # atno 17370 bound_to 10713
  157.7479  131.0031  150.3025 LP  0  0  0  0  0  0  0  0  0  0  0  0  # atno 17371 bound_to 10713
  140.8420  134.3056  157.5310 LP  0  0  0  0  0  0  0  0  0  0  0  0  # atno 17394 bound_to 11000
  139.8723  134.9421  156.3815 LP  0  0  0  0  0  0  0  0  0  0  0  0  # atno 17395 bound_to 11000

$$$$
