AV-unprocessed.smi:1345|AV-procd|sdf|5511|dock2
  -GOLD-   22720 5 93D 1   1.00000     0.00000
 Structure written by MMmdl.
 40 41  0  0  0  0  0  0  0  0  1 V2000
  151.7081  144.5751  157.5662 C   0  0  0  0  0  0  0  0  0  0  0  0
  151.3084  143.2757  158.2926 C   0  0  0  0  0  0  0  0  0  0  0  0
  152.2296  143.0654  159.5080 C   0  0  0  0  0  0  0  0  0  0  0  0
  151.2953  142.0509  157.3399 C   0  0  1  0  0  0  0  0  0  0  0  0
  151.1446  140.7067  158.0777 C   0  0  0  0  0  0  0  0  0  0  0  0
  150.2062  142.1784  156.3731 N   0  0  0  0  0  0  0  0  0  0  0  0
  149.9794  141.3614  155.3317 C   0  0  0  0  0  0  0  0  0  0  0  0
  150.6928  140.3973  155.0552 O   0  0  0  0  0  0  0  0  0  0  0  0
  148.7565  141.6811  154.4704 C   0  0  0  0  0  0  0  0  0  0  0  0
  147.7674  140.5532  154.5350 C   0  0  0  0  0  0  0  0  0  0  0  0
  147.3162  139.7927  153.4839 C   0  0  0  0  0  0  0  0  0  0  0  0
  146.1825  138.5742  153.9986 S   0  0  0  0  0  0  0  0  0  0  0  0
  146.3617  139.1556  155.6566 C   0  0  0  0  0  0  0  0  0  0  0  0
  145.7074  138.6343  156.8120 N   0  0  0  0  0  0  0  0  0  0  0  0
  144.8396  137.4627  156.7392 C   0  0  0  0  0  0  0  0  0  0  0  0
  144.3632  137.2700  158.1757 C   0  0  0  0  0  0  0  0  0  0  0  0
  145.0241  138.3544  158.8627 N   0  0  0  0  0  0  0  0  0  0  0  0
  145.7808  139.1159  158.0689 C   0  0  0  0  0  0  0  0  0  0  0  0
  146.4238  140.0887  158.4591 O   0  0  0  0  0  0  0  0  0  0  0  0
  147.2104  140.1833  155.7641 N   0  0  0  0  0  0  0  0  0  0  0  0
  152.6988  144.4879  157.1191 H   0  0  0  0  0  0  0  0  0  0  0  0
  151.7298  145.4199  158.2553 H   0  0  0  0  0  0  0  0  0  0  0  0
  151.0061  144.8322  156.7731 H   0  0  0  0  0  0  0  0  0  0  0  0
  150.2960  143.4179  158.6734 H   0  0  0  0  0  0  0  0  0  0  0  0
  153.2518  142.8468  159.1974 H   0  0  0  0  0  0  0  0  0  0  0  0
  151.8878  142.2467  160.1403 H   0  0  0  0  0  0  0  0  0  0  0  0
  152.2586  143.9559  160.1364 H   0  0  0  0  0  0  0  0  0  0  0  0
  152.2433  142.0387  156.7985 H   0  0  0  0  0  0  0  0  0  0  0  0
  151.9954  140.5036  158.7271 H   0  0  0  0  0  0  0  0  0  0  0  0
  151.0828  139.8758  157.3742 H   0  0  0  0  0  0  0  0  0  0  0  0
  150.2420  140.6886  158.6894 H   0  0  0  0  0  0  0  0  0  0  0  0
  149.5616  142.9424  156.5174 H   0  0  0  0  0  0  0  0  0  0  0  0
  148.3099  142.6148  154.8146 H   0  0  0  0  0  0  0  0  0  0  0  0
  149.0736  141.8528  153.4409 H   0  0  0  0  0  0  0  0  0  0  0  0
  147.5874  139.8716  152.4415 H   0  0  0  0  0  0  0  0  0  0  0  0
  144.0030  137.6438  156.0625 H   0  0  0  0  0  0  0  0  0  0  0  0
  145.3944  136.5932  156.3834 H   0  0  0  0  0  0  0  0  0  0  0  0
  143.2801  137.3616  158.2650 H   0  0  0  0  0  0  0  0  0  0  0  0
  144.6750  136.3089  158.5864 H   0  0  0  0  0  0  0  0  0  0  0  0
  144.9158  138.5123  159.8543 H   0  0  0  0  0  0  0  0  0  0  0  0
  1  2  1  0  0  0  0
  1 21  1  0  0  0  0
  1 22  1  0  0  0  0
  1 23  1  0  0  0  0
  2  3  1  0  0  0  0
  2  4  1  0  0  0  0
  2 24  1  0  0  0  0
  3 25  1  0  0  0  0
  3 26  1  0  0  0  0
  3 27  1  0  0  0  0
  4  5  1  0  0  0  0
  4  6  1  0  0  0  0
  4 28  1  0  0  0  0
  5 29  1  0  0  0  0
  5 30  1  0  0  0  0
  5 31  1  0  0  0  0
  6  7  1  0  0  0  0
  6 32  1  0  0  0  0
  7  8  2  0  0  0  0
  7  9  1  0  0  0  0
  9 10  1  0  0  0  0
  9 33  1  0  0  0  0
  9 34  1  0  0  0  0
 10 20  1  0  0  0  0
 10 11  2  0  0  0  0
 11 12  1  0  0  0  0
 11 35  1  0  0  0  0
 12 13  1  0  0  0  0
 13 14  1  0  0  0  0
 13 20  2  0  0  0  0
 14 18  1  0  0  0  0
 14 15  1  0  0  0  0
 15 16  1  0  0  0  0
 15 36  1  0  0  0  0
 15 37  1  0  0  0  0
 16 17  1  0  0  0  0
 16 38  1  0  0  0  0
 16 39  1  0  0  0  0
 17 18  1  0  0  0  0
 17 40  1  0  0  0  0
 18 19  2  0  0  0  0
M  END
> <s_m_source_file>
AV-unprocessed.smi

> <i_m_source_file_index>
1345

> <i_lp_mmshare_version>
43012

> <i_f3d_flags>
0

> <s_epik_input>
W0NIM11bQ0hdKFtDSDNdKVtDQEhdKFtDSDNdKVtOSF1DKD1PKVtDSDJdYzFbY0hdc2MobjEpTjJbQ0gyXVtDSDJdW05IXUMyPU8=

> <s_epik_cmdline>
J2VwaWtfcHl0aG9uJywgJy1waCcsICc3LjAnLCAnLXRuJywgJzgnLCAnLW1hJywgJzIwMCcsICctbWV0YWxfYmluZGluZycsICctaW1hZScsICc8aW5maWxlLm1hZT4nLCAnLW9tYWUnLCAnPG91dGZpbGUubWFlPic=

> <r_lp_tautomer_probability>
1

> <r_epik_Ionization_Penalty>
0.000122034

> <r_epik_Ionization_Penalty_Charging>
0

> <r_epik_Ionization_Penalty_Neutral>
0.000122034

> <r_epik_State_Penalty>
-0

> <r_epik_Charging_Adjusted_Penalty>
0

> <i_epik_Tot_Q>
0

> <i_epik_Tot_abs_Q>
0

> <r_epik_Metal_State_Penalty>
-0

> <b_epik_Metal_Only>
0

> <s_lp_Force_Field>
OPLS_2005

> <r_lp_Energy>
32.8432

> <b_lp_Chiralities_Consistent>
1

> <s_lp_Variant>
AV-unprocessed.smi:1345-2

> <Gold.Version>
5.8.1

> <Gold.Id.Protein>
6NUR|6NUR_protein|mol2

> <Gold.PLP.Fitness>
36.8815

> <Gold.PLP.PLP>
-28.0748

> <Gold.PLP.part.hbond>
-3.0000

> <Gold.PLP.part.metal>
0.0000

> <Gold.PLP.part.buried>
-2.3360

> <Gold.PLP.part.nonpolar>
-21.5505

> <Gold.PLP.part.repulsive>
0.2416

> <Gold.PLP.ligand.clash>
0.0000

> <Gold.PLP.ligand.torsion>
0.1644

> <Gold.PLP.Chemscore.Hbond>
2.0343

> <Gold.PLP.Chemscore.CHOScore>
1.0000

> <Gold.PLP.Chemscore.Metal>
0.0000

> <Gold.Chemscore.Hbonds>
donor molecule, donor type, donor heavy atom, donor atom, acceptor molecule, acceptor atom, score
      L1  H     6    32       P1  8028  0.73
      P1  H  7989  7998       L1     8  1.00
      L1  C    11    35       P1  7957  1.00

> <Gold.PLP.Chemscore.Internal.Correction>
0.0325

> <Gold.Rescore>
     Score         DG    S(hbond)    S(metal)    S(lipo)     H(rot)  DE(clash)    DE(int)     intcor
     12.57     -15.31       1.69        0.00      73.89       1.74       1.17       1.57       ----

> <Gold.Chemscore.Fitness>
12.5704

> <Gold.Chemscore.DG>
-15.3133

> <Gold.Chemscore.ZeroCoef>
-5.4800

> <Gold.Chemscore.Hbond>
1.6857

> <Gold.Chemscore.Metal>
0.0000

> <Gold.Chemscore.Lipo>
73.8927

> <Gold.Chemscore.Internal_Hbond>
0.0000

> <Gold.Chemscore.DEClash>
1.1745

> <Gold.Chemscore.DEInternal>
1.5684

> <Gold.Chemscore.Rot>
1.7353

> <Gold.Chemscore.Internal.Correction>
   9.000000E+99

> <Gold.Chemscore.Hbonds>
donor molecule, donor type, donor heavy atom, donor atom, acceptor molecule, acceptor atom, score
      L1  H     6    32       P1  8028  0.71
      P1  H  6934  6946       L1    19  0.01
      P1  H  7989  7998       L1     8  0.54

> <Gold.Chemscore.Hbond.Weighted>
-5.6301

> <Gold.Chemscore.Metal.Weighted>
-0.0000

> <Gold.Chemscore.Lipo.Weighted>
-8.6454

> <Gold.Chemscore.Internal_Hbond.Weighted>
0.0000

> <Gold.Chemscore.DEClash.Weighted>
1.1745

> <Gold.Chemscore.DEInternal.Weighted>
1.5684

> <Gold.Chemscore.Rot.Weighted>
4.4423

> <Gold.Chemscore.Internal.Correction.Weighted>
   9.000000E+99

> <Gold.Protein.RotatedTorsions>
[ 6907 6896 6895 6894 ] final -152.21 input  -60.11 | X-H torsion
[ 7974 7965 7964 7962 ] final -151.77 input  175.53 | X-H torsion
[ 8008 7997 7996 7995 ] final    1.41 input   59.86 | X-H torsion
[ 10167 10162 10161 10158 ] final   70.58 input  -65.29 | X-H torsion
[ 10718 10713 10712 10709 ] final  130.50 input   66.30 | X-H torsion
[ 10763 10752 10751 10750 ] final  -76.16 input  -60.55 | X-H torsion
[ 11005 11000 10999 10996 ] final -140.46 input  -57.11 | X-H torsion

> <Gold.Protein.ActiveResidues>
 VAL166  LYS551  ARG553  GLY616  TRP617  ASP618  TYR619  PRO620  LYS621  CYS622 
 ASP623  PHE694  ASN695  SER759  ASP760  ASP761  ALA762  ILE779  LEU786  VAL792 
 PHE793  MET794  SER795  GLU796  ALA797  LYS798  CYS799  TRP800  GLU811  SER814 

> <Gold.Protein.RotatedAtoms>
  151.2244  133.4484  159.2601 H   0  0  0  0  0  0  0  0  0  0  0  0  # atno 6907 bound_to 6896
  151.0854  134.9884  159.8387 H   0  0  0  0  0  0  0  0  0  0  0  0  # atno 6908 bound_to 6896
  152.5429  134.2181  159.8829 H   0  0  0  0  0  0  0  0  0  0  0  0  # atno 6909 bound_to 6896
  144.7831  140.4753  143.5825 H   0  0  0  0  0  0  0  0  0  0  0  0  # atno 7974 bound_to 7965
  154.6794  140.2629  155.6924 H   0  0  0  0  0  0  0  0  0  0  0  0  # atno 8008 bound_to 7997
  156.2691  140.2813  156.1255 H   0  0  0  0  0  0  0  0  0  0  0  0  # atno 8009 bound_to 7997
  155.1053  140.0375  157.2699 H   0  0  0  0  0  0  0  0  0  0  0  0  # atno 8010 bound_to 7997
  140.0554  144.5277  150.7333 H   0  0  0  0  0  0  0  0  0  0  0  0  # atno 10167 bound_to 10162
  157.5056  131.1095  150.9366 H   0  0  0  0  0  0  0  0  0  0  0  0  # atno 10718 bound_to 10713
  154.4962  135.5807  153.6496 H   0  0  0  0  0  0  0  0  0  0  0  0  # atno 10763 bound_to 10752
  152.9870  135.6124  154.3061 H   0  0  0  0  0  0  0  0  0  0  0  0  # atno 10764 bound_to 10752
  154.2965  135.2847  155.2610 H   0  0  0  0  0  0  0  0  0  0  0  0  # atno 10765 bound_to 10752
  140.8420  134.2390  157.4805 H   0  0  0  0  0  0  0  0  0  0  0  0  # atno 11005 bound_to 11000
  145.5995  139.1502  143.3137 LP  0  0  0  0  0  0  0  0  0  0  0  0  # atno 17320 bound_to 7965
  146.2050  140.6117  142.9085 LP  0  0  0  0  0  0  0  0  0  0  0  0  # atno 17321 bound_to 7965
  140.7197  143.2577  151.4319 LP  0  0  0  0  0  0  0  0  0  0  0  0  # atno 17342 bound_to 10162
  139.5927  144.1464  152.2107 LP  0  0  0  0  0  0  0  0  0  0  0  0  # atno 17343 bound_to 10162
  157.0023  130.5604  149.5312 LP  0  0  0  0  0  0  0  0  0  0  0  0  # atno 17370 bound_to 10713
  156.0256  130.5350  150.8397 LP  0  0  0  0  0  0  0  0  0  0  0  0  # atno 17371 bound_to 10713
  139.8703  134.9640  156.4481 LP  0  0  0  0  0  0  0  0  0  0  0  0  # atno 17394 bound_to 11000
  140.8885  133.7866  155.9545 LP  0  0  0  0  0  0  0  0  0  0  0  0  # atno 17395 bound_to 11000

$$$$
