AV-unprocessed.smi:232|AV-procd|sdf|1775|dock1
  -GOLD-   2262020313D 1   1.00000     0.00000
 Structure written by MMmdl.
 52 55  0  0  0  0  0  0  0  0  1 V2000
  145.6004  131.8403  161.3383 C   0  0  0  0  0  0  0  0  0  0  0  0
  146.9714  131.6616  160.6725 C   0  0  0  0  0  0  0  0  0  0  0  0
  147.7517  132.9781  160.5009 C   0  0  2  0  0  0  0  0  0  0  0  0
  147.7157  133.8662  161.7553 C   0  0  0  0  0  0  0  0  0  0  0  0
  147.7307  135.2832  161.1933 C   0  0  0  0  0  0  0  0  0  0  0  0
  146.8750  135.1203  159.9406 C   0  0  1  0  0  0  0  0  0  0  0  0
  146.9457  136.3103  158.9616 C   0  0  0  0  0  0  0  0  0  0  0  0
  147.2266  133.8017  159.4049 N   0  0  0  0  0  0  0  0  0  0  0  0
  147.8872  133.7475  158.2232 C   0  0  0  0  0  0  0  0  0  0  0  0
  149.1601  134.2141  158.1209 N   0  0  0  0  0  0  0  0  0  0  0  0
  149.7937  134.1727  156.9446 C   0  0  0  0  0  0  0  0  0  0  0  0
  149.3473  133.7204  155.7703 N   0  0  0  0  0  0  0  0  0  0  0  0
  148.0675  133.2597  155.8721 C   0  0  0  0  0  0  0  0  0  0  0  0
  147.2714  133.2382  157.0502 C   0  0  0  0  0  0  0  0  0  0  0  0
  146.0204  132.7019  156.7729 N   0  0  0  0  0  0  0  0  0  0  0  0
  146.0731  132.4221  155.4988 C   0  0  0  0  0  0  0  0  0  0  0  0
  147.2648  132.7268  154.8801 N   0  0  0  0  0  0  0  0  0  0  0  0
  147.5989  132.5295  153.4809 C   0  0  0  0  0  0  0  0  0  0  0  0
  146.6852  131.4899  152.8023 C   0  0  2  0  0  0  0  0  0  0  0  0
  147.4505  130.3452  152.4748 O   0  0  0  0  0  0  0  0  0  0  0  0
  146.0274  132.0338  151.5205 C   0  0  1  0  0  0  0  0  0  0  0  0
  144.9997  131.0893  150.8914 C   0  0  0  0  0  0  0  0  0  0  0  0
  144.1069  132.0536  150.1459 C   0  0  0  0  0  0  0  0  0  0  0  0
  144.0458  133.2247  151.1197 C   0  0  0  0  0  0  0  0  0  0  0  0
  145.2970  133.2274  151.8017 O   0  0  0  0  0  0  0  0  0  0  0  0
  145.0606  130.8937  161.3714 H   0  0  0  0  0  0  0  0  0  0  0  0
  144.9861  132.5546  160.7893 H   0  0  0  0  0  0  0  0  0  0  0  0
  145.6971  132.1976  162.3633 H   0  0  0  0  0  0  0  0  0  0  0  0
  147.5659  130.9474  161.2435 H   0  0  0  0  0  0  0  0  0  0  0  0
  146.8179  131.2134  159.6903 H   0  0  0  0  0  0  0  0  0  0  0  0
  148.7969  132.7268  160.3179 H   0  0  0  0  0  0  0  0  0  0  0  0
  146.7884  133.7082  162.3086 H   0  0  0  0  0  0  0  0  0  0  0  0
  148.5461  133.6710  162.4343 H   0  0  0  0  0  0  0  0  0  0  0  0
  147.3311  136.0216  161.8891 H   0  0  0  0  0  0  0  0  0  0  0  0
  148.7486  135.5734  160.9285 H   0  0  0  0  0  0  0  0  0  0  0  0
  145.8346  135.0338  160.2574 H   0  0  0  0  0  0  0  0  0  0  0  0
  146.6160  137.2278  159.4493 H   0  0  0  0  0  0  0  0  0  0  0  0
  146.3008  136.1525  158.0966 H   0  0  0  0  0  0  0  0  0  0  0  0
  147.9606  136.4817  158.6017 H   0  0  0  0  0  0  0  0  0  0  0  0
  150.8016  134.5608  156.9429 H   0  0  0  0  0  0  0  0  0  0  0  0
  145.2366  131.9876  154.9712 H   0  0  0  0  0  0  0  0  0  0  0  0
  147.5180  133.4936  152.9776 H   0  0  0  0  0  0  0  0  0  0  0  0
  148.6447  132.2275  153.4087 H   0  0  0  0  0  0  0  0  0  0  0  0
  145.9058  131.1852  153.5021 H   0  0  0  0  0  0  0  0  0  0  0  0
  148.0714  130.5818  151.8031 H   0  0  0  0  0  0  0  0  0  0  0  0
  146.7886  132.2812  150.7786 H   0  0  0  0  0  0  0  0  0  0  0  0
  145.4522  130.3383  150.2435 H   0  0  0  0  0  0  0  0  0  0  0  0
  144.4262  130.5735  151.6631 H   0  0  0  0  0  0  0  0  0  0  0  0
  144.5819  132.3614  149.2134 H   0  0  0  0  0  0  0  0  0  0  0  0
  143.1254  131.6401  149.9126 H   0  0  0  0  0  0  0  0  0  0  0  0
  143.8609  134.1749  150.6184 H   0  0  0  0  0  0  0  0  0  0  0  0
  143.2542  133.0685  151.8535 H   0  0  0  0  0  0  0  0  0  0  0  0
  1  2  1  0  0  0  0
  1 26  1  0  0  0  0
  1 27  1  0  0  0  0
  1 28  1  0  0  0  0
  2  3  1  0  0  0  0
  2 29  1  0  0  0  0
  2 30  1  0  0  0  0
  3  8  1  0  0  0  0
  3  4  1  0  0  0  0
  3 31  1  0  0  0  0
  4  5  1  0  0  0  0
  4 32  1  0  0  0  0
  4 33  1  0  0  0  0
  5  6  1  0  0  0  0
  5 34  1  0  0  0  0
  5 35  1  0  0  0  0
  6  7  1  0  0  0  0
  6  8  1  0  0  0  0
  6 36  1  0  0  0  0
  7 37  1  0  0  0  0
  7 38  1  0  0  0  0
  7 39  1  0  0  0  0
  8  9  1  0  0  0  0
  9 14  1  0  0  0  0
  9 10  2  0  0  0  0
 10 11  1  0  0  0  0
 11 12  2  0  0  0  0
 11 40  1  0  0  0  0
 12 13  1  0  0  0  0
 13 17  1  0  0  0  0
 13 14  2  0  0  0  0
 14 15  1  0  0  0  0
 15 16  2  0  0  0  0
 16 17  1  0  0  0  0
 16 41  1  0  0  0  0
 17 18  1  0  0  0  0
 18 19  1  0  0  0  0
 18 42  1  0  0  0  0
 18 43  1  0  0  0  0
 19 20  1  0  0  0  0
 19 21  1  0  0  0  0
 19 44  1  0  0  0  0
 20 45  1  0  0  0  0
 21 25  1  0  0  0  0
 21 22  1  0  0  0  0
 21 46  1  0  0  0  0
 22 23  1  0  0  0  0
 22 47  1  0  0  0  0
 22 48  1  0  0  0  0
 23 24  1  0  0  0  0
 23 49  1  0  0  0  0
 23 50  1  0  0  0  0
 24 25  1  0  0  0  0
 24 51  1  0  0  0  0
 24 52  1  0  0  0  0
M  END
> <s_m_source_file>
AV-unprocessed.smi

> <i_m_source_file_index>
232

> <i_lp_mmshare_version>
43012

> <i_f3d_flags>
0

> <s_epik_input>
W0NIM11bQ0gyXVtDQEBIXTFbQ0gyXVtDSDJdW0NAQEhdKFtDSDNdKU4xYyhuW2NIXW4yKWMoYzIzKW5bY0hdbjNbQ0gyXVtDQEhdKFtPSF0pW0NAQEhdNFtDSDJdW0NIMl1bQ0gyXU80

> <s_epik_cmdline>
J2VwaWtfcHl0aG9uJywgJy1waCcsICc3LjAnLCAnLXRuJywgJzgnLCAnLW1hJywgJzIwMCcsICctbWV0YWxfYmluZGluZycsICctaW1hZScsICc8aW5maWxlLm1hZT4nLCAnLW9tYWUnLCAnPG91dGZpbGUubWFlPic=

> <r_lp_tautomer_probability>
1

> <r_epik_Ionization_Penalty>
0.00258048

> <r_epik_Ionization_Penalty_Charging>
0

> <r_epik_Ionization_Penalty_Neutral>
0.00258048

> <r_epik_State_Penalty>
0.00168551

> <r_epik_Charging_Adjusted_Penalty>
0.00168551

> <i_epik_Tot_Q>
0

> <i_epik_Tot_abs_Q>
0

> <r_epik_Metal_State_Penalty>
-0

> <b_epik_Metal_Only>
0

> <s_lp_Force_Field>
OPLS_2005

> <r_lp_Energy>
56.7631

> <b_lp_Chiralities_Consistent>
1

> <s_lp_Variant>
AV-unprocessed.smi:232-9

> <Gold.Version>
5.8.1

> <Gold.Id.Protein>
6NUR|6NUR_protein|mol2

> <Gold.PLP.Fitness>
36.9416

> <Gold.PLP.PLP>
-29.9583

> <Gold.PLP.part.hbond>
-2.0000

> <Gold.PLP.part.metal>
0.0000

> <Gold.PLP.part.buried>
-6.2585

> <Gold.PLP.part.nonpolar>
-22.4767

> <Gold.PLP.part.repulsive>
0.1844

> <Gold.PLP.ligand.clash>
0.0000

> <Gold.PLP.ligand.torsion>
1.2268

> <Gold.PLP.Chemscore.Hbond>
2.0000

> <Gold.PLP.Chemscore.CHOScore>
1.0000

> <Gold.PLP.Chemscore.Metal>
0.0000

> <Gold.Chemscore.Hbonds>
donor molecule, donor type, donor heavy atom, donor atom, acceptor molecule, acceptor atom, score
      L1  H    20    45       P1 10747  1.00
      P1  H  6896  6908       L1    10  1.00
      L1  C    16    41       P1 10957  0.94

> <Gold.PLP.Chemscore.Internal.Correction>
0.4369

> <Gold.Rescore>
     Score         DG    S(hbond)    S(metal)    S(lipo)     H(rot)  DE(clash)    DE(int)     intcor
     13.58     -15.04       1.88        0.00      81.02       2.43       0.20       1.27       ----

> <Gold.Chemscore.Fitness>
13.5752

> <Gold.Chemscore.DG>
-15.0412

> <Gold.Chemscore.ZeroCoef>
-5.4800

> <Gold.Chemscore.Hbond>
1.8838

> <Gold.Chemscore.Metal>
0.0000

> <Gold.Chemscore.Lipo>
81.0247

> <Gold.Chemscore.Internal_Hbond>
0.0000

> <Gold.Chemscore.DEClash>
0.1996

> <Gold.Chemscore.DEInternal>
1.2665

> <Gold.Chemscore.Rot>
2.4260

> <Gold.Chemscore.Internal.Correction>
   9.000000E+99

> <Gold.Chemscore.Hbonds>
donor molecule, donor type, donor heavy atom, donor atom, acceptor molecule, acceptor atom, score
      L1  H    20    45       P1 10747  1.00
      P1  H  6896  6908       L1    10  0.30

> <Gold.Chemscore.Hbond.Weighted>
-6.2920

> <Gold.Chemscore.Metal.Weighted>
-0.0000

> <Gold.Chemscore.Lipo.Weighted>
-9.4799

> <Gold.Chemscore.Internal_Hbond.Weighted>
0.0000

> <Gold.Chemscore.DEClash.Weighted>
0.1996

> <Gold.Chemscore.DEInternal.Weighted>
1.2665

> <Gold.Chemscore.Rot.Weighted>
6.2107

> <Gold.Chemscore.Internal.Correction.Weighted>
   9.000000E+99

> <Gold.Protein.RotatedTorsions>
[ 6907 6896 6895 6894 ] final  138.72 input  -60.11 | X-H torsion
[ 7974 7965 7964 7962 ] final  -11.96 input  175.53 | X-H torsion
[ 8008 7997 7996 7995 ] final -147.94 input   59.86 | X-H torsion
[ 10167 10162 10161 10158 ] final -135.98 input  -65.29 | X-H torsion
[ 10718 10713 10712 10709 ] final   37.48 input   66.30 | X-H torsion
[ 10763 10752 10751 10750 ] final  133.39 input  -60.55 | X-H torsion
[ 11005 11000 10999 10996 ] final  -90.19 input  -57.11 | X-H torsion

> <Gold.Protein.ActiveResidues>
 VAL166  LYS551  ARG553  GLY616  TRP617  ASP618  TYR619  PRO620  LYS621  CYS622 
 ASP623  PHE694  ASN695  SER759  ASP760  ASP761  ALA762  ILE779  LEU786  VAL792 
 PHE793  MET794  SER795  GLU796  ALA797  LYS798  CYS799  TRP800  GLU811  SER814 

> <Gold.Protein.RotatedAtoms>
  152.2633  133.5316  159.5394 H   0  0  0  0  0  0  0  0  0  0  0  0  # atno 6907 bound_to 6896
  150.7132  134.0800  159.3903 H   0  0  0  0  0  0  0  0  0  0  0  0  # atno 6908 bound_to 6896
  151.8717  135.0487  160.0530 H   0  0  0  0  0  0  0  0  0  0  0  0  # atno 6909 bound_to 6896
  146.2169  140.2988  142.8373 H   0  0  0  0  0  0  0  0  0  0  0  0  # atno 7974 bound_to 7965
  155.5836  140.0646  157.2777 H   0  0  0  0  0  0  0  0  0  0  0  0  # atno 8008 bound_to 7997
  154.4325  140.1847  156.1048 H   0  0  0  0  0  0  0  0  0  0  0  0  # atno 8009 bound_to 7997
  156.0286  140.3309  155.7119 H   0  0  0  0  0  0  0  0  0  0  0  0  # atno 8010 bound_to 7997
  139.8724  143.6940  152.2638 H   0  0  0  0  0  0  0  0  0  0  0  0  # atno 10167 bound_to 10162
  157.3474  130.7580  149.6954 H   0  0  0  0  0  0  0  0  0  0  0  0  # atno 10718 bound_to 10713
  153.8064  135.3135  155.3396 H   0  0  0  0  0  0  0  0  0  0  0  0  # atno 10763 bound_to 10752
  154.8069  135.4692  154.0418 H   0  0  0  0  0  0  0  0  0  0  0  0  # atno 10764 bound_to 10752
  153.1782  135.6889  153.8602 H   0  0  0  0  0  0  0  0  0  0  0  0  # atno 10765 bound_to 10752
  141.1570  133.7676  156.9702 H   0  0  0  0  0  0  0  0  0  0  0  0  # atno 11005 bound_to 11000
  144.9073  140.7715  143.5830 LP  0  0  0  0  0  0  0  0  0  0  0  0  # atno 17320 bound_to 7965
  145.2917  139.1881  143.4737 LP  0  0  0  0  0  0  0  0  0  0  0  0  # atno 17321 bound_to 7965
  139.7271  144.7590  151.0861 LP  0  0  0  0  0  0  0  0  0  0  0  0  # atno 17342 bound_to 10162
  140.7758  143.5134  150.9624 LP  0  0  0  0  0  0  0  0  0  0  0  0  # atno 17343 bound_to 10162
  155.9716  130.4150  150.4161 LP  0  0  0  0  0  0  0  0  0  0  0  0  # atno 17370 bound_to 10713
  157.2219  131.0484  151.2542 LP  0  0  0  0  0  0  0  0  0  0  0  0  # atno 17371 bound_to 10713
  140.1134  134.9462  157.2099 LP  0  0  0  0  0  0  0  0  0  0  0  0  # atno 17394 bound_to 11000
  140.3164  134.2966  155.7255 LP  0  0  0  0  0  0  0  0  0  0  0  0  # atno 17395 bound_to 11000

$$$$
