AV-unprocessed.smi:2881|AV-procd|sdf|11060|dock2
  -GOLD-   2272015533D 1   1.00000     0.00000
 Structure written by MMmdl.
 40 42  0  0  0  0  0  0  0  0  1 V2000
  143.9533  132.7209  150.6065 C   0  0  0  0  0  0  0  0  0  0  0  0
  143.8185  133.9215  151.4798 C   0  0  0  0  0  0  0  0  0  0  0  0
  144.2375  135.2113  151.3136 C   0  0  0  0  0  0  0  0  0  0  0  0
  143.7993  135.8812  152.4952 C   0  0  0  0  0  0  0  0  0  0  0  0
  143.9763  137.3311  152.8608 C   0  0  0  0  0  0  0  0  0  0  0  0
  145.4577  137.6397  153.0804 C   0  0  0  0  0  0  0  0  0  0  0  0
  146.2794  136.7246  153.1277 O   0  0  0  0  0  0  0  0  0  0  0  0
  145.7844  138.9339  153.2147 N   0  0  0  0  0  0  0  0  0  0  0  0
  147.1329  139.4357  153.4653 C   0  0  1  0  0  0  0  0  0  0  0  0
  147.2323  140.9819  153.4543 C   0  0  1  0  0  0  0  0  0  0  0  0
  146.1819  141.6237  154.3863 C   0  0  0  0  0  0  0  0  0  0  0  0
  146.6980  141.2440  155.7867 C   0  0  0  0  0  0  0  0  0  0  0  0
  147.9867  140.4590  155.4740 C   0  0  2  0  0  0  0  0  0  0  0  0
  148.5089  141.2084  154.2532 C   0  0  0  0  0  0  0  0  0  0  0  0
  147.6135  139.0733  154.8943 C   0  0  2  0  0  0  0  0  0  0  0  0
  148.7797  138.0663  154.8914 C   0  0  0  0  0  0  0  0  0  0  0  0
  149.6608  138.3377  153.8219 O   0  0  0  0  0  0  0  0  0  0  0  0
  143.1686  135.0668  153.3302 N   0  0  0  0  0  0  0  0  0  0  0  0
  143.1849  133.8778  152.6999 N   0  0  0  0  0  0  0  0  0  0  0  0
  142.7637  133.0561  153.1093 H   0  0  0  0  0  0  0  0  0  0  0  0
  144.2273  133.0076  149.5910 H   0  0  0  0  0  0  0  0  0  0  0  0
  143.0154  132.1668  150.5575 H   0  0  0  0  0  0  0  0  0  0  0  0
  144.7241  132.0508  150.9874 H   0  0  0  0  0  0  0  0  0  0  0  0
  144.7729  135.6202  150.4697 H   0  0  0  0  0  0  0  0  0  0  0  0
  143.5842  137.9834  152.0790 H   0  0  0  0  0  0  0  0  0  0  0  0
  143.4168  137.5660  153.7672 H   0  0  0  0  0  0  0  0  0  0  0  0
  145.0452  139.6192  153.1586 H   0  0  0  0  0  0  0  0  0  0  0  0
  147.8173  139.0221  152.7215 H   0  0  0  0  0  0  0  0  0  0  0  0
  147.2418  141.4104  152.4516 H   0  0  0  0  0  0  0  0  0  0  0  0
  146.1783  142.7078  154.2664 H   0  0  0  0  0  0  0  0  0  0  0  0
  145.1656  141.2749  154.2036 H   0  0  0  0  0  0  0  0  0  0  0  0
  146.9198  142.1398  156.3680 H   0  0  0  0  0  0  0  0  0  0  0  0
  145.9761  140.6517  156.3504 H   0  0  0  0  0  0  0  0  0  0  0  0
  148.6771  140.4175  156.3169 H   0  0  0  0  0  0  0  0  0  0  0  0
  149.3896  140.7515  153.7995 H   0  0  0  0  0  0  0  0  0  0  0  0
  148.7178  142.2619  154.4482 H   0  0  0  0  0  0  0  0  0  0  0  0
  146.7981  138.6404  155.4774 H   0  0  0  0  0  0  0  0  0  0  0  0
  149.3414  138.1411  155.8232 H   0  0  0  0  0  0  0  0  0  0  0  0
  148.4223  137.0395  154.8130 H   0  0  0  0  0  0  0  0  0  0  0  0
  149.6520  137.6007  153.2302 H   0  0  0  0  0  0  0  0  0  0  0  0
  1  2  1  0  0  0  0
  1 21  1  0  0  0  0
  1 22  1  0  0  0  0
  1 23  1  0  0  0  0
  2 19  1  0  0  0  0
  2  3  2  0  0  0  0
  3  4  1  0  0  0  0
  3 24  1  0  0  0  0
  4  5  1  0  0  0  0
  4 18  2  0  0  0  0
  5  6  1  0  0  0  0
  5 25  1  0  0  0  0
  5 26  1  0  0  0  0
  6  7  2  0  0  0  0
  6  8  1  0  0  0  0
  8  9  1  0  0  0  0
  8 27  1  0  0  0  0
  9 15  1  0  0  0  0
  9 10  1  0  0  0  0
  9 28  1  0  0  0  0
 10 14  1  0  0  0  0
 10 11  1  0  0  0  0
 10 29  1  0  0  0  0
 11 12  1  0  0  0  0
 11 30  1  0  0  0  0
 11 31  1  0  0  0  0
 12 13  1  0  0  0  0
 12 32  1  0  0  0  0
 12 33  1  0  0  0  0
 13 14  1  0  0  0  0
 13 15  1  0  0  0  0
 13 34  1  0  0  0  0
 14 35  1  0  0  0  0
 14 36  1  0  0  0  0
 15 16  1  0  0  0  0
 15 37  1  0  0  0  0
 16 17  1  0  0  0  0
 16 38  1  0  0  0  0
 16 39  1  0  0  0  0
 17 40  1  0  0  0  0
 18 19  1  0  0  0  0
 19 20  1  0  0  0  0
M  END
> <s_m_source_file>
AV-unprocessed.smi

> <i_m_source_file_index>
2881

> <i_lp_mmshare_version>
43012

> <i_f3d_flags>
0

> <s_epik_input>
W0NIM11jMVtjSF1jKG5bbkhdMSlbQ0gyXUMoPU8pW05IXVtDQEhdKFtDQEBIXTIzKVtDQEhdKFtDSDJdW09IXSlbQ0BASF0oW0NIMl0zKVtDSDJdW0NIMl0y

> <s_epik_cmdline>
J2VwaWtfcHl0aG9uJywgJy1waCcsICc3LjAnLCAnLXRuJywgJzgnLCAnLW1hJywgJzIwMCcsICctbWV0YWxfYmluZGluZycsICctaW1hZScsICc8aW5maWxlLm1hZT4nLCAnLW9tYWUnLCAnPG91dGZpbGUubWFlPic=

> <r_lp_tautomer_probability>
0.5

> <r_epik_Ionization_Penalty>
9.4349e-05

> <r_epik_Ionization_Penalty_Charging>
0

> <r_epik_Ionization_Penalty_Neutral>
9.4349e-05

> <r_epik_State_Penalty>
0.41068

> <r_epik_Charging_Adjusted_Penalty>
0.41068

> <i_epik_Tot_Q>
0

> <i_epik_Tot_abs_Q>
0

> <r_epik_Metal_State_Penalty>
0.4107

> <b_epik_Metal_Only>
0

> <s_lp_Force_Field>
OPLS_2005

> <r_lp_Energy>
47.9612

> <b_lp_Chiralities_Consistent>
1

> <s_lp_Variant>
AV-unprocessed.smi:2881-6

> <Gold.Version>
5.8.1

> <Gold.Id.Protein>
6NUR|6NUR_protein|mol2

> <Gold.PLP.Fitness>
37.6771

> <Gold.PLP.PLP>
-29.4006

> <Gold.PLP.part.hbond>
-4.0000

> <Gold.PLP.part.metal>
0.0000

> <Gold.PLP.part.buried>
-5.8724

> <Gold.PLP.part.nonpolar>
-22.2049

> <Gold.PLP.part.repulsive>
1.5807

> <Gold.PLP.ligand.clash>
0.0000

> <Gold.PLP.ligand.torsion>
0.3740

> <Gold.PLP.Chemscore.Hbond>
3.0000

> <Gold.PLP.Chemscore.CHOScore>
0.0000

> <Gold.PLP.Chemscore.Metal>
0.0000

> <Gold.Chemscore.Hbonds>
donor molecule, donor type, donor heavy atom, donor atom, acceptor molecule, acceptor atom, score
      L1  H     8    27       P1 10175  1.00
      L1  H    17    40       P1  7948  1.00
      L1  H    19    20       P1 10957  0.80

> <Gold.PLP.Chemscore.Internal.Correction>
0.0246

> <Gold.Rescore>
     Score         DG    S(hbond)    S(metal)    S(lipo)     H(rot)  DE(clash)    DE(int)     intcor
     16.34     -16.83       2.79        0.00      67.12       2.28       0.15       0.33       ----

> <Gold.Chemscore.Fitness>
16.3442

> <Gold.Chemscore.DG>
-16.8282

> <Gold.Chemscore.ZeroCoef>
-5.4800

> <Gold.Chemscore.Hbond>
2.7906

> <Gold.Chemscore.Metal>
0.0000

> <Gold.Chemscore.Lipo>
67.1180

> <Gold.Chemscore.Internal_Hbond>
0.0000

> <Gold.Chemscore.DEClash>
0.1531

> <Gold.Chemscore.DEInternal>
0.3309

> <Gold.Chemscore.Rot>
2.2755

> <Gold.Chemscore.Internal.Correction>
   9.000000E+99

> <Gold.Chemscore.Hbonds>
donor molecule, donor type, donor heavy atom, donor atom, acceptor molecule, acceptor atom, score
      L1  H     8    27       P1 10175  0.99
      L1  H    17    40       P1  7948  0.74
      L1  H    19    20       P1 10957  0.48

> <Gold.Chemscore.Hbond.Weighted>
-9.3206

> <Gold.Chemscore.Metal.Weighted>
-0.0000

> <Gold.Chemscore.Lipo.Weighted>
-7.8528

> <Gold.Chemscore.Internal_Hbond.Weighted>
0.0000

> <Gold.Chemscore.DEClash.Weighted>
0.1531

> <Gold.Chemscore.DEInternal.Weighted>
0.3309

> <Gold.Chemscore.Rot.Weighted>
5.8252

> <Gold.Chemscore.Internal.Correction.Weighted>
   9.000000E+99

> <Gold.Protein.RotatedTorsions>
[ 6907 6896 6895 6894 ] final -118.29 input  -60.11 | X-H torsion
[ 7974 7965 7964 7962 ] final -174.06 input  175.53 | X-H torsion
[ 8008 7997 7996 7995 ] final   17.14 input   59.86 | X-H torsion
[ 10167 10162 10161 10158 ] final -168.83 input  -65.29 | X-H torsion
[ 10718 10713 10712 10709 ] final -159.19 input   66.30 | X-H torsion
[ 10763 10752 10751 10750 ] final -100.72 input  -60.55 | X-H torsion
[ 11005 11000 10999 10996 ] final   63.24 input  -57.11 | X-H torsion

> <Gold.Protein.ActiveResidues>
 VAL166  LYS551  ARG553  GLY616  TRP617  ASP618  TYR619  PRO620  LYS621  CYS622 
 ASP623  PHE694  ASN695  SER759  ASP760  ASP761  ALA762  ILE779  LEU786  VAL792 
 PHE793  MET794  SER795  GLU796  ALA797  LYS798  CYS799  TRP800  GLU811  SER814 

> <Gold.Protein.RotatedAtoms>
  150.8207  133.8258  159.3140 H   0  0  0  0  0  0  0  0  0  0  0  0  # atno 6907 bound_to 6896
  151.6017  135.1045  160.0071 H   0  0  0  0  0  0  0  0  0  0  0  0  # atno 6908 bound_to 6896
  152.4296  133.7214  159.6592 H   0  0  0  0  0  0  0  0  0  0  0  0  # atno 6909 bound_to 6896
  144.7134  140.1528  143.6383 H   0  0  0  0  0  0  0  0  0  0  0  0  # atno 7974 bound_to 7965
  154.8871  140.2981  155.5391 H   0  0  0  0  0  0  0  0  0  0  0  0  # atno 8008 bound_to 7997
  156.3021  140.2431  156.3816 H   0  0  0  0  0  0  0  0  0  0  0  0  # atno 8009 bound_to 7997
  154.8656  140.0403  157.1682 H   0  0  0  0  0  0  0  0  0  0  0  0  # atno 8010 bound_to 7997
  139.5961  144.1110  152.1690 H   0  0  0  0  0  0  0  0  0  0  0  0  # atno 10167 bound_to 10162
  156.5647  130.8662  151.2820 H   0  0  0  0  0  0  0  0  0  0  0  0  # atno 10718 bound_to 10713
  154.7601  135.4925  153.9448 H   0  0  0  0  0  0  0  0  0  0  0  0  # atno 10763 bound_to 10752
  153.1241  135.6738  153.9294 H   0  0  0  0  0  0  0  0  0  0  0  0  # atno 10764 bound_to 10752
  153.9017  135.3109  155.3427 H   0  0  0  0  0  0  0  0  0  0  0  0  # atno 10765 bound_to 10752
  140.0038  134.6402  155.9888 H   0  0  0  0  0  0  0  0  0  0  0  0  # atno 11005 bound_to 11000
  145.9101  139.2482  143.1442 LP  0  0  0  0  0  0  0  0  0  0  0  0  # atno 17320 bound_to 7965
  145.9725  140.8749  143.0155 LP  0  0  0  0  0  0  0  0  0  0  0  0  # atno 17321 bound_to 7965
  140.0695  144.5791  150.7202 LP  0  0  0  0  0  0  0  0  0  0  0  0  # atno 17342 bound_to 10162
  140.7213  143.2591  151.4270 LP  0  0  0  0  0  0  0  0  0  0  0  0  # atno 17343 bound_to 10162
  157.7361  130.9773  150.2118 LP  0  0  0  0  0  0  0  0  0  0  0  0  # atno 17370 bound_to 10713
  156.2768  130.3728  149.7975 LP  0  0  0  0  0  0  0  0  0  0  0  0  # atno 17371 bound_to 10713
  141.1661  133.6537  156.4486 LP  0  0  0  0  0  0  0  0  0  0  0  0  # atno 17394 bound_to 11000
  140.4679  134.6780  157.5116 LP  0  0  0  0  0  0  0  0  0  0  0  0  # atno 17395 bound_to 11000

$$$$
