AV-unprocessed.smi:2464|AV-procd|sdf|9721|dock7
  -GOLD-   2272013363D 1   1.00000     0.00000
 Structure written by MMmdl.
 32 33  0  0  0  0  0  0  0  0  3 V2000
  152.9858  142.4504  160.9041 C   0  0  0  0  0  0  0  0  0  0  0  0
  152.1903  142.9007  159.6743 C   0  0  0  0  0  0  0  0  0  0  0  0
  151.9874  141.7675  158.7690 N   0  0  0  0  0  0  0  0  0  0  0  0
  151.1443  141.7240  157.7254 C   0  0  0  0  0  0  0  0  0  0  0  0
  150.4223  142.6635  157.3907 O   0  0  0  0  0  0  0  0  0  0  0  0
  151.1835  140.5250  157.1204 N   0  0  0  0  0  0  0  0  0  0  0  0
  150.4186  140.0788  156.0055 C   0  0  0  0  0  0  0  0  0  0  0  0
  149.3125  140.8187  155.5210 C   0  0  0  0  0  0  0  0  0  0  0  0
  148.6282  140.3568  154.3817 C   0  0  0  0  0  0  0  0  0  0  0  0
  148.9795  139.2438  153.7086 N   0  0  0  0  0  0  0  0  0  0  0  0
  150.0427  138.5463  154.1592 C   0  0  0  0  0  0  0  0  0  0  0  0
  150.8017  138.9068  155.2967 C   0  0  0  0  0  0  0  0  0  0  0  0
  151.9439  138.0635  155.6981 N   0  3  0  0  0  0  0  0  0  0  0  0
  151.9087  136.8633  155.4470 O   0  0  0  0  0  0  0  0  0  0  0  0
  152.8909  138.6161  156.2472 O   0  5  0  0  0  0  0  0  0  0  0  0
  150.8984  143.7201  159.8846 C   0  0  0  0  0  0  0  0  0  0  0  0
  151.7367  144.9871  159.6975 C   0  0  0  0  0  0  0  0  0  0  0  0
  152.7099  144.1216  158.8915 C   0  0  0  0  0  0  0  0  0  0  0  0
  153.2500  143.2941  161.5419 H   0  0  0  0  0  0  0  0  0  0  0  0
  153.9159  141.9578  160.6186 H   0  0  0  0  0  0  0  0  0  0  0  0
  152.4177  141.7509  161.5177 H   0  0  0  0  0  0  0  0  0  0  0  0
  152.5348  140.9414  158.9619 H   0  0  0  0  0  0  0  0  0  0  0  0
  151.7463  139.8193  157.5723 H   0  0  0  0  0  0  0  0  0  0  0  0
  148.9906  141.7361  155.9901 H   0  0  0  0  0  0  0  0  0  0  0  0
  147.7823  140.9046  153.9936 H   0  0  0  0  0  0  0  0  0  0  0  0
  150.2901  137.6614  153.5911 H   0  0  0  0  0  0  0  0  0  0  0  0
  150.1581  143.5918  159.0919 H   0  0  0  0  0  0  0  0  0  0  0  0
  150.4465  143.6168  160.8716 H   0  0  0  0  0  0  0  0  0  0  0  0
  151.2491  145.7790  159.1287 H   0  0  0  0  0  0  0  0  0  0  0  0
  152.1633  145.3591  160.6305 H   0  0  0  0  0  0  0  0  0  0  0  0
  153.7627  144.3563  159.0519 H   0  0  0  0  0  0  0  0  0  0  0  0
  152.4638  144.1018  157.8277 H   0  0  0  0  0  0  0  0  0  0  0  0
  1  2  1  0  0  0  0
  1 19  1  0  0  0  0
  1 20  1  0  0  0  0
  1 21  1  0  0  0  0
  2 18  1  0  0  0  0
  2  3  1  0  0  0  0
  2 16  1  0  0  0  0
  3  4  1  0  0  0  0
  3 22  1  0  0  0  0
  4  5  2  0  0  0  0
  4  6  1  0  0  0  0
  6  7  1  0  0  0  0
  6 23  1  0  0  0  0
  7 12  1  0  0  0  0
  7  8  2  0  0  0  0
  8  9  1  0  0  0  0
  8 24  1  0  0  0  0
  9 10  2  0  0  0  0
  9 25  1  0  0  0  0
 10 11  1  0  0  0  0
 11 12  2  0  0  0  0
 11 26  1  0  0  0  0
 12 13  1  0  0  0  0
 13 14  2  0  0  0  0
 13 15  1  0  0  0  0
 16 17  1  0  0  0  0
 16 27  1  0  0  0  0
 16 28  1  0  0  0  0
 17 18  1  0  0  0  0
 17 29  1  0  0  0  0
 17 30  1  0  0  0  0
 18 31  1  0  0  0  0
 18 32  1  0  0  0  0
M  CHG  1  13   1
M  CHG  1  15  -1
M  END
> <s_m_source_file>
AV-unprocessed.smi

> <i_m_source_file_index>
2464

> <i_lp_mmshare_version>
43012

> <i_f3d_flags>
0

> <s_epik_input>
W0NIMl0xW0NIMl1bQ0gyXUMxKFtDSDNdKVtOSF1DKD1PKVtOSF1jMltjSF1bY0hdbltjSF1jMltOK10oPU8pW08tXQ==

> <s_epik_cmdline>
J2VwaWtfcHl0aG9uJywgJy1waCcsICc3LjAnLCAnLXRuJywgJzgnLCAnLW1hJywgJzIwMCcsICctbWV0YWxfYmluZGluZycsICctaW1hZScsICc8aW5maWxlLm1hZT4nLCAnLW9tYWUnLCAnPG91dGZpbGUubWFlPic=

> <r_lp_tautomer_probability>
1

> <r_epik_Ionization_Penalty>
0.000161487

> <r_epik_Ionization_Penalty_Charging>
0

> <r_epik_Ionization_Penalty_Neutral>
0.000161487

> <r_epik_State_Penalty>
-0

> <r_epik_Charging_Adjusted_Penalty>
0

> <i_epik_Tot_Q>
0

> <i_epik_Tot_abs_Q>
2

> <r_epik_Metal_State_Penalty>
-0

> <b_epik_Metal_Only>
0

> <s_lp_Force_Field>
OPLS_2005

> <r_lp_Energy>
25.6435

> <b_lp_Chiralities_Consistent>
1

> <s_lp_Variant>
AV-unprocessed.smi:2464-1

> <Gold.Version>
5.8.1

> <Gold.Id.Protein>
6NUR|6NUR_protein|mol2

> <Gold.PLP.Fitness>
43.3668

> <Gold.PLP.PLP>
-35.7265

> <Gold.PLP.part.hbond>
-2.0000

> <Gold.PLP.part.metal>
0.0000

> <Gold.PLP.part.buried>
-6.8467

> <Gold.PLP.part.nonpolar>
-31.2281

> <Gold.PLP.part.repulsive>
3.3054

> <Gold.PLP.ligand.clash>
0.0000

> <Gold.PLP.ligand.torsion>
0.6788

> <Gold.PLP.Chemscore.Hbond>
1.7840

> <Gold.PLP.Chemscore.CHOScore>
1.1156

> <Gold.PLP.Chemscore.Metal>
0.0000

> <Gold.Chemscore.Hbonds>
donor molecule, donor type, donor heavy atom, donor atom, acceptor molecule, acceptor atom, score
      P1  H  7997  8008       L1    15  0.86
      P1  H 10752 10764       L1    14  1.00
      L1  C    11    26       P1  7948  0.91
      L1  C    11    26       P1  7949  0.10

> <Gold.PLP.Chemscore.Internal.Correction>
0.2990

> <Gold.Rescore>
     Score         DG    S(hbond)    S(metal)    S(lipo)     H(rot)  DE(clash)    DE(int)     intcor
     14.73     -19.70       1.89        0.00      89.44       1.00       0.05       4.91       ----

> <Gold.Chemscore.Fitness>
14.7308

> <Gold.Chemscore.DG>
-19.6962

> <Gold.Chemscore.ZeroCoef>
-5.4800

> <Gold.Chemscore.Hbond>
1.8898

> <Gold.Chemscore.Metal>
0.0000

> <Gold.Chemscore.Lipo>
89.4387

> <Gold.Chemscore.Internal_Hbond>
0.0000

> <Gold.Chemscore.DEClash>
0.0540

> <Gold.Chemscore.DEInternal>
4.9115

> <Gold.Chemscore.Rot>
1.0000

> <Gold.Chemscore.Internal.Correction>
   9.000000E+99

> <Gold.Chemscore.Hbonds>
donor molecule, donor type, donor heavy atom, donor atom, acceptor molecule, acceptor atom, score
      P1  H  7997  8008       L1    15  0.82
      P1  H 10752 10764       L1    14  0.95

> <Gold.Chemscore.Hbond.Weighted>
-6.3119

> <Gold.Chemscore.Metal.Weighted>
-0.0000

> <Gold.Chemscore.Lipo.Weighted>
-10.4643

> <Gold.Chemscore.Internal_Hbond.Weighted>
0.0000

> <Gold.Chemscore.DEClash.Weighted>
0.0540

> <Gold.Chemscore.DEInternal.Weighted>
4.9115

> <Gold.Chemscore.Rot.Weighted>
2.5600

> <Gold.Chemscore.Internal.Correction.Weighted>
   9.000000E+99

> <Gold.Protein.RotatedTorsions>
[ 6907 6896 6895 6894 ] final  -83.01 input  -60.11 | X-H torsion
[ 7974 7965 7964 7962 ] final  106.08 input  175.53 | X-H torsion
[ 8008 7997 7996 7995 ] final  -39.44 input   59.86 | X-H torsion
[ 10167 10162 10161 10158 ] final  167.98 input  -65.29 | X-H torsion
[ 10718 10713 10712 10709 ] final  -14.24 input   66.30 | X-H torsion
[ 10763 10752 10751 10750 ] final  -60.74 input  -60.55 | X-H torsion
[ 11005 11000 10999 10996 ] final -154.73 input  -57.11 | X-H torsion

> <Gold.Protein.ActiveResidues>
 VAL166  LYS551  ARG553  GLY616  TRP617  ASP618  TYR619  PRO620  LYS621  CYS622 
 ASP623  PHE694  ASN695  SER759  ASP760  ASP761  ALA762  ILE779  LEU786  VAL792 
 PHE793  MET794  SER795  GLU796  ALA797  LYS798  CYS799  TRP800  GLU811  SER814 

> <Gold.Protein.RotatedAtoms>
  150.6890  134.3577  159.4936 H   0  0  0  0  0  0  0  0  0  0  0  0  # atno 6907 bound_to 6896
  152.1409  134.9060  160.0563 H   0  0  0  0  0  0  0  0  0  0  0  0  # atno 6908 bound_to 6896
  152.0194  133.3858  159.4289 H   0  0  0  0  0  0  0  0  0  0  0  0  # atno 6909 bound_to 6896
  145.3113  139.2539  143.3761 H   0  0  0  0  0  0  0  0  0  0  0  0  # atno 7974 bound_to 7965
  154.4023  140.1551  156.2863 H   0  0  0  0  0  0  0  0  0  0  0  0  # atno 8008 bound_to 7997
  155.8825  140.3443  155.5876 H   0  0  0  0  0  0  0  0  0  0  0  0  # atno 8009 bound_to 7997
  155.7651  140.0823  157.2126 H   0  0  0  0  0  0  0  0  0  0  0  0  # atno 8010 bound_to 7997
  139.4957  144.3864  151.9566 H   0  0  0  0  0  0  0  0  0  0  0  0  # atno 10167 bound_to 10162
  156.6188  130.4870  149.6172 H   0  0  0  0  0  0  0  0  0  0  0  0  # atno 10718 bound_to 10713
  154.2739  135.6285  153.5321 H   0  0  0  0  0  0  0  0  0  0  0  0  # atno 10763 bound_to 10752
  152.9876  135.5617  154.5570 H   0  0  0  0  0  0  0  0  0  0  0  0  # atno 10764 bound_to 10752
  154.5146  135.2879  155.1289 H   0  0  0  0  0  0  0  0  0  0  0  0  # atno 10765 bound_to 10752
  140.6941  134.4009  157.5216 H   0  0  0  0  0  0  0  0  0  0  0  0  # atno 11005 bound_to 11000
  146.3117  140.3650  142.8668 LP  0  0  0  0  0  0  0  0  0  0  0  0  # atno 17320 bound_to 7965
  144.9013  140.7646  143.5865 LP  0  0  0  0  0  0  0  0  0  0  0  0  # atno 17321 bound_to 7965
  140.3301  144.3327  150.5989 LP  0  0  0  0  0  0  0  0  0  0  0  0  # atno 17342 bound_to 10162
  140.5652  143.2187  151.7696 LP  0  0  0  0  0  0  0  0  0  0  0  0  # atno 17343 bound_to 10162
  156.2328  130.6805  151.1481 LP  0  0  0  0  0  0  0  0  0  0  0  0  # atno 17370 bound_to 10713
  157.7233  131.0667  150.6041 LP  0  0  0  0  0  0  0  0  0  0  0  0  # atno 17371 bound_to 10713
  139.8915  134.8778  156.2317 LP  0  0  0  0  0  0  0  0  0  0  0  0  # atno 17394 bound_to 11000
  141.0217  133.7037  156.1280 LP  0  0  0  0  0  0  0  0  0  0  0  0  # atno 17395 bound_to 11000

$$$$
