#       Name:                AV-unprocessed.smi:916
#       Creating user name   scv26
#       Creation time:       Fri Mar 27 02:06:41 2020


#       File generated by GOLD software.
#

@<TRIPOS>MOLECULE
AV-unprocessed.smi:916
    48    49     1
SMALL
NO_CHARGES


@<TRIPOS>ATOM
      1 ****        -4.3234   4.4260  -0.0951 C.3            1 S1                 0.0000
      2 ****        -4.7988   3.5752   1.0881 C.3            1 S1                 0.0000
      3 ****        -4.7548   2.1077   0.7878 C.2            1 S1                 0.0000
      4 ****        -5.8203   1.2951   0.4852 C.2            1 S1                 0.0000
      5 ****        -5.3258  -0.3519   0.1981 S.3            1 S1                 0.0000
      6 ****        -3.6654   0.1349   0.5008 C.2            1 S1                 0.0000
      7 ****        -2.5862  -0.7836   0.4212 N.am           1 S1                 0.0000
      8 ****        -1.2763  -0.5423   0.6049 C.2            1 S1                 0.0000
      9 ****        -0.7901   0.5399   0.9354 O.2            1 S1                 0.0000
     10 ****        -0.5437  -1.6421   0.3781 N.am           1 S1                 0.0000
     11 ****         0.9118  -1.7098   0.4628 C.3            1 S1                 0.0000
     12 ****         1.6053  -1.0589  -0.7611 C.3            1 S1                 0.0000
     13 ****         1.2915  -1.7826  -2.0635 C.3            1 S1                 0.0000
     14 ****         2.3712  -2.8650  -2.1427 C.3            1 S1                 0.0000
     15 ****         3.3608  -2.5075  -1.1819 O.3            1 S1                 0.0000
     16 ****         3.1395  -1.1685  -0.7600 C.3            1 S1                 0.0000
     17 ****         3.8754  -0.8571   0.5630 C.3            1 S1                 0.0000
     18 ****         3.6038   0.5800   1.0403 C.3            1 S1                 0.0000
     19 ****         5.3889  -1.0845   0.4188 C.3            1 S1                 0.0000
     20 ****        -3.5305   1.4326   0.7961 N.2            1 S1                 0.0000
     21 ****        -4.3643   5.4877   0.1486 H              1 S1                 0.0000
     22 ****        -4.9475   4.2608  -0.9737 H              1 S1                 0.0000
     23 ****        -3.2943   4.1863  -0.3649 H              1 S1                 0.0000
     24 ****        -4.1829   3.7958   1.9606 H              1 S1                 0.0000
     25 ****        -5.8135   3.8713   1.3563 H              1 S1                 0.0000
     26 ****        -6.8631   1.5659   0.4121 H              1 S1                 0.0000
     27 ****        -2.8383  -1.7274   0.1675 H              1 S1                 0.0000
     28 ****        -1.0236  -2.4902   0.1149 H              1 S1                 0.0000
     29 ****         1.2261  -1.2326   1.3911 H              1 S1                 0.0000
     30 ****         1.1972  -2.7587   0.5477 H              1 S1                 0.0000
     31 ****         1.3061  -0.0123  -0.8273 H              1 S1                 0.0000
     32 ****         0.2814  -2.1890  -2.1176 H              1 S1                 0.0000
     33 ****         1.4082  -1.0912  -2.8992 H              1 S1                 0.0000
     34 ****         1.9710  -3.8476  -1.8924 H              1 S1                 0.0000
     35 ****         2.8049  -2.9193  -3.1416 H              1 S1                 0.0000
     36 ****         3.5334  -0.5135  -1.5404 H              1 S1                 0.0000
     37 ****         3.5229  -1.5435   1.3331 H              1 S1                 0.0000
     38 ****         3.9415   1.3105   0.3044 H              1 S1                 0.0000
     39 ****         4.1236   0.7875   1.9760 H              1 S1                 0.0000
     40 ****         2.5424   0.7546   1.2155 H              1 S1                 0.0000
     41 ****         5.8171  -0.4351  -0.3455 H              1 S1                 0.0000
     42 ****         5.6108  -2.1154   0.1415 H              1 S1                 0.0000
     43 ****         5.9080  -0.8817   1.3561 H              1 S1                 0.0000
     44 ****        -1.3847   1.3290   1.0895 LP             1 S1                 0.0000
     45 ****         0.1993   0.6295   1.0497 LP             1 S1                 0.0000
     46 ****         4.2691  -2.5829  -1.5932 LP             1 S1                 0.0000
     47 ****         3.2996  -3.1209  -0.3944 LP             1 S1                 0.0000
     48 ****        -2.6544   1.8697   0.9995 LP             1 S1                 0.0000
@<TRIPOS>BOND
    1    1    2 1     
    2    1   21 1     
    3    1   22 1     
    4    1   23 1     
    5    2    3 1     
    6    2   24 1     
    7    2   25 1     
    8    3   20 1     
    9    3    4 2     
   10    4    5 1     
   11    4   26 1     
   12    5    6 1     
   13    6    7 1     
   14    6   20 2     
   15    7    8 am    
   16    7   27 1     
   17    8    9 2     
   18    8   10 am    
   19   10   11 1     
   20   10   28 1     
   21   11   12 1     
   22   11   29 1     
   23   11   30 1     
   24   12   16 1     
   25   12   13 1     
   26   12   31 1     
   27   13   14 1     
   28   13   32 1     
   29   13   33 1     
   30   14   15 1     
   31   14   34 1     
   32   14   35 1     
   33   15   16 1     
   34   16   17 1     
   35   16   36 1     
   36   17   18 1     
   37   17   19 1     
   38   17   37 1     
   39   18   38 1     
   40   18   39 1     
   41   18   40 1     
   42   19   41 1     
   43   19   42 1     
   44   19   43 1     
   45    9   44 1     
   46    9   45 1     
   47   15   46 1     
   48   15   47 1     
   49   20   48 1     
@<TRIPOS>SUBSTRUCTURE
      1 S1             1
@<TRIPOS>SET
LONE_PAIRS      STATIC     ATOMS    <user>   **** ""
5 44 45 46 47 48
DONOR_HYDROGENS      STATIC     ATOMS    <user>   **** ""
2 27 28
ATOM$BLUE        STATIC     ATOMS    COLORGROUP SYSTEM
5 44 45 46 47 48
ATOM$RED        STATIC     ATOMS    COLORGROUP SYSTEM
2 27 28
