AV-unprocessed.smi:1684|AV-procd|sdf|6756|dock6
  -GOLD-   22720 7513D 1   1.00000     0.00000
 Structure written by MMmdl.
 43 44  0  0  0  0  0  0  0  0  2 V2000
  145.3417  135.6424  151.0886 C   0  0  0  0  0  0  0  0  0  0  0  0
  145.2101  134.1451  150.8598 C   0  0  0  0  0  0  0  0  0  0  0  0
  144.0928  133.6511  150.1533 C   0  0  0  0  0  0  0  0  0  0  0  0
  143.9704  132.2667  149.9447 C   0  0  0  0  0  0  0  0  0  0  0  0
  144.9766  131.4291  150.4550 C   0  0  0  0  0  0  0  0  0  0  0  0
  146.0477  131.8926  151.1313 N   0  0  0  0  0  0  0  0  0  0  0  0
  146.1827  133.2269  151.3386 C   0  0  0  0  0  0  0  0  0  0  0  0
  147.2859  133.7853  152.0444 N   0  0  0  0  0  0  0  0  0  0  0  0
  147.9036  133.3083  153.1394 C   0  0  0  0  0  0  0  0  0  0  0  0
  147.6352  132.2478  153.7044 O   0  0  0  0  0  0  0  0  0  0  0  0
  148.8574  134.1500  153.5667 N   0  0  0  0  0  0  0  0  0  0  0  0
  149.7218  133.9501  154.7315 C   0  0  1  0  0  0  0  0  0  0  0  0
  150.4084  132.5824  154.6145 C   0  0  0  0  0  0  0  0  0  0  0  0
  150.7607  135.0880  154.8678 C   0  0  0  0  0  0  0  0  0  0  0  0
  150.1818  136.4363  154.6395 N   0  3  0  0  0  0  0  0  0  0  0  0
  148.9977  136.7257  155.4840 C   0  0  0  0  0  0  0  0  0  0  0  0
  148.4101  138.0983  155.1166 C   0  0  0  0  0  0  0  0  0  0  0  0
  149.4096  139.0996  155.2688 O   0  0  0  0  0  0  0  0  0  0  0  0
  150.5232  138.8772  154.4119 C   0  0  0  0  0  0  0  0  0  0  0  0
  151.1772  137.5272  154.7530 C   0  0  0  0  0  0  0  0  0  0  0  0
  144.4912  136.1834  150.6728 H   0  0  0  0  0  0  0  0  0  0  0  0
  146.2463  136.0233  150.6135 H   0  0  0  0  0  0  0  0  0  0  0  0
  145.3894  135.8639  152.1553 H   0  0  0  0  0  0  0  0  0  0  0  0
  143.3359  134.3227  149.7750 H   0  0  0  0  0  0  0  0  0  0  0  0
  143.1274  131.8577  149.4074 H   0  0  0  0  0  0  0  0  0  0  0  0
  144.9211  130.3593  150.3184 H   0  0  0  0  0  0  0  0  0  0  0  0
  147.6285  134.6630  151.6825 H   0  0  0  0  0  0  0  0  0  0  0  0
  149.0086  134.9962  153.0368 H   0  0  0  0  0  0  0  0  0  0  0  0
  149.1057  133.9171  155.6311 H   0  0  0  0  0  0  0  0  0  0  0  0
  151.0374  132.3842  155.4829 H   0  0  0  0  0  0  0  0  0  0  0  0
  151.0400  132.5275  153.7270 H   0  0  0  0  0  0  0  0  0  0  0  0
  149.6748  131.7780  154.5512 H   0  0  0  0  0  0  0  0  0  0  0  0
  151.2416  135.0580  155.8468 H   0  0  0  0  0  0  0  0  0  0  0  0
  151.5520  134.9112  154.1373 H   0  0  0  0  0  0  0  0  0  0  0  0
  148.2365  135.9579  155.3490 H   0  0  0  0  0  0  0  0  0  0  0  0
  149.2829  136.7110  156.5371 H   0  0  0  0  0  0  0  0  0  0  0  0
  148.0297  138.0982  154.0938 H   0  0  0  0  0  0  0  0  0  0  0  0
  147.5699  138.3349  155.7693 H   0  0  0  0  0  0  0  0  0  0  0  0
  150.2045  138.9021  153.3684 H   0  0  0  0  0  0  0  0  0  0  0  0
  151.2404  139.6873  154.5452 H   0  0  0  0  0  0  0  0  0  0  0  0
  151.5843  137.5496  155.7653 H   0  0  0  0  0  0  0  0  0  0  0  0
  152.0102  137.3435  154.0734 H   0  0  0  0  0  0  0  0  0  0  0  0
  149.8634  136.4470  153.6806 H   0  0  0  0  0  0  0  0  0  0  0  0
  1  2  1  0  0  0  0
  1 21  1  0  0  0  0
  1 22  1  0  0  0  0
  1 23  1  0  0  0  0
  2  7  1  0  0  0  0
  2  3  2  0  0  0  0
  3  4  1  0  0  0  0
  3 24  1  0  0  0  0
  4  5  2  0  0  0  0
  4 25  1  0  0  0  0
  5  6  1  0  0  0  0
  5 26  1  0  0  0  0
  6  7  2  0  0  0  0
  7  8  1  0  0  0  0
  8  9  1  0  0  0  0
  8 27  1  0  0  0  0
  9 10  2  0  0  0  0
  9 11  1  0  0  0  0
 11 12  1  0  0  0  0
 11 28  1  0  0  0  0
 12 13  1  0  0  0  0
 12 14  1  0  0  0  0
 12 29  1  0  0  0  0
 13 30  1  0  0  0  0
 13 31  1  0  0  0  0
 13 32  1  0  0  0  0
 14 15  1  0  0  0  0
 14 33  1  0  0  0  0
 14 34  1  0  0  0  0
 15 20  1  0  0  0  0
 15 16  1  0  0  0  0
 15 43  1  0  0  0  0
 16 17  1  0  0  0  0
 16 35  1  0  0  0  0
 16 36  1  0  0  0  0
 17 18  1  0  0  0  0
 17 37  1  0  0  0  0
 17 38  1  0  0  0  0
 18 19  1  0  0  0  0
 19 20  1  0  0  0  0
 19 39  1  0  0  0  0
 19 40  1  0  0  0  0
 20 41  1  0  0  0  0
 20 42  1  0  0  0  0
M  CHG  1  15   1
M  END
> <s_m_source_file>
AV-unprocessed.smi

> <i_m_source_file_index>
1684

> <i_lp_mmshare_version>
43012

> <i_f3d_flags>
0

> <s_epik_input>
W0NIM11jMVtjSF1bY0hdW2NIXW5jMVtOSF1DKD1PKVtOSF1bQ0BIXShbQ0gzXSlbQ0gyXU4yW0NIMl1bQ0gyXU9bQ0gyXVtDSDJdMg==

> <s_epik_cmdline>
J2VwaWtfcHl0aG9uJywgJy1waCcsICc3LjAnLCAnLXRuJywgJzgnLCAnLW1hJywgJzIwMCcsICctbWV0YWxfYmluZGluZycsICctaW1hZScsICc8aW5maWxlLm1hZT4nLCAnLW9tYWUnLCAnPG91dGZpbGUubWFlPic=

> <r_epik_Ionization_Penalty>
0.602571

> <r_epik_Ionization_Penalty_Charging>
0.602531

> <r_epik_Ionization_Penalty_Neutral>
4.09763e-05

> <r_epik_State_Penalty>
0.617039

> <r_epik_Charging_Adjusted_Penalty>
1.21957

> <i_epik_Tot_Q>
1

> <i_epik_Tot_abs_Q>
1

> <r_epik_Metal_State_Penalty>
0.617043

> <b_epik_Metal_Only>
0

> <s_lp_Force_Field>
OPLS_2005

> <r_lp_Energy>
24.8229

> <b_lp_Chiralities_Consistent>
1

> <s_lp_Variant>
AV-unprocessed.smi:1684-4

> <Gold.Version>
5.8.1

> <Gold.Id.Protein>
6NUR|6NUR_protein|mol2

> <Gold.PLP.Fitness>
46.7925

> <Gold.PLP.PLP>
-35.6838

> <Gold.PLP.part.hbond>
-3.0000

> <Gold.PLP.part.metal>
0.0000

> <Gold.PLP.part.buried>
-5.2185

> <Gold.PLP.part.nonpolar>
-28.2578

> <Gold.PLP.part.repulsive>
0.3438

> <Gold.PLP.ligand.clash>
0.0000

> <Gold.PLP.ligand.torsion>
0.4556

> <Gold.PLP.Chemscore.Hbond>
3.9920

> <Gold.PLP.Chemscore.CHOScore>
0.0000

> <Gold.PLP.Chemscore.Metal>
0.0000

> <Gold.Chemscore.Hbonds>
donor molecule, donor type, donor heavy atom, donor atom, acceptor molecule, acceptor atom, score
      L1  H     8    27       P1  7948  0.98
      L1  H    11    28       P1  7948  0.80
      L1  H    15    43       P1  7948  2.00

> <Gold.PLP.Chemscore.Internal.Correction>
0.0439

> <Gold.Rescore>
     Score         DG    S(hbond)    S(metal)    S(lipo)     H(rot)  DE(clash)    DE(int)     intcor
     15.87     -17.81       2.26        0.00      73.75       1.51       0.08       1.86       ----

> <Gold.Chemscore.Fitness>
15.8688

> <Gold.Chemscore.DG>
-17.8122

> <Gold.Chemscore.ZeroCoef>
-5.4800

> <Gold.Chemscore.Hbond>
2.2633

> <Gold.Chemscore.Metal>
0.0000

> <Gold.Chemscore.Lipo>
73.7487

> <Gold.Chemscore.Internal_Hbond>
0.0000

> <Gold.Chemscore.DEClash>
0.0849

> <Gold.Chemscore.DEInternal>
1.8586

> <Gold.Chemscore.Rot>
1.5061

> <Gold.Chemscore.Internal.Correction>
   9.000000E+99

> <Gold.Chemscore.Hbonds>
donor molecule, donor type, donor heavy atom, donor atom, acceptor molecule, acceptor atom, score
      L1  H     8    27       P1  7948  0.31
      L1  H    11    28       P1  7948  0.12
      L1  H    15    43       P1  7948  0.29

> <Gold.Chemscore.Hbond.Weighted>
-7.5593

> <Gold.Chemscore.Metal.Weighted>
-0.0000

> <Gold.Chemscore.Lipo.Weighted>
-8.6286

> <Gold.Chemscore.Internal_Hbond.Weighted>
0.0000

> <Gold.Chemscore.DEClash.Weighted>
0.0849

> <Gold.Chemscore.DEInternal.Weighted>
1.8586

> <Gold.Chemscore.Rot.Weighted>
3.8557

> <Gold.Chemscore.Internal.Correction.Weighted>
   9.000000E+99

> <Gold.Protein.RotatedTorsions>
[ 6907 6896 6895 6894 ] final   60.38 input  -60.11 | X-H torsion
[ 7974 7965 7964 7962 ] final   37.76 input  175.53 | X-H torsion
[ 8008 7997 7996 7995 ] final  -76.84 input   59.86 | X-H torsion
[ 10167 10162 10161 10158 ] final  135.72 input  -65.29 | X-H torsion
[ 10718 10713 10712 10709 ] final   50.51 input   66.30 | X-H torsion
[ 10763 10752 10751 10750 ] final  -79.29 input  -60.55 | X-H torsion
[ 11005 11000 10999 10996 ] final  -46.68 input  -57.11 | X-H torsion

> <Gold.Protein.ActiveResidues>
 VAL166  LYS551  ARG553  GLY616  TRP617  ASP618  TYR619  PRO620  LYS621  CYS622 
 ASP623  PHE694  ASN695  SER759  ASP760  ASP761  ALA762  ILE779  LEU786  VAL792 
 PHE793  MET794  SER795  GLU796  ALA797  LYS798  CYS799  TRP800  GLU811  SER814 

> <Gold.Protein.RotatedAtoms>
  152.3998  134.6305  160.0074 H   0  0  0  0  0  0  0  0  0  0  0  0  # atno 6907 bound_to 6896
  151.6513  133.3315  159.3160 H   0  0  0  0  0  0  0  0  0  0  0  0  # atno 6908 bound_to 6896
  150.7900  134.6959  159.6567 H   0  0  0  0  0  0  0  0  0  0  0  0  # atno 6909 bound_to 6896
  146.1114  139.5855  142.9350 H   0  0  0  0  0  0  0  0  0  0  0  0  # atno 7974 bound_to 7965
  154.5541  140.0720  156.8715 H   0  0  0  0  0  0  0  0  0  0  0  0  # atno 8008 bound_to 7997
  155.2936  140.3379  155.4233 H   0  0  0  0  0  0  0  0  0  0  0  0  # atno 8009 bound_to 7997
  156.1987  140.1713  156.7931 H   0  0  0  0  0  0  0  0  0  0  0  0  # atno 8010 bound_to 7997
  139.5206  144.6502  151.5324 H   0  0  0  0  0  0  0  0  0  0  0  0  # atno 10167 bound_to 10162
  157.4892  130.8365  149.8182 H   0  0  0  0  0  0  0  0  0  0  0  0  # atno 10718 bound_to 10713
  154.5367  135.5700  153.6805 H   0  0  0  0  0  0  0  0  0  0  0  0  # atno 10763 bound_to 10752
  152.9953  135.6218  154.2556 H   0  0  0  0  0  0  0  0  0  0  0  0  # atno 10764 bound_to 10752
  154.2485  135.2860  155.2805 H   0  0  0  0  0  0  0  0  0  0  0  0  # atno 10765 bound_to 10752
  141.0594  133.6714  156.3189 H   0  0  0  0  0  0  0  0  0  0  0  0  # atno 11005 bound_to 11000
  145.5657  141.0400  143.2202 LP  0  0  0  0  0  0  0  0  0  0  0  0  # atno 17320 bound_to 7965
  144.7514  139.7183  143.7271 LP  0  0  0  0  0  0  0  0  0  0  0  0  # atno 17321 bound_to 7965
  140.6304  143.9088  150.6600 LP  0  0  0  0  0  0  0  0  0  0  0  0  # atno 17342 bound_to 10162
  140.2390  143.3678  152.1502 LP  0  0  0  0  0  0  0  0  0  0  0  0  # atno 17343 bound_to 10162
  156.0164  130.3812  150.2099 LP  0  0  0  0  0  0  0  0  0  0  0  0  # atno 17370 bound_to 10713
  157.0287  131.0001  151.3318 LP  0  0  0  0  0  0  0  0  0  0  0  0  # atno 17371 bound_to 10713
  140.5899  134.5661  157.5497 LP  0  0  0  0  0  0  0  0  0  0  0  0  # atno 17394 bound_to 11000
  139.9419  134.7772  156.0658 LP  0  0  0  0  0  0  0  0  0  0  0  0  # atno 17395 bound_to 11000

$$$$
