AV-unprocessed.smi:2074|AV-procd|sdf|8452|dock1
  -GOLD-   2272011143D 1   1.00000     0.00000
 Structure written by MMmdl.
 43 44  0  0  0  0  0  0  0  0  1 V2000
  152.5793  138.8719  156.3071 C   0  0  0  0  0  0  0  0  0  0  0  0
  151.8590  140.0824  156.8272 C   0  0  0  0  0  0  0  0  0  0  0  0
  151.5707  141.0729  155.9999 N   0  0  0  0  0  0  0  0  0  0  0  0
  150.9251  142.0420  156.7736 O   0  0  0  0  0  0  0  0  0  0  0  0
  150.8518  141.5922  158.0521 C   0  0  0  0  0  0  0  0  0  0  0  0
  150.1987  142.4953  159.0426 C   0  0  0  0  0  0  0  0  0  0  0  0
  151.4211  140.3531  158.1562 C   0  0  0  0  0  0  0  0  0  0  0  0
  151.5619  139.4829  159.3806 C   0  0  0  0  0  0  0  0  0  0  0  0
  150.7863  138.1761  159.1945 C   0  0  0  0  0  0  0  0  0  0  0  0
  151.3080  137.0982  159.4816 O   0  0  0  0  0  0  0  0  0  0  0  0
  149.5441  138.2839  158.6984 N   0  0  0  0  0  0  0  0  0  0  0  0
  148.6731  137.1584  158.3706 C   0  0  0  0  0  0  0  0  0  0  0  0
  147.2041  137.3793  158.8347 C   0  0  2  0  0  0  0  0  0  0  0  0
  146.7510  138.7921  158.3862 C   0  0  0  0  0  0  0  0  0  0  0  0
  146.9993  137.1502  160.2838 N   0  0  0  0  0  0  0  0  0  0  0  0
  147.8760  136.1038  160.8230 C   0  0  0  0  0  0  0  0  0  0  0  0
  147.6402  135.8406  162.3205 C   0  0  0  0  0  0  0  0  0  0  0  0
  146.2794  135.4951  162.5387 O   0  0  0  0  0  0  0  0  0  0  0  0
  145.3939  136.5160  162.1008 C   0  0  0  0  0  0  0  0  0  0  0  0
  145.6138  136.7843  160.6020 C   0  0  0  0  0  0  0  0  0  0  0  0
  152.2395  137.9667  156.8103 H   0  0  0  0  0  0  0  0  0  0  0  0
  153.6532  138.9609  156.4718 H   0  0  0  0  0  0  0  0  0  0  0  0
  152.4165  138.7352  155.2376 H   0  0  0  0  0  0  0  0  0  0  0  0
  150.7376  142.4832  159.9900 H   0  0  0  0  0  0  0  0  0  0  0  0
  149.1725  142.1812  159.2322 H   0  0  0  0  0  0  0  0  0  0  0  0
  150.1775  143.5238  158.6813 H   0  0  0  0  0  0  0  0  0  0  0  0
  152.6053  139.2351  159.5764 H   0  0  0  0  0  0  0  0  0  0  0  0
  151.2040  140.0045  160.2694 H   0  0  0  0  0  0  0  0  0  0  0  0
  149.1902  139.2078  158.4975 H   0  0  0  0  0  0  0  0  0  0  0  0
  148.7505  137.0002  157.2962 H   0  0  0  0  0  0  0  0  0  0  0  0
  149.0802  136.2626  158.8405 H   0  0  0  0  0  0  0  0  0  0  0  0
  146.5866  136.6602  158.2939 H   0  0  0  0  0  0  0  0  0  0  0  0
  146.9836  138.9956  157.3421 H   0  0  0  0  0  0  0  0  0  0  0  0
  147.2324  139.5679  158.9826 H   0  0  0  0  0  0  0  0  0  0  0  0
  145.6727  138.9224  158.4686 H   0  0  0  0  0  0  0  0  0  0  0  0
  147.7326  135.1768  160.2654 H   0  0  0  0  0  0  0  0  0  0  0  0
  148.9224  136.3808  160.7154 H   0  0  0  0  0  0  0  0  0  0  0  0
  148.2740  135.0235  162.6653 H   0  0  0  0  0  0  0  0  0  0  0  0
  147.9008  136.7195  162.9123 H   0  0  0  0  0  0  0  0  0  0  0  0
  144.3674  136.1964  162.2810 H   0  0  0  0  0  0  0  0  0  0  0  0
  145.5536  137.4241  162.6844 H   0  0  0  0  0  0  0  0  0  0  0  0
  144.9307  137.5828  160.3180 H   0  0  0  0  0  0  0  0  0  0  0  0
  145.3243  135.9011  160.0304 H   0  0  0  0  0  0  0  0  0  0  0  0
  1  2  1  0  0  0  0
  1 21  1  0  0  0  0
  1 22  1  0  0  0  0
  1 23  1  0  0  0  0
  2  7  1  0  0  0  0
  2  3  2  0  0  0  0
  3  4  1  0  0  0  0
  4  5  1  0  0  0  0
  5  6  1  0  0  0  0
  5  7  2  0  0  0  0
  6 24  1  0  0  0  0
  6 25  1  0  0  0  0
  6 26  1  0  0  0  0
  7  8  1  0  0  0  0
  8  9  1  0  0  0  0
  8 27  1  0  0  0  0
  8 28  1  0  0  0  0
  9 10  2  0  0  0  0
  9 11  1  0  0  0  0
 11 12  1  0  0  0  0
 11 29  1  0  0  0  0
 12 13  1  0  0  0  0
 12 30  1  0  0  0  0
 12 31  1  0  0  0  0
 13 14  1  0  0  0  0
 13 15  1  0  0  0  0
 13 32  1  0  0  0  0
 14 33  1  0  0  0  0
 14 34  1  0  0  0  0
 14 35  1  0  0  0  0
 15 20  1  0  0  0  0
 15 16  1  0  0  0  0
 16 17  1  0  0  0  0
 16 36  1  0  0  0  0
 16 37  1  0  0  0  0
 17 18  1  0  0  0  0
 17 38  1  0  0  0  0
 17 39  1  0  0  0  0
 18 19  1  0  0  0  0
 19 20  1  0  0  0  0
 19 40  1  0  0  0  0
 19 41  1  0  0  0  0
 20 42  1  0  0  0  0
 20 43  1  0  0  0  0
M  END
> <s_m_source_file>
AV-unprocessed.smi

> <i_m_source_file_index>
2074

> <i_lp_mmshare_version>
43012

> <i_f3d_flags>
0

> <s_epik_input>
W0NIM11jMW5vYyhbQ0gzXSljMVtDSDJdQyg9TylbTkhdW0NIMl1bQ0BIXShbQ0gzXSlOMltDSDJdW0NIMl1PW0NIMl1bQ0gyXTI=

> <s_epik_cmdline>
J2VwaWtfcHl0aG9uJywgJy1waCcsICc3LjAnLCAnLXRuJywgJzgnLCAnLW1hJywgJzIwMCcsICctbWV0YWxfYmluZGluZycsICctaW1hZScsICc8aW5maWxlLm1hZT4nLCAnLW9tYWUnLCAnPG91dGZpbGUubWFlPic=

> <r_epik_Ionization_Penalty>
0.234179

> <r_epik_Ionization_Penalty_Charging>
0

> <r_epik_Ionization_Penalty_Neutral>
0.234179

> <r_epik_State_Penalty>
0.224936

> <r_epik_Charging_Adjusted_Penalty>
0.224936

> <i_epik_Tot_Q>
0

> <i_epik_Tot_abs_Q>
0

> <r_epik_Metal_State_Penalty>
0.224936

> <b_epik_Metal_Only>
0

> <s_lp_Force_Field>
OPLS_2005

> <r_lp_Energy>
22.7236

> <b_lp_Chiralities_Consistent>
1

> <s_lp_Variant>
AV-unprocessed.smi:2074-1

> <Gold.Version>
5.8.1

> <Gold.Id.Protein>
6NUR|6NUR_protein|mol2

> <Gold.PLP.Fitness>
35.6142

> <Gold.PLP.PLP>
-28.4088

> <Gold.PLP.part.hbond>
-3.6460

> <Gold.PLP.part.metal>
0.0000

> <Gold.PLP.part.buried>
-5.2077

> <Gold.PLP.part.nonpolar>
-20.7507

> <Gold.PLP.part.repulsive>
0.2455

> <Gold.PLP.ligand.clash>
0.0000

> <Gold.PLP.ligand.torsion>
0.9284

> <Gold.PLP.Chemscore.Hbond>
2.9920

> <Gold.PLP.Chemscore.CHOScore>
0.0000

> <Gold.PLP.Chemscore.Metal>
0.0000

> <Gold.Chemscore.Hbonds>
donor molecule, donor type, donor heavy atom, donor atom, acceptor molecule, acceptor atom, score
      P1  H  6896  6907       L1    10  1.00
      P1  H  6934  6947       L1    15  0.95

> <Gold.PLP.Chemscore.Internal.Correction>
0.0861

> <Gold.Rescore>
     Score         DG    S(hbond)    S(metal)    S(lipo)     H(rot)  DE(clash)    DE(int)     intcor
     14.16     -15.41       2.09        0.00      62.93       1.72       0.00       1.25       ----

> <Gold.Chemscore.Fitness>
14.1633

> <Gold.Chemscore.DG>
-15.4108

> <Gold.Chemscore.ZeroCoef>
-5.4800

> <Gold.Chemscore.Hbond>
2.0869

> <Gold.Chemscore.Metal>
0.0000

> <Gold.Chemscore.Lipo>
62.9259

> <Gold.Chemscore.Internal_Hbond>
0.0000

> <Gold.Chemscore.DEClash>
0.0000

> <Gold.Chemscore.DEInternal>
1.2475

> <Gold.Chemscore.Rot>
1.7195

> <Gold.Chemscore.Internal.Correction>
   9.000000E+99

> <Gold.Chemscore.Hbonds>
donor molecule, donor type, donor heavy atom, donor atom, acceptor molecule, acceptor atom, score
      P1  H  6896  6907       L1    10  0.94
      P1  H  6934  6947       L1    15  0.10
      P1  H  7989  7998       L1     3  0.01

> <Gold.Chemscore.Hbond.Weighted>
-6.9702

> <Gold.Chemscore.Metal.Weighted>
-0.0000

> <Gold.Chemscore.Lipo.Weighted>
-7.3623

> <Gold.Chemscore.Internal_Hbond.Weighted>
0.0000

> <Gold.Chemscore.DEClash.Weighted>
0.0000

> <Gold.Chemscore.DEInternal.Weighted>
1.2475

> <Gold.Chemscore.Rot.Weighted>
4.4018

> <Gold.Chemscore.Internal.Correction.Weighted>
   9.000000E+99

> <Gold.Protein.RotatedTorsions>
[ 6907 6896 6895 6894 ] final  -22.42 input  -60.11 | X-H torsion
[ 7974 7965 7964 7962 ] final  158.20 input  175.53 | X-H torsion
[ 8008 7997 7996 7995 ] final -146.92 input   59.86 | X-H torsion
[ 10167 10162 10161 10158 ] final  -64.26 input  -65.29 | X-H torsion
[ 10718 10713 10712 10709 ] final  -33.50 input   66.30 | X-H torsion
[ 10763 10752 10751 10750 ] final   76.16 input  -60.55 | X-H torsion
[ 11005 11000 10999 10996 ] final -175.68 input  -57.11 | X-H torsion

> <Gold.Protein.ActiveResidues>
 VAL166  LYS551  ARG553  GLY616  TRP617  ASP618  TYR619  PRO620  LYS621  CYS622 
 ASP623  PHE694  ASN695  SER759  ASP760  ASP761  ALA762  ILE779  LEU786  VAL792 
 PHE793  MET794  SER795  GLU796  ALA797  LYS798  CYS799  TRP800  GLU811  SER814 

> <Gold.Protein.RotatedAtoms>
  151.2189  135.0511  159.8941 H   0  0  0  0  0  0  0  0  0  0  0  0  # atno 6907 bound_to 6896
  152.5417  134.0662  159.8184 H   0  0  0  0  0  0  0  0  0  0  0  0  # atno 6908 bound_to 6896
  151.0826  133.5330  159.2651 H   0  0  0  0  0  0  0  0  0  0  0  0  # atno 6909 bound_to 6896
  144.7859  139.7445  143.6241 H   0  0  0  0  0  0  0  0  0  0  0  0  # atno 7974 bound_to 7965
  155.5672  140.0631  157.2815 H   0  0  0  0  0  0  0  0  0  0  0  0  # atno 8008 bound_to 7997
  154.4372  140.1875  156.0888 H   0  0  0  0  0  0  0  0  0  0  0  0  # atno 8009 bound_to 7997
  156.0403  140.3296  155.7240 H   0  0  0  0  0  0  0  0  0  0  0  0  # atno 8010 bound_to 7997
  140.5813  143.2328  151.6336 H   0  0  0  0  0  0  0  0  0  0  0  0  # atno 10167 bound_to 10162
  156.3618  130.4325  149.7617 H   0  0  0  0  0  0  0  0  0  0  0  0  # atno 10718 bound_to 10713
  153.0705  135.4962  154.8295 H   0  0  0  0  0  0  0  0  0  0  0  0  # atno 10763 bound_to 10752
  154.7016  135.3003  154.9334 H   0  0  0  0  0  0  0  0  0  0  0  0  # atno 10764 bound_to 10752
  154.0056  135.6761  153.4815 H   0  0  0  0  0  0  0  0  0  0  0  0  # atno 10765 bound_to 10752
  140.4605  134.6259  157.4841 H   0  0  0  0  0  0  0  0  0  0  0  0  # atno 11005 bound_to 11000
  146.2091  139.5435  142.9693 LP  0  0  0  0  0  0  0  0  0  0  0  0  # atno 17320 bound_to 7965
  145.5922  141.0368  143.2064 LP  0  0  0  0  0  0  0  0  0  0  0  0  # atno 17321 bound_to 7965
  139.5171  144.3325  152.0814 LP  0  0  0  0  0  0  0  0  0  0  0  0  # atno 17342 bound_to 10162
  140.2475  144.4204  150.6235 LP  0  0  0  0  0  0  0  0  0  0  0  0  # atno 17343 bound_to 10162
  156.4778  130.8027  151.3042 LP  0  0  0  0  0  0  0  0  0  0  0  0  # atno 17370 bound_to 10713
  157.7474  131.0015  150.2967 LP  0  0  0  0  0  0  0  0  0  0  0  0  # atno 17371 bound_to 10713
  139.9948  134.6928  155.9628 LP  0  0  0  0  0  0  0  0  0  0  0  0  # atno 17394 bound_to 11000
  141.1623  133.6538  156.4361 LP  0  0  0  0  0  0  0  0  0  0  0  0  # atno 17395 bound_to 11000

$$$$
