AV-unprocessed.smi:1999|AV-procd|sdf|8095|dock6
  -GOLD-   2272010313D 1   1.00000     0.00000
 Structure written by MMmdl.
 39 40  0  0  0  0  0  0  0  0  2 V2000
  154.1643  137.1958  158.1885 C   0  0  0  0  0  0  0  0  0  0  0  0
  153.1094  136.9828  157.1572 C   0  0  0  0  0  0  0  0  0  0  0  0
  152.7820  135.7673  156.7019 N   0  0  0  0  0  0  0  0  0  0  0  0
  151.7770  135.8167  155.7462 N   0  0  0  0  0  0  0  0  0  0  0  0
  151.3738  137.0725  155.5096 C   0  0  0  0  0  0  0  0  0  0  0  0
  150.3637  137.4126  154.5712 N   0  0  0  0  0  0  0  0  0  0  0  0
  149.5240  138.4621  154.5980 C   0  0  0  0  0  0  0  0  0  0  0  0
  149.5247  139.3527  155.4479 O   0  0  0  0  0  0  0  0  0  0  0  0
  148.6590  138.4203  153.5732 N   0  0  0  0  0  0  0  0  0  0  0  0
  147.6253  139.4139  153.2777 C   0  0  1  0  0  0  0  0  0  0  0  0
  147.0128  139.1003  151.9060 C   0  0  0  0  0  0  0  0  0  0  0  0
  146.5389  139.4501  154.3786 C   0  0  0  0  0  0  0  0  0  0  0  0
  145.8228  140.7490  154.4520 N   0  3  0  0  0  0  0  0  0  0  0  0
  145.2019  141.0099  155.7735 C   0  0  0  0  0  0  0  0  0  0  0  0
  144.4124  142.3286  155.7361 C   0  0  0  0  0  0  0  0  0  0  0  0
  145.2810  143.3903  155.3591 O   0  0  0  0  0  0  0  0  0  0  0  0
  145.8302  143.1950  154.0614 C   0  0  0  0  0  0  0  0  0  0  0  0
  146.6594  141.8992  154.0381 C   0  0  0  0  0  0  0  0  0  0  0  0
  152.2025  138.3093  156.4394 S   0  0  0  0  0  0  0  0  0  0  0  0
  153.9926  136.5409  159.0431 H   0  0  0  0  0  0  0  0  0  0  0  0
  154.1541  138.2296  158.5349 H   0  0  0  0  0  0  0  0  0  0  0  0
  155.1461  136.9769  157.7687 H   0  0  0  0  0  0  0  0  0  0  0  0
  150.2627  136.7742  153.7958 H   0  0  0  0  0  0  0  0  0  0  0  0
  148.7365  137.6493  152.9260 H   0  0  0  0  0  0  0  0  0  0  0  0
  148.0907  140.3971  153.1966 H   0  0  0  0  0  0  0  0  0  0  0  0
  146.2627  139.8429  151.6324 H   0  0  0  0  0  0  0  0  0  0  0  0
  146.5299  138.1224  151.8981 H   0  0  0  0  0  0  0  0  0  0  0  0
  147.7746  139.1022  151.1255 H   0  0  0  0  0  0  0  0  0  0  0  0
  145.8163  138.6450  154.2354 H   0  0  0  0  0  0  0  0  0  0  0  0
  147.0222  139.2541  155.3370 H   0  0  0  0  0  0  0  0  0  0  0  0
  144.5328  140.1953  156.0488 H   0  0  0  0  0  0  0  0  0  0  0  0
  145.9758  141.0602  156.5409 H   0  0  0  0  0  0  0  0  0  0  0  0
  143.5734  142.2620  155.0412 H   0  0  0  0  0  0  0  0  0  0  0  0
  143.9951  142.5448  156.7198 H   0  0  0  0  0  0  0  0  0  0  0  0
  145.0322  143.1595  153.3178 H   0  0  0  0  0  0  0  0  0  0  0  0
  146.4599  144.0492  153.8121 H   0  0  0  0  0  0  0  0  0  0  0  0
  147.5177  141.9884  154.7061 H   0  0  0  0  0  0  0  0  0  0  0  0
  147.0485  141.7333  153.0329 H   0  0  0  0  0  0  0  0  0  0  0  0
  145.0683  140.6949  153.7819 H   0  0  0  0  0  0  0  0  0  0  0  0
  1  2  1  0  0  0  0
  1 20  1  0  0  0  0
  1 21  1  0  0  0  0
  1 22  1  0  0  0  0
  2 19  1  0  0  0  0
  2  3  2  0  0  0  0
  3  4  1  0  0  0  0
  4  5  2  0  0  0  0
  5  6  1  0  0  0  0
  5 19  1  0  0  0  0
  6  7  1  0  0  0  0
  6 23  1  0  0  0  0
  7  8  2  0  0  0  0
  7  9  1  0  0  0  0
  9 10  1  0  0  0  0
  9 24  1  0  0  0  0
 10 11  1  0  0  0  0
 10 12  1  0  0  0  0
 10 25  1  0  0  0  0
 11 26  1  0  0  0  0
 11 27  1  0  0  0  0
 11 28  1  0  0  0  0
 12 13  1  0  0  0  0
 12 29  1  0  0  0  0
 12 30  1  0  0  0  0
 13 18  1  0  0  0  0
 13 14  1  0  0  0  0
 13 39  1  0  0  0  0
 14 15  1  0  0  0  0
 14 31  1  0  0  0  0
 14 32  1  0  0  0  0
 15 16  1  0  0  0  0
 15 33  1  0  0  0  0
 15 34  1  0  0  0  0
 16 17  1  0  0  0  0
 17 18  1  0  0  0  0
 17 35  1  0  0  0  0
 17 36  1  0  0  0  0
 18 37  1  0  0  0  0
 18 38  1  0  0  0  0
M  CHG  1  13   1
M  END
> <s_m_source_file>
AV-unprocessed.smi

> <i_m_source_file_index>
1999

> <i_lp_mmshare_version>
43012

> <i_f3d_flags>
0

> <s_epik_input>
W0NIM11jMW5uYyhzMSlbTkhdQyg9TylbTkhdW0NASF0oW0NIM10pW0NIMl1OMltDSDJdW0NIMl1PW0NIMl1bQ0gyXTI=

> <s_epik_cmdline>
J2VwaWtfcHl0aG9uJywgJy1waCcsICc3LjAnLCAnLXRuJywgJzgnLCAnLW1hJywgJzIwMCcsICctbWV0YWxfYmluZGluZycsICctaW1hZScsICc8aW5maWxlLm1hZT4nLCAnLW9tYWUnLCAnPG91dGZpbGUubWFlPic=

> <r_lp_tautomer_probability>
1

> <r_epik_Ionization_Penalty>
0.701298

> <r_epik_Ionization_Penalty_Charging>
0.695697

> <r_epik_Ionization_Penalty_Neutral>
0.00560124

> <r_epik_State_Penalty>
0.717972

> <r_epik_Charging_Adjusted_Penalty>
1.41367

> <i_epik_Tot_Q>
1

> <i_epik_Tot_abs_Q>
1

> <r_epik_Metal_State_Penalty>
1.07748

> <b_epik_Metal_Only>
0

> <s_lp_Force_Field>
OPLS_2005

> <r_lp_Energy>
20.3005

> <b_lp_Chiralities_Consistent>
1

> <s_lp_Variant>
AV-unprocessed.smi:1999-4

> <Gold.Version>
5.8.1

> <Gold.Id.Protein>
6NUR|6NUR_protein|mol2

> <Gold.PLP.Fitness>
38.5588

> <Gold.PLP.PLP>
-26.0043

> <Gold.PLP.part.hbond>
-6.0000

> <Gold.PLP.part.metal>
0.0000

> <Gold.PLP.part.buried>
-1.2037

> <Gold.PLP.part.nonpolar>
-20.4573

> <Gold.PLP.part.repulsive>
0.3968

> <Gold.PLP.ligand.clash>
0.0000

> <Gold.PLP.ligand.torsion>
0.7887

> <Gold.PLP.Chemscore.Hbond>
4.6944

> <Gold.PLP.Chemscore.CHOScore>
0.0000

> <Gold.PLP.Chemscore.Metal>
0.0000

> <Gold.Chemscore.Hbonds>
donor molecule, donor type, donor heavy atom, donor atom, acceptor molecule, acceptor atom, score
      L1  H     6    23       P1  7948  0.14
      L1  H     9    24       P1  7948  1.00
      L1  H    13    39       P1 10175  2.00

> <Gold.PLP.Chemscore.Internal.Correction>
0.0489

> <Gold.Rescore>
     Score         DG    S(hbond)    S(metal)    S(lipo)     H(rot)  DE(clash)    DE(int)     intcor
     14.78     -15.76       2.51        0.00      51.88       1.63       0.08       0.90       ----

> <Gold.Chemscore.Fitness>
14.7786

> <Gold.Chemscore.DG>
-15.7601

> <Gold.Chemscore.ZeroCoef>
-5.4800

> <Gold.Chemscore.Hbond>
2.5113

> <Gold.Chemscore.Metal>
0.0000

> <Gold.Chemscore.Lipo>
51.8767

> <Gold.Chemscore.Internal_Hbond>
0.0000

> <Gold.Chemscore.DEClash>
0.0803

> <Gold.Chemscore.DEInternal>
0.9012

> <Gold.Chemscore.Rot>
1.6317

> <Gold.Chemscore.Internal.Correction>
   9.000000E+99

> <Gold.Chemscore.Hbonds>
donor molecule, donor type, donor heavy atom, donor atom, acceptor molecule, acceptor atom, score
      L1  H     6    23       P1  7948  0.02
      L1  H     9    24       P1  7948  1.00
      L1  H    13    39       P1 10175  0.97

> <Gold.Chemscore.Hbond.Weighted>
-8.3878

> <Gold.Chemscore.Metal.Weighted>
-0.0000

> <Gold.Chemscore.Lipo.Weighted>
-6.0696

> <Gold.Chemscore.Internal_Hbond.Weighted>
0.0000

> <Gold.Chemscore.DEClash.Weighted>
0.0803

> <Gold.Chemscore.DEInternal.Weighted>
0.9012

> <Gold.Chemscore.Rot.Weighted>
4.1773

> <Gold.Chemscore.Internal.Correction.Weighted>
   9.000000E+99

> <Gold.Protein.RotatedTorsions>
[ 6907 6896 6895 6894 ] final -150.89 input  -60.11 | X-H torsion
[ 7974 7965 7964 7962 ] final   71.66 input  175.53 | X-H torsion
[ 8008 7997 7996 7995 ] final  -24.92 input   59.86 | X-H torsion
[ 10167 10162 10161 10158 ] final  101.27 input  -65.29 | X-H torsion
[ 10718 10713 10712 10709 ] final -178.35 input   66.30 | X-H torsion
[ 10763 10752 10751 10750 ] final -118.37 input  -60.55 | X-H torsion
[ 11005 11000 10999 10996 ] final  165.94 input  -57.11 | X-H torsion

> <Gold.Protein.ActiveResidues>
 VAL166  LYS551  ARG553  GLY616  TRP617  ASP618  TYR619  PRO620  LYS621  CYS622 
 ASP623  PHE694  ASN695  SER759  ASP760  ASP761  ALA762  ILE779  LEU786  VAL792 
 PHE793  MET794  SER795  GLU796  ALA797  LYS798  CYS799  TRP800  GLU811  SER814 

> <Gold.Protein.RotatedAtoms>
  151.2051  133.4588  159.2596 H   0  0  0  0  0  0  0  0  0  0  0  0  # atno 6907 bound_to 6896
  151.1031  134.9984  159.8468 H   0  0  0  0  0  0  0  0  0  0  0  0  # atno 6908 bound_to 6896
  152.5445  134.1976  159.8752 H   0  0  0  0  0  0  0  0  0  0  0  0  # atno 6909 bound_to 6896
  145.7630  139.2809  143.1365 H   0  0  0  0  0  0  0  0  0  0  0  0  # atno 7974 bound_to 7965
  154.4503  140.1940  156.0539 H   0  0  0  0  0  0  0  0  0  0  0  0  # atno 8008 bound_to 7997
  156.0633  140.3294  155.7461 H   0  0  0  0  0  0  0  0  0  0  0  0  # atno 8009 bound_to 7997
  155.5377  140.0583  157.2867 H   0  0  0  0  0  0  0  0  0  0  0  0  # atno 8010 bound_to 7997
  139.7453  144.7000  151.0513 H   0  0  0  0  0  0  0  0  0  0  0  0  # atno 10167 bound_to 10162
  156.8430  130.9693  151.3098 H   0  0  0  0  0  0  0  0  0  0  0  0  # atno 10718 bound_to 10713
  154.8585  135.4276  154.2128 H   0  0  0  0  0  0  0  0  0  0  0  0  # atno 10763 bound_to 10752
  153.3150  135.6978  153.7087 H   0  0  0  0  0  0  0  0  0  0  0  0  # atno 10764 bound_to 10752
  153.6165  135.3510  155.2970 H   0  0  0  0  0  0  0  0  0  0  0  0  # atno 10765 bound_to 10752
  140.2613  134.7900  157.3592 H   0  0  0  0  0  0  0  0  0  0  0  0  # atno 11005 bound_to 11000
  146.0245  140.8317  142.9907 LP  0  0  0  0  0  0  0  0  0  0  0  0  # atno 17320 bound_to 7965
  144.6827  140.2678  143.7310 LP  0  0  0  0  0  0  0  0  0  0  0  0  # atno 17321 bound_to 7965
  140.7791  143.4874  150.9937 LP  0  0  0  0  0  0  0  0  0  0  0  0  # atno 17342 bound_to 10162
  139.8562  143.7373  152.3176 LP  0  0  0  0  0  0  0  0  0  0  0  0  # atno 17343 bound_to 10162
  157.6345  130.8755  149.9334 LP  0  0  0  0  0  0  0  0  0  0  0  0  # atno 17370 bound_to 10713
  156.0870  130.3667  150.0469 LP  0  0  0  0  0  0  0  0  0  0  0  0  # atno 17371 bound_to 10713
  140.1462  134.4908  155.7994 LP  0  0  0  0  0  0  0  0  0  0  0  0  # atno 17394 bound_to 11000
  141.2190  133.6844  156.7298 LP  0  0  0  0  0  0  0  0  0  0  0  0  # atno 17395 bound_to 11000

$$$$
