AV-unprocessed.smi:54|AV-procd|sdf|548|dock7
  -GOLD-   2262016443D 1   1.00000     0.00000
 Structure written by MMmdl.
 43 45  0  0  0  0  0  0  0  0  2 V2000
  146.6499  135.0344  162.2752 C   0  0  0  0  0  0  0  0  0  0  0  0
  147.0812  135.1609  160.8045 C   0  0  0  0  0  0  0  0  0  0  0  0
  147.4780  133.7951  160.2199 C   0  0  0  0  0  0  0  0  0  0  0  0
  148.2294  136.1698  160.6604 C   0  0  0  0  0  0  0  0  0  0  0  0
  148.6383  136.7617  161.6623 O   0  0  0  0  0  0  0  0  0  0  0  0
  148.7065  136.3275  159.4052 N   0  0  0  0  0  0  0  0  0  0  0  0
  149.7317  137.1637  158.9477 C   0  0  0  0  0  0  0  0  0  0  0  0
  149.5428  137.9384  157.9027 N   0  0  0  0  0  0  0  0  0  0  0  0
  150.6618  138.6861  157.5922 C   0  0  0  0  0  0  0  0  0  0  0  0
  151.8687  138.6952  158.2352 C   0  0  0  0  0  0  0  0  0  0  0  0
  152.7585  139.5758  157.6330 N   0  0  0  0  0  0  0  0  0  0  0  0
  152.0286  140.0670  156.6328 C   0  0  0  0  0  0  0  0  0  0  0  0
  150.7729  139.5819  156.5351 N   0  0  0  0  0  0  0  0  0  0  0  0
  149.7147  139.9318  155.5306 C   0  0  1  0  0  0  0  0  0  0  0  0
  148.6564  139.0340  155.6984 O   0  0  0  0  0  0  0  0  0  0  0  0
  147.4646  139.7090  156.1059 C   0  0  1  0  0  0  0  0  0  0  0  0
  146.6530  138.8533  157.0947 C   0  0  0  0  0  0  0  0  0  0  0  0
  145.4577  139.5177  157.4434 O   0  0  0  0  0  0  0  0  0  0  0  0
  147.9309  141.0741  156.6348 C   0  0  1  0  0  0  0  0  0  0  0  0
  148.2555  141.0222  158.0141 O   0  0  0  0  0  0  0  0  0  0  0  0
  149.1447  141.3430  155.7579 C   0  0  1  0  0  0  0  0  0  0  0  0
  150.0404  142.2905  156.3121 O   0  0  0  0  0  0  0  0  0  0  0  0
  152.0069  137.8018  159.4094 C   0  0  0  0  0  0  0  0  0  0  0  0
  153.0731  137.7778  160.0212 O   0  0  0  0  0  0  0  0  0  0  0  0
  150.9010  137.0589  159.7169 N   0  5  0  0  0  0  0  0  0  0  0  0
  150.2023  139.8026  154.5637 H   0  0  0  0  0  0  0  0  0  0  0  0
  146.8741  139.8942  155.2067 H   0  0  0  0  0  0  0  0  0  0  0  0
  147.1636  141.8372  156.5004 H   0  0  0  0  0  0  0  0  0  0  0  0
  148.8039  141.7119  154.7897 H   0  0  0  0  0  0  0  0  0  0  0  0
  146.3818  136.0052  162.6941 H   0  0  0  0  0  0  0  0  0  0  0  0
  147.4442  134.6123  162.8924 H   0  0  0  0  0  0  0  0  0  0  0  0
  145.7786  134.3861  162.3709 H   0  0  0  0  0  0  0  0  0  0  0  0
  146.2249  135.5298  160.2370 H   0  0  0  0  0  0  0  0  0  0  0  0
  147.7886  133.8848  159.1779 H   0  0  0  0  0  0  0  0  0  0  0  0
  146.6385  133.1003  160.2513 H   0  0  0  0  0  0  0  0  0  0  0  0
  148.3009  133.3434  160.7757 H   0  0  0  0  0  0  0  0  0  0  0  0
  148.2483  135.7679  158.7012 H   0  0  0  0  0  0  0  0  0  0  0  0
  152.4250  140.8020  155.9488 H   0  0  0  0  0  0  0  0  0  0  0  0
  146.4302  137.8692  156.6823 H   0  0  0  0  0  0  0  0  0  0  0  0
  147.2196  138.7012  158.0139 H   0  0  0  0  0  0  0  0  0  0  0  0
  145.4614  139.6718  158.3757 H   0  0  0  0  0  0  0  0  0  0  0  0
  149.1718  141.2328  158.1112 H   0  0  0  0  0  0  0  0  0  0  0  0
  149.7674  143.1541  156.0417 H   0  0  0  0  0  0  0  0  0  0  0  0
  1  2  1  0  0  0  0
  1 30  1  0  0  0  0
  1 31  1  0  0  0  0
  1 32  1  0  0  0  0
  2  3  1  0  0  0  0
  2  4  1  0  0  0  0
  2 33  1  0  0  0  0
  3 34  1  0  0  0  0
  3 35  1  0  0  0  0
  3 36  1  0  0  0  0
  4  5  2  0  0  0  0
  4  6  1  0  0  0  0
  6 37  1  0  0  0  0
  6  7  1  0  0  0  0
  7 25  1  0  0  0  0
  7  8  2  0  0  0  0
  8  9  1  0  0  0  0
  9 13  1  0  0  0  0
  9 10  2  0  0  0  0
 10 11  1  0  0  0  0
 10 23  1  0  0  0  0
 11 12  2  0  0  0  0
 12 13  1  0  0  0  0
 12 38  1  0  0  0  0
 13 14  1  0  0  0  0
 14 26  1  0  0  0  0
 14 21  1  0  0  0  0
 14 15  1  0  0  0  0
 15 16  1  0  0  0  0
 16 27  1  0  0  0  0
 16 17  1  0  0  0  0
 16 19  1  0  0  0  0
 17 18  1  0  0  0  0
 17 39  1  0  0  0  0
 17 40  1  0  0  0  0
 18 41  1  0  0  0  0
 19 28  1  0  0  0  0
 19 20  1  0  0  0  0
 19 21  1  0  0  0  0
 20 42  1  0  0  0  0
 21 29  1  0  0  0  0
 21 22  1  0  0  0  0
 22 43  1  0  0  0  0
 23 24  2  0  0  0  0
 23 25  1  0  0  0  0
M  CHG  1  25  -1
M  END
> <s_m_source_file>
AV-unprocessed.smi

> <i_m_source_file_index>
54

> <i_lp_mmshare_version>
43012

> <i_f3d_flags>
0

> <s_epik_input>
W0NIM11bQ0hdKFtDSDNdKUMoPU8pW05IXWMobjEpW25IXWMoPU8pYyhjMTIpbltjSF1uMltDQEBIXTNPW0NASF0oW0NIMl1bT0hdKVtDQEBIXShbT0hdKVtDQEhdM1tPSF0=

> <s_epik_cmdline>
J2VwaWtfcHl0aG9uJywgJy1waCcsICc3LjAnLCAnLXRuJywgJzgnLCAnLW1hJywgJzIwMCcsICctbWV0YWxfYmluZGluZycsICctaW1hZScsICc8aW5maWxlLm1hZT4nLCAnLW9tYWUnLCAnPG91dGZpbGUubWFlPic=

> <r_lp_tautomer_probability>
0.85571

> <r_epik_Ionization_Penalty>
1.75936

> <r_epik_Ionization_Penalty_Charging>
4.55893e-11

> <r_epik_Ionization_Penalty_Neutral>
1.75936

> <r_epik_State_Penalty>
1.72072

> <r_epik_Charging_Adjusted_Penalty>
1.72072

> <i_epik_Tot_Q>
-1

> <i_epik_Tot_abs_Q>
1

> <r_epik_Metal_State_Penalty>
0.400338

> <b_epik_Metal_Only>
1

> <s_epik_Chemistry_Notes>
This compound contains an acetal/aminal-like group ( X-CH(R)-Y where X, Y are N, S, or O) that may be acid/base labile, releasing an aldehyde.

> <s_lp_Force_Field>
OPLS_2005

> <r_lp_Energy>
61.5499

> <b_lp_Chiralities_Consistent>
1

> <s_lp_Variant>
AV-unprocessed.smi:54-20

> <Gold.Version>
5.8.1

> <Gold.Id.Protein>
6NUR|6NUR_protein|mol2

> <Gold.PLP.Fitness>
41.4211

> <Gold.PLP.PLP>
-27.3295

> <Gold.PLP.part.hbond>
-4.3098

> <Gold.PLP.part.metal>
0.0000

> <Gold.PLP.part.buried>
-5.4079

> <Gold.PLP.part.nonpolar>
-18.5280

> <Gold.PLP.part.repulsive>
0.1965

> <Gold.PLP.ligand.clash>
0.0038

> <Gold.PLP.ligand.torsion>
0.6829

> <Gold.PLP.Chemscore.Hbond>
4.9913

> <Gold.PLP.Chemscore.CHOScore>
0.0000

> <Gold.PLP.Chemscore.Metal>
0.0000

> <Gold.Chemscore.Hbonds>
donor molecule, donor type, donor heavy atom, donor atom, acceptor molecule, acceptor atom, score
      L1  H    22    43       P1  8028  1.00
      P1  H  6896  6908       L1    25  2.00
      P1  H  6931  6943       L1     5  1.00
      P1  H  7997  8008       L1    11  1.00

> <Gold.PLP.Chemscore.Internal.Correction>
0.4875

> <Gold.Rescore>
     Score         DG    S(hbond)    S(metal)    S(lipo)     H(rot)  DE(clash)    DE(int)     intcor
      5.90     -10.42       3.44        0.00      32.00       4.02       0.07       4.45       ----

> <Gold.Chemscore.Fitness>
5.9040

> <Gold.Chemscore.DG>
-10.4165

> <Gold.Chemscore.ZeroCoef>
-5.4800

> <Gold.Chemscore.Hbond>
3.4376

> <Gold.Chemscore.Metal>
0.0000

> <Gold.Chemscore.Lipo>
32.0025

> <Gold.Chemscore.Internal_Hbond>
0.0000

> <Gold.Chemscore.DEClash>
0.0650

> <Gold.Chemscore.DEInternal>
4.4475

> <Gold.Chemscore.Rot>
4.0192

> <Gold.Chemscore.Internal.Correction>
   9.000000E+99

> <Gold.Chemscore.Hbonds>
donor molecule, donor type, donor heavy atom, donor atom, acceptor molecule, acceptor atom, score
      L1  H    22    43       P1  8028  1.00
      P1  H  6896  6908       L1    25  0.36
      P1  H  6931  6943       L1     5  0.95
      P1  H  7997  8008       L1    11  0.29

> <Gold.Chemscore.Hbond.Weighted>
-11.4815

> <Gold.Chemscore.Metal.Weighted>
-0.0000

> <Gold.Chemscore.Lipo.Weighted>
-3.7443

> <Gold.Chemscore.Internal_Hbond.Weighted>
0.0000

> <Gold.Chemscore.DEClash.Weighted>
0.0650

> <Gold.Chemscore.DEInternal.Weighted>
4.4475

> <Gold.Chemscore.Rot.Weighted>
10.2893

> <Gold.Chemscore.Internal.Correction.Weighted>
   9.000000E+99

> <Gold.Protein.RotatedTorsions>
[ 6907 6896 6895 6894 ] final -145.51 input  -60.11 | X-H torsion
[ 7974 7965 7964 7962 ] final   -8.27 input  175.53 | X-H torsion
[ 8008 7997 7996 7995 ] final  -86.91 input   59.86 | X-H torsion
[ 10167 10162 10161 10158 ] final -176.20 input  -65.29 | X-H torsion
[ 10718 10713 10712 10709 ] final  -53.00 input   66.30 | X-H torsion
[ 10763 10752 10751 10750 ] final   53.03 input  -60.55 | X-H torsion
[ 11005 11000 10999 10996 ] final -150.63 input  -57.11 | X-H torsion

> <Gold.Protein.ActiveResidues>
 VAL166  LYS551  ARG553  GLY616  TRP617  ASP618  TYR619  PRO620  LYS621  CYS622 
 ASP623  PHE694  ASN695  SER759  ASP760  ASP761  ALA762  ILE779  LEU786  VAL792 
 PHE793  MET794  SER795  GLU796  ALA797  LYS798  CYS799  TRP800  GLU811  SER814 

> <Gold.Protein.RotatedAtoms>
  151.1288  133.5052  159.2599 H   0  0  0  0  0  0  0  0  0  0  0  0  # atno 6907 bound_to 6896
  151.1780  135.0348  159.8790 H   0  0  0  0  0  0  0  0  0  0  0  0  # atno 6908 bound_to 6896
  152.5459  134.1143  159.8425 H   0  0  0  0  0  0  0  0  0  0  0  0  # atno 6909 bound_to 6896
  146.2285  140.2443  142.8344 H   0  0  0  0  0  0  0  0  0  0  0  0  # atno 7974 bound_to 7965
  154.6572  140.0572  157.0021 H   0  0  0  0  0  0  0  0  0  0  0  0  # atno 8008 bound_to 7997
  155.1283  140.3254  155.4462 H   0  0  0  0  0  0  0  0  0  0  0  0  # atno 8009 bound_to 7997
  156.2602  140.1985  156.6403 H   0  0  0  0  0  0  0  0  0  0  0  0  # atno 8010 bound_to 7997
  139.5541  144.2033  152.1129 H   0  0  0  0  0  0  0  0  0  0  0  0  # atno 10167 bound_to 10162
  156.1573  130.4150  149.9849 H   0  0  0  0  0  0  0  0  0  0  0  0  # atno 10718 bound_to 10713
  152.9792  135.5792  154.4676 H   0  0  0  0  0  0  0  0  0  0  0  0  # atno 10763 bound_to 10752
  154.4243  135.2772  155.1957 H   0  0  0  0  0  0  0  0  0  0  0  0  # atno 10764 bound_to 10752
  154.3692  135.6171  153.5785 H   0  0  0  0  0  0  0  0  0  0  0  0  # atno 10765 bound_to 10752
  140.7382  134.3544  157.5153 H   0  0  0  0  0  0  0  0  0  0  0  0  # atno 11005 bound_to 11000
  144.9460  140.8129  143.5601 LP  0  0  0  0  0  0  0  0  0  0  0  0  # atno 17320 bound_to 7965
  145.2399  139.2077  143.4998 LP  0  0  0  0  0  0  0  0  0  0  0  0  # atno 17321 bound_to 7965
  140.1534  144.5093  150.6674 LP  0  0  0  0  0  0  0  0  0  0  0  0  # atno 17342 bound_to 10162
  140.6811  143.2327  151.5382 LP  0  0  0  0  0  0  0  0  0  0  0  0  # atno 17343 bound_to 10162
  156.7688  130.9178  151.3644 LP  0  0  0  0  0  0  0  0  0  0  0  0  # atno 17370 bound_to 10713
  157.6705  130.9046  150.0029 LP  0  0  0  0  0  0  0  0  0  0  0  0  # atno 17371 bound_to 10713
  139.8811  134.9063  156.2920 LP  0  0  0  0  0  0  0  0  0  0  0  0  # atno 17394 bound_to 11000
  140.9860  133.7238  156.0743 LP  0  0  0  0  0  0  0  0  0  0  0  0  # atno 17395 bound_to 11000

$$$$
