AV-unprocessed.smi:2141|AV-procd|sdf|8719|dock2
  -GOLD-   2272011483D 1   1.00000     0.00000
 Structure written by MMmdl.
 41 42  0  0  0  0  0  0  0  0  2 V2000
  154.5644  141.3463  171.6646 C   0  0  0  0  0  0  0  0  0  0  0  0
  155.7009  140.9602  170.2648 S   0  0  0  0  0  0  0  0  0  0  0  0
  156.9199  141.7344  170.5426 O   0  0  0  0  0  0  0  0  0  0  0  0
  155.8375  139.4941  170.2378 O   0  0  0  0  0  0  0  0  0  0  0  0
  154.8967  141.5727  168.9902 N   0  5  0  0  0  0  0  0  0  0  0  0
  155.2683  141.2256  167.6256 C   0  0  0  0  0  0  0  0  0  0  0  0
  155.5567  142.5114  166.8201 C   0  0  0  0  0  0  0  0  0  0  0  0
  155.2765  142.3713  165.3156 C   0  0  0  0  0  0  0  0  0  0  0  0
  156.0761  141.7720  164.5938 O   0  0  0  0  0  0  0  0  0  0  0  0
  154.1684  142.9937  164.8671 N   0  0  0  0  0  0  0  0  0  0  0  0
  153.6315  143.0228  163.5516 C   0  0  0  0  0  0  0  0  0  0  0  0
  152.7469  144.0152  163.0697 C   0  0  0  0  0  0  0  0  0  0  0  0
  152.3022  143.9434  161.7357 C   0  0  0  0  0  0  0  0  0  0  0  0
  152.7576  142.8898  160.9081 C   0  0  0  0  0  0  0  0  0  0  0  0
  152.3256  142.7997  159.5665 N   0  0  0  0  0  0  0  0  0  0  0  0
  151.7198  141.5285  159.1762 C   0  0  0  0  0  0  0  0  0  0  0  0
  151.5852  141.4460  157.6457 C   0  0  0  0  0  0  0  0  0  0  0  0
  150.8629  142.5737  157.1627 O   0  0  0  0  0  0  0  0  0  0  0  0
  151.5319  143.7953  157.4566 C   0  0  0  0  0  0  0  0  0  0  0  0
  151.6604  143.9620  158.9799 C   0  0  0  0  0  0  0  0  0  0  0  0
  153.6104  141.9440  161.3728 N   0  0  0  0  0  0  0  0  0  0  0  0
  154.0348  142.0170  162.6515 C   0  0  0  0  0  0  0  0  0  0  0  0
  155.0437  141.0633  172.6011 H   0  0  0  0  0  0  0  0  0  0  0  0
  153.6348  140.7885  171.5578 H   0  0  0  0  0  0  0  0  0  0  0  0
  154.3523  142.4149  171.6768 H   0  0  0  0  0  0  0  0  0  0  0  0
  156.1460  140.5788  167.6033 H   0  0  0  0  0  0  0  0  0  0  0  0
  154.4754  140.6688  167.1247 H   0  0  0  0  0  0  0  0  0  0  0  0
  154.9678  143.3390  167.2198 H   0  0  0  0  0  0  0  0  0  0  0  0
  156.6025  142.7968  166.9434 H   0  0  0  0  0  0  0  0  0  0  0  0
  153.6631  143.5374  165.5518 H   0  0  0  0  0  0  0  0  0  0  0  0
  152.4089  144.8329  163.6867 H   0  0  0  0  0  0  0  0  0  0  0  0
  151.6123  144.6891  161.3705 H   0  0  0  0  0  0  0  0  0  0  0  0
  152.3024  140.6774  159.5250 H   0  0  0  0  0  0  0  0  0  0  0  0
  150.7361  141.4513  159.6413 H   0  0  0  0  0  0  0  0  0  0  0  0
  152.5668  141.3984  157.1713 H   0  0  0  0  0  0  0  0  0  0  0  0
  151.0528  140.5372  157.3648 H   0  0  0  0  0  0  0  0  0  0  0  0
  152.5133  143.8097  156.9796 H   0  0  0  0  0  0  0  0  0  0  0  0
  150.9616  144.6233  157.0353 H   0  0  0  0  0  0  0  0  0  0  0  0
  150.6720  144.0765  159.4272 H   0  0  0  0  0  0  0  0  0  0  0  0
  152.2246  144.8702  159.1960 H   0  0  0  0  0  0  0  0  0  0  0  0
  154.7176  141.2413  162.9659 H   0  0  0  0  0  0  0  0  0  0  0  0
  1  2  1  0  0  0  0
  1 23  1  0  0  0  0
  1 24  1  0  0  0  0
  1 25  1  0  0  0  0
  2  3  2  0  0  0  0
  2  4  2  0  0  0  0
  2  5  1  0  0  0  0
  5  6  1  0  0  0  0
  6  7  1  0  0  0  0
  6 26  1  0  0  0  0
  6 27  1  0  0  0  0
  7  8  1  0  0  0  0
  7 28  1  0  0  0  0
  7 29  1  0  0  0  0
  8  9  2  0  0  0  0
  8 10  1  0  0  0  0
 10 11  1  0  0  0  0
 10 30  1  0  0  0  0
 11 22  1  0  0  0  0
 11 12  2  0  0  0  0
 12 13  1  0  0  0  0
 12 31  1  0  0  0  0
 13 14  2  0  0  0  0
 13 32  1  0  0  0  0
 14 15  1  0  0  0  0
 14 21  1  0  0  0  0
 15 20  1  0  0  0  0
 15 16  1  0  0  0  0
 16 17  1  0  0  0  0
 16 33  1  0  0  0  0
 16 34  1  0  0  0  0
 17 18  1  0  0  0  0
 17 35  1  0  0  0  0
 17 36  1  0  0  0  0
 18 19  1  0  0  0  0
 19 20  1  0  0  0  0
 19 37  1  0  0  0  0
 19 38  1  0  0  0  0
 20 39  1  0  0  0  0
 20 40  1  0  0  0  0
 21 22  2  0  0  0  0
 22 41  1  0  0  0  0
M  CHG  1   5  -1
M  END
> <s_m_source_file>
AV-unprocessed.smi

> <i_m_source_file_index>
2141

> <i_lp_mmshare_version>
43012

> <i_f3d_flags>
0

> <s_epik_input>
W0NIM11TKD1PKSg9TylbTkhdW0NIMl1bQ0gyXUMoPU8pW05IXWMxW2NIXVtjSF1jKG5bY0hdMSlOMltDSDJdW0NIMl1PW0NIMl1bQ0gyXTI=

> <s_epik_cmdline>
J2VwaWtfcHl0aG9uJywgJy1waCcsICc3LjAnLCAnLXRuJywgJzgnLCAnLW1hJywgJzIwMCcsICctbWV0YWxfYmluZGluZycsICctaW1hZScsICc8aW5maWxlLm1hZT4nLCAnLW9tYWUnLCAnPG91dGZpbGUubWFlPic=

> <r_lp_tautomer_probability>
1

> <r_epik_Ionization_Penalty>
6.16997

> <r_epik_Ionization_Penalty_Charging>
6.16921

> <r_epik_Ionization_Penalty_Neutral>
0.000766965

> <r_epik_State_Penalty>
6.16956

> <r_epik_Charging_Adjusted_Penalty>
12.3388

> <i_epik_Tot_Q>
-1

> <i_epik_Tot_abs_Q>
1

> <r_epik_Metal_State_Penalty>
2.11159

> <b_epik_Metal_Only>
1

> <s_lp_Force_Field>
OPLS_2005

> <r_lp_Energy>
18.4771

> <b_lp_Chiralities_Consistent>
1

> <s_lp_Variant>
AV-unprocessed.smi:2141-2

> <Gold.Version>
5.8.1

> <Gold.Id.Protein>
6NUR|6NUR_protein|mol2

> <Gold.PLP.Fitness>
43.7203

> <Gold.PLP.PLP>
-44.9080

> <Gold.PLP.part.hbond>
-2.0000

> <Gold.PLP.part.metal>
0.0000

> <Gold.PLP.part.buried>
-7.1002

> <Gold.PLP.part.nonpolar>
-35.2919

> <Gold.PLP.part.repulsive>
0.8032

> <Gold.PLP.ligand.clash>
0.0000

> <Gold.PLP.ligand.torsion>
1.2832

> <Gold.PLP.Chemscore.Hbond>
0.0000

> <Gold.PLP.Chemscore.CHOScore>
0.0000

> <Gold.PLP.Chemscore.Metal>
0.0000

> <Gold.PLP.Chemscore.Internal.Correction>
1.3788

> <Gold.Rescore>
     Score         DG    S(hbond)    S(metal)    S(lipo)     H(rot)  DE(clash)    DE(int)     intcor
      9.19     -13.07       0.00        0.00     106.96       1.93       1.42       2.46       ----

> <Gold.Chemscore.Fitness>
9.1930

> <Gold.Chemscore.DG>
-13.0650

> <Gold.Chemscore.ZeroCoef>
-5.4800

> <Gold.Chemscore.Hbond>
0.0000

> <Gold.Chemscore.Metal>
0.0000

> <Gold.Chemscore.Lipo>
106.9596

> <Gold.Chemscore.Internal_Hbond>
0.0000

> <Gold.Chemscore.DEClash>
1.4152

> <Gold.Chemscore.DEInternal>
2.4569

> <Gold.Chemscore.Rot>
1.9255

> <Gold.Chemscore.Internal.Correction>
   9.000000E+99

> <Gold.Chemscore.Hbond.Weighted>
-0.0000

> <Gold.Chemscore.Metal.Weighted>
-0.0000

> <Gold.Chemscore.Lipo.Weighted>
-12.5143

> <Gold.Chemscore.Internal_Hbond.Weighted>
0.0000

> <Gold.Chemscore.DEClash.Weighted>
1.4152

> <Gold.Chemscore.DEInternal.Weighted>
2.4569

> <Gold.Chemscore.Rot.Weighted>
4.9292

> <Gold.Chemscore.Internal.Correction.Weighted>
   9.000000E+99

> <Gold.Protein.RotatedTorsions>
[ 6907 6896 6895 6894 ] final  118.49 input  -60.11 | X-H torsion
[ 7974 7965 7964 7962 ] final  167.94 input  175.53 | X-H torsion
[ 8008 7997 7996 7995 ] final  123.41 input   59.86 | X-H torsion
[ 10167 10162 10161 10158 ] final  -17.43 input  -65.29 | X-H torsion
[ 10718 10713 10712 10709 ] final -111.40 input   66.30 | X-H torsion
[ 10763 10752 10751 10750 ] final -142.66 input  -60.55 | X-H torsion
[ 11005 11000 10999 10996 ] final -102.49 input  -57.11 | X-H torsion

> <Gold.Protein.ActiveResidues>
 VAL166  LYS551  ARG553  GLY616  TRP617  ASP618  TYR619  PRO620  LYS621  CYS622 
 ASP623  PHE694  ASN695  SER759  ASP760  ASP761  ALA762  ILE779  LEU786  VAL792 
 PHE793  MET794  SER795  GLU796  ALA797  LYS798  CYS799  TRP800  GLU811  SER814 

> <Gold.Protein.RotatedAtoms>
  152.4540  133.7685  159.6785 H   0  0  0  0  0  0  0  0  0  0  0  0  # atno 6907 bound_to 6896
  150.8460  133.7851  159.3049 H   0  0  0  0  0  0  0  0  0  0  0  0  # atno 6908 bound_to 6896
  151.5461  135.1071  159.9990 H   0  0  0  0  0  0  0  0  0  0  0  0  # atno 6909 bound_to 6896
  144.7406  139.8835  143.6398 H   0  0  0  0  0  0  0  0  0  0  0  0  # atno 7974 bound_to 7965
  156.2765  140.2763  156.1624 H   0  0  0  0  0  0  0  0  0  0  0  0  # atno 8008 bound_to 7997
  155.0740  140.0387  157.2635 H   0  0  0  0  0  0  0  0  0  0  0  0  # atno 8009 bound_to 7997
  154.7017  140.2650  155.6719 H   0  0  0  0  0  0  0  0  0  0  0  0  # atno 8010 bound_to 7997
  140.7247  143.5016  150.9862 H   0  0  0  0  0  0  0  0  0  0  0  0  # atno 10167 bound_to 10162
  156.0645  130.5865  150.8368 H   0  0  0  0  0  0  0  0  0  0  0  0  # atno 10718 bound_to 10713
  154.8500  135.3489  154.6064 H   0  0  0  0  0  0  0  0  0  0  0  0  # atno 10763 bound_to 10752
  153.6672  135.6987  153.5163 H   0  0  0  0  0  0  0  0  0  0  0  0  # atno 10764 bound_to 10752
  153.2770  135.4275  155.1000 H   0  0  0  0  0  0  0  0  0  0  0  0  # atno 10765 bound_to 10752
  141.1187  133.8563  157.1367 H   0  0  0  0  0  0  0  0  0  0  0  0  # atno 11005 bound_to 11000
  146.1194  139.4210  143.0238 LP  0  0  0  0  0  0  0  0  0  0  0  0  # atno 17320 bound_to 7965
  145.7327  141.0037  143.1343 LP  0  0  0  0  0  0  0  0  0  0  0  0  # atno 17321 bound_to 7965
  139.8726  143.7173  152.3165 LP  0  0  0  0  0  0  0  0  0  0  0  0  # atno 17342 bound_to 10162
  139.7427  144.7555  151.0627 LP  0  0  0  0  0  0  0  0  0  0  0  0  # atno 17343 bound_to 10162
  157.5677  131.0946  150.9465 LP  0  0  0  0  0  0  0  0  0  0  0  0  # atno 17370 bound_to 10713
  156.9688  130.5483  149.5289 LP  0  0  0  0  0  0  0  0  0  0  0  0  # atno 17371 bound_to 10713
  140.0127  134.9981  157.0429 LP  0  0  0  0  0  0  0  0  0  0  0  0  # atno 17394 bound_to 11000
  140.4572  134.1521  155.7187 LP  0  0  0  0  0  0  0  0  0  0  0  0  # atno 17395 bound_to 11000

$$$$
