#       Name:                AV-unprocessed.smi:594
#       Creating user name   scv26
#       Creation time:       Thu Mar 26 23:52:30 2020


#       File generated by GOLD software.
#

@<TRIPOS>MOLECULE
AV-unprocessed.smi:594
    46    47     1
SMALL
NO_CHARGES


@<TRIPOS>ATOM
      1 ****        -2.2276  -1.5562   1.1977 C.3            1 S1                 0.0000
      2 ****        -2.6310  -1.3997  -0.2788 C.3            1 S1                 0.0000
      3 ****        -2.3081  -2.6707  -1.0917 C.3            1 S1                 0.0000
      4 ****        -2.7694  -2.5401  -2.5522 C.3            1 S1                 0.0000
      5 ****        -2.1621  -1.2982  -3.2214 C.3            1 S1                 0.0000
      6 ****        -2.4747  -0.0232  -2.4186 C.3            1 S1                 0.0000
      7 ****        -2.0301  -0.1353  -0.9462 C.3            1 S1                 0.0000
      8 ****        -0.5678  -0.1197  -0.8658 N.am           1 S1                 0.0000
      9 ****         0.1728   0.6458  -0.0495 C.2            1 S1                 0.0000
     10 ****        -0.3104   1.4504   0.7485 O.2            1 S1                 0.0000
     11 ****         1.6916   0.4443  -0.1491 C.3            1 S1                 0.0000
     12 ****         2.4622   1.3673   0.7010 N.am           1 S1                 0.0000
     13 ****         2.7785   0.9216   1.9995 C.2            1 S1                 0.0000
     14 ****         3.4667   1.6849   2.8707 C.2            1 S1                 0.0000
     15 ****         3.7728   1.2147   4.2039 N.pl3          1 S1                 1.0000
     16 ****         4.3782   1.9612   4.9665 O.2            1 S1                 0.0000
     17 ****         3.4200   0.0858   4.5329 O.2            1 S1                -1.0000
     18 ****         3.8856   3.0011   2.4288 C.2            1 S1                 0.0000
     19 ****         3.5821   3.4349   1.1894 C.2            1 S1                 0.0000
     20 ****         2.8253   2.6053   0.2459 C.2            1 S1                 0.0000
     21 ****         2.5356   2.9999  -0.8837 O.2            1 S1                 0.0000
     22 ****        -1.1611  -1.7545   1.3074 H              1 S1                 0.0000
     23 ****        -2.7636  -2.3836   1.6631 H              1 S1                 0.0000
     24 ****        -2.4593  -0.6542   1.7648 H              1 S1                 0.0000
     25 ****        -3.7153  -1.2785  -0.2917 H              1 S1                 0.0000
     26 ****        -1.2360  -2.8695  -1.0632 H              1 S1                 0.0000
     27 ****        -2.7910  -3.5359  -0.6361 H              1 S1                 0.0000
     28 ****        -2.4937  -3.4351  -3.1107 H              1 S1                 0.0000
     29 ****        -3.8578  -2.4776  -2.5870 H              1 S1                 0.0000
     30 ****        -1.0824  -1.4229  -3.3132 H              1 S1                 0.0000
     31 ****        -2.5466  -1.1991  -4.2368 H              1 S1                 0.0000
     32 ****        -2.0045   0.8405  -2.8903 H              1 S1                 0.0000
     33 ****        -3.5490   0.1623  -2.4535 H              1 S1                 0.0000
     34 ****        -2.4261   0.7391  -0.4267 H              1 S1                 0.0000
     35 ****        -0.0800  -0.7532  -1.4824 H              1 S1                 0.0000
     36 ****         1.9179  -0.5888   0.1196 H              1 S1                 0.0000
     37 ****         1.9940   0.5376  -1.1938 H              1 S1                 0.0000
     38 ****         2.4140  -0.0687   2.2333 H              1 S1                 0.0000
     39 ****         4.4455   3.6482   3.0880 H              1 S1                 0.0000
     40 ****         3.9039   4.4191   0.8814 H              1 S1                 0.0000
     41 ****        -1.3026   1.5580   0.8111 LP             1 S1                 0.0000
     42 ****         0.2896   1.9959   1.3337 LP             1 S1                 0.0000
     43 ****         4.6496   2.8742   4.6618 LP             1 S1                 0.0000
     44 ****         4.6003   1.6567   5.8928 LP             1 S1                 0.0000
     45 ****         2.0180   2.4089  -1.5024 LP             1 S1                 0.0000
     46 ****         2.8179   3.9115  -1.1826 LP             1 S1                 0.0000
@<TRIPOS>BOND
    1    1    2 1     
    2    1   22 1     
    3    1   23 1     
    4    1   24 1     
    5    2    7 1     
    6    2    3 1     
    7    2   25 1     
    8    3    4 1     
    9    3   26 1     
   10    3   27 1     
   11    4    5 1     
   12    4   28 1     
   13    4   29 1     
   14    5    6 1     
   15    5   30 1     
   16    5   31 1     
   17    6    7 1     
   18    6   32 1     
   19    6   33 1     
   20    7    8 1     
   21    7   34 1     
   22    8    9 am    
   23    8   35 1     
   24    9   10 2     
   25    9   11 1     
   26   11   12 1     
   27   11   36 1     
   28   11   37 1     
   29   12   20 am    
   30   12   13 1     
   31   13   14 2     
   32   13   38 1     
   33   14   15 1     
   34   14   18 1     
   35   15   16 2     
   36   15   17 1     
   37   18   19 2     
   38   18   39 1     
   39   19   20 1     
   40   19   40 1     
   41   20   21 2     
   42   10   41 1     
   43   10   42 1     
   44   16   43 1     
   45   16   44 1     
   46   21   45 1     
   47   21   46 1     
@<TRIPOS>SUBSTRUCTURE
      1 S1             1
@<TRIPOS>SET
LONE_PAIRS      STATIC     ATOMS    <user>   **** ""
7 41 42 43 44 17 45 46
DONOR_HYDROGENS      STATIC     ATOMS    <user>   **** ""
1 35
ATOM$BLUE        STATIC     ATOMS    COLORGROUP SYSTEM
7 41 42 43 44 17 45 46
ATOM$RED        STATIC     ATOMS    COLORGROUP SYSTEM
1 35
