AV-unprocessed.smi:2304|AV-procd|sdf|9244|dock10
  -GOLD-   2272012463D 1   1.00000     0.00000
 Structure written by MMmdl.
 37 38  0  0  0  0  0  0  0  0  1 V2000
  145.2706  144.0156  153.8907 C   0  0  0  0  0  0  0  0  0  0  0  0
  145.9958  143.0300  154.6044 O   0  0  0  0  0  0  0  0  0  0  0  0
  146.9037  142.3165  153.7804 C   0  0  0  0  0  0  0  0  0  0  0  0
  147.8605  141.4707  154.6389 C   0  0  2  0  0  0  0  0  0  0  0  0
  148.6818  142.3733  155.4406 N   0  0  0  0  0  0  0  0  0  0  0  0
  149.4945  142.0060  156.4419 C   0  0  0  0  0  0  0  0  0  0  0  0
  149.6343  140.8401  156.8126 O   0  0  0  0  0  0  0  0  0  0  0  0
  150.1225  143.0708  156.9714 N   0  0  0  0  0  0  0  0  0  0  0  0
  151.0595  143.0965  158.0387 C   0  0  0  0  0  0  0  0  0  0  0  0
  151.2452  144.3605  158.6427 C   0  0  0  0  0  0  0  0  0  0  0  0
  152.1533  144.4910  159.7112 C   0  0  0  0  0  0  0  0  0  0  0  0
  152.8535  143.3531  160.1500 C   0  0  0  0  0  0  0  0  0  0  0  0
  152.6105  142.1305  159.4940 C   0  0  0  0  0  0  0  0  0  0  0  0
  153.3299  140.8653  159.9121 C   0  0  0  0  0  0  0  0  0  0  0  0
  151.7404  142.0051  158.4690 N   0  0  0  0  0  0  0  0  0  0  0  0
  148.6783  140.5051  153.7934 C   0  0  0  0  0  0  0  0  0  0  0  0
  148.2077  139.0944  153.5247 C   0  0  0  0  0  0  0  0  0  0  0  0
  149.4032  139.3351  154.4168 C   0  0  0  0  0  0  0  0  0  0  0  0
  144.5903  144.5306  154.5690 H   0  0  0  0  0  0  0  0  0  0  0  0
  144.6761  143.5681  153.0930 H   0  0  0  0  0  0  0  0  0  0  0  0
  145.9392  144.7593  153.4552 H   0  0  0  0  0  0  0  0  0  0  0  0
  146.3436  141.6697  153.1028 H   0  0  0  0  0  0  0  0  0  0  0  0
  147.4739  143.0153  153.1658 H   0  0  0  0  0  0  0  0  0  0  0  0
  147.2401  140.8747  155.3115 H   0  0  0  0  0  0  0  0  0  0  0  0
  148.6309  143.3542  155.2079 H   0  0  0  0  0  0  0  0  0  0  0  0
  149.9068  143.9676  156.5621 H   0  0  0  0  0  0  0  0  0  0  0  0
  150.6990  145.2251  158.2938 H   0  0  0  0  0  0  0  0  0  0  0  0
  152.3094  145.4487  160.1854 H   0  0  0  0  0  0  0  0  0  0  0  0
  153.5569  143.4200  160.9670 H   0  0  0  0  0  0  0  0  0  0  0  0
  153.9210  141.0257  160.8143 H   0  0  0  0  0  0  0  0  0  0  0  0
  154.0004  140.5323  159.1195 H   0  0  0  0  0  0  0  0  0  0  0  0
  152.6130  140.0687  160.1138 H   0  0  0  0  0  0  0  0  0  0  0  0
  149.1933  140.9896  152.9658 H   0  0  0  0  0  0  0  0  0  0  0  0
  147.2860  138.7661  154.0012 H   0  0  0  0  0  0  0  0  0  0  0  0
  148.3921  138.6847  152.5338 H   0  0  0  0  0  0  0  0  0  0  0  0
  150.3861  139.0866  154.0217 H   0  0  0  0  0  0  0  0  0  0  0  0
  149.2717  139.1612  155.4829 H   0  0  0  0  0  0  0  0  0  0  0  0
  1  2  1  0  0  0  0
  1 19  1  0  0  0  0
  1 20  1  0  0  0  0
  1 21  1  0  0  0  0
  2  3  1  0  0  0  0
  3  4  1  0  0  0  0
  3 22  1  0  0  0  0
  3 23  1  0  0  0  0
  4  5  1  0  0  0  0
  4 16  1  0  0  0  0
  4 24  1  0  0  0  0
  5  6  1  0  0  0  0
  5 25  1  0  0  0  0
  6  7  2  0  0  0  0
  6  8  1  0  0  0  0
  8  9  1  0  0  0  0
  8 26  1  0  0  0  0
  9 15  1  0  0  0  0
  9 10  2  0  0  0  0
 10 11  1  0  0  0  0
 10 27  1  0  0  0  0
 11 12  2  0  0  0  0
 11 28  1  0  0  0  0
 12 13  1  0  0  0  0
 12 29  1  0  0  0  0
 13 14  1  0  0  0  0
 13 15  2  0  0  0  0
 14 30  1  0  0  0  0
 14 31  1  0  0  0  0
 14 32  1  0  0  0  0
 16 18  1  0  0  0  0
 16 17  1  0  0  0  0
 16 33  1  0  0  0  0
 17 18  1  0  0  0  0
 17 34  1  0  0  0  0
 17 35  1  0  0  0  0
 18 36  1  0  0  0  0
 18 37  1  0  0  0  0
M  END
> <s_m_source_file>
AV-unprocessed.smi

> <i_m_source_file_index>
2304

> <i_lp_mmshare_version>
43012

> <i_f3d_flags>
0

> <s_epik_input>
W0NIM11PW0NIMl1bQ0BASF0oW0NIXTFbQ0gyXVtDSDJdMSlbTkhdQyg9TylbTkhdYzJbY0hdW2NIXVtjSF1jKG4yKVtDSDNd

> <s_epik_cmdline>
J2VwaWtfcHl0aG9uJywgJy1waCcsICc3LjAnLCAnLXRuJywgJzgnLCAnLW1hJywgJzIwMCcsICctbWV0YWxfYmluZGluZycsICctaW1hZScsICc8aW5maWxlLm1hZT4nLCAnLW9tYWUnLCAnPG91dGZpbGUubWFlPic=

> <r_lp_tautomer_probability>
1

> <r_epik_Ionization_Penalty>
8.58396e-05

> <r_epik_Ionization_Penalty_Charging>
0

> <r_epik_Ionization_Penalty_Neutral>
8.58396e-05

> <r_epik_State_Penalty>
-0

> <r_epik_Charging_Adjusted_Penalty>
0

> <i_epik_Tot_Q>
0

> <i_epik_Tot_abs_Q>
0

> <r_epik_Metal_State_Penalty>
-0

> <b_epik_Metal_Only>
0

> <s_lp_Force_Field>
OPLS_2005

> <r_lp_Energy>
16.2574

> <b_lp_Chiralities_Consistent>
1

> <s_lp_Variant>
AV-unprocessed.smi:2304-1

> <Gold.Version>
5.8.1

> <Gold.Id.Protein>
6NUR|6NUR_protein|mol2

> <Gold.PLP.Fitness>
44.0664

> <Gold.PLP.PLP>
-38.6083

> <Gold.PLP.part.hbond>
-1.8130

> <Gold.PLP.part.metal>
0.0000

> <Gold.PLP.part.buried>
-3.7222

> <Gold.PLP.part.nonpolar>
-33.9207

> <Gold.PLP.part.repulsive>
0.3752

> <Gold.PLP.ligand.clash>
0.0000

> <Gold.PLP.ligand.torsion>
0.7462

> <Gold.PLP.Chemscore.Hbond>
1.9600

> <Gold.PLP.Chemscore.CHOScore>
0.0000

> <Gold.PLP.Chemscore.Metal>
0.0000

> <Gold.Chemscore.Hbonds>
donor molecule, donor type, donor heavy atom, donor atom, acceptor molecule, acceptor atom, score
      L1  H     5    25       P1  8028  0.75
      L1  H     8    26       P1  8028  0.90

> <Gold.PLP.Chemscore.Internal.Correction>
1.0706

> <Gold.Rescore>
     Score         DG    S(hbond)    S(metal)    S(lipo)     H(rot)  DE(clash)    DE(int)     intcor
     15.76     -18.54       1.92        0.00      92.15       1.61       0.07       2.71       ----

> <Gold.Chemscore.Fitness>
15.7577

> <Gold.Chemscore.DG>
-18.5449

> <Gold.Chemscore.ZeroCoef>
-5.4800

> <Gold.Chemscore.Hbond>
1.9208

> <Gold.Chemscore.Metal>
0.0000

> <Gold.Chemscore.Lipo>
92.1513

> <Gold.Chemscore.Internal_Hbond>
0.0000

> <Gold.Chemscore.DEClash>
0.0732

> <Gold.Chemscore.DEInternal>
2.7140

> <Gold.Chemscore.Rot>
1.6142

> <Gold.Chemscore.Internal.Correction>
   9.000000E+99

> <Gold.Chemscore.Hbonds>
donor molecule, donor type, donor heavy atom, donor atom, acceptor molecule, acceptor atom, score
      L1  H     5    25       P1  8028  0.71
      L1  H     8    26       P1  8028  0.83

> <Gold.Chemscore.Hbond.Weighted>
-6.4155

> <Gold.Chemscore.Metal.Weighted>
-0.0000

> <Gold.Chemscore.Lipo.Weighted>
-10.7817

> <Gold.Chemscore.Internal_Hbond.Weighted>
0.0000

> <Gold.Chemscore.DEClash.Weighted>
0.0732

> <Gold.Chemscore.DEInternal.Weighted>
2.7140

> <Gold.Chemscore.Rot.Weighted>
4.1323

> <Gold.Chemscore.Internal.Correction.Weighted>
   9.000000E+99

> <Gold.Protein.RotatedTorsions>
[ 6907 6896 6895 6894 ] final   73.24 input  -60.11 | X-H torsion
[ 7974 7965 7964 7962 ] final  -33.98 input  175.53 | X-H torsion
[ 8008 7997 7996 7995 ] final  163.03 input   59.86 | X-H torsion
[ 10167 10162 10161 10158 ] final   80.13 input  -65.29 | X-H torsion
[ 10718 10713 10712 10709 ] final -128.45 input   66.30 | X-H torsion
[ 10763 10752 10751 10750 ] final   61.60 input  -60.55 | X-H torsion
[ 11005 11000 10999 10996 ] final   62.25 input  -57.11 | X-H torsion

> <Gold.Protein.ActiveResidues>
 VAL166  LYS551  ARG553  GLY616  TRP617  ASP618  TYR619  PRO620  LYS621  CYS622 
 ASP623  PHE694  ASN695  SER759  ASP760  ASP761  ALA762  ILE779  LEU786  VAL792 
 PHE793  MET794  SER795  GLU796  ALA797  LYS798  CYS799  TRP800  GLU811  SER814 

> <Gold.Protein.RotatedAtoms>
  152.4912  134.4451  159.9555 H   0  0  0  0  0  0  0  0  0  0  0  0  # atno 6907 bound_to 6896
  151.4437  133.3630  159.2793 H   0  0  0  0  0  0  0  0  0  0  0  0  # atno 6908 bound_to 6896
  150.9069  134.8508  159.7459 H   0  0  0  0  0  0  0  0  0  0  0  0  # atno 6909 bound_to 6896
  146.0867  140.5982  142.8883 H   0  0  0  0  0  0  0  0  0  0  0  0  # atno 7974 bound_to 7965
  156.1987  140.1734  156.7944 H   0  0  0  0  0  0  0  0  0  0  0  0  # atno 8008 bound_to 7997
  154.5563  140.0708  156.8780 H   0  0  0  0  0  0  0  0  0  0  0  0  # atno 8009 bound_to 7997
  155.2932  140.3356  155.4254 H   0  0  0  0  0  0  0  0  0  0  0  0  # atno 8010 bound_to 7997
  139.9530  144.6013  150.8143 H   0  0  0  0  0  0  0  0  0  0  0  0  # atno 10167 bound_to 10162
  156.1952  130.6821  151.0473 H   0  0  0  0  0  0  0  0  0  0  0  0  # atno 10718 bound_to 10713
  152.9956  135.5495  154.6060 H   0  0  0  0  0  0  0  0  0  0  0  0  # atno 10763 bound_to 10752
  154.5391  135.2818  155.1114 H   0  0  0  0  0  0  0  0  0  0  0  0  # atno 10764 bound_to 10752
  154.2398  135.6418  153.5256 H   0  0  0  0  0  0  0  0  0  0  0  0  # atno 10765 bound_to 10752
  140.0105  134.6303  155.9788 H   0  0  0  0  0  0  0  0  0  0  0  0  # atno 11005 bound_to 11000
  144.7330  140.4728  143.6924 LP  0  0  0  0  0  0  0  0  0  0  0  0  # atno 17320 bound_to 7965
  145.6117  139.1514  143.3072 LP  0  0  0  0  0  0  0  0  0  0  0  0  # atno 17321 bound_to 7965
  140.7577  143.3091  151.2888 LP  0  0  0  0  0  0  0  0  0  0  0  0  # atno 17342 bound_to 10162
  139.6613  144.0184  152.2694 LP  0  0  0  0  0  0  0  0  0  0  0  0  # atno 17343 bound_to 10162
  157.6953  131.0796  150.6986 LP  0  0  0  0  0  0  0  0  0  0  0  0  # atno 17370 bound_to 10713
  156.7043  130.4633  149.5564 LP  0  0  0  0  0  0  0  0  0  0  0  0  # atno 17371 bound_to 10713
  141.1708  133.6537  156.4643 LP  0  0  0  0  0  0  0  0  0  0  0  0  # atno 17394 bound_to 11000
  140.4563  134.6883  157.5064 LP  0  0  0  0  0  0  0  0  0  0  0  0  # atno 17395 bound_to 11000

$$$$
