AV-unprocessed.smi:2198|AV-procd|sdf|8917|dock7
  -GOLD-   2272012133D 1   1.00000     0.00000
 Structure written by MMmdl.
 43 44  0  0  0  0  0  0  0  0  1 V2000
  143.5375  141.2926  157.1996 C   0  0  0  0  0  0  0  0  0  0  0  0
  144.8577  141.2096  156.4646 C   0  0  0  0  0  0  0  0  0  0  0  0
  145.0030  142.1646  155.4721 N   0  0  0  0  0  0  0  0  0  0  0  0
  146.1819  142.1718  154.7477 C   0  0  0  0  0  0  0  0  0  0  0  0
  146.2623  143.2545  153.6855 C   0  0  0  0  0  0  0  0  0  0  0  0
  147.1642  141.2681  154.9953 C   0  0  0  0  0  0  0  0  0  0  0  0
  148.4787  141.2414  154.2179 C   0  0  0  0  0  0  0  0  0  0  0  0
  149.7410  141.1488  155.0767 C   0  0  0  0  0  0  0  0  0  0  0  0
  150.4968  140.1849  154.9564 O   0  0  0  0  0  0  0  0  0  0  0  0
  149.9606  142.1593  155.9321 N   0  0  0  0  0  0  0  0  0  0  0  0
  151.1108  142.2775  156.8227 C   0  0  2  0  0  0  0  0  0  0  0  0
  151.0510  141.2094  157.9326 C   0  0  0  0  0  0  0  0  0  0  0  0
  152.2141  141.3694  158.9236 C   0  0  0  0  0  0  0  0  0  0  0  0
  152.2503  142.7855  159.5194 C   0  0  0  0  0  0  0  0  0  0  0  0
  152.3187  143.8603  158.4177 C   0  0  2  0  0  0  0  0  0  0  0  0
  152.3518  145.2746  159.0140 C   0  0  0  0  0  0  0  0  0  0  0  0
  151.1487  143.6930  157.4285 C   0  0  0  0  0  0  0  0  0  0  0  0
  146.9462  140.2635  156.0631 C   0  0  0  0  0  0  0  0  0  0  0  0
  147.7909  139.4083  156.3255 O   0  0  0  0  0  0  0  0  0  0  0  0
  145.7364  140.3056  156.7750 N   0  0  0  0  0  0  0  0  0  0  0  0
  144.2965  142.8525  155.2539 H   0  0  0  0  0  0  0  0  0  0  0  0
  143.5122  140.5932  158.0363 H   0  0  0  0  0  0  0  0  0  0  0  0
  142.7137  141.0501  156.5276 H   0  0  0  0  0  0  0  0  0  0  0  0
  143.3812  142.2977  157.5925 H   0  0  0  0  0  0  0  0  0  0  0  0
  147.1059  143.9174  153.8781 H   0  0  0  0  0  0  0  0  0  0  0  0
  145.3581  143.8641  153.6644 H   0  0  0  0  0  0  0  0  0  0  0  0
  146.3889  142.8114  152.6975 H   0  0  0  0  0  0  0  0  0  0  0  0
  148.5669  142.1195  153.5777 H   0  0  0  0  0  0  0  0  0  0  0  0
  148.4529  140.4001  153.5243 H   0  0  0  0  0  0  0  0  0  0  0  0
  149.2846  142.9086  155.9617 H   0  0  0  0  0  0  0  0  0  0  0  0
  152.0257  142.1342  156.2442 H   0  0  0  0  0  0  0  0  0  0  0  0
  150.1048  141.2861  158.4702 H   0  0  0  0  0  0  0  0  0  0  0  0
  151.0787  140.2100  157.4966 H   0  0  0  0  0  0  0  0  0  0  0  0
  152.1257  140.6322  159.7221 H   0  0  0  0  0  0  0  0  0  0  0  0
  153.1565  141.1627  158.4152 H   0  0  0  0  0  0  0  0  0  0  0  0
  151.3638  142.9432  160.1356 H   0  0  0  0  0  0  0  0  0  0  0  0
  153.1091  142.8784  160.1851 H   0  0  0  0  0  0  0  0  0  0  0  0
  153.2486  143.7159  157.8653 H   0  0  0  0  0  0  0  0  0  0  0  0
  151.4457  145.4873  159.5822 H   0  0  0  0  0  0  0  0  0  0  0  0
  152.4387  146.0288  158.2314 H   0  0  0  0  0  0  0  0  0  0  0  0
  153.2022  145.3978  159.6851 H   0  0  0  0  0  0  0  0  0  0  0  0
  151.2330  144.4314  156.6298 H   0  0  0  0  0  0  0  0  0  0  0  0
  150.2071  143.8991  157.9399 H   0  0  0  0  0  0  0  0  0  0  0  0
  1 22  1  0  0  0  0
  1 23  1  0  0  0  0
  1 24  1  0  0  0  0
  1  2  1  0  0  0  0
  2  3  1  0  0  0  0
  2 20  2  0  0  0  0
  3  4  1  0  0  0  0
  3 21  1  0  0  0  0
  4  6  2  0  0  0  0
  4  5  1  0  0  0  0
  5 25  1  0  0  0  0
  5 26  1  0  0  0  0
  5 27  1  0  0  0  0
  6 18  1  0  0  0  0
  6  7  1  0  0  0  0
  7  8  1  0  0  0  0
  7 28  1  0  0  0  0
  7 29  1  0  0  0  0
  8  9  2  0  0  0  0
  8 10  1  0  0  0  0
 10 11  1  0  0  0  0
 10 30  1  0  0  0  0
 11 17  1  0  0  0  0
 11 12  1  0  0  0  0
 11 31  1  0  0  0  0
 12 13  1  0  0  0  0
 12 32  1  0  0  0  0
 12 33  1  0  0  0  0
 13 14  1  0  0  0  0
 13 34  1  0  0  0  0
 13 35  1  0  0  0  0
 14 15  1  0  0  0  0
 14 36  1  0  0  0  0
 14 37  1  0  0  0  0
 15 16  1  0  0  0  0
 15 17  1  0  0  0  0
 15 38  1  0  0  0  0
 16 39  1  0  0  0  0
 16 40  1  0  0  0  0
 16 41  1  0  0  0  0
 17 42  1  0  0  0  0
 17 43  1  0  0  0  0
 18 19  2  0  0  0  0
 18 20  1  0  0  0  0
M  END
> <s_m_source_file>
AV-unprocessed.smi

> <i_m_source_file_index>
2198

> <i_lp_mmshare_version>
43012

> <i_f3d_flags>
0

> <s_epik_input>
W0NIM11jMW5jKFtDSDNdKWMoYyg9TylbbkhdMSlbQ0gyXUMoPU8pW05IXVtDQEBIXTJbQ0gyXVtDSDJdW0NIMl1bQ0BASF0oW0NIM10pW0NIMl0y

> <s_epik_cmdline>
J2VwaWtfcHl0aG9uJywgJy1waCcsICc3LjAnLCAnLXRuJywgJzgnLCAnLW1hJywgJzIwMCcsICctbWV0YWxfYmluZGluZycsICctaW1hZScsICc8aW5maWxlLm1hZT4nLCAnLW9tYWUnLCAnPG91dGZpbGUubWFlPic=

> <r_lp_tautomer_probability>
0.156392

> <r_epik_Ionization_Penalty>
0.0136514

> <r_epik_Ionization_Penalty_Charging>
0.0135207

> <r_epik_Ionization_Penalty_Neutral>
0.000130657

> <r_epik_State_Penalty>
1.15342

> <r_epik_Charging_Adjusted_Penalty>
1.16694

> <i_epik_Tot_Q>
0

> <i_epik_Tot_abs_Q>
0

> <r_epik_Metal_State_Penalty>
1.31404

> <b_epik_Metal_Only>
0

> <s_lp_Force_Field>
OPLS_2005

> <r_lp_Energy>
14.0485

> <b_lp_Chiralities_Consistent>
1

> <s_lp_Variant>
AV-unprocessed.smi:2198-7

> <Gold.Version>
5.8.1

> <Gold.Id.Protein>
6NUR|6NUR_protein|mol2

> <Gold.PLP.Fitness>
42.8586

> <Gold.PLP.PLP>
-37.7667

> <Gold.PLP.part.hbond>
-2.0000

> <Gold.PLP.part.metal>
0.0000

> <Gold.PLP.part.buried>
-3.5298

> <Gold.PLP.part.nonpolar>
-31.8559

> <Gold.PLP.part.repulsive>
0.2122

> <Gold.PLP.ligand.clash>
0.0000

> <Gold.PLP.ligand.torsion>
0.2286

> <Gold.PLP.Chemscore.Hbond>
1.8480

> <Gold.PLP.Chemscore.CHOScore>
0.0000

> <Gold.PLP.Chemscore.Metal>
0.0000

> <Gold.Chemscore.Hbonds>
donor molecule, donor type, donor heavy atom, donor atom, acceptor molecule, acceptor atom, score
      L1  H    10    30       P1  8028  0.98
      P1  H  7989  7998       L1     9  0.90

> <Gold.PLP.Chemscore.Internal.Correction>
0.0051

> <Gold.Rescore>
     Score         DG    S(hbond)    S(metal)    S(lipo)     H(rot)  DE(clash)    DE(int)     intcor
     16.76     -18.30       1.58        0.00      96.71       1.48       0.30       1.24       ----

> <Gold.Chemscore.Fitness>
16.7552

> <Gold.Chemscore.DG>
-18.2984

> <Gold.Chemscore.ZeroCoef>
-5.4800

> <Gold.Chemscore.Hbond>
1.5847

> <Gold.Chemscore.Metal>
0.0000

> <Gold.Chemscore.Lipo>
96.7054

> <Gold.Chemscore.Internal_Hbond>
0.0000

> <Gold.Chemscore.DEClash>
0.3024

> <Gold.Chemscore.DEInternal>
1.2407

> <Gold.Chemscore.Rot>
1.4801

> <Gold.Chemscore.Internal.Correction>
   9.000000E+99

> <Gold.Chemscore.Hbonds>
donor molecule, donor type, donor heavy atom, donor atom, acceptor molecule, acceptor atom, score
      L1  H    10    30       P1  8028  0.93
      P1  H  7989  7998       L1     9  0.17

> <Gold.Chemscore.Hbond.Weighted>
-5.2930

> <Gold.Chemscore.Metal.Weighted>
-0.0000

> <Gold.Chemscore.Lipo.Weighted>
-11.3145

> <Gold.Chemscore.Internal_Hbond.Weighted>
0.0000

> <Gold.Chemscore.DEClash.Weighted>
0.3024

> <Gold.Chemscore.DEInternal.Weighted>
1.2407

> <Gold.Chemscore.Rot.Weighted>
3.7891

> <Gold.Chemscore.Internal.Correction.Weighted>
   9.000000E+99

> <Gold.Protein.RotatedTorsions>
[ 6907 6896 6895 6894 ] final  161.27 input  -60.11 | X-H torsion
[ 7974 7965 7964 7962 ] final  -27.69 input  175.53 | X-H torsion
[ 8008 7997 7996 7995 ] final    9.87 input   59.86 | X-H torsion
[ 10167 10162 10161 10158 ] final  -39.41 input  -65.29 | X-H torsion
[ 10718 10713 10712 10709 ] final -128.26 input   66.30 | X-H torsion
[ 10763 10752 10751 10750 ] final  -88.66 input  -60.55 | X-H torsion
[ 11005 11000 10999 10996 ] final  140.22 input  -57.11 | X-H torsion

> <Gold.Protein.ActiveResidues>
 VAL166  LYS551  ARG553  GLY616  TRP617  ASP618  TYR619  PRO620  LYS621  CYS622 
 ASP623  PHE694  ASN695  SER759  ASP760  ASP761  ALA762  ILE779  LEU786  VAL792 
 PHE793  MET794  SER795  GLU796  ALA797  LYS798  CYS799  TRP800  GLU811  SER814 

> <Gold.Protein.RotatedAtoms>
  151.9581  133.3687  159.4024 H   0  0  0  0  0  0  0  0  0  0  0  0  # atno 6907 bound_to 6896
  150.6969  134.4269  159.5240 H   0  0  0  0  0  0  0  0  0  0  0  0  # atno 6908 bound_to 6896
  152.1953  134.8635  160.0564 H   0  0  0  0  0  0  0  0  0  0  0  0  # atno 6909 bound_to 6896
  146.1340  140.5185  142.8681 H   0  0  0  0  0  0  0  0  0  0  0  0  # atno 7974 bound_to 7965
  154.7859  140.2827  155.6028 H   0  0  0  0  0  0  0  0  0  0  0  0  # atno 8008 bound_to 7997
  156.2957  140.2614  156.2623 H   0  0  0  0  0  0  0  0  0  0  0  0  # atno 8009 bound_to 7997
  154.9729  140.0376  157.2232 H   0  0  0  0  0  0  0  0  0  0  0  0  # atno 8010 bound_to 7997
  140.7065  143.3216  151.2779 H   0  0  0  0  0  0  0  0  0  0  0  0  # atno 10167 bound_to 10162
  156.1934  130.6810  151.0452 H   0  0  0  0  0  0  0  0  0  0  0  0  # atno 10718 bound_to 10713
  154.6470  135.5369  153.7856 H   0  0  0  0  0  0  0  0  0  0  0  0  # atno 10763 bound_to 10752
  153.0365  135.6473  154.1074 H   0  0  0  0  0  0  0  0  0  0  0  0  # atno 10764 bound_to 10752
  154.0995  135.2934  155.3234 H   0  0  0  0  0  0  0  0  0  0  0  0  # atno 10765 bound_to 10752
  140.0311  134.9351  157.0664 H   0  0  0  0  0  0  0  0  0  0  0  0  # atno 11005 bound_to 11000
  144.7720  140.5659  143.6663 LP  0  0  0  0  0  0  0  0  0  0  0  0  # atno 17320 bound_to 7965
  145.5197  139.1477  143.3559 LP  0  0  0  0  0  0  0  0  0  0  0  0  # atno 17321 bound_to 7965
  139.6671  144.0085  152.2730 LP  0  0  0  0  0  0  0  0  0  0  0  0  # atno 17342 bound_to 10162
  139.9672  144.6518  150.8024 LP  0  0  0  0  0  0  0  0  0  0  0  0  # atno 17343 bound_to 10162
  157.6943  131.0799  150.7015 LP  0  0  0  0  0  0  0  0  0  0  0  0  # atno 17370 bound_to 10713
  156.7072  130.4641  149.5557 LP  0  0  0  0  0  0  0  0  0  0  0  0  # atno 17371 bound_to 10713
  140.4224  134.1866  155.7165 LP  0  0  0  0  0  0  0  0  0  0  0  0  # atno 17394 bound_to 11000
  141.1831  133.8371  157.1185 LP  0  0  0  0  0  0  0  0  0  0  0  0  # atno 17395 bound_to 11000

$$$$
