AV-unprocessed.smi:1556|AV-procd|sdf|6269|dock2
  -GOLD-   22720 6463D 1   1.00000     0.00000
 Structure written by MMmdl.
 37 38  0  0  0  0  0  0  0  0  1 V2000
  143.9830  132.6196  148.4150 C   0  0  0  0  0  0  0  0  0  0  0  0
  144.6568  133.0900  149.6062 N   0  0  0  0  0  0  0  0  0  0  0  0
  144.3434  134.1710  150.4013 C   0  0  0  0  0  0  0  0  0  0  0  0
  145.2395  134.1947  151.4327 C   0  0  0  0  0  0  0  0  0  0  0  0
  145.3027  135.1460  152.5997 C   0  0  0  0  0  0  0  0  0  0  0  0
  145.3867  136.6208  152.1572 C   0  0  0  0  0  0  0  0  0  0  0  0
  144.0698  137.2349  152.0212 N   0  0  0  0  0  0  0  0  0  0  0  0
  143.1249  137.2611  152.9749 C   0  0  0  0  0  0  0  0  0  0  0  0
  143.2242  136.6620  154.0438 O   0  0  0  0  0  0  0  0  0  0  0  0
  142.0494  138.0127  152.6781 N   0  0  0  0  0  0  0  0  0  0  0  0
  140.8564  138.2482  153.4945 C   0  0  1  0  0  0  0  0  0  0  0  0
  139.8470  137.0961  153.3314 C   0  0  0  0  0  0  0  0  0  0  0  0
  138.8061  137.1883  154.4531 C   0  0  0  0  0  0  0  0  0  0  0  0
  139.6858  137.8804  155.9034 S   0  0  0  0  0  0  0  0  0  0  0  0
  138.9775  139.0841  156.3640 O   0  0  0  0  0  0  0  0  0  0  0  0
  140.0255  136.7968  156.8380 O   0  0  0  0  0  0  0  0  0  0  0  0
  141.1951  138.3706  154.9914 C   0  0  0  0  0  0  0  0  0  0  0  0
  146.0863  133.0826  151.1603 C   0  0  0  0  0  0  0  0  0  0  0  0
  145.7321  132.4214  150.0705 N   0  0  0  0  0  0  0  0  0  0  0  0
  143.2512  133.3569  148.0839 H   0  0  0  0  0  0  0  0  0  0  0  0
  143.4686  131.6828  148.6315 H   0  0  0  0  0  0  0  0  0  0  0  0
  144.7076  132.4562  147.6166 H   0  0  0  0  0  0  0  0  0  0  0  0
  143.5040  134.8148  150.1839 H   0  0  0  0  0  0  0  0  0  0  0  0
  144.4357  135.0180  153.2479 H   0  0  0  0  0  0  0  0  0  0  0  0
  146.1670  134.9180  153.2247 H   0  0  0  0  0  0  0  0  0  0  0  0
  145.9311  137.1924  152.9093 H   0  0  0  0  0  0  0  0  0  0  0  0
  145.9533  136.7139  151.2294 H   0  0  0  0  0  0  0  0  0  0  0  0
  143.8944  137.7450  151.1677 H   0  0  0  0  0  0  0  0  0  0  0  0
  142.0417  138.4370  151.7616 H   0  0  0  0  0  0  0  0  0  0  0  0
  140.3646  139.1663  153.1679 H   0  0  0  0  0  0  0  0  0  0  0  0
  139.3763  137.1052  152.3476 H   0  0  0  0  0  0  0  0  0  0  0  0
  140.3715  136.1437  153.4241 H   0  0  0  0  0  0  0  0  0  0  0  0
  138.0085  137.8805  154.1824 H   0  0  0  0  0  0  0  0  0  0  0  0
  138.3616  136.2252  154.7043 H   0  0  0  0  0  0  0  0  0  0  0  0
  141.9922  137.6833  155.2767 H   0  0  0  0  0  0  0  0  0  0  0  0
  141.4859  139.3802  155.2811 H   0  0  0  0  0  0  0  0  0  0  0  0
  146.9337  132.7294  151.7294 H   0  0  0  0  0  0  0  0  0  0  0  0
  1  2  1  0  0  0  0
  1 20  1  0  0  0  0
  1 21  1  0  0  0  0
  1 22  1  0  0  0  0
  2 19  1  0  0  0  0
  2  3  1  0  0  0  0
  3  4  2  0  0  0  0
  3 23  1  0  0  0  0
  4  5  1  0  0  0  0
  4 18  1  0  0  0  0
  5  6  1  0  0  0  0
  5 24  1  0  0  0  0
  5 25  1  0  0  0  0
  6  7  1  0  0  0  0
  6 26  1  0  0  0  0
  6 27  1  0  0  0  0
  7  8  1  0  0  0  0
  7 28  1  0  0  0  0
  8  9  2  0  0  0  0
  8 10  1  0  0  0  0
 10 11  1  0  0  0  0
 10 29  1  0  0  0  0
 11 17  1  0  0  0  0
 11 12  1  0  0  0  0
 11 30  1  0  0  0  0
 12 13  1  0  0  0  0
 12 31  1  0  0  0  0
 12 32  1  0  0  0  0
 13 14  1  0  0  0  0
 13 33  1  0  0  0  0
 13 34  1  0  0  0  0
 14 15  2  0  0  0  0
 14 16  2  0  0  0  0
 14 17  1  0  0  0  0
 17 35  1  0  0  0  0
 17 36  1  0  0  0  0
 18 19  2  0  0  0  0
 18 37  1  0  0  0  0
M  END
> <s_m_source_file>
AV-unprocessed.smi

> <i_m_source_file_index>
1556

> <i_lp_mmshare_version>
43012

> <i_f3d_flags>
0

> <s_epik_input>
W0NIM11uMVtjSF1jKFtjSF1uMSlbQ0gyXVtDSDJdW05IXUMoPU8pW05IXVtDQEBIXShbQ0gyXTIpW0NIMl1bQ0gyXVMyKD1PKT1P

> <s_epik_cmdline>
J2VwaWtfcHl0aG9uJywgJy1waCcsICc3LjAnLCAnLXRuJywgJzgnLCAnLW1hJywgJzIwMCcsICctbWV0YWxfYmluZGluZycsICctaW1hZScsICc8aW5maWxlLm1hZT4nLCAnLW9tYWUnLCAnPG91dGZpbGUubWFlPic=

> <r_lp_tautomer_probability>
1

> <r_epik_Ionization_Penalty>
0.000530192

> <r_epik_Ionization_Penalty_Charging>
0

> <r_epik_Ionization_Penalty_Neutral>
0.000530192

> <r_epik_State_Penalty>
-0

> <r_epik_Charging_Adjusted_Penalty>
0

> <i_epik_Tot_Q>
0

> <i_epik_Tot_abs_Q>
0

> <r_epik_Metal_State_Penalty>
-0

> <b_epik_Metal_Only>
0

> <s_lp_Force_Field>
OPLS_2005

> <r_lp_Energy>
7.70197

> <b_lp_Chiralities_Consistent>
1

> <s_lp_Variant>
AV-unprocessed.smi:1556-2

> <Gold.Version>
5.8.1

> <Gold.Id.Protein>
6NUR|6NUR_protein|mol2

> <Gold.PLP.Fitness>
38.5678

> <Gold.PLP.PLP>
-30.6839

> <Gold.PLP.part.hbond>
-3.3835

> <Gold.PLP.part.metal>
0.0000

> <Gold.PLP.part.buried>
-4.3303

> <Gold.PLP.part.nonpolar>
-23.2611

> <Gold.PLP.part.repulsive>
0.2987

> <Gold.PLP.ligand.clash>
0.0000

> <Gold.PLP.ligand.torsion>
0.5594

> <Gold.PLP.Chemscore.Hbond>
1.9920

> <Gold.PLP.Chemscore.CHOScore>
1.0000

> <Gold.PLP.Chemscore.Metal>
0.0000

> <Gold.Chemscore.Hbonds>
donor molecule, donor type, donor heavy atom, donor atom, acceptor molecule, acceptor atom, score
      L1  H     7    28       P1 10171  1.00
      P1  H 11000 11005       L1    16  0.99
      L1  C     3    23       P1 10186  0.84

> <Gold.PLP.Chemscore.Internal.Correction>
0.0267

> <Gold.Rescore>
     Score         DG    S(hbond)    S(metal)    S(lipo)     H(rot)  DE(clash)    DE(int)     intcor
     11.93     -15.06       1.98        0.00      65.20       1.82       0.04       3.10       ----

> <Gold.Chemscore.Fitness>
11.9250

> <Gold.Chemscore.DG>
-15.0583

> <Gold.Chemscore.ZeroCoef>
-5.4800

> <Gold.Chemscore.Hbond>
1.9802

> <Gold.Chemscore.Metal>
0.0000

> <Gold.Chemscore.Lipo>
65.2007

> <Gold.Chemscore.Internal_Hbond>
0.0000

> <Gold.Chemscore.DEClash>
0.0351

> <Gold.Chemscore.DEInternal>
3.0981

> <Gold.Chemscore.Rot>
1.8220

> <Gold.Chemscore.Internal.Correction>
   9.000000E+99

> <Gold.Chemscore.Hbonds>
donor molecule, donor type, donor heavy atom, donor atom, acceptor molecule, acceptor atom, score
      L1  H     7    28       P1 10171  0.98
      P1  H 11000 11005       L1    16  0.94

> <Gold.Chemscore.Hbond.Weighted>
-6.6140

> <Gold.Chemscore.Metal.Weighted>
-0.0000

> <Gold.Chemscore.Lipo.Weighted>
-7.6285

> <Gold.Chemscore.Internal_Hbond.Weighted>
0.0000

> <Gold.Chemscore.DEClash.Weighted>
0.0351

> <Gold.Chemscore.DEInternal.Weighted>
3.0981

> <Gold.Chemscore.Rot.Weighted>
4.6642

> <Gold.Chemscore.Internal.Correction.Weighted>
   9.000000E+99

> <Gold.Protein.RotatedTorsions>
[ 6907 6896 6895 6894 ] final  110.08 input  -60.11 | X-H torsion
[ 7974 7965 7964 7962 ] final -129.55 input  175.53 | X-H torsion
[ 8008 7997 7996 7995 ] final  129.77 input   59.86 | X-H torsion
[ 10167 10162 10161 10158 ] final   -9.41 input  -65.29 | X-H torsion
[ 10718 10713 10712 10709 ] final  167.02 input   66.30 | X-H torsion
[ 10763 10752 10751 10750 ] final   27.23 input  -60.55 | X-H torsion
[ 11005 11000 10999 10996 ] final  133.42 input  -57.11 | X-H torsion

> <Gold.Protein.ActiveResidues>
 VAL166  LYS551  ARG553  GLY616  TRP617  ASP618  TYR619  PRO620  LYS621  CYS622 
 ASP623  PHE694  ASN695  SER759  ASP760  ASP761  ALA762  ILE779  LEU786  VAL792 
 PHE793  MET794  SER795  GLU796  ALA797  LYS798  CYS799  TRP800  GLU811  SER814 

> <Gold.Protein.RotatedAtoms>
  152.5037  133.8851  159.7365 H   0  0  0  0  0  0  0  0  0  0  0  0  # atno 6907 bound_to 6896
  150.9304  133.6765  159.2819 H   0  0  0  0  0  0  0  0  0  0  0  0  # atno 6908 bound_to 6896
  151.4111  135.0990  159.9638 H   0  0  0  0  0  0  0  0  0  0  0  0  # atno 6909 bound_to 6896
  144.9561  140.7397  143.4757 H   0  0  0  0  0  0  0  0  0  0  0  0  # atno 7974 bound_to 7965
  156.2942  140.2612  156.2653 H   0  0  0  0  0  0  0  0  0  0  0  0  # atno 8008 bound_to 7997
  154.9748  140.0390  157.2269 H   0  0  0  0  0  0  0  0  0  0  0  0  # atno 8009 bound_to 7997
  154.7825  140.2797  155.6057 H   0  0  0  0  0  0  0  0  0  0  0  0  # atno 8010 bound_to 7997
  140.7086  143.5861  150.8942 H   0  0  0  0  0  0  0  0  0  0  0  0  # atno 10167 bound_to 10162
  157.0575  131.0331  151.2659 H   0  0  0  0  0  0  0  0  0  0  0  0  # atno 10718 bound_to 10713
  153.0569  135.6542  154.0555 H   0  0  0  0  0  0  0  0  0  0  0  0  # atno 10763 bound_to 10752
  154.0231  135.2918  155.3380 H   0  0  0  0  0  0  0  0  0  0  0  0  # atno 10764 bound_to 10752
  154.6889  135.5290  153.8432 H   0  0  0  0  0  0  0  0  0  0  0  0  # atno 10765 bound_to 10752
  139.9850  134.9535  156.9722 H   0  0  0  0  0  0  0  0  0  0  0  0  # atno 11005 bound_to 11000
  145.2770  139.1933  143.4811 LP  0  0  0  0  0  0  0  0  0  0  0  0  # atno 17320 bound_to 7965
  146.3338  140.2725  142.8606 LP  0  0  0  0  0  0  0  0  0  0  0  0  # atno 17321 bound_to 7965
  139.9587  143.6189  152.3008 LP  0  0  0  0  0  0  0  0  0  0  0  0  # atno 17342 bound_to 10162
  139.6734  144.7660  151.1742 LP  0  0  0  0  0  0  0  0  0  0  0  0  # atno 17343 bound_to 10162
  157.4981  130.7863  149.7576 LP  0  0  0  0  0  0  0  0  0  0  0  0  # atno 17370 bound_to 10713
  155.9988  130.3892  150.2687 LP  0  0  0  0  0  0  0  0  0  0  0  0  # atno 17371 bound_to 10713
  140.5019  134.1088  155.7252 LP  0  0  0  0  0  0  0  0  0  0  0  0  # atno 17394 bound_to 11000
  141.1517  133.8957  157.2081 LP  0  0  0  0  0  0  0  0  0  0  0  0  # atno 17395 bound_to 11000

$$$$
