#       Name:                AV-unprocessed.smi:1952
#       Creating user name   scv26
#       Creation time:       Fri Mar 27 10:04:04 2020


#       File generated by GOLD software.
#

@<TRIPOS>MOLECULE
AV-unprocessed.smi:1952
    47    48     1
SMALL
NO_CHARGES


@<TRIPOS>ATOM
      1 ****        -4.9615   4.2758  -0.1233 C.3            1 S1                 0.0000
      2 ****        -4.0174   3.3376  -0.7944 C.2            1 S1                 0.0000
      3 ****        -3.2102   2.3409  -0.3245 C.2            1 S1                 0.0000
      4 ****        -2.5741   1.8560  -1.4999 C.2            1 S1                 0.0000
      5 ****        -1.6849   0.8528  -1.5589 N.pl3          1 S1                -1.0000
      6 ****        -0.3767   1.0868  -1.3038 C.2            1 S1                 0.0000
      7 ****         0.1272   2.1741  -1.0125 O.2            1 S1                 0.0000
      8 ****         0.3938  -0.0075  -1.3898 N.am           1 S1                 0.0000
      9 ****         1.8338  -0.0737  -1.1440 C.3            1 S1                 0.0000
     10 ****         2.6012   0.2211  -2.4415 C.3            1 S1                 0.0000
     11 ****         2.2077  -1.4578  -0.5741 C.3            1 S1                 0.0000
     12 ****         1.4814  -1.8664   0.6298 N.3            1 S1                 0.0000
     13 ****         1.7735  -1.0204   1.7846 C.3            1 S1                 0.0000
     14 ****         1.0131  -1.4823   3.0400 C.3            1 S1                 0.0000
     15 ****         1.3206  -2.8456   3.3139 O.3            1 S1                 0.0000
     16 ****         1.0024  -3.7073   2.2261 C.3            1 S1                 0.0000
     17 ****         1.7685  -3.2549   0.9714 C.3            1 S1                 0.0000
     18 ****        -2.9738   2.4906  -2.5892 N.2            1 S1                 0.0000
     19 ****        -3.8939   3.4476  -2.1445 O.3            1 S1                 0.0000
     20 ****        -5.7225   3.7256   0.4302 H              1 S1                 0.0000
     21 ****        -5.4669   4.9132  -0.8493 H              1 S1                 0.0000
     22 ****        -4.4310   4.9189   0.5789 H              1 S1                 0.0000
     23 ****        -3.0884   2.0136   0.6969 H              1 S1                 0.0000
     24 ****        -0.0640  -0.8753  -1.6267 H              1 S1                 0.0000
     25 ****         2.1168   0.6885  -0.4173 H              1 S1                 0.0000
     26 ****         3.6781   0.1823  -2.2760 H              1 S1                 0.0000
     27 ****         2.3633   1.2148  -2.8229 H              1 S1                 0.0000
     28 ****         2.3571  -0.5015  -3.2208 H              1 S1                 0.0000
     29 ****         2.0290  -2.1977  -1.3557 H              1 S1                 0.0000
     30 ****         3.2806  -1.4872  -0.3784 H              1 S1                 0.0000
     31 ****         2.8456  -1.0267   1.9867 H              1 S1                 0.0000
     32 ****         1.4983   0.0132   1.5767 H              1 S1                 0.0000
     33 ****         1.2936  -0.8729   3.8991 H              1 S1                 0.0000
     34 ****        -0.0630  -1.3659   2.9021 H              1 S1                 0.0000
     35 ****         1.2740  -4.7298   2.4886 H              1 S1                 0.0000
     36 ****        -0.0739  -3.6967   2.0466 H              1 S1                 0.0000
     37 ****         1.5047  -3.9039   0.1357 H              1 S1                 0.0000
     38 ****         2.8394  -3.3810   1.1387 H              1 S1                 0.0000
     39 ****        -1.9899  -0.0705  -1.7921 LP             1 S1                 0.0000
     40 ****        -0.4474   2.9899  -0.9467 LP             1 S1                 0.0000
     41 ****         1.1103   2.2400  -0.8420 LP             1 S1                 0.0000
     42 ****         0.5112  -1.7643   0.4099 LP             1 S1                 0.0000
     43 ****         0.7994  -3.1366   4.1162 LP             1 S1                 0.0000
     44 ****         2.2989  -2.9208   3.5067 LP             1 S1                 0.0000
     45 ****        -2.6811   2.3226  -3.5305 LP             1 S1                 0.0000
     46 ****        -3.5675   4.3632  -2.3793 LP             1 S1                 0.0000
     47 ****        -4.7810   3.2887  -2.5778 LP             1 S1                 0.0000
@<TRIPOS>BOND
    1    1    2 1     
    2    1   20 1     
    3    1   21 1     
    4    1   22 1     
    5    2   19 1     
    6    2    3 2     
    7    3    4 1     
    8    3   23 1     
    9    4    5 1     
   10    4   18 2     
   11    5    6 1     
   12    6    7 2     
   13    6    8 am    
   14    8    9 1     
   15    8   24 1     
   16    9   10 1     
   17    9   11 1     
   18    9   25 1     
   19   10   26 1     
   20   10   27 1     
   21   10   28 1     
   22   11   12 1     
   23   11   29 1     
   24   11   30 1     
   25   12   17 1     
   26   12   13 1     
   27   13   14 1     
   28   13   31 1     
   29   13   32 1     
   30   14   15 1     
   31   14   33 1     
   32   14   34 1     
   33   15   16 1     
   34   16   17 1     
   35   16   35 1     
   36   16   36 1     
   37   17   37 1     
   38   17   38 1     
   39   18   19 1     
   40    5   39 1     
   41    7   40 1     
   42    7   41 1     
   43   12   42 1     
   44   15   43 1     
   45   15   44 1     
   46   18   45 1     
   47   19   46 1     
   48   19   47 1     
@<TRIPOS>SUBSTRUCTURE
      1 S1             1
@<TRIPOS>SET
LONE_PAIRS      STATIC     ATOMS    <user>   **** ""
9 39 40 41 42 43 44 45 46 47
DONOR_HYDROGENS      STATIC     ATOMS    <user>   **** ""
1 24
ATOM$BLUE        STATIC     ATOMS    COLORGROUP SYSTEM
9 39 40 41 42 43 44 45 46 47
ATOM$RED        STATIC     ATOMS    COLORGROUP SYSTEM
1 24
