AV-unprocessed.smi:2909|AV-procd|sdf|11171|dock10
  -GOLD-   2272016 63D 1   1.00000     0.00000
 Structure written by MMmdl.
 44 45  0  0  0  0  0  0  0  0  1 V2000
  153.7624  136.8999  164.6645 C   0  0  0  0  0  0  0  0  0  0  0  0
  154.0890  136.6270  163.2357 C   0  0  0  0  0  0  0  0  0  0  0  0
  153.5215  137.0763  162.0768 C   0  0  0  0  0  0  0  0  0  0  0  0
  154.2889  136.4590  161.0442 C   0  0  0  0  0  0  0  0  0  0  0  0
  154.1181  136.5937  159.5546 C   0  0  0  0  0  0  0  0  0  0  0  0
  154.1976  138.0656  159.1492 C   0  0  0  0  0  0  0  0  0  0  0  0
  155.0697  138.4425  158.3663 O   0  0  0  0  0  0  0  0  0  0  0  0
  153.2857  138.8870  159.6936 N   0  0  0  0  0  0  0  0  0  0  0  0
  153.2046  140.3261  159.4662 C   0  0  2  0  0  0  0  0  0  0  0  0
  153.4928  141.0958  160.7665 C   0  0  0  0  0  0  0  0  0  0  0  0
  153.3425  142.6124  160.5702 C   0  0  0  0  0  0  0  0  0  0  0  0
  151.9476  143.0098  160.0266 C   0  0  1  0  0  0  0  0  0  0  0  0
  151.8137  144.5467  159.8123 C   0  0  0  0  0  0  0  0  0  0  0  0
  150.3481  145.0012  159.6663 C   0  0  0  0  0  0  0  0  0  0  0  0
  152.6110  145.0522  158.5941 C   0  0  0  0  0  0  0  0  0  0  0  0
  151.6607  142.2055  158.7342 C   0  0  0  0  0  0  0  0  0  0  0  0
  151.8093  140.6893  158.9379 C   0  0  0  0  0  0  0  0  0  0  0  0
  155.2506  135.6842  161.5268 N   0  0  0  0  0  0  0  0  0  0  0  0
  155.1206  135.7974  162.8612 N   0  0  0  0  0  0  0  0  0  0  0  0
  155.7352  135.3084  163.4967 H   0  0  0  0  0  0  0  0  0  0  0  0
  152.7241  137.2143  164.7726 H   0  0  0  0  0  0  0  0  0  0  0  0
  154.3979  137.6918  165.0608 H   0  0  0  0  0  0  0  0  0  0  0  0
  153.9089  136.0095  165.2763 H   0  0  0  0  0  0  0  0  0  0  0  0
  152.6836  137.7505  161.9784 H   0  0  0  0  0  0  0  0  0  0  0  0
  154.8857  136.0316  159.0205 H   0  0  0  0  0  0  0  0  0  0  0  0
  153.1592  136.1784  159.2424 H   0  0  0  0  0  0  0  0  0  0  0  0
  152.6087  138.4885  160.3279 H   0  0  0  0  0  0  0  0  0  0  0  0
  153.9402  140.6122  158.7118 H   0  0  0  0  0  0  0  0  0  0  0  0
  152.8121  140.7636  161.5516 H   0  0  0  0  0  0  0  0  0  0  0  0
  154.5008  140.8735  161.1191 H   0  0  0  0  0  0  0  0  0  0  0  0
  153.5331  143.0895  161.5304 H   0  0  0  0  0  0  0  0  0  0  0  0
  154.1170  142.9671  159.8889 H   0  0  0  0  0  0  0  0  0  0  0  0
  151.2063  142.7126  160.7701 H   0  0  0  0  0  0  0  0  0  0  0  0
  152.2200  145.0476  160.6920 H   0  0  0  0  0  0  0  0  0  0  0  0
  149.8446  144.4645  158.8617 H   0  0  0  0  0  0  0  0  0  0  0  0
  150.2873  146.0663  159.4403 H   0  0  0  0  0  0  0  0  0  0  0  0
  149.7785  144.8499  160.5825 H   0  0  0  0  0  0  0  0  0  0  0  0
  152.3297  144.5179  157.6861 H   0  0  0  0  0  0  0  0  0  0  0  0
  153.6856  144.9416  158.7337 H   0  0  0  0  0  0  0  0  0  0  0  0
  152.4324  146.1137  158.4203 H   0  0  0  0  0  0  0  0  0  0  0  0
  150.6483  142.3930  158.3795 H   0  0  0  0  0  0  0  0  0  0  0  0
  152.3334  142.5328  157.9403 H   0  0  0  0  0  0  0  0  0  0  0  0
  151.6225  140.1743  157.9948 H   0  0  0  0  0  0  0  0  0  0  0  0
  151.0456  140.3425  159.6358 H   0  0  0  0  0  0  0  0  0  0  0  0
  1  2  1  0  0  0  0
  1 21  1  0  0  0  0
  1 22  1  0  0  0  0
  1 23  1  0  0  0  0
  2 19  1  0  0  0  0
  2  3  2  0  0  0  0
  3  4  1  0  0  0  0
  3 24  1  0  0  0  0
  4  5  1  0  0  0  0
  4 18  2  0  0  0  0
  5  6  1  0  0  0  0
  5 25  1  0  0  0  0
  5 26  1  0  0  0  0
  6  7  2  0  0  0  0
  6  8  1  0  0  0  0
  8  9  1  0  0  0  0
  8 27  1  0  0  0  0
  9 17  1  0  0  0  0
  9 10  1  0  0  0  0
  9 28  1  0  0  0  0
 10 11  1  0  0  0  0
 10 29  1  0  0  0  0
 10 30  1  0  0  0  0
 11 12  1  0  0  0  0
 11 31  1  0  0  0  0
 11 32  1  0  0  0  0
 12 13  1  0  0  0  0
 12 16  1  0  0  0  0
 12 33  1  0  0  0  0
 13 14  1  0  0  0  0
 13 15  1  0  0  0  0
 13 34  1  0  0  0  0
 14 35  1  0  0  0  0
 14 36  1  0  0  0  0
 14 37  1  0  0  0  0
 15 38  1  0  0  0  0
 15 39  1  0  0  0  0
 15 40  1  0  0  0  0
 16 17  1  0  0  0  0
 16 41  1  0  0  0  0
 16 42  1  0  0  0  0
 17 43  1  0  0  0  0
 17 44  1  0  0  0  0
 18 19  1  0  0  0  0
 19 20  1  0  0  0  0
M  END
> <s_m_source_file>
AV-unprocessed.smi

> <i_m_source_file_index>
2909

> <i_lp_mmshare_version>
43012

> <i_f3d_flags>
0

> <s_epik_input>
W0NIM11jMVtjSF1jKG5bbkhdMSlbQ0gyXUMoPU8pW05IXVtDQEBIXTJbQ0gyXVtDSDJdW0NAQEhdKFtDSF0oW0NIM10pW0NIM10pW0NIMl1bQ0gyXTI=

> <s_epik_cmdline>
J2VwaWtfcHl0aG9uJywgJy1waCcsICc3LjAnLCAnLXRuJywgJzgnLCAnLW1hJywgJzIwMCcsICctbWV0YWxfYmluZGluZycsICctaW1hZScsICc8aW5maWxlLm1hZT4nLCAnLW9tYWUnLCAnPG91dGZpbGUubWFlPic=

> <r_lp_tautomer_probability>
0.5

> <r_epik_Ionization_Penalty>
9.34828e-05

> <r_epik_Ionization_Penalty_Charging>
0

> <r_epik_Ionization_Penalty_Neutral>
9.34828e-05

> <r_epik_State_Penalty>
0.41068

> <r_epik_Charging_Adjusted_Penalty>
0.41068

> <i_epik_Tot_Q>
0

> <i_epik_Tot_abs_Q>
0

> <r_epik_Metal_State_Penalty>
0.4107

> <b_epik_Metal_Only>
0

> <s_lp_Force_Field>
OPLS_2005

> <r_lp_Energy>
11.82

> <b_lp_Chiralities_Consistent>
1

> <s_lp_Variant>
AV-unprocessed.smi:2909-1

> <Gold.Version>
5.8.1

> <Gold.Id.Protein>
6NUR|6NUR_protein|mol2

> <Gold.PLP.Fitness>
45.2083

> <Gold.PLP.PLP>
-42.6714

> <Gold.PLP.part.hbond>
-1.0000

> <Gold.PLP.part.metal>
0.0000

> <Gold.PLP.part.buried>
-5.6725

> <Gold.PLP.part.nonpolar>
-36.3649

> <Gold.PLP.part.repulsive>
0.0732

> <Gold.PLP.ligand.clash>
0.0000

> <Gold.PLP.ligand.torsion>
0.2047

> <Gold.PLP.Chemscore.Hbond>
0.9760

> <Gold.PLP.Chemscore.CHOScore>
0.0000

> <Gold.PLP.Chemscore.Metal>
0.0000

> <Gold.Chemscore.Hbonds>
donor molecule, donor type, donor heavy atom, donor atom, acceptor molecule, acceptor atom, score
      P1  H  7997  8008       L1     7  1.00

> <Gold.PLP.Chemscore.Internal.Correction>
0.0183

> <Gold.Rescore>
     Score         DG    S(hbond)    S(metal)    S(lipo)     H(rot)  DE(clash)    DE(int)     intcor
     19.58     -20.11       0.97        0.00     130.30       1.50       0.30       0.24       ----

> <Gold.Chemscore.Fitness>
19.5756

> <Gold.Chemscore.DG>
-20.1144

> <Gold.Chemscore.ZeroCoef>
-5.4800

> <Gold.Chemscore.Hbond>
0.9678

> <Gold.Chemscore.Metal>
0.0000

> <Gold.Chemscore.Lipo>
130.2983

> <Gold.Chemscore.Internal_Hbond>
0.0000

> <Gold.Chemscore.DEClash>
0.2994

> <Gold.Chemscore.DEInternal>
0.2394

> <Gold.Chemscore.Rot>
1.5011

> <Gold.Chemscore.Internal.Correction>
   9.000000E+99

> <Gold.Chemscore.Hbonds>
donor molecule, donor type, donor heavy atom, donor atom, acceptor molecule, acceptor atom, score
      P1  H  7997  8008       L1     7  0.95

> <Gold.Chemscore.Hbond.Weighted>
-3.2323

> <Gold.Chemscore.Metal.Weighted>
-0.0000

> <Gold.Chemscore.Lipo.Weighted>
-15.2449

> <Gold.Chemscore.Internal_Hbond.Weighted>
0.0000

> <Gold.Chemscore.DEClash.Weighted>
0.2994

> <Gold.Chemscore.DEInternal.Weighted>
0.2394

> <Gold.Chemscore.Rot.Weighted>
3.8429

> <Gold.Chemscore.Internal.Correction.Weighted>
   9.000000E+99

> <Gold.Protein.RotatedTorsions>
[ 6907 6896 6895 6894 ] final   34.50 input  -60.11 | X-H torsion
[ 7974 7965 7964 7962 ] final -175.20 input  175.53 | X-H torsion
[ 8008 7997 7996 7995 ] final -116.52 input   59.86 | X-H torsion
[ 10167 10162 10161 10158 ] final -146.06 input  -65.29 | X-H torsion
[ 10718 10713 10712 10709 ] final -134.69 input   66.30 | X-H torsion
[ 10763 10752 10751 10750 ] final  136.41 input  -60.55 | X-H torsion
[ 11005 11000 10999 10996 ] final -107.41 input  -57.11 | X-H torsion

> <Gold.Protein.ActiveResidues>
 VAL166  LYS551  ARG553  GLY616  TRP617  ASP618  TYR619  PRO620  LYS621  CYS622 
 ASP623  PHE694  ASN695  SER759  ASP760  ASP761  ALA762  ILE779  LEU786  VAL792 
 PHE793  MET794  SER795  GLU796  ALA797  LYS798  CYS799  TRP800  GLU811  SER814 

> <Gold.Protein.RotatedAtoms>
  152.1032  134.9327  160.0568 H   0  0  0  0  0  0  0  0  0  0  0  0  # atno 6907 bound_to 6896
  152.0533  133.4024  159.4394 H   0  0  0  0  0  0  0  0  0  0  0  0  # atno 6908 bound_to 6896
  150.6840  134.3204  159.4827 H   0  0  0  0  0  0  0  0  0  0  0  0  # atno 6909 bound_to 6896
  144.7129  140.1356  143.6395 H   0  0  0  0  0  0  0  0  0  0  0  0  # atno 7974 bound_to 7965
  155.0691  140.0393  157.2602 H   0  0  0  0  0  0  0  0  0  0  0  0  # atno 8008 bound_to 7997
  154.6997  140.2670  155.6707 H   0  0  0  0  0  0  0  0  0  0  0  0  # atno 8009 bound_to 7997
  156.2756  140.2743  156.1603 H   0  0  0  0  0  0  0  0  0  0  0  0  # atno 8010 bound_to 7997
  139.7748  143.8186  152.2630 H   0  0  0  0  0  0  0  0  0  0  0  0  # atno 10167 bound_to 10162
  156.2581  130.7193  151.1117 H   0  0  0  0  0  0  0  0  0  0  0  0  # atno 10718 bound_to 10713
  153.8561  135.3073  155.3435 H   0  0  0  0  0  0  0  0  0  0  0  0  # atno 10763 bound_to 10752
  154.7870  135.4804  153.9970 H   0  0  0  0  0  0  0  0  0  0  0  0  # atno 10764 bound_to 10752
  153.1489  135.6839  153.9005 H   0  0  0  0  0  0  0  0  0  0  0  0  # atno 10765 bound_to 10752
  141.0955  133.8978  157.1972 H   0  0  0  0  0  0  0  0  0  0  0  0  # atno 11005 bound_to 11000
  145.9247  139.2568  143.1360 LP  0  0  0  0  0  0  0  0  0  0  0  0  # atno 17320 bound_to 7965
  145.9584  140.8855  143.0223 LP  0  0  0  0  0  0  0  0  0  0  0  0  # atno 17321 bound_to 7965
  139.8231  144.7287  150.9547 LP  0  0  0  0  0  0  0  0  0  0  0  0  # atno 17342 bound_to 10162
  140.7816  143.4140  151.0947 LP  0  0  0  0  0  0  0  0  0  0  0  0  # atno 17343 bound_to 10162
  157.7240  131.0662  150.6013 LP  0  0  0  0  0  0  0  0  0  0  0  0  # atno 17370 bound_to 10713
  156.6098  130.4377  149.5863 LP  0  0  0  0  0  0  0  0  0  0  0  0  # atno 17371 bound_to 10713
  139.9791  135.0104  156.9705 LP  0  0  0  0  0  0  0  0  0  0  0  0  # atno 17394 bound_to 11000
  140.5149  134.0965  155.7278 LP  0  0  0  0  0  0  0  0  0  0  0  0  # atno 17395 bound_to 11000

$$$$
