#       Name:                AV-unprocessed.smi:41
#       Creating user name   scv26
#       Creation time:       Thu Mar 26 16:24:17 2020


#       File generated by GOLD software.
#

@<TRIPOS>MOLECULE
AV-unprocessed.smi:41
    33    34     1
SMALL
NO_CHARGES


@<TRIPOS>ATOM
      1 ****        -4.7050   0.9913   0.1238 N.pl3          1 S1                 0.0000
      2 ****        -3.3717   0.8974   0.0152 C.2            1 S1                 0.0000
      3 ****        -2.6209   1.8787   0.4765 N.2            1 S1                 0.0000
      4 ****        -1.2520   1.8747   0.4094 C.2            1 S1                 0.0000
      5 ****        -0.6042   2.8106   0.8763 O.2            1 S1                 0.0000
      6 ****        -0.6293   0.7656  -0.2177 N.am           1 S1                 0.0000
      7 ****         0.8266   0.6635  -0.2801 C.3            1 S1                 0.0000
      8 ****         1.3793   0.3393  -1.6867 C.3            1 S1                 0.0000
      9 ****         2.9091  -0.5816  -1.4423 S.3            1 S1                 0.0000
     10 ****         2.6439  -0.5312   0.3416 C.3            1 S1                 0.0000
     11 ****         3.0891  -1.8405   1.0089 C.3            1 S1                 0.0000
     12 ****         3.3601  -1.6207   2.3767 O.3            1 S1                 0.0000
     13 ****         1.2633  -0.3291   0.5924 O.3            1 S1                 0.0000
     14 ****        -1.4127  -0.2877  -0.6731 C.2            1 S1                 0.0000
     15 ****        -2.7602  -0.2636  -0.5894 C.2            1 S1                 0.0000
     16 ****        -3.5020  -1.2871  -1.0470 F              1 S1                 0.0000
     17 ****         1.2798   1.5953   0.0624 H              1 S1                 0.0000
     18 ****         3.2165   0.3131   0.7305 H              1 S1                 0.0000
     19 ****        -5.2919   0.2446  -0.2194 H              1 S1                 0.0000
     20 ****        -5.1193   1.8091   0.5471 H              1 S1                 0.0000
     21 ****         0.6985  -0.2801  -2.2669 H              1 S1                 0.0000
     22 ****         1.5517   1.2630  -2.2392 H              1 S1                 0.0000
     23 ****         2.3396  -2.6234   0.8884 H              1 S1                 0.0000
     24 ****         4.0110  -2.2024   0.5527 H              1 S1                 0.0000
     25 ****         3.6524  -2.4336   2.7598 H              1 S1                 0.0000
     26 ****        -0.9514  -1.1656  -1.1008 H              1 S1                 0.0000
     27 ****        -3.0733   2.6655   0.8965 LP             1 S1                 0.0000
     28 ****        -1.0763   3.5795   1.3076 LP             1 S1                 0.0000
     29 ****         0.3944   2.8025   0.8246 LP             1 S1                 0.0000
     30 ****         2.5298  -1.3095   2.8391 LP             1 S1                 0.0000
     31 ****         4.0743  -0.9273   2.4717 LP             1 S1                 0.0000
     32 ****         0.7578  -1.1761   0.4281 LP             1 S1                 0.0000
     33 ****         1.1263  -0.0374   1.5391 LP             1 S1                 0.0000
@<TRIPOS>BOND
    1    1    2 1     
    2    1   19 1     
    3    1   20 1     
    4    2   15 1     
    5    2    3 2     
    6    3    4 1     
    7    4    5 2     
    8    4    6 am    
    9    6    7 1     
   10    6   14 1     
   11    7   17 1     
   12    7   13 1     
   13    7    8 1     
   14    8    9 1     
   15    8   21 1     
   16    8   22 1     
   17    9   10 1     
   18   10   18 1     
   19   10   11 1     
   20   10   13 1     
   21   11   12 1     
   22   11   23 1     
   23   11   24 1     
   24   12   25 1     
   25   14   15 2     
   26   14   26 1     
   27   15   16 1     
   28    3   27 1     
   29    5   28 1     
   30    5   29 1     
   31   12   30 1     
   32   12   31 1     
   33   13   32 1     
   34   13   33 1     
@<TRIPOS>SUBSTRUCTURE
      1 S1             1
@<TRIPOS>SET
LONE_PAIRS      STATIC     ATOMS    <user>   **** ""
7 27 28 29 30 31 32 33
DONOR_HYDROGENS      STATIC     ATOMS    <user>   **** ""
3 19 20 25
ATOM$BLUE        STATIC     ATOMS    COLORGROUP SYSTEM
7 27 28 29 30 31 32 33
ATOM$RED        STATIC     ATOMS    COLORGROUP SYSTEM
3 19 20 25
