AV-unprocessed.smi:911|AV-procd|sdf|4138|dock10
  -GOLD-   22720 2 43D 1   1.00000     0.00000
 Structure written by MMmdl.
 47 49  0  0  0  0  0  0  0  0  3 V2000
  149.4010  138.8033  155.1359 C   0  0  0  0  0  0  0  0  0  0  0  0
  148.6675  140.1417  155.4349 C   0  0  0  0  0  0  0  0  0  0  0  0
  149.4995  141.2312  154.7012 C   0  0  0  0  0  0  0  0  0  0  0  0
  147.1682  140.1388  155.0744 C   0  0  2  0  0  0  0  0  0  0  0  0
  146.6748  141.5190  155.5656 C   0  0  0  0  0  0  0  0  0  0  0  0
  147.5126  141.7390  156.8427 C   0  0  0  0  0  0  0  0  0  0  0  0
  148.3538  140.4391  156.9287 C   0  0  2  0  0  0  0  0  0  0  0  0
  149.5770  140.5896  157.8548 C   0  0  0  0  0  0  0  0  0  0  0  0
  147.3341  139.3314  157.3430 C   0  0  2  0  0  0  0  0  0  0  0  0
  147.9756  138.1193  157.8438 N   0  0  0  0  0  0  0  0  0  0  0  0
  147.6593  137.4273  158.9507 C   0  0  0  0  0  0  0  0  0  0  0  0
  146.7065  137.7128  159.6743 O   0  0  0  0  0  0  0  0  0  0  0  0
  148.5664  136.2439  159.3318 C   0  0  0  0  0  0  0  0  0  0  0  0
  148.0559  135.4262  160.4485 N   0  0  0  0  0  0  0  0  0  0  0  0
  147.8670  134.0541  160.1900 C   0  0  0  0  0  0  0  0  0  0  0  0
  147.3550  133.2151  161.1110 C   0  0  0  0  0  0  0  0  0  0  0  0
  147.1351  131.8172  160.8137 N   0  3  0  0  0  0  0  0  0  0  0  0
  147.6106  131.3535  159.7824 O   0  0  0  0  0  0  0  0  0  0  0  0
  146.4853  131.1365  161.6017 O   0  5  0  0  0  0  0  0  0  0  0  0
  147.0094  133.7667  162.4065 C   0  0  0  0  0  0  0  0  0  0  0  0
  147.1833  135.0791  162.6590 C   0  0  0  0  0  0  0  0  0  0  0  0
  147.7226  135.9942  161.6477 C   0  0  0  0  0  0  0  0  0  0  0  0
  147.8538  137.1990  161.8621 O   0  0  0  0  0  0  0  0  0  0  0  0
  146.5609  139.0847  156.0284 C   0  0  0  0  0  0  0  0  0  0  0  0
  149.5202  138.6629  154.0613 H   0  0  0  0  0  0  0  0  0  0  0  0
  148.9030  137.9075  155.4953 H   0  0  0  0  0  0  0  0  0  0  0  0
  150.4016  138.8030  155.5692 H   0  0  0  0  0  0  0  0  0  0  0  0
  149.1294  142.2483  154.8078 H   0  0  0  0  0  0  0  0  0  0  0  0
  149.5355  141.0298  153.6301 H   0  0  0  0  0  0  0  0  0  0  0  0
  150.5293  141.2376  155.0596 H   0  0  0  0  0  0  0  0  0  0  0  0
  146.9473  139.9487  154.0236 H   0  0  0  0  0  0  0  0  0  0  0  0
  146.8635  142.2999  154.8286 H   0  0  0  0  0  0  0  0  0  0  0  0
  145.6038  141.5260  155.7715 H   0  0  0  0  0  0  0  0  0  0  0  0
  148.1407  142.6254  156.7517 H   0  0  0  0  0  0  0  0  0  0  0  0
  146.8869  141.8955  157.7221 H   0  0  0  0  0  0  0  0  0  0  0  0
  149.2654  140.7742  158.8831 H   0  0  0  0  0  0  0  0  0  0  0  0
  150.2059  141.4249  157.5473 H   0  0  0  0  0  0  0  0  0  0  0  0
  150.2009  139.6958  157.8533 H   0  0  0  0  0  0  0  0  0  0  0  0
  146.6460  139.7059  158.1030 H   0  0  0  0  0  0  0  0  0  0  0  0
  148.7743  137.7982  157.3163 H   0  0  0  0  0  0  0  0  0  0  0  0
  148.6921  135.6146  158.4496 H   0  0  0  0  0  0  0  0  0  0  0  0
  149.5645  136.6288  159.5470 H   0  0  0  0  0  0  0  0  0  0  0  0
  148.1441  133.7467  159.1917 H   0  0  0  0  0  0  0  0  0  0  0  0
  146.6086  133.1322  163.1833 H   0  0  0  0  0  0  0  0  0  0  0  0
  146.9175  135.4691  163.6307 H   0  0  0  0  0  0  0  0  0  0  0  0
  145.4862  139.2182  156.1579 H   0  0  0  0  0  0  0  0  0  0  0  0
  146.7042  138.0733  155.6469 H   0  0  0  0  0  0  0  0  0  0  0  0
  1  2  1  0  0  0  0
  1 25  1  0  0  0  0
  1 26  1  0  0  0  0
  1 27  1  0  0  0  0
  2  7  1  0  0  0  0
  2  3  1  0  0  0  0
  2  4  1  0  0  0  0
  3 28  1  0  0  0  0
  3 29  1  0  0  0  0
  3 30  1  0  0  0  0
  4 24  1  0  0  0  0
  4  5  1  0  0  0  0
  4 31  1  0  0  0  0
  5  6  1  0  0  0  0
  5 32  1  0  0  0  0
  5 33  1  0  0  0  0
  6  7  1  0  0  0  0
  6 34  1  0  0  0  0
  6 35  1  0  0  0  0
  7  8  1  0  0  0  0
  7  9  1  0  0  0  0
  8 36  1  0  0  0  0
  8 37  1  0  0  0  0
  8 38  1  0  0  0  0
  9 10  1  0  0  0  0
  9 24  1  0  0  0  0
  9 39  1  0  0  0  0
 10 11  1  0  0  0  0
 10 40  1  0  0  0  0
 11 12  2  0  0  0  0
 11 13  1  0  0  0  0
 13 14  1  0  0  0  0
 13 41  1  0  0  0  0
 13 42  1  0  0  0  0
 14 22  1  0  0  0  0
 14 15  1  0  0  0  0
 15 16  2  0  0  0  0
 15 43  1  0  0  0  0
 16 17  1  0  0  0  0
 16 20  1  0  0  0  0
 17 18  2  0  0  0  0
 17 19  1  0  0  0  0
 20 21  2  0  0  0  0
 20 44  1  0  0  0  0
 21 22  1  0  0  0  0
 21 45  1  0  0  0  0
 22 23  2  0  0  0  0
 24 46  1  0  0  0  0
 24 47  1  0  0  0  0
M  CHG  1  17   1
M  CHG  1  19  -1
M  END
> <s_m_source_file>
AV-unprocessed.smi

> <i_m_source_file_index>
911

> <i_lp_mmshare_version>
43012

> <i_f3d_flags>
0

> <s_epik_input>
W0NIM11bQ0BdMTJDKFtDSDNdKShbQ0gzXSlbQ0BIXShbQ0gyXVtDSDJdMSlbQ0gyXVtDQEBIXTJbTkhdQyg9TylbQ0gyXW4zW2NIXWMoW04rXSg9TylbTy1dKVtjSF1bY0hdYzM9Tw==

> <s_epik_cmdline>
J2VwaWtfcHl0aG9uJywgJy1waCcsICc3LjAnLCAnLXRuJywgJzgnLCAnLW1hJywgJzIwMCcsICctbWV0YWxfYmluZGluZycsICctaW1hZScsICc8aW5maWxlLm1hZT4nLCAnLW9tYWUnLCAnPG91dGZpbGUubWFlPic=

> <r_lp_tautomer_probability>
1

> <r_epik_Ionization_Penalty>
2.04092e-08

> <r_epik_Ionization_Penalty_Charging>
8.54191e-11

> <r_epik_Ionization_Penalty_Neutral>
2.03238e-08

> <r_epik_State_Penalty>
-0

> <r_epik_Charging_Adjusted_Penalty>
8.54191e-11

> <i_epik_Tot_Q>
0

> <i_epik_Tot_abs_Q>
2

> <r_epik_Metal_State_Penalty>
-0

> <b_epik_Metal_Only>
0

> <s_lp_Force_Field>
OPLS_2005

> <r_lp_Energy>
66.6033

> <b_lp_Chiralities_Consistent>
1

> <s_lp_Variant>
AV-unprocessed.smi:911-3

> <Gold.Version>
5.8.1

> <Gold.Id.Protein>
6NUR|6NUR_protein|mol2

> <Gold.PLP.Fitness>
38.2323

> <Gold.PLP.PLP>
-32.8638

> <Gold.PLP.part.hbond>
-2.9814

> <Gold.PLP.part.metal>
0.0000

> <Gold.PLP.part.buried>
-3.7234

> <Gold.PLP.part.nonpolar>
-26.3163

> <Gold.PLP.part.repulsive>
0.1329

> <Gold.PLP.ligand.clash>
0.0000

> <Gold.PLP.ligand.torsion>
0.2474

> <Gold.PLP.Chemscore.Hbond>
1.9440

> <Gold.PLP.Chemscore.CHOScore>
0.0000

> <Gold.PLP.Chemscore.Metal>
0.0000

> <Gold.Chemscore.Hbonds>
donor molecule, donor type, donor heavy atom, donor atom, acceptor molecule, acceptor atom, score
      P1  H  6931  6943       L1    23  1.00
      P1  H  6934  6947       L1    12  0.94

> <Gold.PLP.Chemscore.Internal.Correction>
0.0314

> <Gold.Rescore>
     Score         DG    S(hbond)    S(metal)    S(lipo)     H(rot)  DE(clash)    DE(int)     intcor
     12.11     -14.92       1.89        0.00      60.02       1.53       0.09       2.71       ----

> <Gold.Chemscore.Fitness>
12.1111

> <Gold.Chemscore.DG>
-14.9178

> <Gold.Chemscore.ZeroCoef>
-5.4800

> <Gold.Chemscore.Hbond>
1.8940

> <Gold.Chemscore.Metal>
0.0000

> <Gold.Chemscore.Lipo>
60.0233

> <Gold.Chemscore.Internal_Hbond>
0.0000

> <Gold.Chemscore.DEClash>
0.0936

> <Gold.Chemscore.DEInternal>
2.7132

> <Gold.Chemscore.Rot>
1.5277

> <Gold.Chemscore.Internal.Correction>
   9.000000E+99

> <Gold.Chemscore.Hbonds>
donor molecule, donor type, donor heavy atom, donor atom, acceptor molecule, acceptor atom, score
      P1  H  6931  6943       L1    23  0.95
      P1  H  6934  6947       L1    12  0.71

> <Gold.Chemscore.Hbond.Weighted>
-6.3261

> <Gold.Chemscore.Metal.Weighted>
-0.0000

> <Gold.Chemscore.Lipo.Weighted>
-7.0227

> <Gold.Chemscore.Internal_Hbond.Weighted>
0.0000

> <Gold.Chemscore.DEClash.Weighted>
0.0936

> <Gold.Chemscore.DEInternal.Weighted>
2.7132

> <Gold.Chemscore.Rot.Weighted>
3.9110

> <Gold.Chemscore.Internal.Correction.Weighted>
   9.000000E+99

> <Gold.Protein.RotatedTorsions>
[ 6907 6896 6895 6894 ] final  -16.12 input  -60.11 | X-H torsion
[ 7974 7965 7964 7962 ] final  -33.70 input  175.53 | X-H torsion
[ 8008 7997 7996 7995 ] final   19.27 input   59.86 | X-H torsion
[ 10167 10162 10161 10158 ] final  -32.79 input  -65.29 | X-H torsion
[ 10718 10713 10712 10709 ] final   97.44 input   66.30 | X-H torsion
[ 10763 10752 10751 10750 ] final  -11.84 input  -60.55 | X-H torsion
[ 11005 11000 10999 10996 ] final  176.28 input  -57.11 | X-H torsion

> <Gold.Protein.ActiveResidues>
 VAL166  LYS551  ARG553  GLY616  TRP617  ASP618  TYR619  PRO620  LYS621  CYS622 
 ASP623  PHE694  ASN695  SER759  ASP760  ASP761  ALA762  ILE779  LEU786  VAL792 
 PHE793  MET794  SER795  GLU796  ALA797  LYS798  CYS799  TRP800  GLU811  SER814 

> <Gold.Protein.RotatedAtoms>
  151.3135  135.0800  159.9280 H   0  0  0  0  0  0  0  0  0  0  0  0  # atno 6907 bound_to 6896
  152.5272  133.9712  159.7773 H   0  0  0  0  0  0  0  0  0  0  0  0  # atno 6908 bound_to 6896
  151.0020  133.5995  159.2724 H   0  0  0  0  0  0  0  0  0  0  0  0  # atno 6909 bound_to 6896
  146.0889  140.5948  142.8873 H   0  0  0  0  0  0  0  0  0  0  0  0  # atno 7974 bound_to 7965
  154.9183  140.3024  155.5229 H   0  0  0  0  0  0  0  0  0  0  0  0  # atno 8008 bound_to 7997
  156.3011  140.2376  156.4166 H   0  0  0  0  0  0  0  0  0  0  0  0  # atno 8009 bound_to 7997
  154.8356  140.0416  157.1495 H   0  0  0  0  0  0  0  0  0  0  0  0  # atno 8010 bound_to 7997
  140.7215  143.3668  151.1855 H   0  0  0  0  0  0  0  0  0  0  0  0  # atno 10167 bound_to 10162
  157.6912  131.0609  150.4644 H   0  0  0  0  0  0  0  0  0  0  0  0  # atno 10718 bound_to 10713
  153.4897  135.7017  153.5891 H   0  0  0  0  0  0  0  0  0  0  0  0  # atno 10763 bound_to 10752
  153.4069  135.3858  155.2025 H   0  0  0  0  0  0  0  0  0  0  0  0  # atno 10764 bound_to 10752
  154.8717  135.3895  154.4355 H   0  0  0  0  0  0  0  0  0  0  0  0  # atno 10765 bound_to 10752
  140.3714  134.7026  157.4395 H   0  0  0  0  0  0  0  0  0  0  0  0  # atno 11005 bound_to 11000
  144.7346  140.4771  143.6913 LP  0  0  0  0  0  0  0  0  0  0  0  0  # atno 17320 bound_to 7965
  145.6076  139.1510  143.3094 LP  0  0  0  0  0  0  0  0  0  0  0  0  # atno 17321 bound_to 7965
  139.7232  143.9190  152.2993 LP  0  0  0  0  0  0  0  0  0  0  0  0  # atno 17342 bound_to 10162
  139.8954  144.6942  150.8723 LP  0  0  0  0  0  0  0  0  0  0  0  0  # atno 17343 bound_to 10162
  156.4986  130.4112  149.6365 LP  0  0  0  0  0  0  0  0  0  0  0  0  # atno 17370 bound_to 10713
  156.3349  130.7351  151.2287 LP  0  0  0  0  0  0  0  0  0  0  0  0  # atno 17371 bound_to 10713
  140.0548  134.6079  155.8818 LP  0  0  0  0  0  0  0  0  0  0  0  0  # atno 17394 bound_to 11000
  141.1953  133.6586  156.5637 LP  0  0  0  0  0  0  0  0  0  0  0  0  # atno 17395 bound_to 11000

$$$$
