AV-unprocessed.smi:2226|AV-procd|sdf|9016|dock1
  -GOLD-   2272012223D 1   1.00000     0.00000
 Structure written by MMmdl.
 40 42  0  0  0  0  0  0  0  0  2 V2000
  149.2514  141.3055  154.4133 C   0  0  0  0  0  0  0  0  0  0  0  0
  149.4053  140.3695  155.5522 N   0  3  1  0  0  0  0  0  0  0  0  0
  149.1072  138.9508  155.2384 C   0  0  1  0  0  0  0  0  0  0  0  0
  150.1943  138.3357  154.3206 C   0  0  0  0  0  0  0  0  0  0  0  0
  151.6330  138.5286  154.8363 C   0  0  0  0  0  0  0  0  0  0  0  0
  151.8689  139.9382  155.4112 C   0  0  0  0  0  0  0  0  0  0  0  0
  150.6970  140.4720  156.2740 C   0  0  2  0  0  0  0  0  0  0  0  0
  150.5499  139.7979  157.6576 C   0  0  0  0  0  0  0  0  0  0  0  0
  149.9900  138.3554  157.6127 C   0  0  1  0  0  0  0  0  0  0  0  0
  149.4653  138.0057  158.9320 N   0  0  0  0  0  0  0  0  0  0  0  0
  149.1538  136.7766  159.3716 C   0  0  0  0  0  0  0  0  0  0  0  0
  149.2905  135.7759  158.6609 O   0  0  0  0  0  0  0  0  0  0  0  0
  148.6865  136.8509  160.6761 N   0  0  0  0  0  0  0  0  0  0  0  0
  148.0432  135.8512  161.1976 C   0  0  0  0  0  0  0  0  0  0  0  0
  147.6749  134.5996  160.7109 N   0  0  0  0  0  0  0  0  0  0  0  0
  147.0024  133.9384  161.7001 C   0  0  0  0  0  0  0  0  0  0  0  0
  146.9476  134.7343  162.7637 C   0  0  0  0  0  0  0  0  0  0  0  0
  147.5758  135.9112  162.4862 O   0  0  0  0  0  0  0  0  0  0  0  0
  148.8665  138.1876  156.5612 C   0  0  0  0  0  0  0  0  0  0  0  0
  149.9636  141.1054  153.6132 H   0  0  0  0  0  0  0  0  0  0  0  0
  149.3970  142.3338  154.7452 H   0  0  0  0  0  0  0  0  0  0  0  0
  148.2466  141.2337  153.9964 H   0  0  0  0  0  0  0  0  0  0  0  0
  148.1649  138.9215  154.6891 H   0  0  0  0  0  0  0  0  0  0  0  0
  149.9982  137.2744  154.1645 H   0  0  0  0  0  0  0  0  0  0  0  0
  150.1191  138.7912  153.3328 H   0  0  0  0  0  0  0  0  0  0  0  0
  151.8743  137.7719  155.5778 H   0  0  0  0  0  0  0  0  0  0  0  0
  152.3373  138.3456  154.0240 H   0  0  0  0  0  0  0  0  0  0  0  0
  152.7955  139.9513  155.9861 H   0  0  0  0  0  0  0  0  0  0  0  0
  152.0351  140.6250  154.5809 H   0  0  0  0  0  0  0  0  0  0  0  0
  150.8900  141.5288  156.4643 H   0  0  0  0  0  0  0  0  0  0  0  0
  151.5016  139.8129  158.1904 H   0  0  0  0  0  0  0  0  0  0  0  0
  149.8725  140.4163  158.2495 H   0  0  0  0  0  0  0  0  0  0  0  0
  150.8014  137.6780  157.3615 H   0  0  0  0  0  0  0  0  0  0  0  0
  149.3239  138.7707  159.5760 H   0  0  0  0  0  0  0  0  0  0  0  0
  147.8509  134.2065  159.7972 H   0  0  0  0  0  0  0  0  0  0  0  0
  146.6244  132.9408  161.5323 H   0  0  0  0  0  0  0  0  0  0  0  0
  146.5179  134.6156  163.7473 H   0  0  0  0  0  0  0  0  0  0  0  0
  147.9329  138.5611  156.9862 H   0  0  0  0  0  0  0  0  0  0  0  0
  148.6954  137.1287  156.3629 H   0  0  0  0  0  0  0  0  0  0  0  0
  148.6991  140.6564  156.2149 H   0  0  0  0  0  0  0  0  0  0  0  0
  1  2  1  0  0  0  0
  1 20  1  0  0  0  0
  1 21  1  0  0  0  0
  1 22  1  0  0  0  0
  2  7  1  0  0  0  0
  2  3  1  0  0  0  0
  2 40  1  0  0  0  0
  3 19  1  0  0  0  0
  3  4  1  0  0  0  0
  3 23  1  0  0  0  0
  4  5  1  0  0  0  0
  4 24  1  0  0  0  0
  4 25  1  0  0  0  0
  5  6  1  0  0  0  0
  5 26  1  0  0  0  0
  5 27  1  0  0  0  0
  6  7  1  0  0  0  0
  6 28  1  0  0  0  0
  6 29  1  0  0  0  0
  7  8  1  0  0  0  0
  7 30  1  0  0  0  0
  8  9  1  0  0  0  0
  8 31  1  0  0  0  0
  8 32  1  0  0  0  0
  9 10  1  0  0  0  0
  9 19  1  0  0  0  0
  9 33  1  0  0  0  0
 10 34  1  0  0  0  0
 10 11  1  0  0  0  0
 11 13  1  0  0  0  0
 11 12  2  0  0  0  0
 13 14  2  0  0  0  0
 14 18  1  0  0  0  0
 14 15  1  0  0  0  0
 15 35  1  0  0  0  0
 15 16  1  0  0  0  0
 16 36  1  0  0  0  0
 16 17  2  0  0  0  0
 17 37  1  0  0  0  0
 17 18  1  0  0  0  0
 19 38  1  0  0  0  0
 19 39  1  0  0  0  0
M  CHG  1   2   1
M  END
> <s_m_source_file>
AV-unprocessed.smi

> <i_m_source_file_index>
2226

> <i_lp_mmshare_version>
43012

> <i_f3d_flags>
0

> <s_epik_input>
W0NIMl0xW0NIMl1bQ0gyXVtDQEhdKE4oW0NIM10pW0NIXTEyKVtDSDJdW0NASF0oW0NIMl0yKVtOSF1DKD1PKVtOSF1jM25bY0hdW2NIXW8z

> <s_epik_cmdline>
J2VwaWtfcHl0aG9uJywgJy1waCcsICc3LjAnLCAnLXRuJywgJzgnLCAnLW1hJywgJzIwMCcsICctbWV0YWxfYmluZGluZycsICctaW1hZScsICc8aW5maWxlLm1hZT4nLCAnLW9tYWUnLCAnPG91dGZpbGUubWFlPic=

> <r_lp_tautomer_probability>
0.107061

> <r_epik_Ionization_Penalty>
1.08307

> <r_epik_Ionization_Penalty_Charging>
1.08272

> <r_epik_Ionization_Penalty_Neutral>
0.000345913

> <r_epik_State_Penalty>
2.5744

> <r_epik_Charging_Adjusted_Penalty>
3.65713

> <i_epik_Tot_Q>
1

> <i_epik_Tot_abs_Q>
1

> <r_epik_Metal_State_Penalty>
3.72133

> <b_epik_Metal_Only>
0

> <s_lp_Force_Field>
OPLS_2005

> <r_lp_Energy>
58.4837

> <b_lp_Chiralities_Consistent>
1

> <s_lp_Variant>
AV-unprocessed.smi:2226-16

> <Gold.Version>
5.8.1

> <Gold.Id.Protein>
6NUR|6NUR_protein|mol2

> <Gold.PLP.Fitness>
36.7511

> <Gold.PLP.PLP>
-31.4704

> <Gold.PLP.part.hbond>
-2.1284

> <Gold.PLP.part.metal>
0.0000

> <Gold.PLP.part.buried>
-3.1147

> <Gold.PLP.part.nonpolar>
-26.5546

> <Gold.PLP.part.repulsive>
0.3603

> <Gold.PLP.ligand.clash>
0.0000

> <Gold.PLP.ligand.torsion>
0.2070

> <Gold.PLP.Chemscore.Hbond>
1.8960

> <Gold.PLP.Chemscore.CHOScore>
0.0000

> <Gold.PLP.Chemscore.Metal>
0.0000

> <Gold.Chemscore.Hbonds>
donor molecule, donor type, donor heavy atom, donor atom, acceptor molecule, acceptor atom, score
      P1  H  6896  6908       L1    12  1.00
      P1  H  6931  6943       L1    13  0.90

> <Gold.PLP.Chemscore.Internal.Correction>
0.0066

> <Gold.Rescore>
     Score         DG    S(hbond)    S(metal)    S(lipo)     H(rot)  DE(clash)    DE(int)     intcor
     16.48     -16.76       1.88        0.00      64.57       1.00       0.03       0.26       ----

> <Gold.Chemscore.Fitness>
16.4773

> <Gold.Chemscore.DG>
-16.7640

> <Gold.Chemscore.ZeroCoef>
-5.4800

> <Gold.Chemscore.Hbond>
1.8830

> <Gold.Chemscore.Metal>
0.0000

> <Gold.Chemscore.Lipo>
64.5720

> <Gold.Chemscore.Internal_Hbond>
0.0000

> <Gold.Chemscore.DEClash>
0.0276

> <Gold.Chemscore.DEInternal>
0.2591

> <Gold.Chemscore.Rot>
1.0000

> <Gold.Chemscore.Internal.Correction>
   9.000000E+99

> <Gold.Chemscore.Hbonds>
donor molecule, donor type, donor heavy atom, donor atom, acceptor molecule, acceptor atom, score
      P1  H  6896  6908       L1    12  0.56
      P1  H  6931  6943       L1    13  0.77

> <Gold.Chemscore.Hbond.Weighted>
-6.2891

> <Gold.Chemscore.Metal.Weighted>
-0.0000

> <Gold.Chemscore.Lipo.Weighted>
-7.5549

> <Gold.Chemscore.Internal_Hbond.Weighted>
0.0000

> <Gold.Chemscore.DEClash.Weighted>
0.0276

> <Gold.Chemscore.DEInternal.Weighted>
0.2591

> <Gold.Chemscore.Rot.Weighted>
2.5600

> <Gold.Chemscore.Internal.Correction.Weighted>
   9.000000E+99

> <Gold.Protein.RotatedTorsions>
[ 6907 6896 6895 6894 ] final  170.55 input  -60.11 | X-H torsion
[ 7974 7965 7964 7962 ] final  167.06 input  175.53 | X-H torsion
[ 8008 7997 7996 7995 ] final  -67.99 input   59.86 | X-H torsion
[ 10167 10162 10161 10158 ] final  158.38 input  -65.29 | X-H torsion
[ 10718 10713 10712 10709 ] final   49.93 input   66.30 | X-H torsion
[ 10763 10752 10751 10750 ] final    1.97 input  -60.55 | X-H torsion
[ 11005 11000 10999 10996 ] final  -89.56 input  -57.11 | X-H torsion

> <Gold.Protein.ActiveResidues>
 VAL166  LYS551  ARG553  GLY616  TRP617  ASP618  TYR619  PRO620  LYS621  CYS622 
 ASP623  PHE694  ASN695  SER759  ASP760  ASP761  ALA762  ILE779  LEU786  VAL792 
 PHE793  MET794  SER795  GLU796  ALA797  LYS798  CYS799  TRP800  GLU811  SER814 

> <Gold.Protein.RotatedAtoms>
  151.8143  133.3386  159.3564 H   0  0  0  0  0  0  0  0  0  0  0  0  # atno 6907 bound_to 6896
  150.7315  134.5634  159.5863 H   0  0  0  0  0  0  0  0  0  0  0  0  # atno 6908 bound_to 6896
  152.3052  134.7565  160.0400 H   0  0  0  0  0  0  0  0  0  0  0  0  # atno 6909 bound_to 6896
  144.7438  139.8706  143.6388 H   0  0  0  0  0  0  0  0  0  0  0  0  # atno 7974 bound_to 7965
  154.4837  140.0882  156.7437 H   0  0  0  0  0  0  0  0  0  0  0  0  # atno 8008 bound_to 7997
  155.4405  140.3453  155.4271 H   0  0  0  0  0  0  0  0  0  0  0  0  # atno 8009 bound_to 7997
  156.1229  140.1479  156.9166 H   0  0  0  0  0  0  0  0  0  0  0  0  # atno 8010 bound_to 7997
  139.4826  144.4830  151.8417 H   0  0  0  0  0  0  0  0  0  0  0  0  # atno 10167 bound_to 10162
  157.4835  130.8330  149.8121 H   0  0  0  0  0  0  0  0  0  0  0  0  # atno 10718 bound_to 10713
  153.3014  135.6956  153.7199 H   0  0  0  0  0  0  0  0  0  0  0  0  # atno 10763 bound_to 10752
  153.6112  135.3444  155.2980 H   0  0  0  0  0  0  0  0  0  0  0  0  # atno 10764 bound_to 10752
  154.8551  135.4364  154.2126 H   0  0  0  0  0  0  0  0  0  0  0  0  # atno 10765 bound_to 10752
  141.1582  133.7637  156.9612 H   0  0  0  0  0  0  0  0  0  0  0  0  # atno 11005 bound_to 11000
  146.1283  139.4313  143.0185 LP  0  0  0  0  0  0  0  0  0  0  0  0  # atno 17320 bound_to 7965
  145.7202  141.0077  143.1407 LP  0  0  0  0  0  0  0  0  0  0  0  0  # atno 17321 bound_to 7965
  140.4307  144.2119  150.5888 LP  0  0  0  0  0  0  0  0  0  0  0  0  # atno 17342 bound_to 10162
  140.4782  143.2388  151.8993 LP  0  0  0  0  0  0  0  0  0  0  0  0  # atno 17343 bound_to 10162
  156.0134  130.3823  150.2188 LP  0  0  0  0  0  0  0  0  0  0  0  0  # atno 17370 bound_to 10713
  157.0375  131.0025  151.3293 LP  0  0  0  0  0  0  0  0  0  0  0  0  # atno 17371 bound_to 10713
  140.1192  134.9428  157.2178 LP  0  0  0  0  0  0  0  0  0  0  0  0  # atno 17394 bound_to 11000
  140.3094  134.3041  155.7270 LP  0  0  0  0  0  0  0  0  0  0  0  0  # atno 17395 bound_to 11000

$$$$
