AV-unprocessed.smi:1007|AV-procd|sdf|4409|dock4
  -GOLD-   22720 2353D 1   1.00000     0.00000
 Structure written by MMmdl.
 57 59  0  0  0  0  0  0  0  0  3 V2000
  140.3953  142.1580  154.7404 C   0  0  0  0  0  0  0  0  0  0  0  0
  141.5572  141.6626  155.3829 O   0  0  0  0  0  0  0  0  0  0  0  0
  142.5314  142.6702  155.5970 C   0  0  0  0  0  0  0  0  0  0  0  0
  143.7761  142.0280  156.2282 C   0  0  0  0  0  0  0  0  0  0  0  0
  144.8902  142.9995  156.3943 N   0  3  2  0  0  0  0  0  0  0  0  0
  145.3095  143.6863  155.1440 C   0  0  0  0  0  0  0  0  0  0  0  0
  146.1666  142.7787  154.2371 C   0  0  0  0  0  0  0  0  0  0  0  0
  147.3280  142.2131  154.9731 N   0  3  2  0  0  0  0  0  0  0  0  0
  148.2138  141.3726  154.1256 C   0  0  0  0  0  0  0  0  0  0  0  0
  149.3778  140.7514  154.9222 C   0  0  1  0  0  0  0  0  0  0  0  0
  150.1325  139.9274  154.0537 O   0  0  0  0  0  0  0  0  0  0  0  0
  150.2930  141.8291  155.5352 C   0  0  0  0  0  0  0  0  0  0  0  0
  151.1702  141.2954  156.5618 N   0  0  0  0  0  0  0  0  0  0  0  0
  151.8547  140.1363  156.5193 C   0  0  0  0  0  0  0  0  0  0  0  0
  152.6080  139.8346  157.5724 N   0  0  0  0  0  0  0  0  0  0  0  0
  152.3839  140.9236  158.3970 C   0  0  0  0  0  0  0  0  0  0  0  0
  152.8923  141.2217  159.6803 C   0  0  0  0  0  0  0  0  0  0  0  0
  152.5226  142.4109  160.3479 C   0  0  0  0  0  0  0  0  0  0  0  0
  153.0936  142.6919  161.7268 C   0  0  0  0  0  0  0  0  0  0  0  0
  151.6304  143.3243  159.7311 C   0  0  0  0  0  0  0  0  0  0  0  0
  151.2180  144.6074  160.4308 C   0  0  0  0  0  0  0  0  0  0  0  0
  151.1136  143.0424  158.4491 C   0  0  0  0  0  0  0  0  0  0  0  0
  151.4885  141.8555  157.7948 C   0  0  0  0  0  0  0  0  0  0  0  0
  146.8947  141.5108  156.2067 C   0  0  0  0  0  0  0  0  0  0  0  0
  146.0626  142.4393  157.1110 C   0  0  0  0  0  0  0  0  0  0  0  0
  139.6804  141.3473  154.5998 H   0  0  0  0  0  0  0  0  0  0  0  0
  140.6329  142.5700  153.7590 H   0  0  0  0  0  0  0  0  0  0  0  0
  139.9126  142.9321  155.3383 H   0  0  0  0  0  0  0  0  0  0  0  0
  142.8041  143.1206  154.6412 H   0  0  0  0  0  0  0  0  0  0  0  0
  142.1299  143.4676  156.2227 H   0  0  0  0  0  0  0  0  0  0  0  0
  143.4882  141.6287  157.2018 H   0  0  0  0  0  0  0  0  0  0  0  0
  144.1001  141.1724  155.6363 H   0  0  0  0  0  0  0  0  0  0  0  0
  144.4460  144.0629  154.5968 H   0  0  0  0  0  0  0  0  0  0  0  0
  145.8929  144.5649  155.4225 H   0  0  0  0  0  0  0  0  0  0  0  0
  145.5614  141.9671  153.8311 H   0  0  0  0  0  0  0  0  0  0  0  0
  146.5096  143.3620  153.3835 H   0  0  0  0  0  0  0  0  0  0  0  0
  147.6363  140.5646  153.6731 H   0  0  0  0  0  0  0  0  0  0  0  0
  148.5928  141.9725  153.2969 H   0  0  0  0  0  0  0  0  0  0  0  0
  148.9942  140.1280  155.7292 H   0  0  0  0  0  0  0  0  0  0  0  0
  149.6759  139.8550  153.2287 H   0  0  0  0  0  0  0  0  0  0  0  0
  150.9025  142.3013  154.7636 H   0  0  0  0  0  0  0  0  0  0  0  0
  149.6919  142.6219  155.9826 H   0  0  0  0  0  0  0  0  0  0  0  0
  151.7986  139.4770  155.6653 H   0  0  0  0  0  0  0  0  0  0  0  0
  153.5722  140.5257  160.1494 H   0  0  0  0  0  0  0  0  0  0  0  0
  152.2921  142.8000  162.4575 H   0  0  0  0  0  0  0  0  0  0  0  0
  153.6813  143.6101  161.7174 H   0  0  0  0  0  0  0  0  0  0  0  0
  153.7434  141.8826  162.0611 H   0  0  0  0  0  0  0  0  0  0  0  0
  150.5387  145.1967  159.8140 H   0  0  0  0  0  0  0  0  0  0  0  0
  152.0913  145.2228  160.6485 H   0  0  0  0  0  0  0  0  0  0  0  0
  150.7086  144.3842  161.3686 H   0  0  0  0  0  0  0  0  0  0  0  0
  150.4339  143.7304  157.9693 H   0  0  0  0  0  0  0  0  0  0  0  0
  146.3203  140.6221  155.9406 H   0  0  0  0  0  0  0  0  0  0  0  0
  147.7701  141.1670  156.7590 H   0  0  0  0  0  0  0  0  0  0  0  0
  146.6857  143.2685  157.4493 H   0  0  0  0  0  0  0  0  0  0  0  0
  145.7437  141.9151  158.0126 H   0  0  0  0  0  0  0  0  0  0  0  0
  147.8936  142.9931  155.2782 H   0  0  0  0  0  0  0  0  0  0  0  0
  144.5164  143.7144  157.0035 H   0  0  0  0  0  0  0  0  0  0  0  0
  1  2  1  0  0  0  0
  1 26  1  0  0  0  0
  1 27  1  0  0  0  0
  1 28  1  0  0  0  0
  2  3  1  0  0  0  0
  3  4  1  0  0  0  0
  3 29  1  0  0  0  0
  3 30  1  0  0  0  0
  4  5  1  0  0  0  0
  4 31  1  0  0  0  0
  4 32  1  0  0  0  0
  5 25  1  0  0  0  0
  5  6  1  0  0  0  0
  5 57  1  0  0  0  0
  6  7  1  0  0  0  0
  6 33  1  0  0  0  0
  6 34  1  0  0  0  0
  7  8  1  0  0  0  0
  7 35  1  0  0  0  0
  7 36  1  0  0  0  0
  8  9  1  0  0  0  0
  8 24  1  0  0  0  0
  8 56  1  0  0  0  0
  9 10  1  0  0  0  0
  9 37  1  0  0  0  0
  9 38  1  0  0  0  0
 10 11  1  0  0  0  0
 10 12  1  0  0  0  0
 10 39  1  0  0  0  0
 11 40  1  0  0  0  0
 12 13  1  0  0  0  0
 12 41  1  0  0  0  0
 12 42  1  0  0  0  0
 13 23  1  0  0  0  0
 13 14  1  0  0  0  0
 14 15  2  0  0  0  0
 14 43  1  0  0  0  0
 15 16  1  0  0  0  0
 16 23  2  0  0  0  0
 16 17  1  0  0  0  0
 17 18  2  0  0  0  0
 17 44  1  0  0  0  0
 18 19  1  0  0  0  0
 18 20  1  0  0  0  0
 19 45  1  0  0  0  0
 19 46  1  0  0  0  0
 19 47  1  0  0  0  0
 20 21  1  0  0  0  0
 20 22  2  0  0  0  0
 21 48  1  0  0  0  0
 21 49  1  0  0  0  0
 21 50  1  0  0  0  0
 22 23  1  0  0  0  0
 22 51  1  0  0  0  0
 24 25  1  0  0  0  0
 24 52  1  0  0  0  0
 24 53  1  0  0  0  0
 25 54  1  0  0  0  0
 25 55  1  0  0  0  0
M  CHG  1   5   1
M  CHG  1   8   1
M  END
> <s_m_source_file>
AV-unprocessed.smi

> <i_m_source_file_index>
1007

> <i_lp_mmshare_version>
43012

> <i_f3d_flags>
0

> <s_epik_input>
W0NIM11PW0NIMl1bQ0gyXU4xW0NIMl1bQ0gyXU4oW0NIMl1bQ0gyXTEpW0NIMl1bQ0BIXShbT0hdKVtDSDJdbihbY0hdbjIpYyhjMjMpW2NIXWMoW0NIM10pYyhbY0hdMylbQ0gzXQ==

> <s_epik_cmdline>
J2VwaWtfcHl0aG9uJywgJy1waCcsICc3LjAnLCAnLXRuJywgJzgnLCAnLW1hJywgJzIwMCcsICctbWV0YWxfYmluZGluZycsICctaW1hZScsICc8aW5maWxlLm1hZT4nLCAnLW9tYWUnLCAnPG91dGZpbGUubWFlPic=

> <r_epik_Ionization_Penalty>
3.88944

> <r_epik_Ionization_Penalty_Charging>
3.80608

> <r_epik_Ionization_Penalty_Neutral>
0.0833653

> <r_epik_State_Penalty>
2.70739

> <r_epik_Charging_Adjusted_Penalty>
6.51347

> <i_epik_Tot_Q>
2

> <i_epik_Tot_abs_Q>
2

> <r_epik_Metal_State_Penalty>
2.62239

> <b_epik_Metal_Only>
0

> <s_lp_Force_Field>
OPLS_2005

> <r_lp_Energy>
30.9183

> <b_lp_Chiralities_Consistent>
1

> <s_lp_Variant>
AV-unprocessed.smi:1007-12

> <Gold.Version>
5.8.1

> <Gold.Id.Protein>
6NUR|6NUR_protein|mol2

> <Gold.PLP.Fitness>
63.1982

> <Gold.PLP.PLP>
-48.8102

> <Gold.PLP.part.hbond>
-4.0000

> <Gold.PLP.part.metal>
0.0000

> <Gold.PLP.part.buried>
-7.4708

> <Gold.PLP.part.nonpolar>
-37.6117

> <Gold.PLP.part.repulsive>
0.2585

> <Gold.PLP.ligand.clash>
0.0000

> <Gold.PLP.ligand.torsion>
0.3874

> <Gold.PLP.Chemscore.Hbond>
4.9600

> <Gold.PLP.Chemscore.CHOScore>
0.0000

> <Gold.PLP.Chemscore.Metal>
0.0000

> <Gold.Chemscore.Hbonds>
donor molecule, donor type, donor heavy atom, donor atom, acceptor molecule, acceptor atom, score
      L1  H     8    56       P1  8028  2.00
      L1  H    11    40       P1  7957  0.89
      P1  H  7989  7998       L1    11  0.94
      P1  H  7997  8010       L1    15  0.90

> <Gold.PLP.Chemscore.Internal.Correction>
0.2829

> <Gold.Rescore>
     Score         DG    S(hbond)    S(metal)    S(lipo)     H(rot)  DE(clash)    DE(int)     intcor
     19.21     -20.78       2.53        0.00     116.26       2.63       0.10       1.47       ----

> <Gold.Chemscore.Fitness>
19.2139

> <Gold.Chemscore.DG>
-20.7816

> <Gold.Chemscore.ZeroCoef>
-5.4800

> <Gold.Chemscore.Hbond>
2.5281

> <Gold.Chemscore.Metal>
0.0000

> <Gold.Chemscore.Lipo>
116.2607

> <Gold.Chemscore.Internal_Hbond>
0.0000

> <Gold.Chemscore.DEClash>
0.1017

> <Gold.Chemscore.DEInternal>
1.4661

> <Gold.Chemscore.Rot>
2.6347

> <Gold.Chemscore.Internal.Correction>
   9.000000E+99

> <Gold.Chemscore.Hbonds>
donor molecule, donor type, donor heavy atom, donor atom, acceptor molecule, acceptor atom, score
      L1  H     8    56       P1  8028  0.75
      L1  H    11    40       P1  7957  0.82
      P1  H  7989  7998       L1    11  0.14
      P1  H  7997  8010       L1    15  0.10

> <Gold.Chemscore.Hbond.Weighted>
-8.4439

> <Gold.Chemscore.Metal.Weighted>
-0.0000

> <Gold.Chemscore.Lipo.Weighted>
-13.6025

> <Gold.Chemscore.Internal_Hbond.Weighted>
0.0000

> <Gold.Chemscore.DEClash.Weighted>
0.1017

> <Gold.Chemscore.DEInternal.Weighted>
1.4661

> <Gold.Chemscore.Rot.Weighted>
6.7448

> <Gold.Chemscore.Internal.Correction.Weighted>
   9.000000E+99

> <Gold.Protein.RotatedTorsions>
[ 6907 6896 6895 6894 ] final -156.87 input  -60.11 | X-H torsion
[ 7974 7965 7964 7962 ] final  148.00 input  175.53 | X-H torsion
[ 8008 7997 7996 7995 ] final   55.15 input   59.86 | X-H torsion
[ 10167 10162 10161 10158 ] final   33.84 input  -65.29 | X-H torsion
[ 10718 10713 10712 10709 ] final  162.23 input   66.30 | X-H torsion
[ 10763 10752 10751 10750 ] final   73.65 input  -60.55 | X-H torsion
[ 11005 11000 10999 10996 ] final -119.19 input  -57.11 | X-H torsion

> <Gold.Protein.ActiveResidues>
 VAL166  LYS551  ARG553  GLY616  TRP617  ASP618  TYR619  PRO620  LYS621  CYS622 
 ASP623  PHE694  ASN695  SER759  ASP760  ASP761  ALA762  ILE779  LEU786  VAL792 
 PHE793  MET794  SER795  GLU796  ALA797  LYS798  CYS799  TRP800  GLU811  SER814 

> <Gold.Protein.RotatedAtoms>
  151.2942  133.4151  159.2634 H   0  0  0  0  0  0  0  0  0  0  0  0  # atno 6907 bound_to 6896
  151.0251  134.9498  159.8091 H   0  0  0  0  0  0  0  0  0  0  0  0  # atno 6908 bound_to 6896
  152.5333  134.2904  159.9093 H   0  0  0  0  0  0  0  0  0  0  0  0  # atno 6909 bound_to 6896
  144.8548  139.6099  143.5957 H   0  0  0  0  0  0  0  0  0  0  0  0  # atno 7974 bound_to 7965
  155.4963  140.3473  155.4363 H   0  0  0  0  0  0  0  0  0  0  0  0  # atno 8008 bound_to 7997
  156.0943  140.1419  156.9579 H   0  0  0  0  0  0  0  0  0  0  0  0  # atno 8009 bound_to 7997
  154.4654  140.0919  156.6983 H   0  0  0  0  0  0  0  0  0  0  0  0  # atno 8010 bound_to 7997
  140.4370  144.1243  150.6168 H   0  0  0  0  0  0  0  0  0  0  0  0  # atno 10167 bound_to 10162
  157.1254  131.0503  151.2396 H   0  0  0  0  0  0  0  0  0  0  0  0  # atno 10718 bound_to 10713
  153.0535  135.5055  154.7925 H   0  0  0  0  0  0  0  0  0  0  0  0  # atno 10763 bound_to 10752
  154.6768  135.2962  154.9669 H   0  0  0  0  0  0  0  0  0  0  0  0  # atno 10764 bound_to 10752
  154.0469  135.6709  153.4848 H   0  0  0  0  0  0  0  0  0  0  0  0  # atno 10765 bound_to 10752
  141.0233  134.0092  157.3251 H   0  0  0  0  0  0  0  0  0  0  0  0  # atno 11005 bound_to 11000
  146.2814  139.6887  142.9226 LP  0  0  0  0  0  0  0  0  0  0  0  0  # atno 17320 bound_to 7965
  145.4428  141.0423  143.2848 LP  0  0  0  0  0  0  0  0  0  0  0  0  # atno 17321 bound_to 7965
  140.4362  143.2546  151.9532 LP  0  0  0  0  0  0  0  0  0  0  0  0  # atno 17342 bound_to 10162
  139.4787  144.5697  151.8107 LP  0  0  0  0  0  0  0  0  0  0  0  0  # atno 17343 bound_to 10162
  157.4439  130.7560  149.7093 LP  0  0  0  0  0  0  0  0  0  0  0  0  # atno 17370 bound_to 10713
  155.9819  130.4015  150.3445 LP  0  0  0  0  0  0  0  0  0  0  0  0  # atno 17371 bound_to 10713
  139.9159  135.0196  156.7881 LP  0  0  0  0  0  0  0  0  0  0  0  0  # atno 17394 bound_to 11000
  140.6536  133.9709  155.7768 LP  0  0  0  0  0  0  0  0  0  0  0  0  # atno 17395 bound_to 11000

$$$$
