AV-unprocessed.smi:2144|AV-procd|sdf|8732|dock6
  -GOLD-   2272011503D 1   1.00000     0.00000
 Structure written by MMmdl.
 41 43  0  0  0  0  0  0  0  0  2 V2000
  149.5922  140.9865  153.7156 O   0  0  0  0  0  0  0  0  0  0  0  0
  149.0039  140.8355  154.9880 C   0  0  0  0  0  0  0  0  0  0  0  0
  149.8869  141.3376  156.0821 C   0  0  0  0  0  0  0  0  0  0  0  0
  150.2022  142.6421  156.3185 N   0  3  0  0  0  0  0  0  0  0  0  0
  151.0598  142.7295  157.4158 C   0  0  0  0  0  0  0  0  0  0  0  0
  151.6452  143.8335  158.0279 C   0  0  0  0  0  0  0  0  0  0  0  0
  152.4751  143.5754  159.1387 C   0  0  0  0  0  0  0  0  0  0  0  0
  152.6961  142.2614  159.5999 C   0  0  0  0  0  0  0  0  0  0  0  0
  152.0985  141.1498  158.9700 C   0  0  0  0  0  0  0  0  0  0  0  0
  151.2797  141.4132  157.8718 C   0  0  0  0  0  0  0  0  0  0  0  0
  150.5370  140.5881  157.0181 N   0  0  0  0  0  0  0  0  0  0  0  0
  150.5531  139.1293  157.2116 C   0  0  0  0  0  0  0  0  0  0  0  0
  150.1049  138.7097  158.6259 C   0  0  2  0  0  0  0  0  0  0  0  0
  151.1550  138.0304  159.2843 O   0  0  0  0  0  0  0  0  0  0  0  0
  148.8690  137.7989  158.6039 C   0  0  0  0  0  0  0  0  0  0  0  0
  148.5154  137.4793  159.9428 O   0  0  0  0  0  0  0  0  0  0  0  0
  148.1619  136.1793  160.2352 C   0  0  0  0  0  0  0  0  0  0  0  0
  148.2943  135.0960  159.3293 C   0  0  0  0  0  0  0  0  0  0  0  0
  147.9081  133.7961  159.7101 C   0  0  0  0  0  0  0  0  0  0  0  0
  147.3872  133.5616  160.9958 C   0  0  0  0  0  0  0  0  0  0  0  0
  147.2526  134.6297  161.9017 C   0  0  0  0  0  0  0  0  0  0  0  0
  147.6380  135.9300  161.5220 C   0  0  0  0  0  0  0  0  0  0  0  0
  147.5023  136.9500  162.4030 F   0  0  0  0  0  0  0  0  0  0  0  0
  149.3257  140.2601  153.1726 H   0  0  0  0  0  0  0  0  0  0  0  0
  148.0570  141.3753  155.0095 H   0  0  0  0  0  0  0  0  0  0  0  0
  148.7764  139.7823  155.1533 H   0  0  0  0  0  0  0  0  0  0  0  0
  151.4773  144.8410  157.6765 H   0  0  0  0  0  0  0  0  0  0  0  0
  152.9510  144.4015  159.6472 H   0  0  0  0  0  0  0  0  0  0  0  0
  153.3368  142.1018  160.4550 H   0  0  0  0  0  0  0  0  0  0  0  0
  152.2731  140.1487  159.3356 H   0  0  0  0  0  0  0  0  0  0  0  0
  149.8825  138.7017  156.4654 H   0  0  0  0  0  0  0  0  0  0  0  0
  151.5452  138.7422  156.9783 H   0  0  0  0  0  0  0  0  0  0  0  0
  149.8752  139.5978  159.2157 H   0  0  0  0  0  0  0  0  0  0  0  0
  151.9694  138.2634  158.8659 H   0  0  0  0  0  0  0  0  0  0  0  0
  148.0435  138.2963  158.0914 H   0  0  0  0  0  0  0  0  0  0  0  0
  149.1009  136.8800  158.0621 H   0  0  0  0  0  0  0  0  0  0  0  0
  148.6908  135.2353  158.3352 H   0  0  0  0  0  0  0  0  0  0  0  0
  148.0128  132.9777  159.0130 H   0  0  0  0  0  0  0  0  0  0  0  0
  147.0916  132.5643  161.2867 H   0  0  0  0  0  0  0  0  0  0  0  0
  146.8531  134.4525  162.8893 H   0  0  0  0  0  0  0  0  0  0  0  0
  149.8575  143.4144  155.7630 H   0  0  0  0  0  0  0  0  0  0  0  0
  1  2  1  0  0  0  0
  1 24  1  0  0  0  0
  2  3  1  0  0  0  0
  2 25  1  0  0  0  0
  2 26  1  0  0  0  0
  3 11  1  0  0  0  0
  3  4  2  0  0  0  0
  4  5  1  0  0  0  0
  4 41  1  0  0  0  0
  5 10  2  0  0  0  0
  5  6  1  0  0  0  0
  6  7  2  0  0  0  0
  6 27  1  0  0  0  0
  7  8  1  0  0  0  0
  7 28  1  0  0  0  0
  8  9  2  0  0  0  0
  8 29  1  0  0  0  0
  9 10  1  0  0  0  0
  9 30  1  0  0  0  0
 10 11  1  0  0  0  0
 11 12  1  0  0  0  0
 12 13  1  0  0  0  0
 12 31  1  0  0  0  0
 12 32  1  0  0  0  0
 13 14  1  0  0  0  0
 13 15  1  0  0  0  0
 13 33  1  0  0  0  0
 14 34  1  0  0  0  0
 15 16  1  0  0  0  0
 15 35  1  0  0  0  0
 15 36  1  0  0  0  0
 16 17  1  0  0  0  0
 17 22  1  0  0  0  0
 17 18  2  0  0  0  0
 18 19  1  0  0  0  0
 18 37  1  0  0  0  0
 19 20  2  0  0  0  0
 19 38  1  0  0  0  0
 20 21  1  0  0  0  0
 20 39  1  0  0  0  0
 21 22  2  0  0  0  0
 21 40  1  0  0  0  0
 22 23  1  0  0  0  0
M  CHG  1   4   1
M  END
> <s_m_source_file>
AV-unprocessed.smi

> <i_m_source_file_index>
2144

> <i_lp_mmshare_version>
43012

> <i_f3d_flags>
0

> <s_epik_input>
W2NIXTFbY0hdW2NIXVtjSF1jKGMxMiluKGMobjIpW0NIMl1bT0hdKVtDSDJdW0NASF0oW09IXSlbQ0gyXU9jM1tjSF1bY0hdW2NIXVtjSF1jM0Y=

> <s_epik_cmdline>
J2VwaWtfcHl0aG9uJywgJy1waCcsICc3LjAnLCAnLXRuJywgJzgnLCAnLW1hJywgJzIwMCcsICctbWV0YWxfYmluZGluZycsICctaW1hZScsICc8aW5maWxlLm1hZT4nLCAnLW9tYWUnLCAnPG91dGZpbGUubWFlPic=

> <r_lp_tautomer_probability>
1

> <r_epik_Ionization_Penalty>
1.44003

> <r_epik_Ionization_Penalty_Charging>
1.43917

> <r_epik_Ionization_Penalty_Neutral>
0.000858184

> <r_epik_State_Penalty>
1.52442

> <r_epik_Charging_Adjusted_Penalty>
2.96359

> <i_epik_Tot_Q>
1

> <i_epik_Tot_abs_Q>
1

> <r_epik_Metal_State_Penalty>
5.57019

> <b_epik_Metal_Only>
0

> <s_lp_Force_Field>
OPLS_2005

> <r_lp_Energy>
18.2987

> <b_lp_Chiralities_Consistent>
1

> <s_lp_Variant>
AV-unprocessed.smi:2144-3

> <Gold.Version>
5.8.1

> <Gold.Id.Protein>
6NUR|6NUR_protein|mol2

> <Gold.PLP.Fitness>
59.3042

> <Gold.PLP.PLP>
-48.6747

> <Gold.PLP.part.hbond>
-6.0000

> <Gold.PLP.part.metal>
0.0000

> <Gold.PLP.part.buried>
-3.7490

> <Gold.PLP.part.nonpolar>
-38.9185

> <Gold.PLP.part.repulsive>
0.0953

> <Gold.PLP.ligand.clash>
0.0000

> <Gold.PLP.ligand.torsion>
1.2263

> <Gold.PLP.Chemscore.Hbond>
4.3374

> <Gold.PLP.Chemscore.CHOScore>
0.0000

> <Gold.PLP.Chemscore.Metal>
0.0000

> <Gold.Chemscore.Hbonds>
donor molecule, donor type, donor heavy atom, donor atom, acceptor molecule, acceptor atom, score
      L1  H     1    24       P1  7957  0.53
      L1  H     4    41       P1  8028  1.95
      P1  H  6931  6943       L1    16  0.30
      P1  H  6934  6947       L1    16  0.20
      P1  H  7989  7998       L1     1  0.35
      P1  H  8011  8017       L1     1  0.99

> <Gold.PLP.Chemscore.Internal.Correction>
0.0701

> <Gold.Rescore>
     Score         DG    S(hbond)    S(metal)    S(lipo)     H(rot)  DE(clash)    DE(int)     intcor
     15.96     -18.16       2.29        0.00     115.36       3.31       0.93       1.27       ----

> <Gold.Chemscore.Fitness>
15.9597

> <Gold.Chemscore.DG>
-18.1595

> <Gold.Chemscore.ZeroCoef>
-5.4800

> <Gold.Chemscore.Hbond>
2.2947

> <Gold.Chemscore.Metal>
0.0000

> <Gold.Chemscore.Lipo>
115.3630

> <Gold.Chemscore.Internal_Hbond>
0.0000

> <Gold.Chemscore.DEClash>
0.9324

> <Gold.Chemscore.DEInternal>
1.2673

> <Gold.Chemscore.Rot>
3.3134

> <Gold.Chemscore.Internal.Correction>
   9.000000E+99

> <Gold.Chemscore.Hbonds>
donor molecule, donor type, donor heavy atom, donor atom, acceptor molecule, acceptor atom, score
      L1  H     1    24       P1  7957  0.49
      L1  H     4    41       P1  8028  0.93
      P1  H  6931  6943       L1    16  0.11
      P1  H  6934  6947       L1    16  0.16
      P1  H  7989  7998       L1     1  0.08
      P1  H  8011  8017       L1     1  0.23

> <Gold.Chemscore.Hbond.Weighted>
-7.6643

> <Gold.Chemscore.Metal.Weighted>
-0.0000

> <Gold.Chemscore.Lipo.Weighted>
-13.4975

> <Gold.Chemscore.Internal_Hbond.Weighted>
0.0000

> <Gold.Chemscore.DEClash.Weighted>
0.9324

> <Gold.Chemscore.DEInternal.Weighted>
1.2673

> <Gold.Chemscore.Rot.Weighted>
8.4823

> <Gold.Chemscore.Internal.Correction.Weighted>
   9.000000E+99

> <Gold.Protein.RotatedTorsions>
[ 6907 6896 6895 6894 ] final   59.44 input  -60.11 | X-H torsion
[ 7974 7965 7964 7962 ] final  -70.68 input  175.53 | X-H torsion
[ 8008 7997 7996 7995 ] final  -87.00 input   59.86 | X-H torsion
[ 10167 10162 10161 10158 ] final -118.37 input  -65.29 | X-H torsion
[ 10718 10713 10712 10709 ] final -118.37 input   66.30 | X-H torsion
[ 10763 10752 10751 10750 ] final -127.72 input  -60.55 | X-H torsion
[ 11005 11000 10999 10996 ] final -111.84 input  -57.11 | X-H torsion

> <Gold.Protein.ActiveResidues>
 VAL166  LYS551  ARG553  GLY616  TRP617  ASP618  TYR619  PRO620  LYS621  CYS622 
 ASP623  PHE694  ASN695  SER759  ASP760  ASP761  ALA762  ILE779  LEU786  VAL792 
 PHE793  MET794  SER795  GLU796  ALA797  LYS798  CYS799  TRP800  GLU811  SER814 

> <Gold.Protein.RotatedAtoms>
  152.3914  134.6434  160.0105 H   0  0  0  0  0  0  0  0  0  0  0  0  # atno 6907 bound_to 6896
  151.6667  133.3309  159.3195 H   0  0  0  0  0  0  0  0  0  0  0  0  # atno 6908 bound_to 6896
  150.7830  134.6834  159.6501 H   0  0  0  0  0  0  0  0  0  0  0  0  # atno 6909 bound_to 6896
  145.6878  140.9164  143.0797 H   0  0  0  0  0  0  0  0  0  0  0  0  # atno 7974 bound_to 7965
  154.6583  140.0571  157.0033 H   0  0  0  0  0  0  0  0  0  0  0  0  # atno 8008 bound_to 7997
  155.1267  140.3252  155.4465 H   0  0  0  0  0  0  0  0  0  0  0  0  # atno 8009 bound_to 7997
  156.2607  140.1988  156.6388 H   0  0  0  0  0  0  0  0  0  0  0  0  # atno 8010 bound_to 7997
  140.0582  143.4993  152.2046 H   0  0  0  0  0  0  0  0  0  0  0  0  # atno 10167 bound_to 10162
  156.1101  130.6242  150.9282 H   0  0  0  0  0  0  0  0  0  0  0  0  # atno 10718 bound_to 10713
  154.8753  135.3952  154.3639 H   0  0  0  0  0  0  0  0  0  0  0  0  # atno 10763 bound_to 10752
  153.4408  135.7027  153.6176 H   0  0  0  0  0  0  0  0  0  0  0  0  # atno 10764 bound_to 10752
  153.4757  135.3780  155.2384 H   0  0  0  0  0  0  0  0  0  0  0  0  # atno 10765 bound_to 10752
  141.0710  133.9379  157.2484 H   0  0  0  0  0  0  0  0  0  0  0  0  # atno 11005 bound_to 11000
  144.7006  139.8782  143.7445 LP  0  0  0  0  0  0  0  0  0  0  0  0  # atno 17320 bound_to 7965
  146.0908  139.3898  143.0407 LP  0  0  0  0  0  0  0  0  0  0  0  0  # atno 17321 bound_to 7965
  139.5910  144.7550  151.3401 LP  0  0  0  0  0  0  0  0  0  0  0  0  # atno 17342 bound_to 10162
  140.7184  143.7202  150.7701 LP  0  0  0  0  0  0  0  0  0  0  0  0  # atno 17343 bound_to 10162
  157.6282  131.0923  150.8493 LP  0  0  0  0  0  0  0  0  0  0  0  0  # atno 17370 bound_to 10713
  156.8606  130.5111  149.5304 LP  0  0  0  0  0  0  0  0  0  0  0  0  # atno 17371 bound_to 10713
  139.9524  135.0173  156.9031 LP  0  0  0  0  0  0  0  0  0  0  0  0  # atno 17394 bound_to 11000
  140.5673  134.0477  155.7418 LP  0  0  0  0  0  0  0  0  0  0  0  0  # atno 17395 bound_to 11000

$$$$
