AV-unprocessed.smi:2500|AV-procd|sdf|9841|dock2
  -GOLD-   2272013463D 1   1.00000     0.00000
 Structure written by MMmdl.
 38 39  0  0  0  0  0  0  0  0  1 V2000
  150.4301  135.0495  154.6621 C   0  0  0  0  0  0  0  0  0  0  0  0
  149.9556  136.4138  154.4907 N   0  0  0  0  0  0  0  0  0  0  0  0
  150.1660  137.4086  155.3683 C   0  0  0  0  0  0  0  0  0  0  0  0
  150.7914  137.2548  156.4184 O   0  0  0  0  0  0  0  0  0  0  0  0
  149.5681  138.7446  155.0091 C   0  0  0  0  0  0  0  0  0  0  0  0
  148.5476  138.8246  154.0355 C   0  0  0  0  0  0  0  0  0  0  0  0
  148.0089  140.0854  153.7227 C   0  0  0  0  0  0  0  0  0  0  0  0
  148.5031  141.2213  154.3898 C   0  0  0  0  0  0  0  0  0  0  0  0
  149.5223  141.0673  155.3539 C   0  0  0  0  0  0  0  0  0  0  0  0
  149.9564  142.2693  155.9715 N   0  0  0  0  0  0  0  0  0  0  0  0
  150.7157  142.4153  157.0760 C   0  0  0  0  0  0  0  0  0  0  0  0
  151.1592  141.4857  157.7486 O   0  0  0  0  0  0  0  0  0  0  0  0
  150.9727  143.6952  157.4056 N   0  0  0  0  0  0  0  0  0  0  0  0
  151.7556  144.2110  158.5311 C   0  0  2  0  0  0  0  0  0  0  0  0
  152.9252  143.2862  158.8454 C   0  0  0  0  0  0  0  0  0  0  0  0
  153.2750  142.9210  160.0906 C   0  0  0  0  0  0  0  0  0  0  0  0
  152.5523  143.3970  161.3371 C   0  0  0  0  0  0  0  0  0  0  0  0
  151.6317  144.5963  161.0510 C   0  0  0  0  0  0  0  0  0  0  0  0
  150.8322  144.4011  159.7537 C   0  0  0  0  0  0  0  0  0  0  0  0
  150.0326  139.8466  155.6468 N   0  0  0  0  0  0  0  0  0  0  0  0
  150.1100  134.4360  153.8199 H   0  0  0  0  0  0  0  0  0  0  0  0
  150.0276  134.6107  155.5760 H   0  0  0  0  0  0  0  0  0  0  0  0
  151.5194  135.0205  154.7119 H   0  0  0  0  0  0  0  0  0  0  0  0
  149.4304  136.6238  153.6535 H   0  0  0  0  0  0  0  0  0  0  0  0
  148.1795  137.9421  153.5320 H   0  0  0  0  0  0  0  0  0  0  0  0
  147.2286  140.1805  152.9822 H   0  0  0  0  0  0  0  0  0  0  0  0
  148.1013  142.1977  154.1608 H   0  0  0  0  0  0  0  0  0  0  0  0
  149.6621  143.1215  155.5180 H   0  0  0  0  0  0  0  0  0  0  0  0
  150.5850  144.3967  156.7916 H   0  0  0  0  0  0  0  0  0  0  0  0
  152.1749  145.1849  158.2736 H   0  0  0  0  0  0  0  0  0  0  0  0
  153.4942  142.9117  158.0067 H   0  0  0  0  0  0  0  0  0  0  0  0
  154.1042  142.2445  160.2372 H   0  0  0  0  0  0  0  0  0  0  0  0
  151.9731  142.5618  161.7320 H   0  0  0  0  0  0  0  0  0  0  0  0
  153.2847  143.6650  162.0989 H   0  0  0  0  0  0  0  0  0  0  0  0
  150.9566  144.7552  161.8923 H   0  0  0  0  0  0  0  0  0  0  0  0
  152.2332  145.5021  160.9643 H   0  0  0  0  0  0  0  0  0  0  0  0
  150.1679  145.2505  159.5901 H   0  0  0  0  0  0  0  0  0  0  0  0
  150.1890  143.5273  159.8720 H   0  0  0  0  0  0  0  0  0  0  0  0
  1  2  1  0  0  0  0
  1 21  1  0  0  0  0
  1 22  1  0  0  0  0
  1 23  1  0  0  0  0
  2  3  1  0  0  0  0
  2 24  1  0  0  0  0
  3  4  2  0  0  0  0
  3  5  1  0  0  0  0
  5 20  1  0  0  0  0
  5  6  2  0  0  0  0
  6  7  1  0  0  0  0
  6 25  1  0  0  0  0
  7  8  2  0  0  0  0
  7 26  1  0  0  0  0
  8  9  1  0  0  0  0
  8 27  1  0  0  0  0
  9 10  1  0  0  0  0
  9 20  2  0  0  0  0
 10 11  1  0  0  0  0
 10 28  1  0  0  0  0
 11 12  2  0  0  0  0
 11 13  1  0  0  0  0
 13 14  1  0  0  0  0
 13 29  1  0  0  0  0
 14 19  1  0  0  0  0
 14 15  1  0  0  0  0
 14 30  1  0  0  0  0
 15 16  2  0  0  0  0
 15 31  1  0  0  0  0
 16 17  1  0  0  0  0
 16 32  1  0  0  0  0
 17 18  1  0  0  0  0
 17 33  1  0  0  0  0
 17 34  1  0  0  0  0
 18 19  1  0  0  0  0
 18 35  1  0  0  0  0
 18 36  1  0  0  0  0
 19 37  1  0  0  0  0
 19 38  1  0  0  0  0
M  END
> <s_m_source_file>
AV-unprocessed.smi

> <i_m_source_file_index>
2500

> <i_lp_mmshare_version>
43012

> <i_f3d_flags>
0

> <s_epik_input>
W0NIM11bTkhdQyg9TyljMVtjSF1bY0hdW2NIXWMobjEpW05IXUMoPU8pW05IXVtDQEBIXTJbQ0hdPVtDSF1bQ0gyXVtDSDJdW0NIMl0y

> <s_epik_cmdline>
J2VwaWtfcHl0aG9uJywgJy1waCcsICc3LjAnLCAnLXRuJywgJzgnLCAnLW1hJywgJzIwMCcsICctbWV0YWxfYmluZGluZycsICctaW1hZScsICc8aW5maWxlLm1hZT4nLCAnLW9tYWUnLCAnPG91dGZpbGUubWFlPic=

> <r_lp_tautomer_probability>
1

> <r_epik_Ionization_Penalty>
3.75371e-05

> <r_epik_Ionization_Penalty_Charging>
0

> <r_epik_Ionization_Penalty_Neutral>
3.75371e-05

> <r_epik_State_Penalty>
-0

> <r_epik_Charging_Adjusted_Penalty>
0

> <i_epik_Tot_Q>
0

> <i_epik_Tot_abs_Q>
0

> <r_epik_Metal_State_Penalty>
-0

> <b_epik_Metal_Only>
0

> <s_lp_Force_Field>
OPLS_2005

> <r_lp_Energy>
22.6872

> <b_lp_Chiralities_Consistent>
1

> <s_lp_Variant>
AV-unprocessed.smi:2500-1

> <Gold.Version>
5.8.1

> <Gold.Id.Protein>
6NUR|6NUR_protein|mol2

> <Gold.PLP.Fitness>
47.3895

> <Gold.PLP.PLP>
-40.1466

> <Gold.PLP.part.hbond>
-3.1236

> <Gold.PLP.part.metal>
0.0000

> <Gold.PLP.part.buried>
-4.2823

> <Gold.PLP.part.nonpolar>
-34.8448

> <Gold.PLP.part.repulsive>
0.2234

> <Gold.PLP.ligand.clash>
0.0000

> <Gold.PLP.ligand.torsion>
0.5479

> <Gold.PLP.Chemscore.Hbond>
2.7769

> <Gold.PLP.Chemscore.CHOScore>
0.0000

> <Gold.PLP.Chemscore.Metal>
0.0000

> <Gold.Chemscore.Hbonds>
donor molecule, donor type, donor heavy atom, donor atom, acceptor molecule, acceptor atom, score
      L1  H     2    24       P1  7948  0.99
      L1  H    10    28       P1  8028  0.98
      L1  H    13    29       P1  8028  0.81

> <Gold.PLP.Chemscore.Internal.Correction>
0.0082

> <Gold.Rescore>
     Score         DG    S(hbond)    S(metal)    S(lipo)     H(rot)  DE(clash)    DE(int)     intcor
     20.36     -23.61       2.71        0.00      99.36       1.00       0.01       3.23       ----

> <Gold.Chemscore.Fitness>
20.3627

> <Gold.Chemscore.DG>
-23.6056

> <Gold.Chemscore.ZeroCoef>
-5.4800

> <Gold.Chemscore.Hbond>
2.7126

> <Gold.Chemscore.Metal>
0.0000

> <Gold.Chemscore.Lipo>
99.3634

> <Gold.Chemscore.Internal_Hbond>
0.0000

> <Gold.Chemscore.DEClash>
0.0145

> <Gold.Chemscore.DEInternal>
3.2284

> <Gold.Chemscore.Rot>
1.0000

> <Gold.Chemscore.Internal.Correction>
   9.000000E+99

> <Gold.Chemscore.Hbonds>
donor molecule, donor type, donor heavy atom, donor atom, acceptor molecule, acceptor atom, score
      L1  H     2    24       P1  7948  0.80
      L1  H    10    28       P1  8028  0.93
      L1  H    13    29       P1  8028  0.73

> <Gold.Chemscore.Hbond.Weighted>
-9.0601

> <Gold.Chemscore.Metal.Weighted>
-0.0000

> <Gold.Chemscore.Lipo.Weighted>
-11.6255

> <Gold.Chemscore.Internal_Hbond.Weighted>
0.0000

> <Gold.Chemscore.DEClash.Weighted>
0.0145

> <Gold.Chemscore.DEInternal.Weighted>
3.2284

> <Gold.Chemscore.Rot.Weighted>
2.5600

> <Gold.Chemscore.Internal.Correction.Weighted>
   9.000000E+99

> <Gold.Protein.RotatedTorsions>
[ 6907 6896 6895 6894 ] final  139.87 input  -60.11 | X-H torsion
[ 7974 7965 7964 7962 ] final -136.03 input  175.53 | X-H torsion
[ 8008 7997 7996 7995 ] final  121.81 input   59.86 | X-H torsion
[ 10167 10162 10161 10158 ] final   33.09 input  -65.29 | X-H torsion
[ 10718 10713 10712 10709 ] final  -26.95 input   66.30 | X-H torsion
[ 10763 10752 10751 10750 ] final   61.69 input  -60.55 | X-H torsion
[ 11005 11000 10999 10996 ] final  -32.12 input  -57.11 | X-H torsion

> <Gold.Protein.ActiveResidues>
 VAL166  LYS551  ARG553  GLY616  TRP617  ASP618  TYR619  PRO620  LYS621  CYS622 
 ASP623  PHE694  ASN695  SER759  ASP760  ASP761  ALA762  ILE779  LEU786  VAL792 
 PHE793  MET794  SER795  GLU796  ALA797  LYS798  CYS799  TRP800  GLU811  SER814 

> <Gold.Protein.RotatedAtoms>
  152.2498  133.5205  159.5318 H   0  0  0  0  0  0  0  0  0  0  0  0  # atno 6907 bound_to 6896
  150.7090  134.0976  159.3963 H   0  0  0  0  0  0  0  0  0  0  0  0  # atno 6908 bound_to 6896
  151.8895  135.0422  160.0547 H   0  0  0  0  0  0  0  0  0  0  0  0  # atno 6909 bound_to 6896
  144.8962  140.6709  143.5114 H   0  0  0  0  0  0  0  0  0  0  0  0  # atno 7974 bound_to 7965
  156.2702  140.2800  156.1368 H   0  0  0  0  0  0  0  0  0  0  0  0  # atno 8008 bound_to 7997
  155.0996  140.0389  157.2710 H   0  0  0  0  0  0  0  0  0  0  0  0  # atno 8009 bound_to 7997
  154.6825  140.2612  155.6899 H   0  0  0  0  0  0  0  0  0  0  0  0  # atno 8010 bound_to 7997
  140.4439  144.1148  150.6179 H   0  0  0  0  0  0  0  0  0  0  0  0  # atno 10167 bound_to 10162
  156.4445  130.4471  149.7031 H   0  0  0  0  0  0  0  0  0  0  0  0  # atno 10718 bound_to 10713
  152.9958  135.5491  154.6075 H   0  0  0  0  0  0  0  0  0  0  0  0  # atno 10763 bound_to 10752
  154.5403  135.2819  155.1104 H   0  0  0  0  0  0  0  0  0  0  0  0  # atno 10764 bound_to 10752
  154.2384  135.6421  153.5251 H   0  0  0  0  0  0  0  0  0  0  0  0  # atno 10765 bound_to 10752
  140.9526  133.7212  156.1243 H   0  0  0  0  0  0  0  0  0  0  0  0  # atno 11005 bound_to 11000
  145.3696  139.1662  143.4339 LP  0  0  0  0  0  0  0  0  0  0  0  0  # atno 17320 bound_to 7965
  146.3082  140.3767  142.8679 LP  0  0  0  0  0  0  0  0  0  0  0  0  # atno 17321 bound_to 7965
  140.4287  143.2578  151.9623 LP  0  0  0  0  0  0  0  0  0  0  0  0  # atno 17342 bound_to 10162
  139.4791  144.5764  151.8004 LP  0  0  0  0  0  0  0  0  0  0  0  0  # atno 17343 bound_to 10162
  156.3882  130.7614  151.2612 LP  0  0  0  0  0  0  0  0  0  0  0  0  # atno 17370 bound_to 10713
  157.7505  131.0275  150.4010 LP  0  0  0  0  0  0  0  0  0  0  0  0  # atno 17371 bound_to 10713
  140.7581  134.3969  157.5530 LP  0  0  0  0  0  0  0  0  0  0  0  0  # atno 17394 bound_to 11000
  139.8852  134.8944  156.2657 LP  0  0  0  0  0  0  0  0  0  0  0  0  # atno 17395 bound_to 11000

$$$$
