AV-unprocessed.smi:3234|AV-procd|sdf|12349|dock6
  -GOLD-   2272018213D 1   1.00000     0.00000
 Structure written by MMmdl.
 37 39  0  0  0  0  0  0  0  0  2 V2000
  144.2599  136.1743  151.9453 O   0  0  0  0  0  0  0  0  0  0  0  0
  145.4862  136.0825  151.9084 C   0  0  0  0  0  0  0  0  0  0  0  0
  146.1837  135.0581  151.3863 N   0  0  0  0  0  0  0  0  0  0  0  0
  145.7156  133.8561  150.7859 C   0  0  0  0  0  0  0  0  0  0  0  0
  144.3330  133.7605  150.5242 C   0  0  0  0  0  0  0  0  0  0  0  0
  143.8325  132.5897  149.9208 C   0  0  0  0  0  0  0  0  0  0  0  0
  144.6114  131.5448  149.5718 N   0  0  0  0  0  0  0  0  0  0  0  0
  145.9355  131.6395  149.8150 C   0  0  0  0  0  0  0  0  0  0  0  0
  146.5380  132.7648  150.4129 C   0  0  0  0  0  0  0  0  0  0  0  0
  146.3054  137.0288  152.3894 N   0  0  0  0  0  0  0  0  0  0  0  0
  145.8679  138.2598  153.0401 C   0  0  1  0  0  0  0  0  0  0  0  0
  146.1306  138.2791  154.5459 C   0  0  0  0  0  0  0  0  0  0  0  0
  146.3172  139.7677  154.8872 C   0  0  0  0  0  0  0  0  0  0  0  0
  146.3732  140.5007  153.6006 N   0  3  1  0  0  0  0  0  0  0  0  0
  147.3164  141.6386  153.5864 C   0  0  0  0  0  0  0  0  0  0  0  0
  148.6330  141.3396  154.2626 C   0  0  0  0  0  0  0  0  0  0  0  0
  147.6020  142.2019  154.9580 C   0  0  0  0  0  0  0  0  0  0  0  0
  146.6258  139.4955  152.5541 C   0  0  0  0  0  0  0  0  0  0  0  0
  147.1877  135.1610  151.3993 H   0  0  0  0  0  0  0  0  0  0  0  0
  143.6615  134.5669  150.7808 H   0  0  0  0  0  0  0  0  0  0  0  0
  142.7775  132.4914  149.7119 H   0  0  0  0  0  0  0  0  0  0  0  0
  146.5366  130.7921  149.5201 H   0  0  0  0  0  0  0  0  0  0  0  0
  147.6061  132.7622  150.5593 H   0  0  0  0  0  0  0  0  0  0  0  0
  147.3012  136.8783  152.3170 H   0  0  0  0  0  0  0  0  0  0  0  0
  144.7988  138.4023  152.8686 H   0  0  0  0  0  0  0  0  0  0  0  0
  145.3207  137.8188  155.1129 H   0  0  0  0  0  0  0  0  0  0  0  0
  147.0480  137.7365  154.7801 H   0  0  0  0  0  0  0  0  0  0  0  0
  145.4886  140.1498  155.4838 H   0  0  0  0  0  0  0  0  0  0  0  0
  147.2330  139.9085  155.4635 H   0  0  0  0  0  0  0  0  0  0  0  0
  147.2786  142.2913  152.7160 H   0  0  0  0  0  0  0  0  0  0  0  0
  148.7964  140.3367  154.6531 H   0  0  0  0  0  0  0  0  0  0  0  0
  149.5202  141.8379  153.8767 H   0  0  0  0  0  0  0  0  0  0  0  0
  147.8106  143.2675  155.0301 H   0  0  0  0  0  0  0  0  0  0  0  0
  147.0798  141.7719  155.8110 H   0  0  0  0  0  0  0  0  0  0  0  0
  147.6958  139.2881  152.4897 H   0  0  0  0  0  0  0  0  0  0  0  0
  146.2859  139.8440  151.5782 H   0  0  0  0  0  0  0  0  0  0  0  0
  145.4455  140.8637  153.4332 H   0  0  0  0  0  0  0  0  0  0  0  0
  1  2  2  0  0  0  0
  2  3  1  0  0  0  0
  2 10  1  0  0  0  0
  3  4  1  0  0  0  0
  3 19  1  0  0  0  0
  4  9  1  0  0  0  0
  4  5  2  0  0  0  0
  5  6  1  0  0  0  0
  5 20  1  0  0  0  0
  6  7  2  0  0  0  0
  6 21  1  0  0  0  0
  7  8  1  0  0  0  0
  8  9  2  0  0  0  0
  8 22  1  0  0  0  0
  9 23  1  0  0  0  0
 10 11  1  0  0  0  0
 10 24  1  0  0  0  0
 11 18  1  0  0  0  0
 11 12  1  0  0  0  0
 11 25  1  0  0  0  0
 12 13  1  0  0  0  0
 12 26  1  0  0  0  0
 12 27  1  0  0  0  0
 13 14  1  0  0  0  0
 13 28  1  0  0  0  0
 13 29  1  0  0  0  0
 14 15  1  0  0  0  0
 14 18  1  0  0  0  0
 14 37  1  0  0  0  0
 15 17  1  0  0  0  0
 15 16  1  0  0  0  0
 15 30  1  0  0  0  0
 16 17  1  0  0  0  0
 16 31  1  0  0  0  0
 16 32  1  0  0  0  0
 17 33  1  0  0  0  0
 17 34  1  0  0  0  0
 18 35  1  0  0  0  0
 18 36  1  0  0  0  0
M  CHG  1  14   1
M  END
> <s_m_source_file>
AV-unprocessed.smi

> <i_m_source_file_index>
3234

> <i_lp_mmshare_version>
43012

> <i_f3d_flags>
0

> <s_epik_input>
W2NIXTFbY0hdbltjSF1bY0hdYzFbTkhdQyg9TylbTkhdW0NAQEhdMltDSDJdW0NIMl1OKFtDSDJdMilbQ0hdM1tDSDJdW0NIMl0z

> <s_epik_cmdline>
J2VwaWtfcHl0aG9uJywgJy1waCcsICc3LjAnLCAnLXRuJywgJzgnLCAnLW1hJywgJzIwMCcsICctbWV0YWxfYmluZGluZycsICctaW1hZScsICc8aW5maWxlLm1hZT4nLCAnLW9tYWUnLCAnPG91dGZpbGUubWFlPic=

> <r_epik_Ionization_Penalty>
0.0934328

> <r_epik_Ionization_Penalty_Charging>
0.000606352

> <r_epik_Ionization_Penalty_Neutral>
0.0928265

> <r_epik_State_Penalty>
0.0830811

> <r_epik_Charging_Adjusted_Penalty>
0.0836875

> <i_epik_Tot_Q>
1

> <i_epik_Tot_abs_Q>
1

> <r_epik_Metal_State_Penalty>
0.0724491

> <b_epik_Metal_Only>
0

> <s_lp_Force_Field>
OPLS_2005

> <r_lp_Energy>
41.3186

> <b_lp_Chiralities_Consistent>
1

> <s_lp_Variant>
AV-unprocessed.smi:3234-2

> <Gold.Version>
5.8.1

> <Gold.Id.Protein>
6NUR|6NUR_protein|mol2

> <Gold.PLP.Fitness>
45.4311

> <Gold.PLP.PLP>
-29.0229

> <Gold.PLP.part.hbond>
-4.0000

> <Gold.PLP.part.metal>
0.0000

> <Gold.PLP.part.buried>
2.3159

> <Gold.PLP.part.nonpolar>
-28.6185

> <Gold.PLP.part.repulsive>
1.3814

> <Gold.PLP.ligand.clash>
0.0000

> <Gold.PLP.ligand.torsion>
0.8076

> <Gold.PLP.Chemscore.Hbond>
3.9106

> <Gold.PLP.Chemscore.CHOScore>
1.6762

> <Gold.PLP.Chemscore.Metal>
0.0000

> <Gold.Chemscore.Hbonds>
donor molecule, donor type, donor heavy atom, donor atom, acceptor molecule, acceptor atom, score
      L1  H     3    19       P1  7948  0.91
      L1  H    10    24       P1  7948  1.00
      L1  H    14    37       P1 10175  1.74
      P1  H 10785 10796       L1     7  0.29
      L1  C     6    21       P1 10186  0.74
      L1  C     6    21       P1 10952  0.08
      L1  C     8    22       P1 10747  0.73

> <Gold.PLP.Chemscore.Internal.Correction>
1.2632

> <Gold.Rescore>
     Score         DG    S(hbond)    S(metal)    S(lipo)     H(rot)  DE(clash)    DE(int)     intcor
     16.91     -20.24       2.52        0.00      80.55       1.21       1.05       2.28       ----

> <Gold.Chemscore.Fitness>
16.9087

> <Gold.Chemscore.DG>
-20.2365

> <Gold.Chemscore.ZeroCoef>
-5.4800

> <Gold.Chemscore.Hbond>
2.5245

> <Gold.Chemscore.Metal>
0.0000

> <Gold.Chemscore.Lipo>
80.5491

> <Gold.Chemscore.Internal_Hbond>
0.0000

> <Gold.Chemscore.DEClash>
1.0525

> <Gold.Chemscore.DEInternal>
2.2752

> <Gold.Chemscore.Rot>
1.2108

> <Gold.Chemscore.Internal.Correction>
   9.000000E+99

> <Gold.Chemscore.Hbonds>
donor molecule, donor type, donor heavy atom, donor atom, acceptor molecule, acceptor atom, score
      L1  H     3    19       P1  7948  0.71
      L1  H    10    24       P1  7948  1.00
      L1  H    14    37       P1 10175  0.59
      P1  H 10785 10796       L1     7  0.13

> <Gold.Chemscore.Hbond.Weighted>
-8.4318

> <Gold.Chemscore.Metal.Weighted>
-0.0000

> <Gold.Chemscore.Lipo.Weighted>
-9.4242

> <Gold.Chemscore.Internal_Hbond.Weighted>
0.0000

> <Gold.Chemscore.DEClash.Weighted>
1.0525

> <Gold.Chemscore.DEInternal.Weighted>
2.2752

> <Gold.Chemscore.Rot.Weighted>
3.0996

> <Gold.Chemscore.Internal.Correction.Weighted>
   9.000000E+99

> <Gold.Protein.RotatedTorsions>
[ 6907 6896 6895 6894 ] final -128.39 input  -60.11 | X-H torsion
[ 7974 7965 7964 7962 ] final  -82.06 input  175.53 | X-H torsion
[ 8008 7997 7996 7995 ] final -123.66 input   59.86 | X-H torsion
[ 10167 10162 10161 10158 ] final  -76.18 input  -65.29 | X-H torsion
[ 10718 10713 10712 10709 ] final   34.08 input   66.30 | X-H torsion
[ 10763 10752 10751 10750 ] final   82.92 input  -60.55 | X-H torsion
[ 11005 11000 10999 10996 ] final   -6.85 input  -57.11 | X-H torsion

> <Gold.Protein.ActiveResidues>
 VAL166  LYS551  ARG553  GLY616  TRP617  ASP618  TYR619  PRO620  LYS621  CYS622 
 ASP623  PHE694  ASN695  SER759  ASP760  ASP761  ALA762  ILE779  LEU786  VAL792 
 PHE793  MET794  SER795  GLU796  ALA797  LYS798  CYS799  TRP800  GLU811  SER814 

> <Gold.Protein.RotatedAtoms>
  150.9174  133.6922  159.2839 H   0  0  0  0  0  0  0  0  0  0  0  0  # atno 6907 bound_to 6896
  151.4388  135.1016  159.9674 H   0  0  0  0  0  0  0  0  0  0  0  0  # atno 6908 bound_to 6896
  152.4962  133.8587  159.7294 H   0  0  0  0  0  0  0  0  0  0  0  0  # atno 6909 bound_to 6896
  145.5384  140.9513  143.1564 H   0  0  0  0  0  0  0  0  0  0  0  0  # atno 7974 bound_to 7965
  155.1842  140.0411  157.2888 H   0  0  0  0  0  0  0  0  0  0  0  0  # atno 8008 bound_to 7997
  154.6183  140.2494  155.7554 H   0  0  0  0  0  0  0  0  0  0  0  0  # atno 8009 bound_to 7997
  156.2419  140.2900  156.0478 H   0  0  0  0  0  0  0  0  0  0  0  0  # atno 8010 bound_to 7997
  140.4879  143.2387  151.7954 H   0  0  0  0  0  0  0  0  0  0  0  0  # atno 10167 bound_to 10162
  157.3059  130.7374  149.6695 H   0  0  0  0  0  0  0  0  0  0  0  0  # atno 10718 bound_to 10713
  153.1245  135.4710  154.9249 H   0  0  0  0  0  0  0  0  0  0  0  0  # atno 10763 bound_to 10752
  154.7607  135.3130  154.8386 H   0  0  0  0  0  0  0  0  0  0  0  0  # atno 10764 bound_to 10752
  153.8943  135.6881  153.4812 H   0  0  0  0  0  0  0  0  0  0  0  0  # atno 10765 bound_to 10752
  140.7065  133.8945  155.8720 H   0  0  0  0  0  0  0  0  0  0  0  0  # atno 11005 bound_to 11000
  144.7589  139.7004  143.7242 LP  0  0  0  0  0  0  0  0  0  0  0  0  # atno 17320 bound_to 7965
  146.1997  139.5285  142.9751 LP  0  0  0  0  0  0  0  0  0  0  0  0  # atno 17321 bound_to 7965
  139.4845  144.4687  151.9451 LP  0  0  0  0  0  0  0  0  0  0  0  0  # atno 17342 bound_to 10162
  140.3774  144.2779  150.5912 LP  0  0  0  0  0  0  0  0  0  0  0  0  # atno 17343 bound_to 10162
  155.9674  130.4266  150.4706 LP  0  0  0  0  0  0  0  0  0  0  0  0  # atno 17370 bound_to 10713
  157.2695  131.0584  151.2269 LP  0  0  0  0  0  0  0  0  0  0  0  0  # atno 17371 bound_to 10713
  141.0120  134.1007  157.4211 LP  0  0  0  0  0  0  0  0  0  0  0  0  # atno 17394 bound_to 11000
  139.8883  135.0096  156.6611 LP  0  0  0  0  0  0  0  0  0  0  0  0  # atno 17395 bound_to 11000

$$$$
