AV-unprocessed.smi:3092|AV-procd|sdf|11782|dock1
  -GOLD-   2272017163D 1   1.00000     0.00000
 Structure written by MMmdl.
 25 26  0  0  0  0  0  0  0  0  2 V2000
  151.6720  145.7481  160.1590 C   0  0  0  0  0  0  0  0  0  0  0  0
  151.9477  144.3994  160.6162 N   0  0  0  0  0  0  0  0  0  0  0  0
  152.5802  144.0635  161.8062 C   0  0  0  0  0  0  0  0  0  0  0  0
  152.6365  142.6919  161.8507 C   0  0  0  0  0  0  0  0  0  0  0  0
  152.0487  142.1709  160.7035 N   0  0  0  0  0  0  0  0  0  0  0  0
  151.6577  143.2330  160.0038 C   0  0  0  0  0  0  0  0  0  0  0  0
  150.9591  143.1387  158.6765 C   0  0  2  0  0  0  0  0  0  0  0  0
  150.8711  141.7379  158.0760 C   0  0  0  0  0  0  0  0  0  0  0  0
  150.6000  142.0054  156.5879 C   0  0  0  0  0  0  0  0  0  0  0  0
  151.0279  143.3959  156.3178 N   0  3  0  0  0  0  0  0  0  0  0  0
  151.6148  143.9410  157.5545 C   0  0  0  0  0  0  0  0  0  0  0  0
  151.9991  146.4731  160.9049 H   0  0  0  0  0  0  0  0  0  0  0  0
  150.6008  145.8722  159.9966 H   0  0  0  0  0  0  0  0  0  0  0  0
  152.2043  145.9378  159.2264 H   0  0  0  0  0  0  0  0  0  0  0  0
  152.9282  144.8085  162.5068 H   0  0  0  0  0  0  0  0  0  0  0  0
  153.0502  142.0467  162.6119 H   0  0  0  0  0  0  0  0  0  0  0  0
  149.9396  143.5094  158.7840 H   0  0  0  0  0  0  0  0  0  0  0  0
  151.8286  141.2245  158.1776 H   0  0  0  0  0  0  0  0  0  0  0  0
  150.1088  141.1179  158.5489 H   0  0  0  0  0  0  0  0  0  0  0  0
  151.1351  141.3016  155.9494 H   0  0  0  0  0  0  0  0  0  0  0  0
  149.5359  141.9191  156.3659 H   0  0  0  0  0  0  0  0  0  0  0  0
  151.6959  143.4313  155.5609 H   0  0  0  0  0  0  0  0  0  0  0  0
  151.4535  145.0153  157.6474 H   0  0  0  0  0  0  0  0  0  0  0  0
  152.6905  143.7598  157.5278 H   0  0  0  0  0  0  0  0  0  0  0  0
  150.2110  143.9389  156.0766 H   0  0  0  0  0  0  0  0  0  0  0  0
  1  2  1  0  0  0  0
  1 12  1  0  0  0  0
  1 13  1  0  0  0  0
  1 14  1  0  0  0  0
  2  6  1  0  0  0  0
  2  3  1  0  0  0  0
  3  4  2  0  0  0  0
  3 15  1  0  0  0  0
  4  5  1  0  0  0  0
  4 16  1  0  0  0  0
  5  6  2  0  0  0  0
  6  7  1  0  0  0  0
  7 11  1  0  0  0  0
  7  8  1  0  0  0  0
  7 17  1  0  0  0  0
  8  9  1  0  0  0  0
  8 18  1  0  0  0  0
  8 19  1  0  0  0  0
  9 10  1  0  0  0  0
  9 20  1  0  0  0  0
  9 21  1  0  0  0  0
 10 11  1  0  0  0  0
 10 22  1  0  0  0  0
 10 25  1  0  0  0  0
 11 23  1  0  0  0  0
 11 24  1  0  0  0  0
M  CHG  1  10   1
M  END
> <s_m_source_file>
AV-unprocessed.smi

> <i_m_source_file_index>
3092

> <i_lp_mmshare_version>
43012

> <i_f3d_flags>
0

> <s_epik_input>
W0NIM11uMVtjSF1bY0hdbmMxW0NAQEhdMltDSDJdW0NIMl1bTkhdW0NIMl0y

> <s_epik_cmdline>
J2VwaWtfcHl0aG9uJywgJy1waCcsICc3LjAnLCAnLXRuJywgJzgnLCAnLW1hJywgJzIwMCcsICctbWV0YWxfYmluZGluZycsICctaW1hZScsICc8aW5maWxlLm1hZT4nLCAnLW9tYWUnLCAnPG91dGZpbGUubWFlPic=

> <r_lp_tautomer_probability>
1

> <r_epik_Ionization_Penalty>
0.177139

> <r_epik_Ionization_Penalty_Charging>
0.177139

> <r_epik_Ionization_Penalty_Neutral>
7.43304e-14

> <r_epik_State_Penalty>
0.16632

> <r_epik_Charging_Adjusted_Penalty>
0.343459

> <i_epik_Tot_Q>
1

> <i_epik_Tot_abs_Q>
1

> <r_epik_Metal_State_Penalty>
0.000191838

> <b_epik_Metal_Only>
0

> <s_lp_Force_Field>
OPLS_2005

> <r_lp_Energy>
23.658

> <b_lp_Chiralities_Consistent>
1

> <s_lp_Variant>
AV-unprocessed.smi:3092-1

> <Gold.Version>
5.8.1

> <Gold.Id.Protein>
6NUR|6NUR_protein|mol2

> <Gold.PLP.Fitness>
36.1917

> <Gold.PLP.PLP>
-30.3662

> <Gold.PLP.part.hbond>
-1.7769

> <Gold.PLP.part.metal>
0.0000

> <Gold.PLP.part.buried>
-3.7142

> <Gold.PLP.part.nonpolar>
-25.9633

> <Gold.PLP.part.repulsive>
0.1312

> <Gold.PLP.ligand.clash>
0.0000

> <Gold.PLP.ligand.torsion>
0.0879

> <Gold.PLP.Chemscore.Hbond>
2.0000

> <Gold.PLP.Chemscore.CHOScore>
0.0000

> <Gold.PLP.Chemscore.Metal>
0.0000

> <Gold.Chemscore.Hbonds>
donor molecule, donor type, donor heavy atom, donor atom, acceptor molecule, acceptor atom, score
      L1  H    10    25       P1  8028  2.00

> <Gold.PLP.Chemscore.Internal.Correction>
0.0012

> <Gold.Rescore>
     Score         DG    S(hbond)    S(metal)    S(lipo)     H(rot)  DE(clash)    DE(int)     intcor
     14.58     -14.67       1.00        0.00      71.92       1.00       0.05       0.05       ----

> <Gold.Chemscore.Fitness>
14.5791

> <Gold.Chemscore.DG>
-14.6728

> <Gold.Chemscore.ZeroCoef>
-5.4800

> <Gold.Chemscore.Hbond>
0.9995

> <Gold.Chemscore.Metal>
0.0000

> <Gold.Chemscore.Lipo>
71.9175

> <Gold.Chemscore.Internal_Hbond>
0.0000

> <Gold.Chemscore.DEClash>
0.0476

> <Gold.Chemscore.DEInternal>
0.0460

> <Gold.Chemscore.Rot>
1.0000

> <Gold.Chemscore.Internal.Correction>
   9.000000E+99

> <Gold.Chemscore.Hbonds>
donor molecule, donor type, donor heavy atom, donor atom, acceptor molecule, acceptor atom, score
      L1  H    10    25       P1  8028  0.97

> <Gold.Chemscore.Hbond.Weighted>
-3.3384

> <Gold.Chemscore.Metal.Weighted>
-0.0000

> <Gold.Chemscore.Lipo.Weighted>
-8.4143

> <Gold.Chemscore.Internal_Hbond.Weighted>
0.0000

> <Gold.Chemscore.DEClash.Weighted>
0.0476

> <Gold.Chemscore.DEInternal.Weighted>
0.0460

> <Gold.Chemscore.Rot.Weighted>
2.5600

> <Gold.Chemscore.Internal.Correction.Weighted>
   9.000000E+99

> <Gold.Protein.RotatedTorsions>
[ 6907 6896 6895 6894 ] final  114.41 input  -60.11 | X-H torsion
[ 7974 7965 7964 7962 ] final    3.64 input  175.53 | X-H torsion
[ 8008 7997 7996 7995 ] final  123.42 input   59.86 | X-H torsion
[ 10167 10162 10161 10158 ] final  140.07 input  -65.29 | X-H torsion
[ 10718 10713 10712 10709 ] final  -68.73 input   66.30 | X-H torsion
[ 10763 10752 10751 10750 ] final   -4.84 input  -60.55 | X-H torsion
[ 11005 11000 10999 10996 ] final  107.52 input  -57.11 | X-H torsion

> <Gold.Protein.ActiveResidues>
 VAL166  LYS551  ARG553  GLY616  TRP617  ASP618  TYR619  PRO620  LYS621  CYS622 
 ASP623  PHE694  ASN695  SER759  ASP760  ASP761  ALA762  ILE779  LEU786  VAL792 
 PHE793  MET794  SER795  GLU796  ALA797  LYS798  CYS799  TRP800  GLU811  SER814 

> <Gold.Protein.RotatedAtoms>
  152.4804  133.8240  159.7068 H   0  0  0  0  0  0  0  0  0  0  0  0  # atno 6907 bound_to 6896
  150.8850  133.7311  159.2927 H   0  0  0  0  0  0  0  0  0  0  0  0  # atno 6908 bound_to 6896
  151.4803  135.1055  159.9828 H   0  0  0  0  0  0  0  0  0  0  0  0  # atno 6909 bound_to 6896
  146.2445  140.0654  142.8366 H   0  0  0  0  0  0  0  0  0  0  0  0  # atno 7974 bound_to 7965
  156.2765  140.2763  156.1625 H   0  0  0  0  0  0  0  0  0  0  0  0  # atno 8008 bound_to 7997
  155.0739  140.0387  157.2635 H   0  0  0  0  0  0  0  0  0  0  0  0  # atno 8009 bound_to 7997
  154.7018  140.2650  155.6718 H   0  0  0  0  0  0  0  0  0  0  0  0  # atno 8010 bound_to 7997
  139.5059  144.6256  151.5945 H   0  0  0  0  0  0  0  0  0  0  0  0  # atno 10167 bound_to 10162
  156.0490  130.4300  150.2044 H   0  0  0  0  0  0  0  0  0  0  0  0  # atno 10718 bound_to 10713
  153.3903  135.7001  153.6500 H   0  0  0  0  0  0  0  0  0  0  0  0  # atno 10763 bound_to 10752
  153.5075  135.3639  155.2571 H   0  0  0  0  0  0  0  0  0  0  0  0  # atno 10764 bound_to 10752
  154.8701  135.4127  154.3219 H   0  0  0  0  0  0  0  0  0  0  0  0  # atno 10765 bound_to 10752
  139.8829  134.9403  156.5831 H   0  0  0  0  0  0  0  0  0  0  0  0  # atno 11005 bound_to 11000
  145.0863  140.9254  143.4796 LP  0  0  0  0  0  0  0  0  0  0  0  0  # atno 17320 bound_to 7965
  145.0818  139.2954  143.5780 LP  0  0  0  0  0  0  0  0  0  0  0  0  # atno 17321 bound_to 7965
  140.5972  143.9675  150.6362 LP  0  0  0  0  0  0  0  0  0  0  0  0  # atno 17342 bound_to 10162
  140.2874  143.3347  152.1094 LP  0  0  0  0  0  0  0  0  0  0  0  0  # atno 17343 bound_to 10162
  157.0129  130.9956  151.3361 LP  0  0  0  0  0  0  0  0  0  0  0  0  # atno 17370 bound_to 10713
  157.5397  130.8112  149.8014 LP  0  0  0  0  0  0  0  0  0  0  0  0  # atno 17371 bound_to 10713
  140.8012  133.8504  155.8728 LP  0  0  0  0  0  0  0  0  0  0  0  0  # atno 17394 bound_to 11000
  140.9591  134.1679  157.4668 LP  0  0  0  0  0  0  0  0  0  0  0  0  # atno 17395 bound_to 11000

$$$$
