AV-unprocessed.smi:3205|AV-procd|sdf|12254|dock7
  -GOLD-   2272018 93D 1   1.00000     0.00000
 Structure written by MMmdl.
 38 39  0  0  0  0  0  0  0  0  2 V2000
  150.1012  142.0559  158.2816 C   0  0  0  0  0  0  0  0  0  0  0  0
  151.1214  142.2818  157.1474 C   0  0  2  0  0  0  0  0  0  0  0  0
  151.2631  143.7334  156.8842 N   0  3  0  0  0  0  0  0  0  0  0  0
  152.2207  144.4482  157.7539 C   0  0  0  0  0  0  0  0  0  0  0  0
  151.7073  144.5030  159.2003 C   0  0  0  0  0  0  0  0  0  0  0  0
  152.3999  143.5611  160.0588 N   0  0  0  0  0  0  0  0  0  0  0  0
  152.3328  143.4412  161.4311 C   0  0  0  0  0  0  0  0  0  0  0  0
  153.1688  142.4233  161.7908 C   0  0  0  0  0  0  0  0  0  0  0  0
  153.7137  141.9795  160.5536 C   0  0  0  0  0  0  0  0  0  0  0  0
  153.2541  142.6652  159.5191 N   0  0  0  0  0  0  0  0  0  0  0  0
  150.7336  141.5484  155.8354 C   0  0  0  0  0  0  0  0  0  0  0  0
  149.2170  141.5787  155.5493 C   0  0  0  0  0  0  0  0  0  0  0  0
  148.8658  140.7620  154.2945 C   0  0  0  0  0  0  0  0  0  0  0  0
  149.3205  139.4230  154.4402 O   0  0  0  0  0  0  0  0  0  0  0  0
  150.7329  139.3367  154.5748 C   0  0  0  0  0  0  0  0  0  0  0  0
  151.1812  140.0703  155.8487 C   0  0  0  0  0  0  0  0  0  0  0  0
  150.0533  141.0087  158.5789 H   0  0  0  0  0  0  0  0  0  0  0  0
  149.0993  142.3646  157.9811 H   0  0  0  0  0  0  0  0  0  0  0  0
  150.3624  142.6135  159.1803 H   0  0  0  0  0  0  0  0  0  0  0  0
  152.0899  141.8977  157.4720 H   0  0  0  0  0  0  0  0  0  0  0  0
  151.5963  143.8347  155.9360 H   0  0  0  0  0  0  0  0  0  0  0  0
  153.1911  143.9524  157.7272 H   0  0  0  0  0  0  0  0  0  0  0  0
  152.3638  145.4598  157.3713 H   0  0  0  0  0  0  0  0  0  0  0  0
  151.8345  145.5042  159.6144 H   0  0  0  0  0  0  0  0  0  0  0  0
  150.6399  144.2796  159.2320 H   0  0  0  0  0  0  0  0  0  0  0  0
  151.7037  144.0820  162.0314 H   0  0  0  0  0  0  0  0  0  0  0  0
  153.3636  142.0531  162.7864 H   0  0  0  0  0  0  0  0  0  0  0  0
  154.4254  141.1865  160.3784 H   0  0  0  0  0  0  0  0  0  0  0  0
  151.2374  142.0460  155.0049 H   0  0  0  0  0  0  0  0  0  0  0  0
  148.6698  141.1801  156.4047 H   0  0  0  0  0  0  0  0  0  0  0  0
  148.8686  142.6004  155.4021 H   0  0  0  0  0  0  0  0  0  0  0  0
  147.7858  140.7512  154.1457 H   0  0  0  0  0  0  0  0  0  0  0  0
  149.3039  141.2121  153.4021 H   0  0  0  0  0  0  0  0  0  0  0  0
  151.0166  138.2856  154.6290 H   0  0  0  0  0  0  0  0  0  0  0  0
  151.2212  139.7530  153.6924 H   0  0  0  0  0  0  0  0  0  0  0  0
  152.2650  139.9924  155.9363 H   0  0  0  0  0  0  0  0  0  0  0  0
  150.7623  139.5645  156.7198 H   0  0  0  0  0  0  0  0  0  0  0  0
  150.3548  144.1703  156.9511 H   0  0  0  0  0  0  0  0  0  0  0  0
  1  2  1  0  0  0  0
  1 17  1  0  0  0  0
  1 18  1  0  0  0  0
  1 19  1  0  0  0  0
  2  3  1  0  0  0  0
  2 11  1  0  0  0  0
  2 20  1  0  0  0  0
  3  4  1  0  0  0  0
  3 21  1  0  0  0  0
  3 38  1  0  0  0  0
  4  5  1  0  0  0  0
  4 22  1  0  0  0  0
  4 23  1  0  0  0  0
  5  6  1  0  0  0  0
  5 24  1  0  0  0  0
  5 25  1  0  0  0  0
  6 10  1  0  0  0  0
  6  7  1  0  0  0  0
  7  8  2  0  0  0  0
  7 26  1  0  0  0  0
  8  9  1  0  0  0  0
  8 27  1  0  0  0  0
  9 10  2  0  0  0  0
  9 28  1  0  0  0  0
 11 16  1  0  0  0  0
 11 12  1  0  0  0  0
 11 29  1  0  0  0  0
 12 13  1  0  0  0  0
 12 30  1  0  0  0  0
 12 31  1  0  0  0  0
 13 14  1  0  0  0  0
 13 32  1  0  0  0  0
 13 33  1  0  0  0  0
 14 15  1  0  0  0  0
 15 16  1  0  0  0  0
 15 34  1  0  0  0  0
 15 35  1  0  0  0  0
 16 36  1  0  0  0  0
 16 37  1  0  0  0  0
M  CHG  1   3   1
M  END
> <s_m_source_file>
AV-unprocessed.smi

> <i_m_source_file_index>
3205

> <i_lp_mmshare_version>
43012

> <i_f3d_flags>
0

> <s_epik_input>
W0NIMl0xW0NIMl1PW0NIMl1bQ0gyXVtDSF0xW0NASF0oW0NIM10pW05IXVtDSDJdW0NIMl1uMltjSF1bY0hdW2NIXW4y

> <s_epik_cmdline>
J2VwaWtfcHl0aG9uJywgJy1waCcsICc3LjAnLCAnLXRuJywgJzgnLCAnLW1hJywgJzIwMCcsICctbWV0YWxfYmluZGluZycsICctaW1hZScsICc8aW5maWxlLm1hZT4nLCAnLW9tYWUnLCAnPG91dGZpbGUubWFlPic=

> <r_lp_tautomer_probability>
1

> <r_epik_Ionization_Penalty>
0.00310903

> <r_epik_Ionization_Penalty_Charging>
0.00310601

> <r_epik_Ionization_Penalty_Neutral>
3.02836e-06

> <r_epik_State_Penalty>
-0

> <r_epik_Charging_Adjusted_Penalty>
0.00310601

> <i_epik_Tot_Q>
1

> <i_epik_Tot_abs_Q>
1

> <r_epik_Metal_State_Penalty>
-0

> <b_epik_Metal_Only>
0

> <s_lp_Force_Field>
OPLS_2005

> <r_lp_Energy>
15.8656

> <b_lp_Chiralities_Consistent>
1

> <s_lp_Variant>
AV-unprocessed.smi:3205-1

> <Gold.Version>
5.8.1

> <Gold.Id.Protein>
6NUR|6NUR_protein|mol2

> <Gold.PLP.Fitness>
47.7620

> <Gold.PLP.PLP>
-45.3495

> <Gold.PLP.part.hbond>
-1.0000

> <Gold.PLP.part.metal>
0.0000

> <Gold.PLP.part.buried>
-4.7750

> <Gold.PLP.part.nonpolar>
-38.8855

> <Gold.PLP.part.repulsive>
0.1457

> <Gold.PLP.ligand.clash>
0.0000

> <Gold.PLP.ligand.torsion>
1.2187

> <Gold.PLP.Chemscore.Hbond>
1.6000

> <Gold.PLP.Chemscore.CHOScore>
0.0000

> <Gold.PLP.Chemscore.Metal>
0.0000

> <Gold.Chemscore.Hbonds>
donor molecule, donor type, donor heavy atom, donor atom, acceptor molecule, acceptor atom, score
      L1  H     3    38       P1  8028  1.47

> <Gold.PLP.Chemscore.Internal.Correction>
0.0498

> <Gold.Rescore>
     Score         DG    S(hbond)    S(metal)    S(lipo)     H(rot)  DE(clash)    DE(int)     intcor
     16.30     -17.51       0.90        0.00     113.42       1.66       0.10       1.11       ----

> <Gold.Chemscore.Fitness>
16.2965

> <Gold.Chemscore.DG>
-17.5115

> <Gold.Chemscore.ZeroCoef>
-5.4800

> <Gold.Chemscore.Hbond>
0.9012

> <Gold.Chemscore.Metal>
0.0000

> <Gold.Chemscore.Lipo>
113.4175

> <Gold.Chemscore.Internal_Hbond>
0.0000

> <Gold.Chemscore.DEClash>
0.1035

> <Gold.Chemscore.DEInternal>
1.1115

> <Gold.Chemscore.Rot>
1.6594

> <Gold.Chemscore.Internal.Correction>
   9.000000E+99

> <Gold.Chemscore.Hbonds>
donor molecule, donor type, donor heavy atom, donor atom, acceptor molecule, acceptor atom, score
      L1  H     3    38       P1  8028  0.67

> <Gold.Chemscore.Hbond.Weighted>
-3.0098

> <Gold.Chemscore.Metal.Weighted>
-0.0000

> <Gold.Chemscore.Lipo.Weighted>
-13.2699

> <Gold.Chemscore.Internal_Hbond.Weighted>
0.0000

> <Gold.Chemscore.DEClash.Weighted>
0.1035

> <Gold.Chemscore.DEInternal.Weighted>
1.1115

> <Gold.Chemscore.Rot.Weighted>
4.2482

> <Gold.Chemscore.Internal.Correction.Weighted>
   9.000000E+99

> <Gold.Protein.RotatedTorsions>
[ 6907 6896 6895 6894 ] final  128.11 input  -60.11 | X-H torsion
[ 7974 7965 7964 7962 ] final  104.17 input  175.53 | X-H torsion
[ 8008 7997 7996 7995 ] final  -71.25 input   59.86 | X-H torsion
[ 10167 10162 10161 10158 ] final  142.40 input  -65.29 | X-H torsion
[ 10718 10713 10712 10709 ] final -124.03 input   66.30 | X-H torsion
[ 10763 10752 10751 10750 ] final  139.29 input  -60.55 | X-H torsion
[ 11005 11000 10999 10996 ] final  114.74 input  -57.11 | X-H torsion

> <Gold.Protein.ActiveResidues>
 VAL166  LYS551  ARG553  GLY616  TRP617  ASP618  TYR619  PRO620  LYS621  CYS622 
 ASP623  PHE694  ASN695  SER759  ASP760  ASP761  ALA762  ILE779  LEU786  VAL792 
 PHE793  MET794  SER795  GLU796  ALA797  LYS798  CYS799  TRP800  GLU811  SER814 

> <Gold.Protein.RotatedAtoms>
  152.3750  133.6469  159.6116 H   0  0  0  0  0  0  0  0  0  0  0  0  # atno 6907 bound_to 6896
  150.7697  133.9208  159.3406 H   0  0  0  0  0  0  0  0  0  0  0  0  # atno 6908 bound_to 6896
  151.7023  135.0929  160.0304 H   0  0  0  0  0  0  0  0  0  0  0  0  # atno 6909 bound_to 6896
  145.3363  139.2474  143.3634 H   0  0  0  0  0  0  0  0  0  0  0  0  # atno 7974 bound_to 7965
  154.5073  140.0819  156.7920 H   0  0  0  0  0  0  0  0  0  0  0  0  # atno 8008 bound_to 7997
  155.3864  140.3430  155.4231 H   0  0  0  0  0  0  0  0  0  0  0  0  # atno 8009 bound_to 7997
  156.1531  140.1565  156.8724 H   0  0  0  0  0  0  0  0  0  0  0  0  # atno 8010 bound_to 7997
  139.4995  144.6109  151.6273 H   0  0  0  0  0  0  0  0  0  0  0  0  # atno 10167 bound_to 10162
  156.1552  130.6563  150.9972 H   0  0  0  0  0  0  0  0  0  0  0  0  # atno 10718 bound_to 10713
  153.9036  135.3019  155.3448 H   0  0  0  0  0  0  0  0  0  0  0  0  # atno 10763 bound_to 10752
  154.7658  135.4911  153.9554 H   0  0  0  0  0  0  0  0  0  0  0  0  # atno 10764 bound_to 10752
  153.1231  135.6787  153.9403 H   0  0  0  0  0  0  0  0  0  0  0  0  # atno 10765 bound_to 10752
  139.8989  134.9573  156.6938 H   0  0  0  0  0  0  0  0  0  0  0  0  # atno 11005 bound_to 11000
  146.3025  140.3951  142.8699 LP  0  0  0  0  0  0  0  0  0  0  0  0  # atno 17320 bound_to 7965
  144.8825  140.7419  143.5977 LP  0  0  0  0  0  0  0  0  0  0  0  0  # atno 17321 bound_to 7965
  140.5784  143.9989  150.6254 LP  0  0  0  0  0  0  0  0  0  0  0  0  # atno 17342 bound_to 10162
  140.3130  143.3186  152.0860 LP  0  0  0  0  0  0  0  0  0  0  0  0  # atno 17343 bound_to 10162
  157.6689  131.0865  150.7660 LP  0  0  0  0  0  0  0  0  0  0  0  0  # atno 17370 bound_to 10713
  156.7725  130.4833  149.5415 LP  0  0  0  0  0  0  0  0  0  0  0  0  # atno 17371 bound_to 10713
  140.7204  133.9145  155.8143 LP  0  0  0  0  0  0  0  0  0  0  0  0  # atno 17394 bound_to 11000
  141.0232  134.0860  157.4098 LP  0  0  0  0  0  0  0  0  0  0  0  0  # atno 17395 bound_to 11000

$$$$
