AV-unprocessed.smi:1231|AV-procd|sdf|5163|dock5
  -GOLD-   22720 4233D 1   1.00000     0.00000
 Structure written by MMmdl.
 43 44  0  0  0  0  0  0  0  0  2 V2000
  145.0666  136.9173  155.1896 C   0  0  0  0  0  0  0  0  0  0  0  0
  144.8120  138.4286  155.1960 C   0  0  2  0  0  0  0  0  0  0  0  0
  145.9786  139.2125  154.5685 C   0  0  0  0  0  0  0  0  0  0  0  0
  145.7392  140.6702  154.6727 N   0  3  2  0  0  0  0  0  0  0  0  0
  146.7865  141.4660  153.9862 C   0  0  0  0  0  0  0  0  0  0  0  0
  148.2106  141.0015  154.3496 C   0  0  0  0  0  0  0  0  0  0  0  0
  148.8535  141.9177  155.2846 N   0  0  0  0  0  0  0  0  0  0  0  0
  149.8325  141.5794  156.1363 C   0  0  0  0  0  0  0  0  0  0  0  0
  150.2995  140.4422  156.2103 O   0  0  0  0  0  0  0  0  0  0  0  0
  150.2203  142.6313  156.8788 N   0  0  0  0  0  0  0  0  0  0  0  0
  151.2423  142.6800  157.8641 C   0  0  0  0  0  0  0  0  0  0  0  0
  151.6977  143.9775  158.1904 C   0  0  0  0  0  0  0  0  0  0  0  0
  152.7123  144.1333  159.1548 C   0  0  0  0  0  0  0  0  0  0  0  0
  153.2471  142.9860  159.7674 C   0  0  0  0  0  0  0  0  0  0  0  0
  152.7381  141.7314  159.3844 C   0  0  0  0  0  0  0  0  0  0  0  0
  151.7654  141.5798  158.4608 N   0  0  0  0  0  0  0  0  0  0  0  0
  145.5349  141.0554  156.0912 C   0  0  0  0  0  0  0  0  0  0  0  0
  144.3997  140.2329  156.7310 C   0  0  1  0  0  0  0  0  0  0  0  0
  142.9970  140.6519  156.2559 C   0  0  0  0  0  0  0  0  0  0  0  0
  144.6392  138.8371  156.5503 O   0  0  0  0  0  0  0  0  0  0  0  0
  145.1904  136.5436  154.1730 H   0  0  0  0  0  0  0  0  0  0  0  0
  144.2324  136.3803  155.6416 H   0  0  0  0  0  0  0  0  0  0  0  0
  145.9670  136.6660  155.7510 H   0  0  0  0  0  0  0  0  0  0  0  0
  143.8975  138.6191  154.6339 H   0  0  0  0  0  0  0  0  0  0  0  0
  146.9177  138.9614  155.0652 H   0  0  0  0  0  0  0  0  0  0  0  0
  146.0854  138.9291  153.5206 H   0  0  0  0  0  0  0  0  0  0  0  0
  146.6214  141.4302  152.9083 H   0  0  0  0  0  0  0  0  0  0  0  0
  146.6881  142.5128  154.2781 H   0  0  0  0  0  0  0  0  0  0  0  0
  148.1730  140.0154  154.8130 H   0  0  0  0  0  0  0  0  0  0  0  0
  148.8387  140.9043  153.4638 H   0  0  0  0  0  0  0  0  0  0  0  0
  148.5245  142.8723  155.2895 H   0  0  0  0  0  0  0  0  0  0  0  0
  149.7328  143.5001  156.7172 H   0  0  0  0  0  0  0  0  0  0  0  0
  151.2766  144.8481  157.7092 H   0  0  0  0  0  0  0  0  0  0  0  0
  153.0740  145.1163  159.4186 H   0  0  0  0  0  0  0  0  0  0  0  0
  154.0263  143.0648  160.5110 H   0  0  0  0  0  0  0  0  0  0  0  0
  153.1215  140.8257  159.8303 H   0  0  0  0  0  0  0  0  0  0  0  0
  146.4619  140.8888  156.6422 H   0  0  0  0  0  0  0  0  0  0  0  0
  145.3066  142.1170  156.1792 H   0  0  0  0  0  0  0  0  0  0  0  0
  144.4309  140.4062  157.8070 H   0  0  0  0  0  0  0  0  0  0  0  0
  142.7912  141.6872  156.5286 H   0  0  0  0  0  0  0  0  0  0  0  0
  142.2287  140.0315  156.7175 H   0  0  0  0  0  0  0  0  0  0  0  0
  142.8847  140.5751  155.1746 H   0  0  0  0  0  0  0  0  0  0  0  0
  144.8728  140.8517  154.1864 H   0  0  0  0  0  0  0  0  0  0  0  0
  1  2  1  0  0  0  0
  1 21  1  0  0  0  0
  1 22  1  0  0  0  0
  1 23  1  0  0  0  0
  2 20  1  0  0  0  0
  2  3  1  0  0  0  0
  2 24  1  0  0  0  0
  3  4  1  0  0  0  0
  3 25  1  0  0  0  0
  3 26  1  0  0  0  0
  4  5  1  0  0  0  0
  4 17  1  0  0  0  0
  4 43  1  0  0  0  0
  5  6  1  0  0  0  0
  5 27  1  0  0  0  0
  5 28  1  0  0  0  0
  6  7  1  0  0  0  0
  6 29  1  0  0  0  0
  6 30  1  0  0  0  0
  7  8  1  0  0  0  0
  7 31  1  0  0  0  0
  8  9  2  0  0  0  0
  8 10  1  0  0  0  0
 10 11  1  0  0  0  0
 10 32  1  0  0  0  0
 11 16  1  0  0  0  0
 11 12  2  0  0  0  0
 12 13  1  0  0  0  0
 12 33  1  0  0  0  0
 13 14  2  0  0  0  0
 13 34  1  0  0  0  0
 14 15  1  0  0  0  0
 14 35  1  0  0  0  0
 15 16  2  0  0  0  0
 15 36  1  0  0  0  0
 17 18  1  0  0  0  0
 17 37  1  0  0  0  0
 17 38  1  0  0  0  0
 18 19  1  0  0  0  0
 18 20  1  0  0  0  0
 18 39  1  0  0  0  0
 19 40  1  0  0  0  0
 19 41  1  0  0  0  0
 19 42  1  0  0  0  0
M  CHG  1   4   1
M  END
> <s_m_source_file>
AV-unprocessed.smi

> <i_m_source_file_index>
1231

> <i_lp_mmshare_version>
43012

> <i_f3d_flags>
0

> <s_epik_input>
W0NIM11bQ0BASF0xW0NIMl1OKFtDSDJdW0NASF0oTzEpW0NIM10pW0NIMl1bQ0gyXVtOSF1DKD1PKVtOSF1jMltjSF1bY0hdW2NIXVtjSF1uMg==

> <s_epik_cmdline>
J2VwaWtfcHl0aG9uJywgJy1waCcsICc3LjAnLCAnLXRuJywgJzgnLCAnLW1hJywgJzIwMCcsICctbWV0YWxfYmluZGluZycsICctaW1hZScsICc8aW5maWxlLm1hZT4nLCAnLW9tYWUnLCAnPG91dGZpbGUubWFlPic=

> <r_epik_Ionization_Penalty>
0.602565

> <r_epik_Ionization_Penalty_Charging>
0.602531

> <r_epik_Ionization_Penalty_Neutral>
3.43186e-05

> <r_epik_State_Penalty>
0.617039

> <r_epik_Charging_Adjusted_Penalty>
1.21957

> <i_epik_Tot_Q>
1

> <i_epik_Tot_abs_Q>
1

> <r_epik_Metal_State_Penalty>
0.617041

> <b_epik_Metal_Only>
0

> <s_lp_Force_Field>
OPLS_2005

> <r_lp_Energy>
18.1203

> <b_lp_Chiralities_Consistent>
1

> <s_lp_Variant>
AV-unprocessed.smi:1231-4

> <Gold.Version>
5.8.1

> <Gold.Id.Protein>
6NUR|6NUR_protein|mol2

> <Gold.PLP.Fitness>
44.4647

> <Gold.PLP.PLP>
-33.8339

> <Gold.PLP.part.hbond>
-3.0000

> <Gold.PLP.part.metal>
0.0000

> <Gold.PLP.part.buried>
-5.5544

> <Gold.PLP.part.nonpolar>
-26.0649

> <Gold.PLP.part.repulsive>
0.3240

> <Gold.PLP.ligand.clash>
0.0000

> <Gold.PLP.ligand.torsion>
0.6814

> <Gold.PLP.Chemscore.Hbond>
3.9920

> <Gold.PLP.Chemscore.CHOScore>
0.0000

> <Gold.PLP.Chemscore.Metal>
0.0000

> <Gold.Chemscore.Hbonds>
donor molecule, donor type, donor heavy atom, donor atom, acceptor molecule, acceptor atom, score
      L1  H     4    43       P1 10175  1.56
      L1  H     7    31       P1  8028  0.99
      L1  H    10    32       P1  8028  1.00

> <Gold.PLP.Chemscore.Internal.Correction>
0.0177

> <Gold.Rescore>
     Score         DG    S(hbond)    S(metal)    S(lipo)     H(rot)  DE(clash)    DE(int)     intcor
     17.76     -19.75       2.85        0.00      74.63       1.55       0.04       1.95       ----

> <Gold.Chemscore.Fitness>
17.7630

> <Gold.Chemscore.DG>
-19.7531

> <Gold.Chemscore.ZeroCoef>
-5.4800

> <Gold.Chemscore.Hbond>
2.8505

> <Gold.Chemscore.Metal>
0.0000

> <Gold.Chemscore.Lipo>
74.6321

> <Gold.Chemscore.Internal_Hbond>
0.0000

> <Gold.Chemscore.DEClash>
0.0398

> <Gold.Chemscore.DEInternal>
1.9502

> <Gold.Chemscore.Rot>
1.5546

> <Gold.Chemscore.Internal.Correction>
   9.000000E+99

> <Gold.Chemscore.Hbonds>
donor molecule, donor type, donor heavy atom, donor atom, acceptor molecule, acceptor atom, score
      L1  H     4    43       P1 10175  0.71
      L1  H     7    31       P1  8028  0.93
      L1  H    10    32       P1  8028  0.97

> <Gold.Chemscore.Hbond.Weighted>
-9.5208

> <Gold.Chemscore.Metal.Weighted>
-0.0000

> <Gold.Chemscore.Lipo.Weighted>
-8.7320

> <Gold.Chemscore.Internal_Hbond.Weighted>
0.0000

> <Gold.Chemscore.DEClash.Weighted>
0.0398

> <Gold.Chemscore.DEInternal.Weighted>
1.9502

> <Gold.Chemscore.Rot.Weighted>
3.9797

> <Gold.Chemscore.Internal.Correction.Weighted>
   9.000000E+99

> <Gold.Protein.RotatedTorsions>
[ 6907 6896 6895 6894 ] final -119.06 input  -60.11 | X-H torsion
[ 7974 7965 7964 7962 ] final  -70.52 input  175.53 | X-H torsion
[ 8008 7997 7996 7995 ] final  -67.65 input   59.86 | X-H torsion
[ 10167 10162 10161 10158 ] final   97.60 input  -65.29 | X-H torsion
[ 10718 10713 10712 10709 ] final   -6.72 input   66.30 | X-H torsion
[ 10763 10752 10751 10750 ] final  -89.97 input  -60.55 | X-H torsion
[ 11005 11000 10999 10996 ] final -108.08 input  -57.11 | X-H torsion

> <Gold.Protein.ActiveResidues>
 VAL166  LYS551  ARG553  GLY616  TRP617  ASP618  TYR619  PRO620  LYS621  CYS622 
 ASP623  PHE694  ASN695  SER759  ASP760  ASP761  ALA762  ILE779  LEU786  VAL792 
 PHE793  MET794  SER795  GLU796  ALA797  LYS798  CYS799  TRP800  GLU811  SER814 

> <Gold.Protein.RotatedAtoms>
  150.8273  133.8151  159.3113 H   0  0  0  0  0  0  0  0  0  0  0  0  # atno 6907 bound_to 6896
  151.5891  135.1052  160.0044 H   0  0  0  0  0  0  0  0  0  0  0  0  # atno 6908 bound_to 6896
  152.4356  133.7314  159.6646 H   0  0  0  0  0  0  0  0  0  0  0  0  # atno 6909 bound_to 6896
  145.6899  140.9157  143.0787 H   0  0  0  0  0  0  0  0  0  0  0  0  # atno 7974 bound_to 7965
  154.4814  140.0888  156.7385 H   0  0  0  0  0  0  0  0  0  0  0  0  # atno 8008 bound_to 7997
  155.4461  140.3455  155.4277 H   0  0  0  0  0  0  0  0  0  0  0  0  # atno 8009 bound_to 7997
  156.1196  140.1470  156.9211 H   0  0  0  0  0  0  0  0  0  0  0  0  # atno 8010 bound_to 7997
  139.7786  144.6897  151.0054 H   0  0  0  0  0  0  0  0  0  0  0  0  # atno 10167 bound_to 10162
  156.7277  130.5170  149.5853 H   0  0  0  0  0  0  0  0  0  0  0  0  # atno 10718 bound_to 10713
  154.6609  135.5321  153.8017 H   0  0  0  0  0  0  0  0  0  0  0  0  # atno 10763 bound_to 10752
  153.0441  135.6505  154.0873 H   0  0  0  0  0  0  0  0  0  0  0  0  # atno 10764 bound_to 10752
  154.0782  135.2949  155.3275 H   0  0  0  0  0  0  0  0  0  0  0  0  # atno 10765 bound_to 10752
  141.0920  133.9037  157.2052 H   0  0  0  0  0  0  0  0  0  0  0  0  # atno 11005 bound_to 11000
  144.7000  139.8807  143.7447 LP  0  0  0  0  0  0  0  0  0  0  0  0  # atno 17320 bound_to 7965
  146.0891  139.3880  143.0417 LP  0  0  0  0  0  0  0  0  0  0  0  0  # atno 17321 bound_to 7965
  140.7817  143.4508  151.0415 LP  0  0  0  0  0  0  0  0  0  0  0  0  # atno 17342 bound_to 10162
  139.8190  143.7847  152.3176 LP  0  0  0  0  0  0  0  0  0  0  0  0  # atno 17343 bound_to 10162
  156.1550  130.6336  151.0645 LP  0  0  0  0  0  0  0  0  0  0  0  0  # atno 17370 bound_to 10713
  157.6872  131.0821  150.7210 LP  0  0  0  0  0  0  0  0  0  0  0  0  # atno 17371 bound_to 10713
  139.9748  135.0117  156.9604 LP  0  0  0  0  0  0  0  0  0  0  0  0  # atno 17394 bound_to 11000
  140.5229  134.0890  155.7296 LP  0  0  0  0  0  0  0  0  0  0  0  0  # atno 17395 bound_to 11000

$$$$
