AV-unprocessed.smi:66|AV-procd|sdf|627|dock2
  -GOLD-   2262016523D 1   1.00000     0.00000
 Structure written by MMmdl.
 27 29  0  0  0  0  0  0  0  0  3 V2000
  152.1759  137.4744  154.3055 O   0  0  0  0  0  0  0  0  0  0  0  0
  152.1977  138.6087  154.8315 C   0  0  0  0  0  0  0  0  0  0  0  0
  153.2250  139.2965  155.0258 O   0  5  0  0  0  0  0  0  0  0  0  0
  150.8449  139.2010  155.2528 C   0  0  2  0  0  0  0  0  0  0  0  0
  149.8988  139.3885  154.0578 C   0  0  0  0  0  0  0  0  0  0  0  0
  148.9998  140.5290  154.5253 C   0  0  2  0  0  0  0  0  0  0  0  0
  148.3755  141.2055  153.4540 O   0  0  0  0  0  0  0  0  0  0  0  0
  149.9514  141.4270  155.3190 C   0  0  0  0  0  0  0  0  0  0  0  0
  150.9706  140.5317  155.8540 N   0  0  0  0  0  0  0  0  0  0  0  0
  151.4394  140.7134  157.1747 C   0  0  0  0  0  0  0  0  0  0  0  0
  151.9005  139.6285  157.8488 N   0  0  0  0  0  0  0  0  0  0  0  0
  152.3385  139.8067  159.0998 C   0  0  0  0  0  0  0  0  0  0  0  0
  152.3739  140.9535  159.7845 N   0  0  0  0  0  0  0  0  0  0  0  0
  151.9241  142.0424  159.1280 C   0  0  0  0  0  0  0  0  0  0  0  0
  151.8239  143.3137  159.4818 N   0  5  0  0  0  0  0  0  0  0  0  0
  151.3105  143.9885  158.4217 C   0  0  0  0  0  0  0  0  0  0  0  0
  151.0576  143.2037  157.3547 N   0  0  0  0  0  0  0  0  0  0  0  0
  151.4448  141.9783  157.8198 C   0  0  0  0  0  0  0  0  0  0  0  0
  150.3661  138.5350  155.9722 H   0  0  0  0  0  0  0  0  0  0  0  0
  150.4493  139.6911  153.1645 H   0  0  0  0  0  0  0  0  0  0  0  0
  149.3398  138.4837  153.8181 H   0  0  0  0  0  0  0  0  0  0  0  0
  148.2342  140.1316  155.1933 H   0  0  0  0  0  0  0  0  0  0  0  0
  148.7186  140.8608  152.6442 H   0  0  0  0  0  0  0  0  0  0  0  0
  150.4435  142.1535  154.6710 H   0  0  0  0  0  0  0  0  0  0  0  0
  149.4103  141.9713  156.0940 H   0  0  0  0  0  0  0  0  0  0  0  0
  152.6972  138.9274  159.6141 H   0  0  0  0  0  0  0  0  0  0  0  0
  151.1468  145.0569  158.4922 H   0  0  0  0  0  0  0  0  0  0  0  0
  1  2  2  0  0  0  0
  2  3  1  0  0  0  0
  2  4  1  0  0  0  0
  4  5  1  0  0  0  0
  4 19  1  0  0  0  0
  4  9  1  0  0  0  0
  5  6  1  0  0  0  0
  5 20  1  0  0  0  0
  5 21  1  0  0  0  0
  6  7  1  0  0  0  0
  6  8  1  0  0  0  0
  6 22  1  0  0  0  0
  7 23  1  0  0  0  0
  8 24  1  0  0  0  0
  8 25  1  0  0  0  0
  8  9  1  0  0  0  0
  9 10  1  0  0  0  0
 10 11  1  0  0  0  0
 10 18  2  0  0  0  0
 11 12  2  0  0  0  0
 12 26  1  0  0  0  0
 12 13  1  0  0  0  0
 13 14  2  0  0  0  0
 14 15  1  0  0  0  0
 14 18  1  0  0  0  0
 15 16  1  0  0  0  0
 16 17  2  0  0  0  0
 16 27  1  0  0  0  0
 17 18  1  0  0  0  0
M  CHG  1   3  -1
M  CHG  1  15  -1
M  END
> <s_m_source_file>
AV-unprocessed.smi

> <i_m_source_file_index>
66

> <i_lp_mmshare_version>
43012

> <i_f3d_flags>
0

> <s_epik_input>
Tz1DKFtPSF0pW0NAQEhdMVtDSDJdW0NAQEhdKFtPSF0pW0NIMl1OMWMobltjSF1uMiljKGMyMylbbkhdW2NIXW4z

> <s_epik_cmdline>
J2VwaWtfcHl0aG9uJywgJy1waCcsICc3LjAnLCAnLXRuJywgJzgnLCAnLW1hJywgJzIwMCcsICctbWV0YWxfYmluZGluZycsICctaW1hZScsICc8aW5maWxlLm1hZT4nLCAnLW9tYWUnLCAnPG91dGZpbGUubWFlPic=

> <r_lp_tautomer_probability>
0.955585

> <r_epik_Ionization_Penalty>
7.65809

> <r_epik_Ionization_Penalty_Charging>
3.4974

> <r_epik_Ionization_Penalty_Neutral>
4.16069

> <r_epik_State_Penalty>
3.51624

> <r_epik_Charging_Adjusted_Penalty>
7.01364

> <i_epik_Tot_Q>
-2

> <i_epik_Tot_abs_Q>
2

> <r_epik_Metal_State_Penalty>
0.522662

> <b_epik_Metal_Only>
1

> <s_lp_Force_Field>
OPLS_2005

> <r_lp_Energy>
45.1142

> <b_lp_Chiralities_Consistent>
1

> <s_lp_Variant>
AV-unprocessed.smi:66-11

> <Gold.Version>
5.8.1

> <Gold.Id.Protein>
6NUR|6NUR_protein|mol2

> <Gold.PLP.Fitness>
48.9506

> <Gold.PLP.PLP>
-34.6663

> <Gold.PLP.part.hbond>
-3.9294

> <Gold.PLP.part.metal>
0.0000

> <Gold.PLP.part.buried>
-4.8013

> <Gold.PLP.part.nonpolar>
-25.9304

> <Gold.PLP.part.repulsive>
0.2758

> <Gold.PLP.ligand.clash>
0.0000

> <Gold.PLP.ligand.torsion>
0.1779

> <Gold.PLP.Chemscore.Hbond>
4.7920

> <Gold.PLP.Chemscore.CHOScore>
0.0000

> <Gold.PLP.Chemscore.Metal>
0.0000

> <Gold.Chemscore.Hbonds>
donor molecule, donor type, donor heavy atom, donor atom, acceptor molecule, acceptor atom, score
      L1  H     7    23       P1  7957  1.00
      P1  H  7997  8009       L1     3  2.00
      P1  H 10752 10765       L1     1  1.66

> <Gold.PLP.Chemscore.Internal.Correction>
0.2642

> <Gold.Rescore>
     Score         DG    S(hbond)    S(metal)    S(lipo)     H(rot)  DE(clash)    DE(int)     intcor
     13.08     -14.80       2.84        0.00      37.45       1.78       0.24       1.48       ----

> <Gold.Chemscore.Fitness>
13.0783

> <Gold.Chemscore.DG>
-14.7977

> <Gold.Chemscore.ZeroCoef>
-5.4800

> <Gold.Chemscore.Hbond>
2.8387

> <Gold.Chemscore.Metal>
0.0000

> <Gold.Chemscore.Lipo>
37.4491

> <Gold.Chemscore.Internal_Hbond>
0.0000

> <Gold.Chemscore.DEClash>
0.2428

> <Gold.Chemscore.DEInternal>
1.4765

> <Gold.Chemscore.Rot>
1.7754

> <Gold.Chemscore.Internal.Correction>
   9.000000E+99

> <Gold.Chemscore.Hbonds>
donor molecule, donor type, donor heavy atom, donor atom, acceptor molecule, acceptor atom, score
      L1  H     7    23       P1  7957  1.00
      P1  H  7997  8009       L1     3  1.00
      P1  H 10752 10765       L1     1  0.81

> <Gold.Chemscore.Hbond.Weighted>
-9.4812

> <Gold.Chemscore.Metal.Weighted>
-0.0000

> <Gold.Chemscore.Lipo.Weighted>
-4.3815

> <Gold.Chemscore.Internal_Hbond.Weighted>
0.0000

> <Gold.Chemscore.DEClash.Weighted>
0.2428

> <Gold.Chemscore.DEInternal.Weighted>
1.4765

> <Gold.Chemscore.Rot.Weighted>
4.5451

> <Gold.Chemscore.Internal.Correction.Weighted>
   9.000000E+99

> <Gold.Protein.RotatedTorsions>
[ 6907 6896 6895 6894 ] final   24.54 input  -60.11 | X-H torsion
[ 7974 7965 7964 7962 ] final  -73.75 input  175.53 | X-H torsion
[ 8008 7997 7996 7995 ] final -131.14 input   59.86 | X-H torsion
[ 10167 10162 10161 10158 ] final   14.27 input  -65.29 | X-H torsion
[ 10718 10713 10712 10709 ] final -175.67 input   66.30 | X-H torsion
[ 10763 10752 10751 10750 ] final  156.67 input  -60.55 | X-H torsion
[ 11005 11000 10999 10996 ] final -168.59 input  -57.11 | X-H torsion

> <Gold.Protein.ActiveResidues>
 VAL166  LYS551  ARG553  GLY616  TRP617  ASP618  TYR619  PRO620  LYS621  CYS622 
 ASP623  PHE694  ASN695  SER759  ASP760  ASP761  ALA762  ILE779  LEU786  VAL792 
 PHE793  MET794  SER795  GLU796  ALA797  LYS798  CYS799  TRP800  GLU811  SER814 

> <Gold.Protein.RotatedAtoms>
  151.9590  135.0132  160.0546 H   0  0  0  0  0  0  0  0  0  0  0  0  # atno 6907 bound_to 6896
  152.1885  133.4752  159.5004 H   0  0  0  0  0  0  0  0  0  0  0  0  # atno 6908 bound_to 6896
  150.6930  134.1660  159.4237 H   0  0  0  0  0  0  0  0  0  0  0  0  # atno 6909 bound_to 6896
  145.6481  140.9291  143.1000 H   0  0  0  0  0  0  0  0  0  0  0  0  # atno 7974 bound_to 7965
  155.3075  140.0455  157.3033 H   0  0  0  0  0  0  0  0  0  0  0  0  # atno 8008 bound_to 7997
  154.5452  140.2300  155.8542 H   0  0  0  0  0  0  0  0  0  0  0  0  # atno 8009 bound_to 7997
  156.1917  140.3049  155.9353 H   0  0  0  0  0  0  0  0  0  0  0  0  # atno 8010 bound_to 7997
  140.5947  143.8726  150.6906 H   0  0  0  0  0  0  0  0  0  0  0  0  # atno 10167 bound_to 10162
  156.8033  130.9560  151.3118 H   0  0  0  0  0  0  0  0  0  0  0  0  # atno 10718 bound_to 10713
  154.1880  135.2796  155.3031 H   0  0  0  0  0  0  0  0  0  0  0  0  # atno 10763 bound_to 10752
  154.5951  135.5547  153.7321 H   0  0  0  0  0  0  0  0  0  0  0  0  # atno 10764 bound_to 10752
  153.0120  135.6378  154.2018 H   0  0  0  0  0  0  0  0  0  0  0  0  # atno 10765 bound_to 10752
  140.5403  134.5529  157.5098 H   0  0  0  0  0  0  0  0  0  0  0  0  # atno 11005 bound_to 11000
  144.7133  139.8290  143.7407 LP  0  0  0  0  0  0  0  0  0  0  0  0  # atno 17320 bound_to 7965
  146.1226  139.4247  143.0218 LP  0  0  0  0  0  0  0  0  0  0  0  0  # atno 17321 bound_to 7965
  140.2257  143.3774  152.1607 LP  0  0  0  0  0  0  0  0  0  0  0  0  # atno 17342 bound_to 10162
  139.5250  144.7091  151.5263 LP  0  0  0  0  0  0  0  0  0  0  0  0  # atno 17343 bound_to 10162
  157.6543  130.8911  149.9696 LP  0  0  0  0  0  0  0  0  0  0  0  0  # atno 17370 bound_to 10713
  156.1088  130.3651  150.0086 LP  0  0  0  0  0  0  0  0  0  0  0  0  # atno 17371 bound_to 10713
  139.9507  134.7622  156.0455 LP  0  0  0  0  0  0  0  0  0  0  0  0  # atno 17394 bound_to 11000
  141.1231  133.6607  156.3265 LP  0  0  0  0  0  0  0  0  0  0  0  0  # atno 17395 bound_to 11000

$$$$
