#       Name:                AV-unprocessed.smi:797
#       Creating user name   scv26
#       Creation time:       Fri Mar 27 01:20:08 2020


#       File generated by GOLD software.
#

@<TRIPOS>MOLECULE
AV-unprocessed.smi:797
    39    40     1
SMALL
NO_CHARGES


@<TRIPOS>ATOM
      1 ****        -2.5575   4.3680  -0.1979 C.3            1 S1                 0.0000
      2 ****        -2.6895   3.0338  -0.8705 C.2            1 S1                 0.0000
      3 ****        -2.6010   1.7386  -0.2911 C.2            1 S1                 0.0000
      4 ****        -2.7879   0.8979  -1.3514 C.2            1 S1                 0.0000
      5 ****        -2.8094  -0.5887  -1.4763 C.3            1 S1                 0.0000
      6 ****        -1.0874  -1.2261  -1.6389 S.o2           1 S1                 0.0000
      7 ****        -1.1393  -2.6706  -1.9107 O.2            1 S1                 0.0000
      8 ****        -0.3293  -0.3292  -2.5253 O.2            1 S1                 0.0000
      9 ****        -0.4747  -1.0297  -0.0349 N.3            1 S1                 0.0000
     10 ****         0.9674  -0.8727   0.1704 C.3            1 S1                 0.0000
     11 ****         1.6890  -2.2206  -0.0279 C.3            1 S1                 0.0000
     12 ****         3.1922  -2.1008   0.2708 C.3            1 S1                 0.0000
     13 ****         3.4396  -1.5410   1.6802 C.3            1 S1                 0.0000
     14 ****         2.7270  -0.1932   1.8745 C.3            1 S1                 0.0000
     15 ****         1.2226  -0.3121   1.5818 C.3            1 S1                 0.0000
     16 ****        -2.9815   1.6135  -2.4891 O.3            1 S1                 0.0000
     17 ****        -2.9173   2.9748  -2.1721 N.2            1 S1                 0.0000
     18 ****        -2.4777   4.2573   0.8837 H              1 S1                 0.0000
     19 ****        -3.4219   4.9999  -0.4033 H              1 S1                 0.0000
     20 ****        -1.6679   4.8948  -0.5440 H              1 S1                 0.0000
     21 ****        -2.4202   1.4678   0.7385 H              1 S1                 0.0000
     22 ****        -3.2807  -1.0544  -0.6111 H              1 S1                 0.0000
     23 ****        -3.3666  -0.8867  -2.3646 H              1 S1                 0.0000
     24 ****        -0.8582  -1.7367   0.5917 H              1 S1                 0.0000
     25 ****         1.3470  -0.1529  -0.5558 H              1 S1                 0.0000
     26 ****         1.2495  -2.9755   0.6257 H              1 S1                 0.0000
     27 ****         1.5509  -2.5773  -1.0490 H              1 S1                 0.0000
     28 ****         3.6699  -3.0756   0.1691 H              1 S1                 0.0000
     29 ****         3.6597  -1.4490  -0.4683 H              1 S1                 0.0000
     30 ****         3.0830  -2.2537   2.4249 H              1 S1                 0.0000
     31 ****         4.5102  -1.4242   1.8512 H              1 S1                 0.0000
     32 ****         2.8802   0.1653   2.8927 H              1 S1                 0.0000
     33 ****         3.1698   0.5532   1.2136 H              1 S1                 0.0000
     34 ****         0.7500   0.6655   1.6864 H              1 S1                 0.0000
     35 ****         0.7606  -0.9602   2.3278 H              1 S1                 0.0000
     36 ****        -0.8066  -0.1140   0.1920 LP             1 S1                 0.0000
     37 ****        -3.8789   1.3986  -2.8745 LP             1 S1                 0.0000
     38 ****        -2.2702   1.3880  -3.1549 LP             1 S1                 0.0000
     39 ****        -3.0222   3.7453  -2.8009 LP             1 S1                 0.0000
@<TRIPOS>BOND
    1    1    2 1     
    2    1   18 1     
    3    1   19 1     
    4    1   20 1     
    5    2   17 2     
    6    2    3 1     
    7    3    4 2     
    8    3   21 1     
    9    4    5 1     
   10    4   16 1     
   11    5    6 1     
   12    5   22 1     
   13    5   23 1     
   14    6    7 2     
   15    6    8 2     
   16    6    9 1     
   17    9   10 1     
   18    9   24 1     
   19   10   15 1     
   20   10   11 1     
   21   10   25 1     
   22   11   12 1     
   23   11   26 1     
   24   11   27 1     
   25   12   13 1     
   26   12   28 1     
   27   12   29 1     
   28   13   14 1     
   29   13   30 1     
   30   13   31 1     
   31   14   15 1     
   32   14   32 1     
   33   14   33 1     
   34   15   34 1     
   35   15   35 1     
   36   16   17 1     
   37    9   36 1     
   38   16   37 1     
   39   16   38 1     
   40   17   39 1     
@<TRIPOS>SUBSTRUCTURE
      1 S1             1
@<TRIPOS>SET
LONE_PAIRS      STATIC     ATOMS    <user>   **** ""
6 7 8 36 37 38 39
DONOR_HYDROGENS      STATIC     ATOMS    <user>   **** ""
1 24
ATOM$BLUE        STATIC     ATOMS    COLORGROUP SYSTEM
6 7 8 36 37 38 39
ATOM$RED        STATIC     ATOMS    COLORGROUP SYSTEM
1 24
