AV-unprocessed.smi:290|AV-procd|sdf|2236|dock5
  -GOLD-   2262022103D 1   1.00000     0.00000
 Structure written by MMmdl.
 59 62  0  0  0  0  0  0  0  0  2 V2000
  148.0204  135.7961  159.2853 C   0  0  0  0  0  0  0  0  0  0  0  0
  148.0415  135.5245  160.7973 C   0  0  1  0  0  0  0  0  0  0  0  0
  148.1373  136.7387  161.5402 O   0  0  0  0  0  0  0  0  0  0  0  0
  147.2299  136.7253  162.6361 C   0  0  0  0  0  0  0  0  0  0  0  0
  146.8221  135.2656  162.8071 C   0  0  0  0  0  0  0  0  0  0  0  0
  146.8376  134.7471  161.3757 C   0  0  1  0  0  0  0  0  0  0  0  0
  145.6372  135.1506  160.7377 O   0  0  0  0  0  0  0  0  0  0  0  0
  146.8998  133.2037  161.2334 C   0  0  0  0  0  0  0  0  0  0  0  0
  147.3179  132.7227  159.9256 N   0  0  0  0  0  0  0  0  0  0  0  0
  148.5994  132.7053  159.4222 C   0  0  0  0  0  0  0  0  0  0  0  0
  148.7184  132.2188  158.2171 N   0  0  0  0  0  0  0  0  0  0  0  0
  147.4222  131.8599  157.8680 C   0  0  0  0  0  0  0  0  0  0  0  0
  146.8260  131.2793  156.7134 C   0  0  0  0  0  0  0  0  0  0  0  0
  147.4934  130.9216  155.5954 N   0  0  0  0  0  0  0  0  0  0  0  0
  147.4960  129.4963  155.2808 C   0  0  0  0  0  0  0  0  0  0  0  0
  147.3593  129.3955  153.7606 C   0  0  0  0  0  0  0  0  0  0  0  0
  146.5758  130.6644  153.4093 C   0  0  2  0  0  0  0  0  0  0  0  0
  146.6011  131.0689  151.9722 N   0  3  1  0  0  0  0  0  0  0  0  0
  145.9273  130.0844  151.0872 C   0  0  0  0  0  0  0  0  0  0  0  0
  146.0840  132.4504  151.7659 C   0  0  0  0  0  0  0  0  0  0  0  0
  146.0974  132.8927  150.2904 C   0  0  0  0  0  0  0  0  0  0  0  0
  145.6905  134.2395  150.1768 O   0  0  0  0  0  0  0  0  0  0  0  0
  147.1825  131.6912  154.3937 C   0  0  2  0  0  0  0  0  0  0  0  0
  148.4629  132.3824  153.8884 C   0  0  0  0  0  0  0  0  0  0  0  0
  145.4904  131.0529  156.7309 N   0  0  0  0  0  0  0  0  0  0  0  0
  144.7724  131.3781  157.8104 C   0  0  0  0  0  0  0  0  0  0  0  0
  145.1866  131.9287  158.9537 N   0  0  0  0  0  0  0  0  0  0  0  0
  146.5314  132.1573  158.9369 C   0  0  0  0  0  0  0  0  0  0  0  0
  145.5338  130.4898  153.6814 H   0  0  0  0  0  0  0  0  0  0  0  0
  146.4445  132.4634  154.6183 H   0  0  0  0  0  0  0  0  0  0  0  0
  147.9442  134.8663  158.7216 H   0  0  0  0  0  0  0  0  0  0  0  0
  148.9351  136.2993  158.9715 H   0  0  0  0  0  0  0  0  0  0  0  0
  147.1831  136.4338  159.0013 H   0  0  0  0  0  0  0  0  0  0  0  0
  148.9609  134.9909  161.0331 H   0  0  0  0  0  0  0  0  0  0  0  0
  147.6845  137.1415  163.5352 H   0  0  0  0  0  0  0  0  0  0  0  0
  146.3637  137.3371  162.3811 H   0  0  0  0  0  0  0  0  0  0  0  0
  147.5784  134.7663  163.4118 H   0  0  0  0  0  0  0  0  0  0  0  0
  145.8608  135.1450  163.3080 H   0  0  0  0  0  0  0  0  0  0  0  0
  145.6563  136.0884  160.6248 H   0  0  0  0  0  0  0  0  0  0  0  0
  147.5838  132.7898  161.9758 H   0  0  0  0  0  0  0  0  0  0  0  0
  145.9219  132.7722  161.4519 H   0  0  0  0  0  0  0  0  0  0  0  0
  149.4484  133.0745  159.9792 H   0  0  0  0  0  0  0  0  0  0  0  0
  148.4176  129.0280  155.6269 H   0  0  0  0  0  0  0  0  0  0  0  0
  146.6647  128.9852  155.7686 H   0  0  0  0  0  0  0  0  0  0  0  0
  148.3468  129.4134  153.2974 H   0  0  0  0  0  0  0  0  0  0  0  0
  146.8563  128.4773  153.4554 H   0  0  0  0  0  0  0  0  0  0  0  0
  144.8833  129.9535  151.3751 H   0  0  0  0  0  0  0  0  0  0  0  0
  146.4176  129.1121  151.1274 H   0  0  0  0  0  0  0  0  0  0  0  0
  145.9519  130.3910  150.0432 H   0  0  0  0  0  0  0  0  0  0  0  0
  145.0717  132.5174  152.1673 H   0  0  0  0  0  0  0  0  0  0  0  0
  146.6769  133.1677  152.3331 H   0  0  0  0  0  0  0  0  0  0  0  0
  147.0717  132.7625  149.8218 H   0  0  0  0  0  0  0  0  0  0  0  0
  145.3979  132.2803  149.7208 H   0  0  0  0  0  0  0  0  0  0  0  0
  145.9983  134.5798  149.3499 H   0  0  0  0  0  0  0  0  0  0  0  0
  148.2666  133.0109  153.0216 H   0  0  0  0  0  0  0  0  0  0  0  0
  149.2321  131.6611  153.6122 H   0  0  0  0  0  0  0  0  0  0  0  0
  148.8817  133.0278  154.6613 H   0  0  0  0  0  0  0  0  0  0  0  0
  143.7145  131.1688  157.7493 H   0  0  0  0  0  0  0  0  0  0  0  0
  147.5745  131.0852  151.7020 H   0  0  0  0  0  0  0  0  0  0  0  0
  1  2  1  0  0  0  0
  1 31  1  0  0  0  0
  1 32  1  0  0  0  0
  1 33  1  0  0  0  0
  2  6  1  0  0  0  0
  2  3  1  0  0  0  0
  2 34  1  0  0  0  0
  3  4  1  0  0  0  0
  4  5  1  0  0  0  0
  4 35  1  0  0  0  0
  4 36  1  0  0  0  0
  5  6  1  0  0  0  0
  5 37  1  0  0  0  0
  5 38  1  0  0  0  0
  6  7  1  0  0  0  0
  6  8  1  0  0  0  0
  7 39  1  0  0  0  0
  8  9  1  0  0  0  0
  8 40  1  0  0  0  0
  8 41  1  0  0  0  0
  9 28  1  0  0  0  0
  9 10  1  0  0  0  0
 10 11  2  0  0  0  0
 10 42  1  0  0  0  0
 11 12  1  0  0  0  0
 12 28  2  0  0  0  0
 12 13  1  0  0  0  0
 13 14  1  0  0  0  0
 13 25  2  0  0  0  0
 14 23  1  0  0  0  0
 14 15  1  0  0  0  0
 15 16  1  0  0  0  0
 15 43  1  0  0  0  0
 15 44  1  0  0  0  0
 16 17  1  0  0  0  0
 16 45  1  0  0  0  0
 16 46  1  0  0  0  0
 17 29  1  0  0  0  0
 17 18  1  0  0  0  0
 17 23  1  0  0  0  0
 18 19  1  0  0  0  0
 18 20  1  0  0  0  0
 18 59  1  0  0  0  0
 19 47  1  0  0  0  0
 19 48  1  0  0  0  0
 19 49  1  0  0  0  0
 20 21  1  0  0  0  0
 20 50  1  0  0  0  0
 20 51  1  0  0  0  0
 21 22  1  0  0  0  0
 21 52  1  0  0  0  0
 21 53  1  0  0  0  0
 22 54  1  0  0  0  0
 23 30  1  0  0  0  0
 23 24  1  0  0  0  0
 24 55  1  0  0  0  0
 24 56  1  0  0  0  0
 24 57  1  0  0  0  0
 25 26  1  0  0  0  0
 26 27  2  0  0  0  0
 26 58  1  0  0  0  0
 27 28  1  0  0  0  0
M  CHG  1  18   1
M  END
> <s_m_source_file>
AV-unprocessed.smi

> <i_m_source_file_index>
290

> <i_lp_mmshare_version>
43012

> <i_f3d_flags>
0

> <s_epik_input>
W0NIMl0xW0NIMl1PW0NAQEhdKFtDSDNdKVtDQEBdMShbT0hdKVtDSDJdbihbY0hdbjIpYyhjMjMpbltjSF1uYzNONFtDSDJdW0NIMl1bQ0BIXShbQ0BIXTRbQ0gzXSlOKFtDSDNdKVtDSDJdW0NIMl1bT0hd

> <s_epik_cmdline>
J2VwaWtfcHl0aG9uJywgJy1waCcsICc3LjAnLCAnLXRuJywgJzgnLCAnLW1hJywgJzIwMCcsICctbWV0YWxfYmluZGluZycsICctaW1hZScsICc8aW5maWxlLm1hZT4nLCAnLW9tYWUnLCAnPG91dGZpbGUubWFlPic=

> <r_lp_tautomer_probability>
1

> <r_epik_Ionization_Penalty>
0.0036983

> <r_epik_Ionization_Penalty_Charging>
0.0032725

> <r_epik_Ionization_Penalty_Neutral>
0.000425798

> <r_epik_State_Penalty>
-0

> <r_epik_Charging_Adjusted_Penalty>
0.0032725

> <i_epik_Tot_Q>
1

> <i_epik_Tot_abs_Q>
1

> <r_epik_Metal_State_Penalty>
-0

> <b_epik_Metal_Only>
0

> <s_lp_Force_Field>
OPLS_2005

> <r_lp_Energy>
67.6637

> <b_lp_Chiralities_Consistent>
1

> <s_lp_Variant>
AV-unprocessed.smi:290-22

> <Gold.Version>
5.8.1

> <Gold.Id.Protein>
6NUR|6NUR_protein|mol2

> <Gold.PLP.Fitness>
42.4343

> <Gold.PLP.PLP>
-34.3293

> <Gold.PLP.part.hbond>
-3.0576

> <Gold.PLP.part.metal>
0.0000

> <Gold.PLP.part.buried>
-5.6210

> <Gold.PLP.part.nonpolar>
-26.0013

> <Gold.PLP.part.repulsive>
0.2042

> <Gold.PLP.ligand.clash>
0.0000

> <Gold.PLP.ligand.torsion>
0.5731

> <Gold.PLP.Chemscore.Hbond>
2.9913

> <Gold.PLP.Chemscore.CHOScore>
0.0000

> <Gold.PLP.Chemscore.Metal>
0.0000

> <Gold.Chemscore.Hbonds>
donor molecule, donor type, donor heavy atom, donor atom, acceptor molecule, acceptor atom, score
      L1  H    18    59       P1 10747  0.99
      L1  H    22    54       P1  7921  1.00
      P1  H  6931  6943       L1     3  1.00

> <Gold.PLP.Chemscore.Internal.Correction>
0.2775

> <Gold.Rescore>
     Score         DG    S(hbond)    S(metal)    S(lipo)     H(rot)  DE(clash)    DE(int)     intcor
     14.37     -16.03       2.72        0.00      92.71       3.67       0.61       1.04       ----

> <Gold.Chemscore.Fitness>
14.3726

> <Gold.Chemscore.DG>
-16.0258

> <Gold.Chemscore.ZeroCoef>
-5.4800

> <Gold.Chemscore.Hbond>
2.7196

> <Gold.Chemscore.Metal>
0.0000

> <Gold.Chemscore.Lipo>
92.7065

> <Gold.Chemscore.Internal_Hbond>
0.0000

> <Gold.Chemscore.DEClash>
0.6115

> <Gold.Chemscore.DEInternal>
1.0417

> <Gold.Chemscore.Rot>
3.6658

> <Gold.Chemscore.Internal.Correction>
   9.000000E+99

> <Gold.Chemscore.Hbonds>
donor molecule, donor type, donor heavy atom, donor atom, acceptor molecule, acceptor atom, score
      L1  H    18    59       P1 10747  0.89
      L1  H    22    54       P1  7921  0.55
      P1  H  6931  6943       L1     3  0.26

> <Gold.Chemscore.Hbond.Weighted>
-9.0836

> <Gold.Chemscore.Metal.Weighted>
-0.0000

> <Gold.Chemscore.Lipo.Weighted>
-10.8467

> <Gold.Chemscore.Internal_Hbond.Weighted>
0.0000

> <Gold.Chemscore.DEClash.Weighted>
0.6115

> <Gold.Chemscore.DEInternal.Weighted>
1.0417

> <Gold.Chemscore.Rot.Weighted>
9.3844

> <Gold.Chemscore.Internal.Correction.Weighted>
   9.000000E+99

> <Gold.Protein.RotatedTorsions>
[ 6907 6896 6895 6894 ] final -120.31 input  -60.11 | X-H torsion
[ 7974 7965 7964 7962 ] final  -94.12 input  175.53 | X-H torsion
[ 8008 7997 7996 7995 ] final -174.77 input   59.86 | X-H torsion
[ 10167 10162 10161 10158 ] final -112.68 input  -65.29 | X-H torsion
[ 10718 10713 10712 10709 ] final -143.76 input   66.30 | X-H torsion
[ 10763 10752 10751 10750 ] final  -79.24 input  -60.55 | X-H torsion
[ 11005 11000 10999 10996 ] final  -75.64 input  -57.11 | X-H torsion

> <Gold.Protein.ActiveResidues>
 VAL166  LYS551  ARG553  GLY616  TRP617  ASP618  TYR619  PRO620  LYS621  CYS622 
 ASP623  PHE694  ASN695  SER759  ASP760  ASP761  ALA762  ILE779  LEU786  VAL792 
 PHE793  MET794  SER795  GLU796  ALA797  LYS798  CYS799  TRP800  GLU811  SER814 

> <Gold.Protein.RotatedAtoms>
  150.8382  133.7979  159.3071 H   0  0  0  0  0  0  0  0  0  0  0  0  # atno 6907 bound_to 6896
  151.5689  135.1061  160.0000 H   0  0  0  0  0  0  0  0  0  0  0  0  # atno 6908 bound_to 6896
  152.4450  133.7478  159.6733 H   0  0  0  0  0  0  0  0  0  0  0  0  # atno 6909 bound_to 6896
  145.3775  140.9513  143.2412 H   0  0  0  0  0  0  0  0  0  0  0  0  # atno 7974 bound_to 7965
  155.9742  140.1169  157.0785 H   0  0  0  0  0  0  0  0  0  0  0  0  # atno 8008 bound_to 7997
  154.4165  140.1157  156.5416 H   0  0  0  0  0  0  0  0  0  0  0  0  # atno 8009 bound_to 7997
  155.6556  140.3473  155.4766 H   0  0  0  0  0  0  0  0  0  0  0  0  # atno 8010 bound_to 7997
  140.1201  143.4451  152.1697 H   0  0  0  0  0  0  0  0  0  0  0  0  # atno 10167 bound_to 10162
  156.3619  130.7743  151.1911 H   0  0  0  0  0  0  0  0  0  0  0  0  # atno 10718 bound_to 10713
  154.5361  135.5702  153.6800 H   0  0  0  0  0  0  0  0  0  0  0  0  # atno 10763 bound_to 10752
  152.9951  135.6216  154.2564 H   0  0  0  0  0  0  0  0  0  0  0  0  # atno 10764 bound_to 10752
  154.2493  135.2859  155.2803 H   0  0  0  0  0  0  0  0  0  0  0  0  # atno 10765 bound_to 10752
  141.1647  133.6954  156.7547 H   0  0  0  0  0  0  0  0  0  0  0  0  # atno 11005 bound_to 11000
  144.8532  139.5290  143.6847 LP  0  0  0  0  0  0  0  0  0  0  0  0  # atno 17320 bound_to 7965
  146.2857  139.6999  142.9197 LP  0  0  0  0  0  0  0  0  0  0  0  0  # atno 17321 bound_to 7965
  139.5573  144.7382  151.4256 LP  0  0  0  0  0  0  0  0  0  0  0  0  # atno 17342 bound_to 10162
  140.6877  143.7935  150.7210 LP  0  0  0  0  0  0  0  0  0  0  0  0  # atno 17343 bound_to 10162
  157.7474  131.0397  150.4565 LP  0  0  0  0  0  0  0  0  0  0  0  0  # atno 17370 bound_to 10713
  156.4777  130.4067  149.6480 LP  0  0  0  0  0  0  0  0  0  0  0  0  # atno 17371 bound_to 10713
  140.2578  134.8490  157.3729 LP  0  0  0  0  0  0  0  0  0  0  0  0  # atno 17394 bound_to 11000
  140.1640  134.4692  155.7875 LP  0  0  0  0  0  0  0  0  0  0  0  0  # atno 17395 bound_to 11000

$$$$
