AV-unprocessed.smi:1952|AV-procd|sdf|7885|dock2
  -GOLD-   2272010 33D 1   1.00000     0.00000
 Structure written by MMmdl.
 40 41  0  0  0  0  0  0  0  0  2 V2000
  153.4651  142.2436  160.2336 C   0  0  0  0  0  0  0  0  0  0  0  0
  152.5079  141.9279  159.1358 C   0  0  0  0  0  0  0  0  0  0  0  0
  151.5682  142.6717  158.4789 C   0  0  0  0  0  0  0  0  0  0  0  0
  151.0219  141.7471  157.5497 C   0  0  0  0  0  0  0  0  0  0  0  0
  149.9900  142.1355  156.6575 N   0  0  0  0  0  0  0  0  0  0  0  0
  149.2004  141.3345  155.9224 C   0  0  0  0  0  0  0  0  0  0  0  0
  149.2648  140.1052  155.8967 O   0  0  0  0  0  0  0  0  0  0  0  0
  148.3095  142.0436  155.2130 N   0  0  0  0  0  0  0  0  0  0  0  0
  147.3245  141.4994  154.2767 C   0  0  2  0  0  0  0  0  0  0  0  0
  146.4193  142.6397  153.7904 C   0  0  0  0  0  0  0  0  0  0  0  0
  146.4944  140.3637  154.9201 C   0  0  0  0  0  0  0  0  0  0  0  0
  145.8600  139.4642  153.9232 N   0  3  0  0  0  0  0  0  0  0  0  0
  146.8005  139.0030  152.8757 C   0  0  0  0  0  0  0  0  0  0  0  0
  146.0614  138.1405  151.8381 C   0  0  0  0  0  0  0  0  0  0  0  0
  145.4263  137.0462  152.4880 O   0  0  0  0  0  0  0  0  0  0  0  0
  144.4617  137.4779  153.4401 C   0  0  0  0  0  0  0  0  0  0  0  0
  145.1556  138.3092  154.5315 C   0  0  0  0  0  0  0  0  0  0  0  0
  151.5737  140.5464  157.6349 N   0  0  0  0  0  0  0  0  0  0  0  0
  152.5306  140.6566  158.6507 O   0  0  0  0  0  0  0  0  0  0  0  0
  153.2283  143.2037  160.6923 H   0  0  0  0  0  0  0  0  0  0  0  0
  154.4856  142.2928  159.8535 H   0  0  0  0  0  0  0  0  0  0  0  0
  153.4292  141.4804  161.0110 H   0  0  0  0  0  0  0  0  0  0  0  0
  151.3166  143.7097  158.6389 H   0  0  0  0  0  0  0  0  0  0  0  0
  149.8375  143.1297  156.5720 H   0  0  0  0  0  0  0  0  0  0  0  0
  148.3343  143.0493  155.3017 H   0  0  0  0  0  0  0  0  0  0  0  0
  147.8441  141.1154  153.3980 H   0  0  0  0  0  0  0  0  0  0  0  0
  145.6914  142.2793  153.0626 H   0  0  0  0  0  0  0  0  0  0  0  0
  147.0018  143.4256  153.3085 H   0  0  0  0  0  0  0  0  0  0  0  0
  145.8679  143.0916  154.6157 H   0  0  0  0  0  0  0  0  0  0  0  0
  147.1592  139.7785  155.5575 H   0  0  0  0  0  0  0  0  0  0  0  0
  145.7268  140.7718  155.5796 H   0  0  0  0  0  0  0  0  0  0  0  0
  147.2545  139.8615  152.3794 H   0  0  0  0  0  0  0  0  0  0  0  0
  147.6083  138.4307  153.3345 H   0  0  0  0  0  0  0  0  0  0  0  0
  145.3243  138.7327  151.2934 H   0  0  0  0  0  0  0  0  0  0  0  0
  146.7658  137.7531  151.1019 H   0  0  0  0  0  0  0  0  0  0  0  0
  143.6776  138.0562  152.9483 H   0  0  0  0  0  0  0  0  0  0  0  0
  143.9836  136.6030  153.8809 H   0  0  0  0  0  0  0  0  0  0  0  0
  145.8675  137.6884  155.0778 H   0  0  0  0  0  0  0  0  0  0  0  0
  144.4130  138.6510  155.2518 H   0  0  0  0  0  0  0  0  0  0  0  0
  145.1583  140.0156  153.4491 H   0  0  0  0  0  0  0  0  0  0  0  0
  1  2  1  0  0  0  0
  1 20  1  0  0  0  0
  1 21  1  0  0  0  0
  1 22  1  0  0  0  0
  2 19  1  0  0  0  0
  2  3  2  0  0  0  0
  3  4  1  0  0  0  0
  3 23  1  0  0  0  0
  4  5  1  0  0  0  0
  4 18  2  0  0  0  0
  5  6  1  0  0  0  0
  5 24  1  0  0  0  0
  6  7  2  0  0  0  0
  6  8  1  0  0  0  0
  8  9  1  0  0  0  0
  8 25  1  0  0  0  0
  9 10  1  0  0  0  0
  9 11  1  0  0  0  0
  9 26  1  0  0  0  0
 10 27  1  0  0  0  0
 10 28  1  0  0  0  0
 10 29  1  0  0  0  0
 11 12  1  0  0  0  0
 11 30  1  0  0  0  0
 11 31  1  0  0  0  0
 12 17  1  0  0  0  0
 12 13  1  0  0  0  0
 12 40  1  0  0  0  0
 13 14  1  0  0  0  0
 13 32  1  0  0  0  0
 13 33  1  0  0  0  0
 14 15  1  0  0  0  0
 14 34  1  0  0  0  0
 14 35  1  0  0  0  0
 15 16  1  0  0  0  0
 16 17  1  0  0  0  0
 16 36  1  0  0  0  0
 16 37  1  0  0  0  0
 17 38  1  0  0  0  0
 17 39  1  0  0  0  0
 18 19  1  0  0  0  0
M  CHG  1  12   1
M  END
> <s_m_source_file>
AV-unprocessed.smi

> <i_m_source_file_index>
1952

> <i_lp_mmshare_version>
43012

> <i_f3d_flags>
0

> <s_epik_input>
W0NIM11jMVtjSF1jKG5vMSlbTkhdQyg9TylbTkhdW0NASF0oW0NIM10pW0NIMl1OMltDSDJdW0NIMl1PW0NIMl1bQ0gyXTI=

> <s_epik_cmdline>
J2VwaWtfcHl0aG9uJywgJy1waCcsICc3LjAnLCAnLXRuJywgJzgnLCAnLW1hJywgJzIwMCcsICctbWV0YWxfYmluZGluZycsICctaW1hZScsICc8aW5maWxlLm1hZT4nLCAnLW9tYWUnLCAnPG91dGZpbGUubWFlPic=

> <r_epik_Ionization_Penalty>
0.707079

> <r_epik_Ionization_Penalty_Charging>
0.707039

> <r_epik_Ionization_Penalty_Neutral>
4.01892e-05

> <r_epik_State_Penalty>
0.730276

> <r_epik_Charging_Adjusted_Penalty>
1.43732

> <i_epik_Tot_Q>
1

> <i_epik_Tot_abs_Q>
1

> <r_epik_Metal_State_Penalty>
0.744847

> <b_epik_Metal_Only>
0

> <s_lp_Force_Field>
OPLS_2005

> <r_lp_Energy>
19.2222

> <b_lp_Chiralities_Consistent>
1

> <s_lp_Variant>
AV-unprocessed.smi:1952-3

> <Gold.Version>
5.8.1

> <Gold.Id.Protein>
6NUR|6NUR_protein|mol2

> <Gold.PLP.Fitness>
43.7379

> <Gold.PLP.PLP>
-31.5590

> <Gold.PLP.part.hbond>
-3.9625

> <Gold.PLP.part.metal>
0.0000

> <Gold.PLP.part.buried>
-1.1406

> <Gold.PLP.part.nonpolar>
-26.8578

> <Gold.PLP.part.repulsive>
0.5275

> <Gold.PLP.ligand.clash>
0.0000

> <Gold.PLP.ligand.torsion>
0.3257

> <Gold.PLP.Chemscore.Hbond>
4.2577

> <Gold.PLP.Chemscore.CHOScore>
0.0000

> <Gold.PLP.Chemscore.Metal>
0.0000

> <Gold.Chemscore.Hbonds>
donor molecule, donor type, donor heavy atom, donor atom, acceptor molecule, acceptor atom, score
      L1  H     5    24       P1  8028  0.91
      L1  H     8    25       P1  8028  1.00
      L1  H    12    40       P1 10175  2.00

> <Gold.PLP.Chemscore.Internal.Correction>
0.0571

> <Gold.Rescore>
     Score         DG    S(hbond)    S(metal)    S(lipo)     H(rot)  DE(clash)    DE(int)     intcor
     16.63     -19.78       2.94        0.00      73.51       1.61       0.46       2.69       ----

> <Gold.Chemscore.Fitness>
16.6266

> <Gold.Chemscore.DG>
-19.7809

> <Gold.Chemscore.ZeroCoef>
-5.4800

> <Gold.Chemscore.Hbond>
2.9391

> <Gold.Chemscore.Metal>
0.0000

> <Gold.Chemscore.Lipo>
73.5064

> <Gold.Chemscore.Internal_Hbond>
0.0000

> <Gold.Chemscore.DEClash>
0.4647

> <Gold.Chemscore.DEInternal>
2.6896

> <Gold.Chemscore.Rot>
1.6078

> <Gold.Chemscore.Internal.Correction>
   9.000000E+99

> <Gold.Chemscore.Hbonds>
donor molecule, donor type, donor heavy atom, donor atom, acceptor molecule, acceptor atom, score
      L1  H     5    24       P1  8028  0.84
      L1  H     8    25       P1  8028  0.99
      L1  H    12    40       P1 10175  1.00

> <Gold.Chemscore.Hbond.Weighted>
-9.8165

> <Gold.Chemscore.Metal.Weighted>
-0.0000

> <Gold.Chemscore.Lipo.Weighted>
-8.6003

> <Gold.Chemscore.Internal_Hbond.Weighted>
0.0000

> <Gold.Chemscore.DEClash.Weighted>
0.4647

> <Gold.Chemscore.DEInternal.Weighted>
2.6896

> <Gold.Chemscore.Rot.Weighted>
4.1158

> <Gold.Chemscore.Internal.Correction.Weighted>
   9.000000E+99

> <Gold.Protein.RotatedTorsions>
[ 6907 6896 6895 6894 ] final  -58.54 input  -60.11 | X-H torsion
[ 7974 7965 7964 7962 ] final  -86.85 input  175.53 | X-H torsion
[ 8008 7997 7996 7995 ] final  153.37 input   59.86 | X-H torsion
[ 10167 10162 10161 10158 ] final  -12.28 input  -65.29 | X-H torsion
[ 10718 10713 10712 10709 ] final   17.28 input   66.30 | X-H torsion
[ 10763 10752 10751 10750 ] final   14.75 input  -60.55 | X-H torsion
[ 11005 11000 10999 10996 ] final  154.54 input  -57.11 | X-H torsion

> <Gold.Protein.ActiveResidues>
 VAL166  LYS551  ARG553  GLY616  TRP617  ASP618  TYR619  PRO620  LYS621  CYS622 
 ASP623  PHE694  ASN695  SER759  ASP760  ASP761  ALA762  ILE779  LEU786  VAL792 
 PHE793  MET794  SER795  GLU796  ALA797  LYS798  CYS799  TRP800  GLU811  SER814 

> <Gold.Protein.RotatedAtoms>
  150.7999  134.7085  159.6589 H   0  0  0  0  0  0  0  0  0  0  0  0  # atno 6907 bound_to 6896
  152.4115  134.6113  160.0036 H   0  0  0  0  0  0  0  0  0  0  0  0  # atno 6908 bound_to 6896
  151.6355  133.3292  159.3154 H   0  0  0  0  0  0  0  0  0  0  0  0  # atno 6909 bound_to 6896
  145.4743  140.9559  143.1899 H   0  0  0  0  0  0  0  0  0  0  0  0  # atno 7974 bound_to 7965
  156.2585  140.1995  156.6479 H   0  0  0  0  0  0  0  0  0  0  0  0  # atno 8008 bound_to 7997
  154.6559  140.0566  157.0033 H   0  0  0  0  0  0  0  0  0  0  0  0  # atno 8009 bound_to 7997
  155.1348  140.3237  155.4468 H   0  0  0  0  0  0  0  0  0  0  0  0  # atno 8010 bound_to 7997
  140.7158  143.5549  150.9260 H   0  0  0  0  0  0  0  0  0  0  0  0  # atno 10167 bound_to 10162
  157.0799  130.6383  149.5824 H   0  0  0  0  0  0  0  0  0  0  0  0  # atno 10718 bound_to 10713
  153.1591  135.6792  153.8768 H   0  0  0  0  0  0  0  0  0  0  0  0  # atno 10763 bound_to 10752
  153.8169  135.3135  155.3407 H   0  0  0  0  0  0  0  0  0  0  0  0  # atno 10764 bound_to 10752
  154.7919  135.4829  154.0162 H   0  0  0  0  0  0  0  0  0  0  0  0  # atno 10765 bound_to 10752
  140.1498  134.8682  157.2440 H   0  0  0  0  0  0  0  0  0  0  0  0  # atno 11005 bound_to 11000
  144.7926  139.6297  143.7106 LP  0  0  0  0  0  0  0  0  0  0  0  0  # atno 17320 bound_to 7965
  146.2378  139.5940  142.9512 LP  0  0  0  0  0  0  0  0  0  0  0  0  # atno 17321 bound_to 7965
  139.9274  143.6534  152.3084 LP  0  0  0  0  0  0  0  0  0  0  0  0  # atno 17342 bound_to 10162
  139.6972  144.7640  151.1335 LP  0  0  0  0  0  0  0  0  0  0  0  0  # atno 17343 bound_to 10162
  155.9927  130.4985  150.7349 LP  0  0  0  0  0  0  0  0  0  0  0  0  # atno 17370 bound_to 10713
  157.4809  131.0902  151.0537 LP  0  0  0  0  0  0  0  0  0  0  0  0  # atno 17371 bound_to 10713
  140.2618  134.3562  155.7404 LP  0  0  0  0  0  0  0  0  0  0  0  0  # atno 17394 bound_to 11000
  141.2197  133.7374  156.9092 LP  0  0  0  0  0  0  0  0  0  0  0  0  # atno 17395 bound_to 11000

$$$$
