#       Name:                AV-unprocessed.smi:107
#       Creating user name   scv26
#       Creation time:       Thu Mar 26 18:02:36 2020


#       File generated by GOLD software.
#

@<TRIPOS>MOLECULE
AV-unprocessed.smi:107
    41    42     1
SMALL
NO_CHARGES


@<TRIPOS>ATOM
      1 ****        -3.5667   1.5420  -0.5625 C.3            1 S1                 0.0000
      2 ****        -2.8722   0.2246  -0.2647 C.2            1 S1                 0.0000
      3 ****        -1.5366   0.0662  -0.4009 C.2            1 S1                 0.0000
      4 ****        -0.9080  -1.1373  -0.1270 N.am           1 S1                 0.0000
      5 ****         0.5901  -1.3087  -0.2795 C.3            1 S1                 0.0000
      6 ****         1.2770  -1.3024   1.0948 C.3            1 S1                 0.0000
      7 ****         2.4140  -0.3212   0.8846 C.3            1 S1                 0.0000
      8 ****         2.7674   0.3139   2.0964 O.3            1 S1                 0.0000
      9 ****         1.8153   0.6495  -0.1329 C.3            1 S1                 0.0000
     10 ****         2.8687   1.4432  -0.9205 C.3            1 S1                 0.0000
     11 ****         2.2715   2.5608  -1.5427 O.3            1 S1                 0.0000
     12 ****         1.1222  -0.2376  -1.0063 O.3            1 S1                 0.0000
     13 ****        -1.6796  -2.2460   0.3094 C.2            1 S1                 0.0000
     14 ****        -1.0912  -3.3013   0.5475 O.2            1 S1                 0.0000
     15 ****        -3.0276  -2.0959   0.4482 N.pl3          1 S1                -1.0000
     16 ****        -3.6701  -0.9218   0.1868 C.2            1 S1                 0.0000
     17 ****        -4.8878  -0.7998   0.3184 O.2            1 S1                 0.0000
     18 ****        -2.8546   2.3018  -0.8859 H              1 S1                 0.0000
     19 ****        -4.0760   1.9133   0.3272 H              1 S1                 0.0000
     20 ****        -4.3053   1.4125  -1.3541 H              1 S1                 0.0000
     21 ****        -0.9555   0.9121  -0.7341 H              1 S1                 0.0000
     22 ****         0.7304  -2.2299  -0.8474 H              1 S1                 0.0000
     23 ****         0.5809  -0.9378   1.8527 H              1 S1                 0.0000
     24 ****         1.6106  -2.3024   1.3732 H              1 S1                 0.0000
     25 ****         3.2784  -0.8354   0.4620 H              1 S1                 0.0000
     26 ****         3.0534  -0.3470   2.7083 H              1 S1                 0.0000
     27 ****         1.1056   1.3138   0.3645 H              1 S1                 0.0000
     28 ****         3.6374   1.8189  -0.2447 H              1 S1                 0.0000
     29 ****         3.3665   0.8160  -1.6606 H              1 S1                 0.0000
     30 ****         2.9404   3.0370  -2.0104 H              1 S1                 0.0000
     31 ****         1.9747   0.7972   2.4678 LP             1 S1                 0.0000
     32 ****         3.5083   0.9652   1.9325 LP             1 S1                 0.0000
     33 ****         1.8588   3.1519  -0.8498 LP             1 S1                 0.0000
     34 ****         1.5665   2.2540  -2.1820 LP             1 S1                 0.0000
     35 ****         0.3799   0.2564  -1.4588 LP             1 S1                 0.0000
     36 ****         1.7576  -0.5879  -1.6945 LP             1 S1                 0.0000
     37 ****        -0.0995  -3.3580   0.4316 LP             1 S1                 0.0000
     38 ****        -1.6050  -4.1016   0.8567 LP             1 S1                 0.0000
     39 ****        -3.5678  -2.8797   0.7546 LP             1 S1                 0.0000
     40 ****        -5.3271   0.0759   0.1182 LP             1 S1                 0.0000
     41 ****        -5.4378  -1.5765   0.6256 LP             1 S1                 0.0000
@<TRIPOS>BOND
    1    1    2 1     
    2    1   18 1     
    3    1   19 1     
    4    1   20 1     
    5    2   16 1     
    6    2    3 2     
    7    3    4 1     
    8    3   21 1     
    9    4    5 1     
   10    4   13 am    
   11    5   12 1     
   12    5    6 1     
   13    5   22 1     
   14    6    7 1     
   15    6   23 1     
   16    6   24 1     
   17    7    8 1     
   18    7    9 1     
   19    7   25 1     
   20    8   26 1     
   21    9   10 1     
   22    9   12 1     
   23    9   27 1     
   24   10   11 1     
   25   10   28 1     
   26   10   29 1     
   27   11   30 1     
   28   13   14 2     
   29   13   15 1     
   30   15   16 1     
   31   16   17 2     
   32    8   31 1     
   33    8   32 1     
   34   11   33 1     
   35   11   34 1     
   36   12   35 1     
   37   12   36 1     
   38   14   37 1     
   39   14   38 1     
   40   15   39 1     
   41   17   40 1     
   42   17   41 1     
@<TRIPOS>SUBSTRUCTURE
      1 S1             1
@<TRIPOS>SET
LONE_PAIRS      STATIC     ATOMS    <user>   **** ""
11 31 32 33 34 35 36 37 38 39 40 41
DONOR_HYDROGENS      STATIC     ATOMS    <user>   **** ""
2 26 30
ATOM$BLUE        STATIC     ATOMS    COLORGROUP SYSTEM
11 31 32 33 34 35 36 37 38 39 40 41
ATOM$RED        STATIC     ATOMS    COLORGROUP SYSTEM
2 26 30
