AV-unprocessed.smi:137|AV-procd|sdf|1176|dock4
  -GOLD-   2262018323D 1   1.00000     0.00000
 Structure written by MMmdl.
 51 54  0  0  0  0  0  0  0  0  1 V2000
  153.7791  129.2605  154.3683 C   0  0  0  0  0  0  0  0  0  0  0  0
  152.8611  130.1204  155.2504 C   0  0  1  0  0  0  0  0  0  0  0  0
  151.5485  129.3556  155.5365 C   0  0  0  0  0  0  0  0  0  0  0  0
  150.4545  130.2443  155.9277 N   0  0  0  0  0  0  0  0  0  0  0  0
  149.4558  130.4812  155.0276 C   0  0  0  0  0  0  0  0  0  0  0  0
  148.7808  129.4196  154.5077 N   0  0  0  0  0  0  0  0  0  0  0  0
  147.8026  129.5968  153.6165 C   0  0  0  0  0  0  0  0  0  0  0  0
  147.3322  130.7372  153.1131 N   0  0  0  0  0  0  0  0  0  0  0  0
  147.9888  131.8126  153.6325 C   0  0  0  0  0  0  0  0  0  0  0  0
  149.0553  131.7779  154.5789 C   0  0  0  0  0  0  0  0  0  0  0  0
  149.4659  133.0782  154.8550 N   0  0  0  0  0  0  0  0  0  0  0  0
  148.7034  133.8295  154.1102 C   0  0  0  0  0  0  0  0  0  0  0  0
  147.7658  133.1524  153.3661 N   0  0  0  0  0  0  0  0  0  0  0  0
  146.8296  133.7206  152.4407 C   0  0  0  0  0  0  0  0  0  0  0  0
  145.4518  134.2052  152.8989 C   0  0  0  0  0  0  0  0  0  0  0  0
  144.8644  133.8055  151.5257 C   0  0  0  0  0  0  0  0  0  0  0  0
  143.4858  133.1259  151.5657 C   0  0  0  0  0  0  0  0  0  0  0  0
  143.1085  132.6560  150.2873 O   0  0  0  0  0  0  0  0  0  0  0  0
  144.8460  134.9250  150.4651 C   0  0  0  0  0  0  0  0  0  0  0  0
  144.1284  136.0543  150.9196 O   0  0  0  0  0  0  0  0  0  0  0  0
  146.0695  132.8431  151.4431 C   0  0  0  0  0  0  0  0  0  0  0  0
  150.1845  130.4966  157.3474 C   0  0  0  0  0  0  0  0  0  0  0  0
  151.4331  130.5908  158.2392 C   0  0  0  0  0  0  0  0  0  0  0  0
  152.6414  131.7883  157.4971 S   0  0  1  0  0  0  0  0  0  0  0  0
  153.5395  132.2787  158.6340 O   0  0  0  0  0  0  0  0  0  0  0  0
  153.6259  130.5528  156.5188 C   0  0  0  0  0  0  0  0  0  0  0  0
  154.0629  128.3371  154.8741 H   0  0  0  0  0  0  0  0  0  0  0  0
  154.6940  129.7951  154.1113 H   0  0  0  0  0  0  0  0  0  0  0  0
  153.2877  128.9905  153.4331 H   0  0  0  0  0  0  0  0  0  0  0  0
  152.6260  131.0190  154.6792 H   0  0  0  0  0  0  0  0  0  0  0  0
  151.2505  128.7756  154.6628 H   0  0  0  0  0  0  0  0  0  0  0  0
  151.7133  128.6108  156.3152 H   0  0  0  0  0  0  0  0  0  0  0  0
  147.3285  128.6959  153.2563 H   0  0  0  0  0  0  0  0  0  0  0  0
  148.8011  134.9053  154.0911 H   0  0  0  0  0  0  0  0  0  0  0  0
  147.3660  134.5177  151.9233 H   0  0  0  0  0  0  0  0  0  0  0  0
  145.0525  133.6090  153.7217 H   0  0  0  0  0  0  0  0  0  0  0  0
  145.4043  135.2693  153.1322 H   0  0  0  0  0  0  0  0  0  0  0  0
  143.4955  132.2716  152.2431 H   0  0  0  0  0  0  0  0  0  0  0  0
  142.7151  133.8009  151.9381 H   0  0  0  0  0  0  0  0  0  0  0  0
  142.6204  133.3364  149.8491 H   0  0  0  0  0  0  0  0  0  0  0  0
  145.8561  135.2510  150.2169 H   0  0  0  0  0  0  0  0  0  0  0  0
  144.4032  134.5819  149.5298 H   0  0  0  0  0  0  0  0  0  0  0  0
  144.1799  136.7278  150.2587 H   0  0  0  0  0  0  0  0  0  0  0  0
  146.5325  132.7720  150.4586 H   0  0  0  0  0  0  0  0  0  0  0  0
  145.8507  131.8511  151.8432 H   0  0  0  0  0  0  0  0  0  0  0  0
  149.6433  131.4396  157.4375 H   0  0  0  0  0  0  0  0  0  0  0  0
  149.5236  129.7176  157.7292 H   0  0  0  0  0  0  0  0  0  0  0  0
  151.1390  130.9593  159.2218 H   0  0  0  0  0  0  0  0  0  0  0  0
  151.9027  129.6203  158.3980 H   0  0  0  0  0  0  0  0  0  0  0  0
  153.8938  129.7007  157.1439 H   0  0  0  0  0  0  0  0  0  0  0  0
  154.5584  131.0393  156.2316 H   0  0  0  0  0  0  0  0  0  0  0  0
  1  2  1  0  0  0  0
  1 27  1  0  0  0  0
  1 28  1  0  0  0  0
  1 29  1  0  0  0  0
  2 26  1  0  0  0  0
  2  3  1  0  0  0  0
  2 30  1  0  0  0  0
  3  4  1  0  0  0  0
  3 31  1  0  0  0  0
  3 32  1  0  0  0  0
  4  5  1  0  0  0  0
  4 22  1  0  0  0  0
  5 10  1  0  0  0  0
  5  6  2  0  0  0  0
  6  7  1  0  0  0  0
  7  8  2  0  0  0  0
  7 33  1  0  0  0  0
  8  9  1  0  0  0  0
  9 13  1  0  0  0  0
  9 10  2  0  0  0  0
 10 11  1  0  0  0  0
 11 12  2  0  0  0  0
 12 13  1  0  0  0  0
 12 34  1  0  0  0  0
 13 14  1  0  0  0  0
 14 21  1  0  0  0  0
 14 15  1  0  0  0  0
 14 35  1  0  0  0  0
 15 16  1  0  0  0  0
 15 36  1  0  0  0  0
 15 37  1  0  0  0  0
 16 17  1  0  0  0  0
 16 19  1  0  0  0  0
 16 21  1  0  0  0  0
 17 18  1  0  0  0  0
 17 38  1  0  0  0  0
 17 39  1  0  0  0  0
 18 40  1  0  0  0  0
 19 20  1  0  0  0  0
 19 41  1  0  0  0  0
 19 42  1  0  0  0  0
 20 43  1  0  0  0  0
 21 44  1  0  0  0  0
 21 45  1  0  0  0  0
 22 23  1  0  0  0  0
 22 46  1  0  0  0  0
 22 47  1  0  0  0  0
 23 24  1  0  0  0  0
 23 48  1  0  0  0  0
 23 49  1  0  0  0  0
 24 25  2  0  0  0  0
 24 26  1  0  0  0  0
 26 50  1  0  0  0  0
 26 51  1  0  0  0  0
M  END
> <s_m_source_file>
AV-unprocessed.smi

> <i_m_source_file_index>
137

> <i_lp_mmshare_version>
43012

> <i_f3d_flags>
0

> <s_epik_input>
Tz1bU0BAXShbQ0gyXTEpW0NIMl1bQ0gyXU4oW0NIMl1bQ0BIXTFbQ0gzXSljKG5bY0hdbjIpYyhjMjMpbltjSF1uM1tDSF0oW0NIMl00KVtDSDJdQzQoW0NIMl1bT0hdKVtDSDJdW09IXQ==

> <s_epik_cmdline>
J2VwaWtfcHl0aG9uJywgJy1waCcsICc3LjAnLCAnLXRuJywgJzgnLCAnLW1hJywgJzIwMCcsICctbWV0YWxfYmluZGluZycsICctaW1hZScsICc8aW5maWxlLm1hZT4nLCAnLW9tYWUnLCAnPG91dGZpbGUubWFlPic=

> <r_lp_tautomer_probability>
1

> <r_epik_Ionization_Penalty>
0.000811024

> <r_epik_Ionization_Penalty_Charging>
0

> <r_epik_Ionization_Penalty_Neutral>
0.000811024

> <r_epik_State_Penalty>
0.000429598

> <r_epik_Charging_Adjusted_Penalty>
0.000429598

> <i_epik_Tot_Q>
0

> <i_epik_Tot_abs_Q>
0

> <r_epik_Metal_State_Penalty>
-0

> <b_epik_Metal_Only>
0

> <s_lp_Force_Field>
OPLS_2005

> <r_lp_Energy>
40.014

> <b_lp_Chiralities_Consistent>
1

> <s_lp_Variant>
AV-unprocessed.smi:137-2

> <Gold.Version>
5.8.1

> <Gold.Id.Protein>
6NUR|6NUR_protein|mol2

> <Gold.PLP.Fitness>
47.9839

> <Gold.PLP.PLP>
-39.9976

> <Gold.PLP.part.hbond>
-3.0660

> <Gold.PLP.part.metal>
0.0000

> <Gold.PLP.part.buried>
-5.1911

> <Gold.PLP.part.nonpolar>
-32.4348

> <Gold.PLP.part.repulsive>
0.2295

> <Gold.PLP.ligand.clash>
0.0000

> <Gold.PLP.ligand.torsion>
1.9935

> <Gold.PLP.Chemscore.Hbond>
2.9920

> <Gold.PLP.Chemscore.CHOScore>
0.8017

> <Gold.PLP.Chemscore.Metal>
0.0000

> <Gold.Chemscore.Hbonds>
donor molecule, donor type, donor heavy atom, donor atom, acceptor molecule, acceptor atom, score
      L1  H    18    40       P1 10186  1.00
      L1  H    20    43       P1 10171  0.96
      P1  H  6896  6907       L1    25  1.00
      L1  C    12    34       P1  7948  0.74

> <Gold.PLP.Chemscore.Internal.Correction>
0.5923

> <Gold.Rescore>
     Score         DG    S(hbond)    S(metal)    S(lipo)     H(rot)  DE(clash)    DE(int)     intcor
     11.46     -14.69       2.70        0.00      64.52       2.87       0.15       3.08       ----

> <Gold.Chemscore.Fitness>
11.4589

> <Gold.Chemscore.DG>
-14.6937

> <Gold.Chemscore.ZeroCoef>
-5.4800

> <Gold.Chemscore.Hbond>
2.7003

> <Gold.Chemscore.Metal>
0.0000

> <Gold.Chemscore.Lipo>
64.5151

> <Gold.Chemscore.Internal_Hbond>
0.0000

> <Gold.Chemscore.DEClash>
0.1526

> <Gold.Chemscore.DEInternal>
3.0821

> <Gold.Chemscore.Rot>
2.8725

> <Gold.Chemscore.Internal.Correction>
   9.000000E+99

> <Gold.Chemscore.Hbonds>
donor molecule, donor type, donor heavy atom, donor atom, acceptor molecule, acceptor atom, score
      L1  H    18    40       P1 10186  0.95
      L1  H    20    43       P1 10171  0.92
      P1  H  6896  6907       L1    25  0.39

> <Gold.Chemscore.Hbond.Weighted>
-9.0189

> <Gold.Chemscore.Metal.Weighted>
-0.0000

> <Gold.Chemscore.Lipo.Weighted>
-7.5483

> <Gold.Chemscore.Internal_Hbond.Weighted>
0.0000

> <Gold.Chemscore.DEClash.Weighted>
0.1526

> <Gold.Chemscore.DEInternal.Weighted>
3.0821

> <Gold.Chemscore.Rot.Weighted>
7.3535

> <Gold.Chemscore.Internal.Correction.Weighted>
   9.000000E+99

> <Gold.Protein.RotatedTorsions>
[ 6907 6896 6895 6894 ] final  130.50 input  -60.11 | X-H torsion
[ 7974 7965 7964 7962 ] final  -91.27 input  175.53 | X-H torsion
[ 8008 7997 7996 7995 ] final -158.92 input   59.86 | X-H torsion
[ 10167 10162 10161 10158 ] final  144.29 input  -65.29 | X-H torsion
[ 10718 10713 10712 10709 ] final  -28.64 input   66.30 | X-H torsion
[ 10763 10752 10751 10750 ] final   48.65 input  -60.55 | X-H torsion
[ 11005 11000 10999 10996 ] final  -37.61 input  -57.11 | X-H torsion

> <Gold.Protein.ActiveResidues>
 VAL166  LYS551  ARG553  GLY616  TRP617  ASP618  TYR619  PRO620  LYS621  CYS622 
 ASP623  PHE694  ASN695  SER759  ASP760  ASP761  ALA762  ILE779  LEU786  VAL792 
 PHE793  MET794  SER795  GLU796  ALA797  LYS798  CYS799  TRP800  GLU811  SER814 

> <Gold.Protein.RotatedAtoms>
  152.3519  133.6190  159.5951 H   0  0  0  0  0  0  0  0  0  0  0  0  # atno 6907 bound_to 6896
  150.7543  133.9560  159.3509 H   0  0  0  0  0  0  0  0  0  0  0  0  # atno 6908 bound_to 6896
  151.7411  135.0855  160.0367 H   0  0  0  0  0  0  0  0  0  0  0  0  # atno 6909 bound_to 6896
  145.4154  140.9548  143.2211 H   0  0  0  0  0  0  0  0  0  0  0  0  # atno 7974 bound_to 7965
  155.7549  140.0831  157.2183 H   0  0  0  0  0  0  0  0  0  0  0  0  # atno 8008 bound_to 7997
  154.4008  140.1553  156.2822 H   0  0  0  0  0  0  0  0  0  0  0  0  # atno 8009 bound_to 7997
  155.8895  140.3416  155.5949 H   0  0  0  0  0  0  0  0  0  0  0  0  # atno 8010 bound_to 7997
  139.4950  144.5982  151.6537 H   0  0  0  0  0  0  0  0  0  0  0  0  # atno 10167 bound_to 10162
  156.4226  130.4429  149.7173 H   0  0  0  0  0  0  0  0  0  0  0  0  # atno 10718 bound_to 10713
  152.9790  135.5937  154.3961 H   0  0  0  0  0  0  0  0  0  0  0  0  # atno 10763 bound_to 10752
  154.3611  135.2767  155.2321 H   0  0  0  0  0  0  0  0  0  0  0  0  # atno 10764 bound_to 10752
  154.4318  135.6034  153.6128 H   0  0  0  0  0  0  0  0  0  0  0  0  # atno 10765 bound_to 10752
  140.9965  133.6977  156.1944 H   0  0  0  0  0  0  0  0  0  0  0  0  # atno 11005 bound_to 11000
  144.8281  139.5675  143.6956 LP  0  0  0  0  0  0  0  0  0  0  0  0  # atno 17320 bound_to 7965
  146.2684  139.6575  142.9313 LP  0  0  0  0  0  0  0  0  0  0  0  0  # atno 17321 bound_to 7965
  140.5625  144.0244  150.6177 LP  0  0  0  0  0  0  0  0  0  0  0  0  # atno 17342 bound_to 10162
  140.3335  143.3063  152.0663 LP  0  0  0  0  0  0  0  0  0  0  0  0  # atno 17343 bound_to 10162
  156.4107  130.7721  151.2733 LP  0  0  0  0  0  0  0  0  0  0  0  0  # atno 17370 bound_to 10713
  157.7508  131.0212  150.3741 LP  0  0  0  0  0  0  0  0  0  0  0  0  # atno 17371 bound_to 10713
  140.6958  134.4617  157.5587 LP  0  0  0  0  0  0  0  0  0  0  0  0  # atno 17394 bound_to 11000
  139.9017  134.8540  156.1868 LP  0  0  0  0  0  0  0  0  0  0  0  0  # atno 17395 bound_to 11000

$$$$
