#       Name:                AV-unprocessed.smi:2910
#       Creating user name   scv26
#       Creation time:       Fri Mar 27 16:06:51 2020


#       File generated by GOLD software.
#

@<TRIPOS>MOLECULE
AV-unprocessed.smi:2910
    52    53     1
SMALL
NO_CHARGES


@<TRIPOS>ATOM
      1 ****        -5.0383   4.2815   0.3411 C.3            1 S1                 0.0000
      2 ****        -4.3892   2.9331   0.4448 C.2            1 S1                 0.0000
      3 ****        -2.9972   2.6275   0.4466 C.2            1 S1                 0.0000
      4 ****        -2.9883   1.2639   0.5582 C.2            1 S1                 0.0000
      5 ****        -1.9260   0.4165   0.6021 N.am           1 S1                 0.0000
      6 ****        -0.6147   0.7122   0.5851 C.2            1 S1                 0.0000
      7 ****        -0.1404   1.8478   0.5567 O.2            1 S1                 0.0000
      8 ****         0.1303  -0.4036   0.6064 N.am           1 S1                 0.0000
      9 ****         1.5946  -0.4633   0.5832 C.3            1 S1                 0.0000
     10 ****         2.0934  -1.0948   1.9052 C.3            1 S1                 0.0000
     11 ****         1.6213  -0.3607   3.1727 C.3            1 S1                 0.0000
     12 ****         2.1978  -0.9596   4.3130 O.3            1 S1                 0.0000
     13 ****         2.0764  -1.2179  -0.6902 C.3            1 S1                 0.0000
     14 ****         3.6203  -1.2529  -0.8111 C.3            1 S1                 0.0000
     15 ****         4.0946  -1.9801  -2.0798 C.3            1 S1                 0.0000
     16 ****         3.4845  -1.3591  -3.3421 C.3            1 S1                 0.0000
     17 ****         1.9541  -1.3497  -3.2515 C.3            1 S1                 0.0000
     18 ****         1.4757  -0.6175  -1.9881 C.3            1 S1                 0.0000
     19 ****        -4.2885   0.8140   0.6164 N.pl3          1 S1                 0.0000
     20 ****        -4.7894  -0.5414   0.7360 C.3            1 S1                 0.0000
     21 ****        -5.1518   1.8504   0.5475 N.2            1 S1                 0.0000
     22 ****        -4.2921   5.0740   0.2813 H              1 S1                 0.0000
     23 ****        -5.6677   4.4830   1.2082 H              1 S1                 0.0000
     24 ****        -5.6639   4.3479  -0.5493 H              1 S1                 0.0000
     25 ****        -2.1636   3.3095   0.3743 H              1 S1                 0.0000
     26 ****        -2.1604  -0.5642   0.6438 H              1 S1                 0.0000
     27 ****        -0.3524  -1.2900   0.6300 H              1 S1                 0.0000
     28 ****         2.0019   0.5482   0.5344 H              1 S1                 0.0000
     29 ****         1.7811  -2.1391   1.9529 H              1 S1                 0.0000
     30 ****         3.1824  -1.1008   1.9207 H              1 S1                 0.0000
     31 ****         1.9103   0.6902   3.1387 H              1 S1                 0.0000
     32 ****         0.5367  -0.3992   3.2742 H              1 S1                 0.0000
     33 ****         1.9098  -0.4868   5.0791 H              1 S1                 0.0000
     34 ****         1.7281  -2.2494  -0.6161 H              1 S1                 0.0000
     35 ****         4.0122  -0.2348  -0.8083 H              1 S1                 0.0000
     36 ****         4.0654  -1.7573   0.0452 H              1 S1                 0.0000
     37 ****         5.1827  -1.9481  -2.1403 H              1 S1                 0.0000
     38 ****         3.8195  -3.0340  -2.0211 H              1 S1                 0.0000
     39 ****         3.8525  -0.3398  -3.4661 H              1 S1                 0.0000
     40 ****         3.8036  -1.9146  -4.2244 H              1 S1                 0.0000
     41 ****         1.5331  -0.8738  -4.1375 H              1 S1                 0.0000
     42 ****         1.5808  -2.3747  -3.2437 H              1 S1                 0.0000
     43 ****         0.3868  -0.6583  -1.9676 H              1 S1                 0.0000
     44 ****         1.7404   0.4385  -2.0584 H              1 S1                 0.0000
     45 ****        -4.3749  -1.1565  -0.0633 H              1 S1                 0.0000
     46 ****        -5.8781  -0.5571   0.6644 H              1 S1                 0.0000
     47 ****        -4.4911  -0.9575   1.6986 H              1 S1                 0.0000
     48 ****        -0.7469   2.6428   0.5444 LP             1 S1                 0.0000
     49 ****         0.8513   1.9753   0.5459 LP             1 S1                 0.0000
     50 ****         3.1948  -0.9195   4.2471 LP             1 S1                 0.0000
     51 ****         1.9060  -1.9140   4.3764 LP             1 S1                 0.0000
     52 ****        -6.1508   1.8110   0.5691 LP             1 S1                 0.0000
@<TRIPOS>BOND
    1    1    2 1     
    2    1   22 1     
    3    1   23 1     
    4    1   24 1     
    5    2   21 2     
    6    2    3 1     
    7    3    4 2     
    8    3   25 1     
    9    4    5 1     
   10    4   19 1     
   11    5    6 am    
   12    5   26 1     
   13    6    7 2     
   14    6    8 am    
   15    8    9 1     
   16    8   27 1     
   17    9   10 1     
   18    9   13 1     
   19    9   28 1     
   20   10   11 1     
   21   10   29 1     
   22   10   30 1     
   23   11   12 1     
   24   11   31 1     
   25   11   32 1     
   26   12   33 1     
   27   13   18 1     
   28   13   14 1     
   29   13   34 1     
   30   14   15 1     
   31   14   35 1     
   32   14   36 1     
   33   15   16 1     
   34   15   37 1     
   35   15   38 1     
   36   16   17 1     
   37   16   39 1     
   38   16   40 1     
   39   17   18 1     
   40   17   41 1     
   41   17   42 1     
   42   18   43 1     
   43   18   44 1     
   44   19   20 1     
   45   19   21 1     
   46   20   45 1     
   47   20   46 1     
   48   20   47 1     
   49    7   48 1     
   50    7   49 1     
   51   12   50 1     
   52   12   51 1     
   53   21   52 1     
@<TRIPOS>SUBSTRUCTURE
      1 S1             1
@<TRIPOS>SET
LONE_PAIRS      STATIC     ATOMS    <user>   **** ""
5 48 49 50 51 52
DONOR_HYDROGENS      STATIC     ATOMS    <user>   **** ""
3 26 27 33
ATOM$BLUE        STATIC     ATOMS    COLORGROUP SYSTEM
5 48 49 50 51 52
ATOM$RED        STATIC     ATOMS    COLORGROUP SYSTEM
3 26 27 33
