AV-unprocessed.smi:2706|AV-procd|sdf|10447|dock5
  -GOLD-   2272014493D 1   1.00000     0.00000
 Structure written by MMmdl.
 43 46  0  0  0  0  0  0  0  0  1 V2000
  152.5541  144.9134  157.8779 C   0  0  0  0  0  0  0  0  0  0  0  0
  152.3400  144.2834  159.1772 N   0  0  0  0  0  0  0  0  0  0  0  0
  151.9533  145.0951  160.3242 C   0  0  0  0  0  0  0  0  0  0  0  0
  152.4527  142.8801  159.3031 C   0  0  0  0  0  0  0  0  0  0  0  0
  153.2675  142.2873  160.2975 C   0  0  0  0  0  0  0  0  0  0  0  0
  153.3368  140.8846  160.3726 C   0  0  0  0  0  0  0  0  0  0  0  0
  152.5957  140.1144  159.4585 C   0  0  0  0  0  0  0  0  0  0  0  0
  151.8044  140.7681  158.4908 C   0  0  0  0  0  0  0  0  0  0  0  0
  151.0909  139.9111  157.6113 N   0  0  0  0  0  0  0  0  0  0  0  0
  150.8761  140.0676  156.2929 C   0  0  0  0  0  0  0  0  0  0  0  0
  151.2878  141.0066  155.6106 O   0  0  0  0  0  0  0  0  0  0  0  0
  150.1458  139.0575  155.8014 N   0  0  0  0  0  0  0  0  0  0  0  0
  149.7404  138.9033  154.4414 C   0  0  2  0  0  0  0  0  0  0  0  0
  149.1726  140.0664  153.6482 C   0  0  2  0  0  0  0  0  0  0  0  0
  148.3664  141.2915  154.0944 C   0  0  2  0  0  0  0  0  0  0  0  0
  148.2944  141.4498  155.6266 C   0  0  0  0  0  0  0  0  0  0  0  0
  147.3820  140.2735  156.0377 C   0  0  0  0  0  0  0  0  0  0  0  0
  147.0653  139.6118  154.6813 C   0  0  1  0  0  0  0  0  0  0  0  0
  146.9396  140.8457  153.7947 C   0  0  0  0  0  0  0  0  0  0  0  0
  148.2720  138.9025  154.0553 C   0  0  2  0  0  0  0  0  0  0  0  0
  151.7472  142.1205  158.4305 N   0  0  0  0  0  0  0  0  0  0  0  0
  153.5507  144.6840  157.4990 H   0  0  0  0  0  0  0  0  0  0  0  0
  152.4642  145.9977  157.9407 H   0  0  0  0  0  0  0  0  0  0  0  0
  151.8192  144.5572  157.1554 H   0  0  0  0  0  0  0  0  0  0  0  0
  152.7008  145.0205  161.1144 H   0  0  0  0  0  0  0  0  0  0  0  0
  150.9906  144.7695  160.7195 H   0  0  0  0  0  0  0  0  0  0  0  0
  151.8607  146.1464  160.0520 H   0  0  0  0  0  0  0  0  0  0  0  0
  153.8379  142.8767  160.9992 H   0  0  0  0  0  0  0  0  0  0  0  0
  153.9507  140.4063  161.1213 H   0  0  0  0  0  0  0  0  0  0  0  0
  152.6380  139.0357  159.5037 H   0  0  0  0  0  0  0  0  0  0  0  0
  150.6970  139.0847  158.0360 H   0  0  0  0  0  0  0  0  0  0  0  0
  149.8539  138.3319  156.4396 H   0  0  0  0  0  0  0  0  0  0  0  0
  150.3519  138.2180  153.8560 H   0  0  0  0  0  0  0  0  0  0  0  0
  149.4542  140.0987  152.5971 H   0  0  0  0  0  0  0  0  0  0  0  0
  148.6774  142.1963  153.5713 H   0  0  0  0  0  0  0  0  0  0  0  0
  149.2731  141.4434  156.1046 H   0  0  0  0  0  0  0  0  0  0  0  0
  147.8224  142.3979  155.8873 H   0  0  0  0  0  0  0  0  0  0  0  0
  147.8332  139.5883  156.7542 H   0  0  0  0  0  0  0  0  0  0  0  0
  146.4675  140.6520  156.4961 H   0  0  0  0  0  0  0  0  0  0  0  0
  146.1812  138.9741  154.6971 H   0  0  0  0  0  0  0  0  0  0  0  0
  146.1762  141.5525  154.1259 H   0  0  0  0  0  0  0  0  0  0  0  0
  146.7732  140.6067  152.7425 H   0  0  0  0  0  0  0  0  0  0  0  0
  147.9982  138.2164  153.2557 H   0  0  0  0  0  0  0  0  0  0  0  0
  1  2  1  0  0  0  0
  1 22  1  0  0  0  0
  1 23  1  0  0  0  0
  1 24  1  0  0  0  0
  2  3  1  0  0  0  0
  2  4  1  0  0  0  0
  3 25  1  0  0  0  0
  3 26  1  0  0  0  0
  3 27  1  0  0  0  0
  4 21  1  0  0  0  0
  4  5  2  0  0  0  0
  5  6  1  0  0  0  0
  5 28  1  0  0  0  0
  6  7  2  0  0  0  0
  6 29  1  0  0  0  0
  7  8  1  0  0  0  0
  7 30  1  0  0  0  0
  8  9  1  0  0  0  0
  8 21  2  0  0  0  0
  9 10  1  0  0  0  0
  9 31  1  0  0  0  0
 10 11  2  0  0  0  0
 10 12  1  0  0  0  0
 12 13  1  0  0  0  0
 12 32  1  0  0  0  0
 13 20  1  0  0  0  0
 13 14  1  0  0  0  0
 13 33  1  0  0  0  0
 14 20  1  0  0  0  0
 14 15  1  0  0  0  0
 14 34  1  0  0  0  0
 15 19  1  0  0  0  0
 15 16  1  0  0  0  0
 15 35  1  0  0  0  0
 16 17  1  0  0  0  0
 16 36  1  0  0  0  0
 16 37  1  0  0  0  0
 17 18  1  0  0  0  0
 17 38  1  0  0  0  0
 17 39  1  0  0  0  0
 18 19  1  0  0  0  0
 18 20  1  0  0  0  0
 18 40  1  0  0  0  0
 19 41  1  0  0  0  0
 19 42  1  0  0  0  0
 20 43  1  0  0  0  0
M  END
> <s_m_source_file>
AV-unprocessed.smi

> <i_m_source_file_index>
2706

> <i_lp_mmshare_version>
43012

> <i_f3d_flags>
0

> <s_epik_input>
W0NIM11OKFtDSDNdKWMxW2NIXVtjSF1bY0hdYyhuMSlbTkhdQyg9TylbTkhdW0NASF0yW0NAQEhdM1tDQEBIXShbQ0gyXTQpW0NIMl1bQ0gyXVtDQEBIXTRbQ0BIXTIz

> <s_epik_cmdline>
J2VwaWtfcHl0aG9uJywgJy1waCcsICc3LjAnLCAnLXRuJywgJzgnLCAnLW1hJywgJzIwMCcsICctbWV0YWxfYmluZGluZycsICctaW1hZScsICc8aW5maWxlLm1hZT4nLCAnLW9tYWUnLCAnPG91dGZpbGUubWFlPic=

> <r_lp_tautomer_probability>
1

> <r_epik_Ionization_Penalty>
0.0296788

> <r_epik_Ionization_Penalty_Charging>
0

> <r_epik_Ionization_Penalty_Neutral>
0.0296788

> <r_epik_State_Penalty>
0.0248512

> <r_epik_Charging_Adjusted_Penalty>
0.0248512

> <i_epik_Tot_Q>
0

> <i_epik_Tot_abs_Q>
0

> <r_epik_Metal_State_Penalty>
0.0237882

> <b_epik_Metal_Only>
0

> <s_lp_Force_Field>
OPLS_2005

> <r_lp_Energy>
85.7316

> <b_lp_Chiralities_Consistent>
1

> <s_lp_Variant>
AV-unprocessed.smi:2706-4

> <Gold.Version>
5.8.1

> <Gold.Id.Protein>
6NUR|6NUR_protein|mol2

> <Gold.PLP.Fitness>
41.0046

> <Gold.PLP.PLP>
-42.1931

> <Gold.PLP.part.hbond>
-1.0000

> <Gold.PLP.part.metal>
0.0000

> <Gold.PLP.part.buried>
0.4436

> <Gold.PLP.part.nonpolar>
-41.2220

> <Gold.PLP.part.repulsive>
0.1329

> <Gold.PLP.ligand.clash>
0.0000

> <Gold.PLP.ligand.torsion>
1.3433

> <Gold.PLP.Chemscore.Hbond>
0.4742

> <Gold.PLP.Chemscore.CHOScore>
0.0000

> <Gold.PLP.Chemscore.Metal>
0.0000

> <Gold.Chemscore.Hbonds>
donor molecule, donor type, donor heavy atom, donor atom, acceptor molecule, acceptor atom, score
      P1  H  7989  7998       L1    11  0.47

> <Gold.PLP.Chemscore.Internal.Correction>
0.0754

> <Gold.Rescore>
     Score         DG    S(hbond)    S(metal)    S(lipo)     H(rot)  DE(clash)    DE(int)     intcor
     13.00     -16.61       0.68        0.00      97.50       1.00       1.72       1.89       ----

> <Gold.Chemscore.Fitness>
12.9959

> <Gold.Chemscore.DG>
-16.6066

> <Gold.Chemscore.ZeroCoef>
-5.4800

> <Gold.Chemscore.Hbond>
0.6824

> <Gold.Chemscore.Metal>
0.0000

> <Gold.Chemscore.Lipo>
97.4995

> <Gold.Chemscore.Internal_Hbond>
0.0000

> <Gold.Chemscore.DEClash>
1.7180

> <Gold.Chemscore.DEInternal>
1.8927

> <Gold.Chemscore.Rot>
1.0000

> <Gold.Chemscore.Internal.Correction>
   9.000000E+99

> <Gold.Chemscore.Hbonds>
donor molecule, donor type, donor heavy atom, donor atom, acceptor molecule, acceptor atom, score
      P1  H  7989  7998       L1    11  0.46

> <Gold.Chemscore.Hbond.Weighted>
-2.2792

> <Gold.Chemscore.Metal.Weighted>
-0.0000

> <Gold.Chemscore.Lipo.Weighted>
-11.4074

> <Gold.Chemscore.Internal_Hbond.Weighted>
0.0000

> <Gold.Chemscore.DEClash.Weighted>
1.7180

> <Gold.Chemscore.DEInternal.Weighted>
1.8927

> <Gold.Chemscore.Rot.Weighted>
2.5600

> <Gold.Chemscore.Internal.Correction.Weighted>
   9.000000E+99

> <Gold.Protein.RotatedTorsions>
[ 6907 6896 6895 6894 ] final  150.69 input  -60.11 | X-H torsion
[ 7974 7965 7964 7962 ] final  107.10 input  175.53 | X-H torsion
[ 8008 7997 7996 7995 ] final  175.56 input   59.86 | X-H torsion
[ 10167 10162 10161 10158 ] final   73.05 input  -65.29 | X-H torsion
[ 10718 10713 10712 10709 ] final   49.91 input   66.30 | X-H torsion
[ 10763 10752 10751 10750 ] final  152.91 input  -60.55 | X-H torsion
[ 11005 11000 10999 10996 ] final  -88.02 input  -57.11 | X-H torsion

> <Gold.Protein.ActiveResidues>
 VAL166  LYS551  ARG553  GLY616  TRP617  ASP618  TYR619  PRO620  LYS621  CYS622 
 ASP623  PHE694  ASN695  SER759  ASP760  ASP761  ALA762  ILE779  LEU786  VAL792 
 PHE793  MET794  SER795  GLU796  ALA797  LYS798  CYS799  TRP800  GLU811  SER814 

> <Gold.Protein.RotatedAtoms>
  152.1109  133.4300  159.4630 H   0  0  0  0  0  0  0  0  0  0  0  0  # atno 6907 bound_to 6896
  150.6867  134.2649  159.4573 H   0  0  0  0  0  0  0  0  0  0  0  0  # atno 6908 bound_to 6896
  152.0518  134.9648  160.0625 H   0  0  0  0  0  0  0  0  0  0  0  0  # atno 6909 bound_to 6896
  145.2980  139.2578  143.3829 H   0  0  0  0  0  0  0  0  0  0  0  0  # atno 7974 bound_to 7965
  156.0857  140.1406  156.9656 H   0  0  0  0  0  0  0  0  0  0  0  0  # atno 8008 bound_to 7997
  154.4611  140.0943  156.6944 H   0  0  0  0  0  0  0  0  0  0  0  0  # atno 8009 bound_to 7997
  155.5002  140.3450  155.4372 H   0  0  0  0  0  0  0  0  0  0  0  0  # atno 8010 bound_to 7997
  140.0286  144.5483  150.7524 H   0  0  0  0  0  0  0  0  0  0  0  0  # atno 10167 bound_to 10162
  157.4833  130.8329  149.8118 H   0  0  0  0  0  0  0  0  0  0  0  0  # atno 10718 bound_to 10713
  154.1277  135.2828  155.3193 H   0  0  0  0  0  0  0  0  0  0  0  0  # atno 10763 bound_to 10752
  154.6378  135.5413  153.7757 H   0  0  0  0  0  0  0  0  0  0  0  0  # atno 10764 bound_to 10752
  153.0292  135.6479  154.1428 H   0  0  0  0  0  0  0  0  0  0  0  0  # atno 10765 bound_to 10752
  141.1608  133.7545  156.9390 H   0  0  0  0  0  0  0  0  0  0  0  0  # atno 11005 bound_to 11000
  146.3162  140.3487  142.8654 LP  0  0  0  0  0  0  0  0  0  0  0  0  # atno 17320 bound_to 7965
  144.9117  140.7765  143.5803 LP  0  0  0  0  0  0  0  0  0  0  0  0  # atno 17321 bound_to 7965
  140.7312  143.2691  151.3946 LP  0  0  0  0  0  0  0  0  0  0  0  0  # atno 17342 bound_to 10162
  139.6091  144.1135  152.2280 LP  0  0  0  0  0  0  0  0  0  0  0  0  # atno 17343 bound_to 10162
  156.0133  130.3824  150.2192 LP  0  0  0  0  0  0  0  0  0  0  0  0  # atno 17370 bound_to 10713
  157.0378  131.0026  151.3292 LP  0  0  0  0  0  0  0  0  0  0  0  0  # atno 17371 bound_to 10713
  140.1334  134.9341  157.2369 LP  0  0  0  0  0  0  0  0  0  0  0  0  # atno 17394 bound_to 11000
  140.2924  134.3225  155.7311 LP  0  0  0  0  0  0  0  0  0  0  0  0  # atno 17395 bound_to 11000

$$$$
