AV-unprocessed.smi:1824|AV-procd|sdf|7408|dock1
  -GOLD-   22720 9 83D 1   1.00000     0.00000
 Structure written by MMmdl.
 45 47  0  0  0  0  0  0  0  0  2 V2000
  146.3510  136.9870  155.9376 C   0  0  0  0  0  0  0  0  0  0  0  0
  147.3737  138.1003  155.6883 C   0  0  1  0  0  0  0  0  0  0  0  0
  148.7540  137.5451  155.2877 C   0  0  0  0  0  0  0  0  0  0  0  0
  149.7026  138.6125  154.9756 N   0  0  0  0  0  0  0  0  0  0  0  0
  151.0160  138.1062  154.5736 C   0  0  0  0  0  0  0  0  0  0  0  0
  152.2180  138.9797  154.9846 C   0  0  2  0  0  0  0  0  0  0  0  0
  153.3967  138.2142  154.8309 O   0  0  0  0  0  0  0  0  0  0  0  0
  152.0974  139.4530  156.4464 C   0  0  0  0  0  0  0  0  0  0  0  0
  151.4545  140.7695  156.5709 N   0  0  0  0  0  0  0  0  0  0  0  0
  150.5541  141.3758  155.7505 C   0  0  0  0  0  0  0  0  0  0  0  0
  150.2544  142.5886  156.2924 N   0  3  0  0  0  0  0  0  0  0  0  0
  150.9747  142.7613  157.4763 C   0  0  0  0  0  0  0  0  0  0  0  0
  151.0078  143.8218  158.3758 C   0  0  0  0  0  0  0  0  0  0  0  0
  151.8596  143.6822  159.4911 C   0  0  0  0  0  0  0  0  0  0  0  0
  151.9302  144.6854  160.3976 F   0  0  0  0  0  0  0  0  0  0  0  0
  152.6385  142.5206  159.6789 C   0  0  0  0  0  0  0  0  0  0  0  0
  153.4451  142.4281  160.7624 F   0  0  0  0  0  0  0  0  0  0  0  0
  152.5952  141.4514  158.7602 C   0  0  0  0  0  0  0  0  0  0  0  0
  151.7494  141.5968  157.6613 C   0  0  0  0  0  0  0  0  0  0  0  0
  149.1309  139.4567  153.9324 C   0  0  0  0  0  0  0  0  0  0  0  0
  147.7531  140.0180  154.3314 C   0  0  1  0  0  0  0  0  0  0  0  0
  147.1155  140.8418  153.2079 C   0  0  0  0  0  0  0  0  0  0  0  0
  146.8833  138.9330  154.6415 O   0  0  0  0  0  0  0  0  0  0  0  0
  146.6769  136.3290  156.7434 H   0  0  0  0  0  0  0  0  0  0  0  0
  146.2047  136.3781  155.0451 H   0  0  0  0  0  0  0  0  0  0  0  0
  145.3838  137.4034  156.2197 H   0  0  0  0  0  0  0  0  0  0  0  0
  147.4706  138.6965  156.5973 H   0  0  0  0  0  0  0  0  0  0  0  0
  149.1281  136.9297  156.1047 H   0  0  0  0  0  0  0  0  0  0  0  0
  148.6432  136.8864  154.4248 H   0  0  0  0  0  0  0  0  0  0  0  0
  151.1475  137.1015  154.9783 H   0  0  0  0  0  0  0  0  0  0  0  0
  151.0407  137.9913  153.4888 H   0  0  0  0  0  0  0  0  0  0  0  0
  152.2941  139.8594  154.3469 H   0  0  0  0  0  0  0  0  0  0  0  0
  153.8147  138.1422  155.6761 H   0  0  0  0  0  0  0  0  0  0  0  0
  151.4884  138.7474  157.0130 H   0  0  0  0  0  0  0  0  0  0  0  0
  153.0703  139.4776  156.9382 H   0  0  0  0  0  0  0  0  0  0  0  0
  150.1498  140.9683  154.8351 H   0  0  0  0  0  0  0  0  0  0  0  0
  150.4150  144.7135  158.2352 H   0  0  0  0  0  0  0  0  0  0  0  0
  153.2010  140.5704  158.9111 H   0  0  0  0  0  0  0  0  0  0  0  0
  149.8069  140.2856  153.7183 H   0  0  0  0  0  0  0  0  0  0  0  0
  149.0361  138.8856  153.0073 H   0  0  0  0  0  0  0  0  0  0  0  0
  147.8584  140.6509  155.2145 H   0  0  0  0  0  0  0  0  0  0  0  0
  147.7436  141.6914  152.9390 H   0  0  0  0  0  0  0  0  0  0  0  0
  146.1442  141.2309  153.5137 H   0  0  0  0  0  0  0  0  0  0  0  0
  146.9660  140.2385  152.3119 H   0  0  0  0  0  0  0  0  0  0  0  0
  149.6063  143.2483  155.8811 H   0  0  0  0  0  0  0  0  0  0  0  0
  1  2  1  0  0  0  0
  1 24  1  0  0  0  0
  1 25  1  0  0  0  0
  1 26  1  0  0  0  0
  2 23  1  0  0  0  0
  2  3  1  0  0  0  0
  2 27  1  0  0  0  0
  3  4  1  0  0  0  0
  3 28  1  0  0  0  0
  3 29  1  0  0  0  0
  4  5  1  0  0  0  0
  4 20  1  0  0  0  0
  5  6  1  0  0  0  0
  5 30  1  0  0  0  0
  5 31  1  0  0  0  0
  6  7  1  0  0  0  0
  6  8  1  0  0  0  0
  6 32  1  0  0  0  0
  7 33  1  0  0  0  0
  8  9  1  0  0  0  0
  8 34  1  0  0  0  0
  8 35  1  0  0  0  0
  9 19  1  0  0  0  0
  9 10  1  0  0  0  0
 10 11  2  0  0  0  0
 10 36  1  0  0  0  0
 11 12  1  0  0  0  0
 11 45  1  0  0  0  0
 12 19  2  0  0  0  0
 12 13  1  0  0  0  0
 13 14  2  0  0  0  0
 13 37  1  0  0  0  0
 14 15  1  0  0  0  0
 14 16  1  0  0  0  0
 16 17  1  0  0  0  0
 16 18  2  0  0  0  0
 18 19  1  0  0  0  0
 18 38  1  0  0  0  0
 20 21  1  0  0  0  0
 20 39  1  0  0  0  0
 20 40  1  0  0  0  0
 21 22  1  0  0  0  0
 21 23  1  0  0  0  0
 21 41  1  0  0  0  0
 22 42  1  0  0  0  0
 22 43  1  0  0  0  0
 22 44  1  0  0  0  0
M  CHG  1  11   1
M  END
> <s_m_source_file>
AV-unprocessed.smi

> <i_m_source_file_index>
1824

> <i_lp_mmshare_version>
43012

> <i_f3d_flags>
0

> <s_epik_input>
W0NIM11bQ0BASF0xW0NIMl1OKFtDSDJdW0NASF0oTzEpW0NIM10pW0NIMl1bQ0BIXShbT0hdKVtDSDJdbihbY0hdbjIpYyhjMjMpW2NIXWMoRiljKEYpW2NIXTM=

> <s_epik_cmdline>
J2VwaWtfcHl0aG9uJywgJy1waCcsICc3LjAnLCAnLXRuJywgJzgnLCAnLW1hJywgJzIwMCcsICctbWV0YWxfYmluZGluZycsICctaW1hZScsICc8aW5maWxlLm1hZT4nLCAnLW9tYWUnLCAnPG91dGZpbGUubWFlPic=

> <r_epik_Ionization_Penalty>
2.58709

> <r_epik_Ionization_Penalty_Charging>
2.37273

> <r_epik_Ionization_Penalty_Neutral>
0.214359

> <r_epik_State_Penalty>
2.71799

> <r_epik_Charging_Adjusted_Penalty>
5.09071

> <i_epik_Tot_Q>
1

> <i_epik_Tot_abs_Q>
1

> <r_epik_Metal_State_Penalty>
6.80217

> <b_epik_Metal_Only>
0

> <s_lp_Force_Field>
OPLS_2005

> <r_lp_Energy>
32.0118

> <b_lp_Chiralities_Consistent>
1

> <s_lp_Variant>
AV-unprocessed.smi:1824-16

> <Gold.Version>
5.8.1

> <Gold.Id.Protein>
6NUR|6NUR_protein|mol2

> <Gold.PLP.Fitness>
49.2863

> <Gold.PLP.PLP>
-45.7896

> <Gold.PLP.part.hbond>
-1.8916

> <Gold.PLP.part.metal>
0.0000

> <Gold.PLP.part.buried>
-4.8688

> <Gold.PLP.part.nonpolar>
-39.4648

> <Gold.PLP.part.repulsive>
0.3088

> <Gold.PLP.ligand.clash>
0.0000

> <Gold.PLP.ligand.torsion>
1.3271

> <Gold.PLP.Chemscore.Hbond>
2.0000

> <Gold.PLP.Chemscore.CHOScore>
0.0000

> <Gold.PLP.Chemscore.Metal>
0.0000

> <Gold.Chemscore.Hbonds>
donor molecule, donor type, donor heavy atom, donor atom, acceptor molecule, acceptor atom, score
      L1  H    11    45       P1  8028  2.00

> <Gold.PLP.Chemscore.Internal.Correction>
0.1508

> <Gold.Rescore>
     Score         DG    S(hbond)    S(metal)    S(lipo)     H(rot)  DE(clash)    DE(int)     intcor
     13.21     -14.58       0.99        0.00     100.37       2.32       0.08       1.29       ----

> <Gold.Chemscore.Fitness>
13.2060

> <Gold.Chemscore.DG>
-14.5763

> <Gold.Chemscore.ZeroCoef>
-5.4800

> <Gold.Chemscore.Hbond>
0.9864

> <Gold.Chemscore.Metal>
0.0000

> <Gold.Chemscore.Lipo>
100.3705

> <Gold.Chemscore.Internal_Hbond>
0.0000

> <Gold.Chemscore.DEClash>
0.0790

> <Gold.Chemscore.DEInternal>
1.2913

> <Gold.Chemscore.Rot>
2.3210

> <Gold.Chemscore.Internal.Correction>
   9.000000E+99

> <Gold.Chemscore.Hbonds>
donor molecule, donor type, donor heavy atom, donor atom, acceptor molecule, acceptor atom, score
      L1  H    11    45       P1  8028  0.98

> <Gold.Chemscore.Hbond.Weighted>
-3.2946

> <Gold.Chemscore.Metal.Weighted>
-0.0000

> <Gold.Chemscore.Lipo.Weighted>
-11.7434

> <Gold.Chemscore.Internal_Hbond.Weighted>
0.0000

> <Gold.Chemscore.DEClash.Weighted>
0.0790

> <Gold.Chemscore.DEInternal.Weighted>
1.2913

> <Gold.Chemscore.Rot.Weighted>
5.9416

> <Gold.Chemscore.Internal.Correction.Weighted>
   9.000000E+99

> <Gold.Protein.RotatedTorsions>
[ 6907 6896 6895 6894 ] final  -50.87 input  -60.11 | X-H torsion
[ 7974 7965 7964 7962 ] final  -49.93 input  175.53 | X-H torsion
[ 8008 7997 7996 7995 ] final  132.76 input   59.86 | X-H torsion
[ 10167 10162 10161 10158 ] final -169.37 input  -65.29 | X-H torsion
[ 10718 10713 10712 10709 ] final   16.61 input   66.30 | X-H torsion
[ 10763 10752 10751 10750 ] final  155.94 input  -60.55 | X-H torsion
[ 11005 11000 10999 10996 ] final  166.12 input  -57.11 | X-H torsion

> <Gold.Protein.ActiveResidues>
 VAL166  LYS551  ARG553  GLY616  TRP617  ASP618  TYR619  PRO620  LYS621  CYS622 
 ASP623  PHE694  ASN695  SER759  ASP760  ASP761  ALA762  ILE779  LEU786  VAL792 
 PHE793  MET794  SER795  GLU796  ALA797  LYS798  CYS799  TRP800  GLU811  SER814 

> <Gold.Protein.RotatedAtoms>
  150.8666  134.8030  159.7122 H   0  0  0  0  0  0  0  0  0  0  0  0  # atno 6907 bound_to 6896
  152.4685  134.5014  159.9736 H   0  0  0  0  0  0  0  0  0  0  0  0  # atno 6908 bound_to 6896
  151.5110  133.3446  159.2920 H   0  0  0  0  0  0  0  0  0  0  0  0  # atno 6909 bound_to 6896
  145.9352  140.7712  142.9579 H   0  0  0  0  0  0  0  0  0  0  0  0  # atno 7974 bound_to 7965
  156.2986  140.2538  156.3143 H   0  0  0  0  0  0  0  0  0  0  0  0  # atno 8008 bound_to 7997
  154.9296  140.0398  157.2060 H   0  0  0  0  0  0  0  0  0  0  0  0  # atno 8009 bound_to 7997
  154.8231  140.2863  155.5777 H   0  0  0  0  0  0  0  0  0  0  0  0  # atno 8010 bound_to 7997
  139.5927  144.1178  152.1653 H   0  0  0  0  0  0  0  0  0  0  0  0  # atno 10167 bound_to 10162
  157.0703  130.6345  149.5804 H   0  0  0  0  0  0  0  0  0  0  0  0  # atno 10718 bound_to 10713
  154.1764  135.2802  155.3065 H   0  0  0  0  0  0  0  0  0  0  0  0  # atno 10763 bound_to 10752
  154.6036  135.5521  153.7403 H   0  0  0  0  0  0  0  0  0  0  0  0  # atno 10764 bound_to 10752
  153.0150  135.6398  154.1904 H   0  0  0  0  0  0  0  0  0  0  0  0  # atno 10765 bound_to 10752
  140.2631  134.7886  157.3608 H   0  0  0  0  0  0  0  0  0  0  0  0  # atno 11005 bound_to 11000
  144.6770  140.2192  143.7368 LP  0  0  0  0  0  0  0  0  0  0  0  0  # atno 17320 bound_to 7965
  145.8372  139.2113  143.1848 LP  0  0  0  0  0  0  0  0  0  0  0  0  # atno 17321 bound_to 7965
  140.0756  144.5743  150.7159 LP  0  0  0  0  0  0  0  0  0  0  0  0  # atno 17342 bound_to 10162
  140.7186  143.2568  151.4352 LP  0  0  0  0  0  0  0  0  0  0  0  0  # atno 17343 bound_to 10162
  155.9952  130.5018  150.7451 LP  0  0  0  0  0  0  0  0  0  0  0  0  # atno 17370 bound_to 10713
  157.4884  131.0908  151.0456 LP  0  0  0  0  0  0  0  0  0  0  0  0  # atno 17371 bound_to 10713
  140.1445  134.4929  155.8006 LP  0  0  0  0  0  0  0  0  0  0  0  0  # atno 17394 bound_to 11000
  141.2187  133.6838  156.7270 LP  0  0  0  0  0  0  0  0  0  0  0  0  # atno 17395 bound_to 11000

$$$$
