AV-unprocessed.smi:887|AV-procd|sdf|4053|dock2
  -GOLD-   22720 1543D 1   1.00000     0.00000
 Structure written by MMmdl.
 31 32  0  0  0  0  0  0  0  0  1 V2000
  147.1632  138.7299  153.2984 C   0  0  0  0  0  0  0  0  0  0  0  0
  148.6056  138.8921  153.3963 N   0  0  0  0  0  0  0  0  0  0  0  0
  149.3292  138.5779  154.4814 C   0  0  0  0  0  0  0  0  0  0  0  0
  148.8378  138.1114  155.5091 O   0  0  0  0  0  0  0  0  0  0  0  0
  150.8380  138.8166  154.3945 C   0  0  0  0  0  0  0  0  0  0  0  0
  151.3413  139.4920  155.6301 C   0  0  0  0  0  0  0  0  0  0  0  0
  152.3289  138.9716  156.3491 N   0  0  0  0  0  0  0  0  0  0  0  0
  152.5011  139.9019  157.3837 O   0  0  0  0  0  0  0  0  0  0  0  0
  151.5665  140.8620  157.1810 C   0  0  0  0  0  0  0  0  0  0  0  0
  151.5565  142.0567  158.0824 C   0  0  1  0  0  0  0  0  0  0  0  0
  152.6257  141.9452  159.1916 C   0  0  0  0  0  0  0  0  0  0  0  0
  152.8541  143.2573  159.9223 C   0  0  0  0  0  0  0  0  0  0  0  0
  152.3780  144.4395  159.4961 C   0  0  0  0  0  0  0  0  0  0  0  0
  151.5632  144.6032  158.2268 C   0  0  0  0  0  0  0  0  0  0  0  0
  151.6800  143.3789  157.3009 C   0  0  0  0  0  0  0  0  0  0  0  0
  150.8429  140.6779  156.0780 N   0  0  0  0  0  0  0  0  0  0  0  0
  146.8260  138.9932  152.2959 H   0  0  0  0  0  0  0  0  0  0  0  0
  146.6521  139.3778  154.0114 H   0  0  0  0  0  0  0  0  0  0  0  0
  146.8721  137.6971  153.4949 H   0  0  0  0  0  0  0  0  0  0  0  0
  149.0843  139.2732  152.5927 H   0  0  0  0  0  0  0  0  0  0  0  0
  151.3555  137.8658  154.2582 H   0  0  0  0  0  0  0  0  0  0  0  0
  151.0661  139.4285  153.5207 H   0  0  0  0  0  0  0  0  0  0  0  0
  150.5811  142.0725  158.5716 H   0  0  0  0  0  0  0  0  0  0  0  0
  152.3446  141.1718  159.9072 H   0  0  0  0  0  0  0  0  0  0  0  0
  153.5838  141.6467  158.7643 H   0  0  0  0  0  0  0  0  0  0  0  0
  153.4392  143.2115  160.8290 H   0  0  0  0  0  0  0  0  0  0  0  0
  152.5617  145.3326  160.0754 H   0  0  0  0  0  0  0  0  0  0  0  0
  150.5232  144.7645  158.5116 H   0  0  0  0  0  0  0  0  0  0  0  0
  151.8917  145.4996  157.7001 H   0  0  0  0  0  0  0  0  0  0  0  0
  152.6421  143.4072  156.7873 H   0  0  0  0  0  0  0  0  0  0  0  0
  150.9148  143.4351  156.5258 H   0  0  0  0  0  0  0  0  0  0  0  0
  1  2  1  0  0  0  0
  1 17  1  0  0  0  0
  1 18  1  0  0  0  0
  1 19  1  0  0  0  0
  2  3  1  0  0  0  0
  2 20  1  0  0  0  0
  3  4  2  0  0  0  0
  3  5  1  0  0  0  0
  5  6  1  0  0  0  0
  5 21  1  0  0  0  0
  5 22  1  0  0  0  0
  6 16  1  0  0  0  0
  6  7  2  0  0  0  0
  7  8  1  0  0  0  0
  8  9  1  0  0  0  0
  9 10  1  0  0  0  0
  9 16  2  0  0  0  0
 10 15  1  0  0  0  0
 10 11  1  0  0  0  0
 10 23  1  0  0  0  0
 11 12  1  0  0  0  0
 11 24  1  0  0  0  0
 11 25  1  0  0  0  0
 12 13  2  0  0  0  0
 12 26  1  0  0  0  0
 13 14  1  0  0  0  0
 13 27  1  0  0  0  0
 14 15  1  0  0  0  0
 14 28  1  0  0  0  0
 14 29  1  0  0  0  0
 15 30  1  0  0  0  0
 15 31  1  0  0  0  0
M  END
> <s_m_source_file>
AV-unprocessed.smi

> <i_m_source_file_index>
887

> <i_lp_mmshare_version>
43012

> <i_f3d_flags>
0

> <s_epik_input>
W0NIM11bTkhdQyg9TylbQ0gyXWMxbm9jKG4xKVtDQEBIXTJbQ0gyXVtDSF09W0NIXVtDSDJdW0NIMl0y

> <s_epik_cmdline>
J2VwaWtfcHl0aG9uJywgJy1waCcsICc3LjAnLCAnLXRuJywgJzgnLCAnLW1hJywgJzIwMCcsICctbWV0YWxfYmluZGluZycsICctaW1hZScsICc8aW5maWxlLm1hZT4nLCAnLW9tYWUnLCAnPG91dGZpbGUubWFlPic=

> <r_lp_tautomer_probability>
1

> <r_epik_Ionization_Penalty>
1.02915e-07

> <r_epik_Ionization_Penalty_Charging>
0

> <r_epik_Ionization_Penalty_Neutral>
1.02915e-07

> <r_epik_State_Penalty>
-0

> <r_epik_Charging_Adjusted_Penalty>
0

> <i_epik_Tot_Q>
0

> <i_epik_Tot_abs_Q>
0

> <r_epik_Metal_State_Penalty>
-0

> <b_epik_Metal_Only>
0

> <s_lp_Force_Field>
OPLS_2005

> <r_lp_Energy>
6.05076

> <b_lp_Chiralities_Consistent>
1

> <s_lp_Variant>
AV-unprocessed.smi:887-2

> <Gold.Version>
5.8.1

> <Gold.Id.Protein>
6NUR|6NUR_protein|mol2

> <Gold.PLP.Fitness>
39.6161

> <Gold.PLP.PLP>
-35.2713

> <Gold.PLP.part.hbond>
-2.8127

> <Gold.PLP.part.metal>
0.0000

> <Gold.PLP.part.buried>
-4.7852

> <Gold.PLP.part.nonpolar>
-27.6873

> <Gold.PLP.part.repulsive>
0.1830

> <Gold.PLP.ligand.clash>
0.0000

> <Gold.PLP.ligand.torsion>
0.2739

> <Gold.PLP.Chemscore.Hbond>
1.5952

> <Gold.PLP.Chemscore.CHOScore>
0.0000

> <Gold.PLP.Chemscore.Metal>
0.0000

> <Gold.Chemscore.Hbonds>
donor molecule, donor type, donor heavy atom, donor atom, acceptor molecule, acceptor atom, score
      L1  H     2    20       P1  7957  1.00
      P1  H  7997  8010       L1     8  0.43

> <Gold.PLP.Chemscore.Internal.Correction>
0.1070

> <Gold.Rescore>
     Score         DG    S(hbond)    S(metal)    S(lipo)     H(rot)  DE(clash)    DE(int)     intcor
     14.71     -15.10       1.24        0.00      82.54       1.63       0.17       0.22       ----

> <Gold.Chemscore.Fitness>
14.7068

> <Gold.Chemscore.DG>
-15.1008

> <Gold.Chemscore.ZeroCoef>
-5.4800

> <Gold.Chemscore.Hbond>
1.2392

> <Gold.Chemscore.Metal>
0.0000

> <Gold.Chemscore.Lipo>
82.5437

> <Gold.Chemscore.Internal_Hbond>
0.0000

> <Gold.Chemscore.DEClash>
0.1718

> <Gold.Chemscore.DEInternal>
0.2223

> <Gold.Chemscore.Rot>
1.6312

> <Gold.Chemscore.Internal.Correction>
   9.000000E+99

> <Gold.Chemscore.Hbonds>
donor molecule, donor type, donor heavy atom, donor atom, acceptor molecule, acceptor atom, score
      L1  H     2    20       P1  7957  1.00
      P1  H  7997  8010       L1     8  0.01

> <Gold.Chemscore.Hbond.Weighted>
-4.1390

> <Gold.Chemscore.Metal.Weighted>
-0.0000

> <Gold.Chemscore.Lipo.Weighted>
-9.6576

> <Gold.Chemscore.Internal_Hbond.Weighted>
0.0000

> <Gold.Chemscore.DEClash.Weighted>
0.1718

> <Gold.Chemscore.DEInternal.Weighted>
0.2223

> <Gold.Chemscore.Rot.Weighted>
4.1758

> <Gold.Chemscore.Internal.Correction.Weighted>
   9.000000E+99

> <Gold.Protein.RotatedTorsions>
[ 6907 6896 6895 6894 ] final -124.18 input  -60.11 | X-H torsion
[ 7974 7965 7964 7962 ] final  -69.14 input  175.53 | X-H torsion
[ 8008 7997 7996 7995 ] final   44.44 input   59.86 | X-H torsion
[ 10167 10162 10161 10158 ] final -143.83 input  -65.29 | X-H torsion
[ 10718 10713 10712 10709 ] final  -47.34 input   66.30 | X-H torsion
[ 10763 10752 10751 10750 ] final -165.29 input  -60.55 | X-H torsion
[ 11005 11000 10999 10996 ] final -116.63 input  -57.11 | X-H torsion

> <Gold.Protein.ActiveResidues>
 VAL166  LYS551  ARG553  GLY616  TRP617  ASP618  TYR619  PRO620  LYS621  CYS622 
 ASP623  PHE694  ASN695  SER759  ASP760  ASP761  ALA762  ILE779  LEU786  VAL792 
 PHE793  MET794  SER795  GLU796  ALA797  LYS798  CYS799  TRP800  GLU811  SER814 

> <Gold.Protein.RotatedAtoms>
  150.8742  133.7462  159.2951 H   0  0  0  0  0  0  0  0  0  0  0  0  # atno 6907 bound_to 6896
  151.5064  135.1062  159.9852 H   0  0  0  0  0  0  0  0  0  0  0  0  # atno 6908 bound_to 6896
  152.4716  133.7998  159.7002 H   0  0  0  0  0  0  0  0  0  0  0  0  # atno 6909 bound_to 6896
  145.7076  140.9091  143.0698 H   0  0  0  0  0  0  0  0  0  0  0  0  # atno 7974 bound_to 7965
  155.3193  140.3396  155.4241 H   0  0  0  0  0  0  0  0  0  0  0  0  # atno 8008 bound_to 7997
  156.1917  140.1700  156.8116 H   0  0  0  0  0  0  0  0  0  0  0  0  # atno 8009 bound_to 7997
  154.5450  140.0717  156.8557 H   0  0  0  0  0  0  0  0  0  0  0  0  # atno 8010 bound_to 7997
  139.7956  143.7905  152.2654 H   0  0  0  0  0  0  0  0  0  0  0  0  # atno 10167 bound_to 10162
  156.2094  130.4160  149.9134 H   0  0  0  0  0  0  0  0  0  0  0  0  # atno 10718 bound_to 10713
  154.6946  135.2977  154.9430 H   0  0  0  0  0  0  0  0  0  0  0  0  # atno 10763 bound_to 10752
  154.0381  135.6661  153.4791 H   0  0  0  0  0  0  0  0  0  0  0  0  # atno 10764 bound_to 10752
  153.0637  135.5101  154.8057 H   0  0  0  0  0  0  0  0  0  0  0  0  # atno 10765 bound_to 10752
  141.0409  133.9838  157.2996 H   0  0  0  0  0  0  0  0  0  0  0  0  # atno 11005 bound_to 11000
  144.6951  139.9031  143.7459 LP  0  0  0  0  0  0  0  0  0  0  0  0  # atno 17320 bound_to 7965
  146.0742  139.3730  143.0504 LP  0  0  0  0  0  0  0  0  0  0  0  0  # atno 17321 bound_to 7965
  139.8010  144.7374  150.9825 LP  0  0  0  0  0  0  0  0  0  0  0  0  # atno 17342 bound_to 10162
  140.7820  143.4345  151.0643 LP  0  0  0  0  0  0  0  0  0  0  0  0  # atno 17343 bound_to 10162
  156.6818  130.8861  151.3577 LP  0  0  0  0  0  0  0  0  0  0  0  0  # atno 17370 bound_to 10713
  157.7030  130.9354  150.0844 LP  0  0  0  0  0  0  0  0  0  0  0  0  # atno 17371 bound_to 10713
  139.9275  135.0201  156.8285 LP  0  0  0  0  0  0  0  0  0  0  0  0  # atno 17394 bound_to 11000
  140.6237  133.9970  155.7630 LP  0  0  0  0  0  0  0  0  0  0  0  0  # atno 17395 bound_to 11000

$$$$
