AV-unprocessed.smi:1904|AV-procd|sdf|7723|dock6
  -GOLD-   22720 9463D 1   1.00000     0.00000
 Structure written by MMmdl.
 50 51  0  0  0  0  0  0  0  0  2 V2000
  149.5499  136.0903  158.6703 C   0  0  0  0  0  0  0  0  0  0  0  0
  148.6826  135.8327  159.8691 C   0  0  0  0  0  0  0  0  0  0  0  0
  148.4002  136.8304  160.6895 N   0  0  0  0  0  0  0  0  0  0  0  0
  147.6272  136.2804  161.6472 N   0  0  0  0  0  0  0  0  0  0  0  0
  147.1299  137.1136  162.7248 C   0  0  0  0  0  0  0  0  0  0  0  0
  147.4280  134.9299  161.4360 C   0  0  0  0  0  0  0  0  0  0  0  0
  146.6166  134.0897  162.3690 C   0  0  0  0  0  0  0  0  0  0  0  0
  148.0940  134.6018  160.2852 C   0  0  0  0  0  0  0  0  0  0  0  0
  148.2006  133.2587  159.6085 C   0  0  0  0  0  0  0  0  0  0  0  0
  147.7631  133.3909  158.1502 C   0  0  0  0  0  0  0  0  0  0  0  0
  148.6034  133.5621  157.2670 O   0  0  0  0  0  0  0  0  0  0  0  0
  146.4438  133.3323  157.9121 N   0  0  0  0  0  0  0  0  0  0  0  0
  145.8245  133.5028  156.6041 C   0  0  0  0  0  0  0  0  0  0  0  0
  146.2509  132.3794  155.6396 C   0  0  0  0  0  0  0  0  0  0  0  0
  145.5350  132.4381  154.3401 N   0  3  2  0  0  0  0  0  0  0  0  0
  145.9944  131.3807  153.4026 C   0  0  0  0  0  0  0  0  0  0  0  0
  145.1453  131.3641  152.1204 C   0  0  0  0  0  0  0  0  0  0  0  0
  145.1559  132.7351  151.4246 C   0  0  1  0  0  0  0  0  0  0  0  0
  144.2814  132.7382  150.1628 C   0  0  0  0  0  0  0  0  0  0  0  0
  144.7132  133.8136  152.4274 C   0  0  0  0  0  0  0  0  0  0  0  0
  145.5737  133.7810  153.7017 C   0  0  0  0  0  0  0  0  0  0  0  0
  149.1410  135.6116  157.7807 H   0  0  0  0  0  0  0  0  0  0  0  0
  150.5544  135.6975  158.8278 H   0  0  0  0  0  0  0  0  0  0  0  0
  149.6395  137.1563  158.4583 H   0  0  0  0  0  0  0  0  0  0  0  0
  146.0615  136.9434  162.8590 H   0  0  0  0  0  0  0  0  0  0  0  0
  147.2903  138.1692  162.5007 H   0  0  0  0  0  0  0  0  0  0  0  0
  147.6499  136.8643  163.6500 H   0  0  0  0  0  0  0  0  0  0  0  0
  146.7204  133.0294  162.1406 H   0  0  0  0  0  0  0  0  0  0  0  0
  145.5599  134.3474  162.2996 H   0  0  0  0  0  0  0  0  0  0  0  0
  146.9343  134.2371  163.4014 H   0  0  0  0  0  0  0  0  0  0  0  0
  149.2203  132.8737  159.6342 H   0  0  0  0  0  0  0  0  0  0  0  0
  147.5879  132.5109  160.1135 H   0  0  0  0  0  0  0  0  0  0  0  0
  145.8260  133.1857  158.6975 H   0  0  0  0  0  0  0  0  0  0  0  0
  144.7379  133.5346  156.7015 H   0  0  0  0  0  0  0  0  0  0  0  0
  146.1321  134.4778  156.2284 H   0  0  0  0  0  0  0  0  0  0  0  0
  147.3287  132.4034  155.4698 H   0  0  0  0  0  0  0  0  0  0  0  0
  146.0365  131.4214  156.1159 H   0  0  0  0  0  0  0  0  0  0  0  0
  147.0454  131.5420  153.1571 H   0  0  0  0  0  0  0  0  0  0  0  0
  145.9278  130.4047  153.8848 H   0  0  0  0  0  0  0  0  0  0  0  0
  145.5223  130.5985  151.4414 H   0  0  0  0  0  0  0  0  0  0  0  0
  144.1209  131.0803  152.3659 H   0  0  0  0  0  0  0  0  0  0  0  0
  146.1803  132.9540  151.1191 H   0  0  0  0  0  0  0  0  0  0  0  0
  143.2391  132.5240  150.4014 H   0  0  0  0  0  0  0  0  0  0  0  0
  144.6204  131.9874  149.4485 H   0  0  0  0  0  0  0  0  0  0  0  0
  144.3158  133.7067  149.6635 H   0  0  0  0  0  0  0  0  0  0  0  0
  144.7774  134.8001  151.9669 H   0  0  0  0  0  0  0  0  0  0  0  0
  143.6654  133.6652  152.6927 H   0  0  0  0  0  0  0  0  0  0  0  0
  145.2058  134.5419  154.3884 H   0  0  0  0  0  0  0  0  0  0  0  0
  146.6060  134.0432  153.4645 H   0  0  0  0  0  0  0  0  0  0  0  0
  144.5661  132.2336  154.5394 H   0  0  0  0  0  0  0  0  0  0  0  0
  1  2  1  0  0  0  0
  1 22  1  0  0  0  0
  1 23  1  0  0  0  0
  1 24  1  0  0  0  0
  2  8  1  0  0  0  0
  2  3  2  0  0  0  0
  3  4  1  0  0  0  0
  4  5  1  0  0  0  0
  4  6  1  0  0  0  0
  5 25  1  0  0  0  0
  5 26  1  0  0  0  0
  5 27  1  0  0  0  0
  6  7  1  0  0  0  0
  6  8  2  0  0  0  0
  7 28  1  0  0  0  0
  7 29  1  0  0  0  0
  7 30  1  0  0  0  0
  8  9  1  0  0  0  0
  9 10  1  0  0  0  0
  9 31  1  0  0  0  0
  9 32  1  0  0  0  0
 10 11  2  0  0  0  0
 10 12  1  0  0  0  0
 12 13  1  0  0  0  0
 12 33  1  0  0  0  0
 13 14  1  0  0  0  0
 13 34  1  0  0  0  0
 13 35  1  0  0  0  0
 14 15  1  0  0  0  0
 14 36  1  0  0  0  0
 14 37  1  0  0  0  0
 15 21  1  0  0  0  0
 15 16  1  0  0  0  0
 15 50  1  0  0  0  0
 16 17  1  0  0  0  0
 16 38  1  0  0  0  0
 16 39  1  0  0  0  0
 17 18  1  0  0  0  0
 17 40  1  0  0  0  0
 17 41  1  0  0  0  0
 18 19  1  0  0  0  0
 18 20  1  0  0  0  0
 18 42  1  0  0  0  0
 19 43  1  0  0  0  0
 19 44  1  0  0  0  0
 19 45  1  0  0  0  0
 20 21  1  0  0  0  0
 20 46  1  0  0  0  0
 20 47  1  0  0  0  0
 21 48  1  0  0  0  0
 21 49  1  0  0  0  0
M  CHG  1  15   1
M  END
> <s_m_source_file>
AV-unprocessed.smi

> <i_m_source_file_index>
1904

> <i_lp_mmshare_version>
43012

> <i_f3d_flags>
0

> <s_epik_input>
W0NIM11jMW5uKFtDSDNdKWMoW0NIM10pYzFbQ0gyXUMoPU8pW05IXVtDSDJdW0NIMl1OMltDSDJdW0NIMl1bQ0hdKFtDSDNdKVtDSDJdW0NIMl0y

> <s_epik_cmdline>
J2VwaWtfcHl0aG9uJywgJy1waCcsICc3LjAnLCAnLXRuJywgJzgnLCAnLW1hJywgJzIwMCcsICctbWV0YWxfYmluZGluZycsICctaW1hZScsICc8aW5maWxlLm1hZT4nLCAnLW9tYWUnLCAnPG91dGZpbGUubWFlPic=

> <r_lp_tautomer_probability>
1

> <r_epik_Ionization_Penalty>
0.00374255

> <r_epik_Ionization_Penalty_Charging>
0.00158211

> <r_epik_Ionization_Penalty_Neutral>
0.00216044

> <r_epik_State_Penalty>
-0

> <r_epik_Charging_Adjusted_Penalty>
0.00158211

> <i_epik_Tot_Q>
1

> <i_epik_Tot_abs_Q>
1

> <r_epik_Metal_State_Penalty>
-0

> <b_epik_Metal_Only>
0

> <s_lp_Force_Field>
OPLS_2005

> <r_lp_Energy>
10.069

> <b_lp_Chiralities_Consistent>
1

> <s_lp_Variant>
AV-unprocessed.smi:1904-1

> <Gold.Version>
5.8.1

> <Gold.Id.Protein>
6NUR|6NUR_protein|mol2

> <Gold.PLP.Fitness>
43.0110

> <Gold.PLP.PLP>
-33.0729

> <Gold.PLP.part.hbond>
-2.9781

> <Gold.PLP.part.metal>
0.0000

> <Gold.PLP.part.buried>
-5.4690

> <Gold.PLP.part.nonpolar>
-25.5574

> <Gold.PLP.part.repulsive>
0.0000

> <Gold.PLP.ligand.clash>
0.0000

> <Gold.PLP.ligand.torsion>
0.4120

> <Gold.PLP.Chemscore.Hbond>
3.5640

> <Gold.PLP.Chemscore.CHOScore>
0.0000

> <Gold.PLP.Chemscore.Metal>
0.0000

> <Gold.Chemscore.Hbonds>
donor molecule, donor type, donor heavy atom, donor atom, acceptor molecule, acceptor atom, score
      L1  H    15    50       P1 10957  2.00
      P1  H  6931  6943       L1     3  0.62

> <Gold.PLP.Chemscore.Internal.Correction>
0.0701

> <Gold.Rescore>
     Score         DG    S(hbond)    S(metal)    S(lipo)     H(rot)  DE(clash)    DE(int)     intcor
     17.36     -18.44       2.43        0.00      76.69       1.61       0.72       0.36       ----

> <Gold.Chemscore.Fitness>
17.3618

> <Gold.Chemscore.DG>
-18.4368

> <Gold.Chemscore.ZeroCoef>
-5.4800

> <Gold.Chemscore.Hbond>
2.4301

> <Gold.Chemscore.Metal>
0.0000

> <Gold.Chemscore.Lipo>
76.6909

> <Gold.Chemscore.Internal_Hbond>
0.0000

> <Gold.Chemscore.DEClash>
0.7159

> <Gold.Chemscore.DEInternal>
0.3591

> <Gold.Chemscore.Rot>
1.6142

> <Gold.Chemscore.Internal.Correction>
   9.000000E+99

> <Gold.Chemscore.Hbonds>
donor molecule, donor type, donor heavy atom, donor atom, acceptor molecule, acceptor atom, score
      L1  H    15    50       P1 10957  0.49
      P1  H  6931  6943       L1     3  0.05

> <Gold.Chemscore.Hbond.Weighted>
-8.1164

> <Gold.Chemscore.Metal.Weighted>
-0.0000

> <Gold.Chemscore.Lipo.Weighted>
-8.9728

> <Gold.Chemscore.Internal_Hbond.Weighted>
0.0000

> <Gold.Chemscore.DEClash.Weighted>
0.7159

> <Gold.Chemscore.DEInternal.Weighted>
0.3591

> <Gold.Chemscore.Rot.Weighted>
4.1324

> <Gold.Chemscore.Internal.Correction.Weighted>
   9.000000E+99

> <Gold.Protein.RotatedTorsions>
[ 6907 6896 6895 6894 ] final  -86.94 input  -60.11 | X-H torsion
[ 7974 7965 7964 7962 ] final  -99.60 input  175.53 | X-H torsion
[ 8008 7997 7996 7995 ] final  -13.98 input   59.86 | X-H torsion
[ 10167 10162 10161 10158 ] final  178.71 input  -65.29 | X-H torsion
[ 10718 10713 10712 10709 ] final   72.04 input   66.30 | X-H torsion
[ 10763 10752 10751 10750 ] final  103.12 input  -60.55 | X-H torsion
[ 11005 11000 10999 10996 ] final -155.19 input  -57.11 | X-H torsion

> <Gold.Protein.ActiveResidues>
 VAL166  LYS551  ARG553  GLY616  TRP617  ASP618  TYR619  PRO620  LYS621  CYS622 
 ASP623  PHE694  ASN695  SER759  ASP760  ASP761  ALA762  ILE779  LEU786  VAL792 
 PHE793  MET794  SER795  GLU796  ALA797  LYS798  CYS799  TRP800  GLU811  SER814 

> <Gold.Protein.RotatedAtoms>
  150.6866  134.2973  159.4691 H   0  0  0  0  0  0  0  0  0  0  0  0  # atno 6907 bound_to 6896
  152.0873  134.9429  160.0582 H   0  0  0  0  0  0  0  0  0  0  0  0  # atno 6908 bound_to 6896
  152.0758  133.4094  159.4516 H   0  0  0  0  0  0  0  0  0  0  0  0  # atno 6909 bound_to 6896
  145.3054  140.9387  143.2800 H   0  0  0  0  0  0  0  0  0  0  0  0  # atno 7974 bound_to 7965
  154.5248  140.2235  155.8910 H   0  0  0  0  0  0  0  0  0  0  0  0  # atno 8008 bound_to 7997
  156.1701  140.3123  155.8923 H   0  0  0  0  0  0  0  0  0  0  0  0  # atno 8009 bound_to 7997
  155.3575  140.0459  157.3037 H   0  0  0  0  0  0  0  0  0  0  0  0  # atno 8010 bound_to 7997
  139.5305  144.2648  152.0677 H   0  0  0  0  0  0  0  0  0  0  0  0  # atno 10167 bound_to 10162
  157.6481  130.9558  150.0873 H   0  0  0  0  0  0  0  0  0  0  0  0  # atno 10718 bound_to 10713
  153.3485  135.3987  155.1627 H   0  0  0  0  0  0  0  0  0  0  0  0  # atno 10763 bound_to 10752
  154.8657  135.3650  154.5253 H   0  0  0  0  0  0  0  0  0  0  0  0  # atno 10764 bound_to 10752
  153.5703  135.7079  153.5567 H   0  0  0  0  0  0  0  0  0  0  0  0  # atno 10765 bound_to 10752
  140.6892  134.4060  157.5220 H   0  0  0  0  0  0  0  0  0  0  0  0  # atno 11005 bound_to 11000
  144.9059  139.4590  143.6610 LP  0  0  0  0  0  0  0  0  0  0  0  0  # atno 17320 bound_to 7965
  146.3137  139.7840  142.9000 LP  0  0  0  0  0  0  0  0  0  0  0  0  # atno 17321 bound_to 7965
  140.2111  144.4562  150.6385 LP  0  0  0  0  0  0  0  0  0  0  0  0  # atno 17342 bound_to 10162
  140.6480  143.2218  151.6142 LP  0  0  0  0  0  0  0  0  0  0  0  0  # atno 17343 bound_to 10162
  156.1832  130.3651  149.9007 LP  0  0  0  0  0  0  0  0  0  0  0  0  # atno 17370 bound_to 10713
  156.6954  130.8912  151.3593 LP  0  0  0  0  0  0  0  0  0  0  0  0  # atno 17371 bound_to 10713
  139.8928  134.8745  156.2251 LP  0  0  0  0  0  0  0  0  0  0  0  0  # atno 17394 bound_to 11000
  141.0255  133.7017  156.1341 LP  0  0  0  0  0  0  0  0  0  0  0  0  # atno 17395 bound_to 11000

$$$$
