AV-unprocessed.smi:2442|AV-procd|sdf|9630|dock2
  -GOLD-   2272013263D 1   1.00000     0.00000
 Structure written by MMmdl.
 47 48  0  0  0  0  0  0  0  0  2 V2000
  147.7164  138.5494  156.6752 C   0  0  0  0  0  0  0  0  0  0  0  0
  148.0011  138.9135  155.3337 O   0  0  0  0  0  0  0  0  0  0  0  0
  149.3888  138.9624  155.0218 C   0  0  1  0  0  0  0  0  0  0  0  0
  150.0650  140.0846  155.8381 C   0  0  0  0  0  0  0  0  0  0  0  0
  151.5886  140.0880  155.6458 C   0  0  0  0  0  0  0  0  0  0  0  0
  152.1917  138.7221  156.0010 C   0  0  0  0  0  0  0  0  0  0  0  0
  151.5363  137.6010  155.1814 C   0  0  0  0  0  0  0  0  0  0  0  0
  150.0054  137.5844  155.3569 C   0  0  2  0  0  0  0  0  0  0  0  0
  149.4436  136.5557  154.4841 N   0  0  0  0  0  0  0  0  0  0  0  0
  148.7569  135.4792  154.8913 C   0  0  0  0  0  0  0  0  0  0  0  0
  148.5275  135.2061  156.0697 O   0  0  0  0  0  0  0  0  0  0  0  0
  148.3396  134.7361  153.8568 N   0  0  0  0  0  0  0  0  0  0  0  0
  147.5622  133.5084  153.9748 C   0  0  0  0  0  0  0  0  0  0  0  0
  147.4657  132.7649  152.6313 C   0  0  0  0  0  0  0  0  0  0  0  0
  146.1219  132.9804  151.9527 C   0  0  0  0  0  0  0  0  0  0  0  0
  145.7167  134.2981  151.6426 C   0  0  0  0  0  0  0  0  0  0  0  0
  144.4731  134.5142  151.0171 C   0  0  0  0  0  0  0  0  0  0  0  0
  143.6809  133.4630  150.7192 N   0  3  0  0  0  0  0  0  0  0  0  0
  144.0245  132.1870  150.9976 C   0  0  0  0  0  0  0  0  0  0  0  0
  145.2568  131.9029  151.6266 C   0  0  0  0  0  0  0  0  0  0  0  0
  145.6199  130.4609  151.9328 C   0  0  0  0  0  0  0  0  0  0  0  0
  146.6378  138.5546  156.8301 H   0  0  0  0  0  0  0  0  0  0  0  0
  148.1567  139.2592  157.3764 H   0  0  0  0  0  0  0  0  0  0  0  0
  148.0808  137.5502  156.9124 H   0  0  0  0  0  0  0  0  0  0  0  0
  149.5287  139.1529  153.9553 H   0  0  0  0  0  0  0  0  0  0  0  0
  149.6668  141.0586  155.5550 H   0  0  0  0  0  0  0  0  0  0  0  0
  149.8347  139.9541  156.8963 H   0  0  0  0  0  0  0  0  0  0  0  0
  151.8273  140.3375  154.6113 H   0  0  0  0  0  0  0  0  0  0  0  0
  152.0394  140.8648  156.2642 H   0  0  0  0  0  0  0  0  0  0  0  0
  153.2673  138.7331  155.8226 H   0  0  0  0  0  0  0  0  0  0  0  0
  152.0562  138.5259  157.0653 H   0  0  0  0  0  0  0  0  0  0  0  0
  151.7862  137.7350  154.1279 H   0  0  0  0  0  0  0  0  0  0  0  0
  151.9558  136.6387  155.4776 H   0  0  0  0  0  0  0  0  0  0  0  0
  149.7919  137.3474  156.4012 H   0  0  0  0  0  0  0  0  0  0  0  0
  149.5743  136.6861  153.4918 H   0  0  0  0  0  0  0  0  0  0  0  0
  148.5765  135.0410  152.9240 H   0  0  0  0  0  0  0  0  0  0  0  0
  148.0419  132.8748  154.7211 H   0  0  0  0  0  0  0  0  0  0  0  0
  146.5662  133.7382  154.3578 H   0  0  0  0  0  0  0  0  0  0  0  0
  148.2485  133.1130  151.9558 H   0  0  0  0  0  0  0  0  0  0  0  0
  147.6543  131.7006  152.7727 H   0  0  0  0  0  0  0  0  0  0  0  0
  146.3530  135.1377  151.8835 H   0  0  0  0  0  0  0  0  0  0  0  0
  144.0919  135.4884  150.7479 H   0  0  0  0  0  0  0  0  0  0  0  0
  143.3038  131.4350  150.7101 H   0  0  0  0  0  0  0  0  0  0  0  0
  144.7771  129.7943  151.7465 H   0  0  0  0  0  0  0  0  0  0  0  0
  145.9081  130.3468  152.9779 H   0  0  0  0  0  0  0  0  0  0  0  0
  146.4502  130.1364  151.3053 H   0  0  0  0  0  0  0  0  0  0  0  0
  142.7844  133.6398  150.2649 H   0  0  0  0  0  0  0  0  0  0  0  0
  1  2  1  0  0  0  0
  1 22  1  0  0  0  0
  1 23  1  0  0  0  0
  1 24  1  0  0  0  0
  2  3  1  0  0  0  0
  3  8  1  0  0  0  0
  3  4  1  0  0  0  0
  3 25  1  0  0  0  0
  4  5  1  0  0  0  0
  4 26  1  0  0  0  0
  4 27  1  0  0  0  0
  5  6  1  0  0  0  0
  5 28  1  0  0  0  0
  5 29  1  0  0  0  0
  6  7  1  0  0  0  0
  6 30  1  0  0  0  0
  6 31  1  0  0  0  0
  7  8  1  0  0  0  0
  7 32  1  0  0  0  0
  7 33  1  0  0  0  0
  8  9  1  0  0  0  0
  8 34  1  0  0  0  0
  9 10  1  0  0  0  0
  9 35  1  0  0  0  0
 10 11  2  0  0  0  0
 10 12  1  0  0  0  0
 12 13  1  0  0  0  0
 12 36  1  0  0  0  0
 13 14  1  0  0  0  0
 13 37  1  0  0  0  0
 13 38  1  0  0  0  0
 14 15  1  0  0  0  0
 14 39  1  0  0  0  0
 14 40  1  0  0  0  0
 15 20  1  0  0  0  0
 15 16  2  0  0  0  0
 16 17  1  0  0  0  0
 16 41  1  0  0  0  0
 17 18  2  0  0  0  0
 17 42  1  0  0  0  0
 18 19  1  0  0  0  0
 18 47  1  0  0  0  0
 19 20  2  0  0  0  0
 19 43  1  0  0  0  0
 20 21  1  0  0  0  0
 21 44  1  0  0  0  0
 21 45  1  0  0  0  0
 21 46  1  0  0  0  0
M  CHG  1  18   1
M  END
> <s_m_source_file>
AV-unprocessed.smi

> <i_m_source_file_index>
2442

> <i_lp_mmshare_version>
43012

> <i_f3d_flags>
0

> <s_epik_input>
W0NIM11PW0NAQEhdMVtDSDJdW0NIMl1bQ0gyXVtDSDJdW0NASF0xW05IXUMoPU8pW05IXVtDSDJdW0NIMl1jMltjSF1bY0hdbltjSF1jMltDSDNd

> <s_epik_cmdline>
J2VwaWtfcHl0aG9uJywgJy1waCcsICc3LjAnLCAnLXRuJywgJzgnLCAnLW1hJywgJzIwMCcsICctbWV0YWxfYmluZGluZycsICctaW1hZScsICc8aW5maWxlLm1hZT4nLCAnLW9tYWUnLCAnPG91dGZpbGUubWFlPic=

> <r_epik_Ionization_Penalty>
1.07145

> <r_epik_Ionization_Penalty_Charging>
1.0714

> <r_epik_Ionization_Penalty_Neutral>
4.9109e-05

> <r_epik_State_Penalty>
1.12601

> <r_epik_Charging_Adjusted_Penalty>
2.19741

> <i_epik_Tot_Q>
1

> <i_epik_Tot_abs_Q>
1

> <r_epik_Metal_State_Penalty>
1.2173

> <b_epik_Metal_Only>
0

> <s_lp_Force_Field>
OPLS_2005

> <r_lp_Energy>
14.6153

> <b_lp_Chiralities_Consistent>
1

> <s_lp_Variant>
AV-unprocessed.smi:2442-8

> <Gold.Version>
5.8.1

> <Gold.Id.Protein>
6NUR|6NUR_protein|mol2

> <Gold.PLP.Fitness>
43.3887

> <Gold.PLP.PLP>
-32.7818

> <Gold.PLP.part.hbond>
-2.7522

> <Gold.PLP.part.metal>
0.0000

> <Gold.PLP.part.buried>
-3.3043

> <Gold.PLP.part.nonpolar>
-27.0530

> <Gold.PLP.part.repulsive>
0.1397

> <Gold.PLP.ligand.clash>
0.0000

> <Gold.PLP.ligand.torsion>
0.3602

> <Gold.PLP.Chemscore.Hbond>
3.7600

> <Gold.PLP.Chemscore.CHOScore>
0.0000

> <Gold.PLP.Chemscore.Metal>
0.0000

> <Gold.Chemscore.Hbonds>
donor molecule, donor type, donor heavy atom, donor atom, acceptor molecule, acceptor atom, score
      L1  H     9    35       P1  7948  0.91
      L1  H    12    36       P1  7948  1.00
      L1  H    18    47       P1 10186  1.82

> <Gold.PLP.Chemscore.Internal.Correction>
0.0472

> <Gold.Rescore>
     Score         DG    S(hbond)    S(metal)    S(lipo)     H(rot)  DE(clash)    DE(int)     intcor
     18.94     -19.44       2.68        0.00      80.47       1.72       0.00       0.50       ----

> <Gold.Chemscore.Fitness>
18.9394

> <Gold.Chemscore.DG>
-19.4374

> <Gold.Chemscore.ZeroCoef>
-5.4800

> <Gold.Chemscore.Hbond>
2.6818

> <Gold.Chemscore.Metal>
0.0000

> <Gold.Chemscore.Lipo>
80.4669

> <Gold.Chemscore.Internal_Hbond>
0.0000

> <Gold.Chemscore.DEClash>
0.0000

> <Gold.Chemscore.DEInternal>
0.4980

> <Gold.Chemscore.Rot>
1.7244

> <Gold.Chemscore.Internal.Correction>
   9.000000E+99

> <Gold.Chemscore.Hbonds>
donor molecule, donor type, donor heavy atom, donor atom, acceptor molecule, acceptor atom, score
      L1  H     9    35       P1  7948  0.63
      L1  H    12    36       P1  7948  0.52
      L1  H    18    47       P1 10186  0.87

> <Gold.Chemscore.Hbond.Weighted>
-8.9573

> <Gold.Chemscore.Metal.Weighted>
-0.0000

> <Gold.Chemscore.Lipo.Weighted>
-9.4146

> <Gold.Chemscore.Internal_Hbond.Weighted>
0.0000

> <Gold.Chemscore.DEClash.Weighted>
0.0000

> <Gold.Chemscore.DEInternal.Weighted>
0.4980

> <Gold.Chemscore.Rot.Weighted>
4.4145

> <Gold.Chemscore.Internal.Correction.Weighted>
   9.000000E+99

> <Gold.Protein.RotatedTorsions>
[ 6907 6896 6895 6894 ] final -158.81 input  -60.11 | X-H torsion
[ 7974 7965 7964 7962 ] final  -68.63 input  175.53 | X-H torsion
[ 8008 7997 7996 7995 ] final  -93.87 input   59.86 | X-H torsion
[ 10167 10162 10161 10158 ] final   91.53 input  -65.29 | X-H torsion
[ 10718 10713 10712 10709 ] final -115.79 input   66.30 | X-H torsion
[ 10763 10752 10751 10750 ] final  -97.14 input  -60.55 | X-H torsion
[ 11005 11000 10999 10996 ] final -119.80 input  -57.11 | X-H torsion

> <Gold.Protein.ActiveResidues>
 VAL166  LYS551  ARG553  GLY616  TRP617  ASP618  TYR619  PRO620  LYS621  CYS622 
 ASP623  PHE694  ASN695  SER759  ASP760  ASP761  ALA762  ILE779  LEU786  VAL792 
 PHE793  MET794  SER795  GLU796  ALA797  LYS798  CYS799  TRP800  GLU811  SER814 

> <Gold.Protein.RotatedAtoms>
  151.3239  133.4028  159.2656 H   0  0  0  0  0  0  0  0  0  0  0  0  # atno 6907 bound_to 6896
  151.0012  134.9324  159.7965 H   0  0  0  0  0  0  0  0  0  0  0  0  # atno 6908 bound_to 6896
  152.5275  134.3204  159.9198 H   0  0  0  0  0  0  0  0  0  0  0  0  # atno 6909 bound_to 6896
  145.7140  140.9066  143.0665 H   0  0  0  0  0  0  0  0  0  0  0  0  # atno 7974 bound_to 7965
  154.7412  140.0494  157.0812 H   0  0  0  0  0  0  0  0  0  0  0  0  # atno 8008 bound_to 7997
  155.0176  140.3143  155.4786 H   0  0  0  0  0  0  0  0  0  0  0  0  # atno 8009 bound_to 7997
  156.2864  140.2173  156.5293 H   0  0  0  0  0  0  0  0  0  0  0  0  # atno 8010 bound_to 7997
  139.8366  144.6661  150.9334 H   0  0  0  0  0  0  0  0  0  0  0  0  # atno 10167 bound_to 10162
  156.0919  130.6100  150.8952 H   0  0  0  0  0  0  0  0  0  0  0  0  # atno 10718 bound_to 10713
  154.7302  135.5057  153.8951 H   0  0  0  0  0  0  0  0  0  0  0  0  # atno 10763 bound_to 10752
  153.0942  135.6668  153.9803 H   0  0  0  0  0  0  0  0  0  0  0  0  # atno 10764 bound_to 10752
  153.9606  135.3048  155.3413 H   0  0  0  0  0  0  0  0  0  0  0  0  # atno 10765 bound_to 10752
  141.0189  134.0154  157.3310 H   0  0  0  0  0  0  0  0  0  0  0  0  # atno 11005 bound_to 11000
  144.6934  139.9113  143.7463 LP  0  0  0  0  0  0  0  0  0  0  0  0  # atno 17320 bound_to 7965
  146.0686  139.3676  143.0537 LP  0  0  0  0  0  0  0  0  0  0  0  0  # atno 17321 bound_to 7965
  140.7802  143.3951  151.1243 LP  0  0  0  0  0  0  0  0  0  0  0  0  # atno 17342 bound_to 10162
  139.7601  143.8648  152.3098 LP  0  0  0  0  0  0  0  0  0  0  0  0  # atno 17343 bound_to 10162
  157.6071  131.0938  150.8860 LP  0  0  0  0  0  0  0  0  0  0  0  0  # atno 17370 bound_to 10713
  156.9007  130.5245  149.5283 LP  0  0  0  0  0  0  0  0  0  0  0  0  # atno 17371 bound_to 10713
  139.9134  135.0193  156.7783 LP  0  0  0  0  0  0  0  0  0  0  0  0  # atno 17394 bound_to 11000
  140.6607  133.9648  155.7803 LP  0  0  0  0  0  0  0  0  0  0  0  0  # atno 17395 bound_to 11000

$$$$
