#       Name:                AV-unprocessed.smi:255
#       Creating user name   scv26
#       Creation time:       Thu Mar 26 21:08:36 2020


#       File generated by GOLD software.
#

@<TRIPOS>MOLECULE
AV-unprocessed.smi:255
    54    57     1
SMALL
NO_CHARGES


@<TRIPOS>ATOM
      1 ****        -2.4986  -2.5826   1.9246 O.3            1 S1                 0.0000
      2 ****        -3.5462  -1.6460   1.7869 C.3            1 S1                 0.0000
      3 ****        -3.1530  -0.2967   2.4178 C.3            1 S1                 0.0000
      4 ****        -4.3588   0.5301   2.8662 C.3            1 S1                 0.0000
      5 ****        -3.7513   1.9228   2.9823 C.3            1 S1                 0.0000
      6 ****        -4.6661   2.8885   2.9021 F              1 S1                 0.0000
      7 ****        -2.7407   1.9706   1.8331 C.3            1 S1                 0.0000
      8 ****        -2.4491   0.5812   1.4846 N.3            1 S1                 0.0000
      9 ****        -1.1423   0.2877   1.3039 C.ar           1 S1                 0.0000
     10 ****        -0.2490   0.4995   2.3062 N.ar           1 S1                 0.0000
     11 ****         1.0388   0.1895   2.1268 C.ar           1 S1                 0.0000
     12 ****         1.6303  -0.3315   1.0490 N.ar           1 S1                 0.0000
     13 ****         0.7324  -0.5452   0.0442 C.ar           1 S1                 0.0000
     14 ****        -0.6621  -0.2686   0.0905 C.ar           1 S1                 0.0000
     15 ****        -1.2615  -0.6250  -1.1103 N.2            1 S1                 0.0000
     16 ****        -0.2735  -1.0813  -1.8314 C.2            1 S1                 0.0000
     17 ****         0.9601  -1.0632  -1.2188 N.pl3          1 S1                 0.0000
     18 ****         2.2221  -1.5060  -1.7912 C.3            1 S1                 0.0000
     19 ****         2.9120  -0.4286  -2.6599 C.3            1 S1                 0.0000
     20 ****         2.0914  -0.1479  -3.7811 O.3            1 S1                 0.0000
     21 ****         3.1955   0.8792  -1.9260 C.3            1 S1                 0.0000
     22 ****         4.4661   1.3778  -2.5995 C.3            1 S1                 0.0000
     23 ****         5.2048   0.1825  -2.7848 O.3            1 S1                 0.0000
     24 ****         4.3045  -0.8517  -3.1694 C.3            1 S1                 0.0000
     25 ****        -2.5317  -0.4742   3.2981 H              1 S1                 0.0000
     26 ****        -3.2386   2.0296   3.9392 H              1 S1                 0.0000
     27 ****        -1.7494  -2.2676   1.4423 H              1 S1                 0.0000
     28 ****        -3.8256  -1.5352   0.7384 H              1 S1                 0.0000
     29 ****        -4.4111  -2.0602   2.3058 H              1 S1                 0.0000
     30 ****        -5.1346   0.5201   2.0987 H              1 S1                 0.0000
     31 ****        -4.7964   0.1772   3.8005 H              1 S1                 0.0000
     32 ****        -3.1879   2.4420   0.9576 H              1 S1                 0.0000
     33 ****        -1.8586   2.5535   2.1010 H              1 S1                 0.0000
     34 ****         1.6881   0.3855   2.9674 H              1 S1                 0.0000
     35 ****        -0.4165  -1.4416  -2.8399 H              1 S1                 0.0000
     36 ****         2.8800  -1.8069  -0.9749 H              1 S1                 0.0000
     37 ****         2.0359  -2.4054  -2.3798 H              1 S1                 0.0000
     38 ****         2.5246   0.5017  -4.3139 H              1 S1                 0.0000
     39 ****         2.3742   1.5963  -1.9653 H              1 S1                 0.0000
     40 ****         3.4152   0.6828  -0.8759 H              1 S1                 0.0000
     41 ****         4.2472   1.8324  -3.5670 H              1 S1                 0.0000
     42 ****         5.0121   2.0993  -1.9915 H              1 S1                 0.0000
     43 ****         4.6385  -1.7931  -2.7317 H              1 S1                 0.0000
     44 ****         4.3273  -0.9711  -4.2539 H              1 S1                 0.0000
     45 ****        -2.7871  -3.4676   1.5592 LP             1 S1                 0.0000
     46 ****        -2.2602  -2.6825   2.8906 LP             1 S1                 0.0000
     47 ****        -2.8033   0.4167   0.5640 LP             1 S1                 0.0000
     48 ****        -0.5546   0.8865   3.1761 LP             1 S1                 0.0000
     49 ****         2.6066  -0.5386   0.9863 LP             1 S1                 0.0000
     50 ****        -2.2259  -0.5497  -1.3638 LP             1 S1                 0.0000
     51 ****         1.2074   0.2034  -3.4728 LP             1 S1                 0.0000
     52 ****         1.9510  -0.9824  -4.3140 LP             1 S1                 0.0000
     53 ****         5.6607  -0.0678  -1.9307 LP             1 S1                 0.0000
     54 ****         5.8895   0.3170  -3.5011 LP             1 S1                 0.0000
@<TRIPOS>BOND
    1    1    2 1     
    2    1   27 1     
    3    2    3 1     
    4    2   28 1     
    5    2   29 1     
    6    3   25 1     
    7    3    8 1     
    8    3    4 1     
    9    4    5 1     
   10    4   30 1     
   11    4   31 1     
   12    5   26 1     
   13    5    6 1     
   14    5    7 1     
   15    7    8 1     
   16    7   32 1     
   17    7   33 1     
   18    8    9 1     
   19    9   14 ar    
   20    9   10 ar    
   21   10   11 ar    
   22   11   12 ar    
   23   11   34 1     
   24   12   13 ar    
   25   13   17 1     
   26   13   14 ar    
   27   14   15 1     
   28   15   16 2     
   29   16   17 1     
   30   16   35 1     
   31   17   18 1     
   32   18   19 1     
   33   18   36 1     
   34   18   37 1     
   35   19   24 1     
   36   19   20 1     
   37   19   21 1     
   38   20   38 1     
   39   21   22 1     
   40   21   39 1     
   41   21   40 1     
   42   22   23 1     
   43   22   41 1     
   44   22   42 1     
   45   23   24 1     
   46   24   43 1     
   47   24   44 1     
   48    1   45 1     
   49    1   46 1     
   50    8   47 1     
   51   10   48 1     
   52   12   49 1     
   53   15   50 1     
   54   20   51 1     
   55   20   52 1     
   56   23   53 1     
   57   23   54 1     
@<TRIPOS>SUBSTRUCTURE
      1 S1             1
@<TRIPOS>SET
LONE_PAIRS      STATIC     ATOMS    <user>   **** ""
10 45 46 47 48 49 50 51 52 53 54
DONOR_HYDROGENS      STATIC     ATOMS    <user>   **** ""
2 27 38
ATOM$BLUE        STATIC     ATOMS    COLORGROUP SYSTEM
10 45 46 47 48 49 50 51 52 53 54
ATOM$RED        STATIC     ATOMS    COLORGROUP SYSTEM
2 27 38
