AV-unprocessed.smi:2099|AV-procd|sdf|8569|dock3
  -GOLD-   2272011303D 1   1.00000     0.00000
 Structure written by MMmdl.
 32 33  0  0  0  0  0  0  0  0  1 V2000
  153.4102  142.5964  162.0862 C   0  0  0  0  0  0  0  0  0  0  0  0
  152.3699  142.6731  160.9595 C   0  0  2  0  0  0  0  0  0  0  0  0
  152.3962  141.4088  160.0790 C   0  0  0  0  0  0  0  0  0  0  0  0
  151.3590  141.4847  158.9465 C   0  0  0  0  0  0  0  0  0  0  0  0
  151.5587  142.7437  158.0835 C   0  0  1  0  0  0  0  0  0  0  0  0
  150.5230  142.8062  157.0557 N   0  0  0  0  0  0  0  0  0  0  0  0
  150.0776  141.7614  156.3421 C   0  0  0  0  0  0  0  0  0  0  0  0
  150.5051  140.6145  156.4784 O   0  0  0  0  0  0  0  0  0  0  0  0
  149.1206  142.1363  155.4748 N   0  0  0  0  0  0  0  0  0  0  0  0
  148.4111  141.3312  154.5444 C   0  0  0  0  0  0  0  0  0  0  0  0
  148.7366  140.0606  154.2589 N   0  0  0  0  0  0  0  0  0  0  0  0
  147.8822  139.5045  153.3155 N   0  0  0  0  0  0  0  0  0  0  0  0
  146.9472  140.3761  152.9269 C   0  0  0  0  0  0  0  0  0  0  0  0
  147.0180  141.9613  153.6769 S   0  0  0  0  0  0  0  0  0  0  0  0
  151.5333  144.0117  158.9607 C   0  0  0  0  0  0  0  0  0  0  0  0
  152.5689  143.9323  160.0942 C   0  0  0  0  0  0  0  0  0  0  0  0
  154.4227  142.5252  161.6875 H   0  0  0  0  0  0  0  0  0  0  0  0
  153.2395  141.7256  162.7198 H   0  0  0  0  0  0  0  0  0  0  0  0
  153.3649  143.4802  162.7232 H   0  0  0  0  0  0  0  0  0  0  0  0
  151.3857  142.7380  161.4259 H   0  0  0  0  0  0  0  0  0  0  0  0
  153.3912  141.2787  159.6506 H   0  0  0  0  0  0  0  0  0  0  0  0
  152.2059  140.5250  160.6888 H   0  0  0  0  0  0  0  0  0  0  0  0
  151.4299  140.5909  158.3256 H   0  0  0  0  0  0  0  0  0  0  0  0
  150.3559  141.4842  159.3754 H   0  0  0  0  0  0  0  0  0  0  0  0
  152.5344  142.6690  157.5993 H   0  0  0  0  0  0  0  0  0  0  0  0
  150.1178  143.7131  156.8751 H   0  0  0  0  0  0  0  0  0  0  0  0
  148.8718  143.1143  155.4778 H   0  0  0  0  0  0  0  0  0  0  0  0
  146.2106  140.0829  152.1937 H   0  0  0  0  0  0  0  0  0  0  0  0
  151.7282  144.8957  158.3524 H   0  0  0  0  0  0  0  0  0  0  0  0
  150.5387  144.1453  159.3886 H   0  0  0  0  0  0  0  0  0  0  0  0
  152.4981  144.8263  160.7148 H   0  0  0  0  0  0  0  0  0  0  0  0
  153.5733  143.9325  159.6682 H   0  0  0  0  0  0  0  0  0  0  0  0
  1  2  1  0  0  0  0
  1 17  1  0  0  0  0
  1 18  1  0  0  0  0
  1 19  1  0  0  0  0
  2 16  1  0  0  0  0
  2  3  1  0  0  0  0
  2 20  1  0  0  0  0
  3  4  1  0  0  0  0
  3 21  1  0  0  0  0
  3 22  1  0  0  0  0
  4  5  1  0  0  0  0
  4 23  1  0  0  0  0
  4 24  1  0  0  0  0
  5  6  1  0  0  0  0
  5 15  1  0  0  0  0
  5 25  1  0  0  0  0
  6  7  1  0  0  0  0
  6 26  1  0  0  0  0
  7  8  2  0  0  0  0
  7  9  1  0  0  0  0
  9 10  1  0  0  0  0
  9 27  1  0  0  0  0
 10 14  1  0  0  0  0
 10 11  2  0  0  0  0
 11 12  1  0  0  0  0
 12 13  2  0  0  0  0
 13 14  1  0  0  0  0
 13 28  1  0  0  0  0
 15 16  1  0  0  0  0
 15 29  1  0  0  0  0
 15 30  1  0  0  0  0
 16 31  1  0  0  0  0
 16 32  1  0  0  0  0
M  END
> <s_m_source_file>
AV-unprocessed.smi

> <i_m_source_file_index>
2099

> <i_lp_mmshare_version>
43012

> <i_f3d_flags>
0

> <s_epik_input>
W0NIM11bQ0BASF0xW0NIMl1bQ0gyXVtDQEhdKFtDSDJdW0NIMl0xKVtOSF1DKD1PKVtOSF1jMm5uW2NIXXMy

> <s_epik_cmdline>
J2VwaWtfcHl0aG9uJywgJy1waCcsICc3LjAnLCAnLXRuJywgJzgnLCAnLW1hJywgJzIwMCcsICctbWV0YWxfYmluZGluZycsICctaW1hZScsICc8aW5maWxlLm1hZT4nLCAnLW9tYWUnLCAnPG91dGZpbGUubWFlPic=

> <r_lp_tautomer_probability>
1

> <r_epik_Ionization_Penalty>
0.000322846

> <r_epik_Ionization_Penalty_Charging>
0

> <r_epik_Ionization_Penalty_Neutral>
0.000322846

> <r_epik_State_Penalty>
-0

> <r_epik_Charging_Adjusted_Penalty>
0

> <i_epik_Tot_Q>
0

> <i_epik_Tot_abs_Q>
0

> <r_epik_Metal_State_Penalty>
0.17121

> <b_epik_Metal_Only>
0

> <s_lp_Force_Field>
OPLS_2005

> <r_lp_Energy>
7.94157

> <b_lp_Chiralities_Consistent>
1

> <s_lp_Variant>
AV-unprocessed.smi:2099-1

> <Gold.Version>
5.8.1

> <Gold.Id.Protein>
6NUR|6NUR_protein|mol2

> <Gold.PLP.Fitness>
40.9079

> <Gold.PLP.PLP>
-32.9559

> <Gold.PLP.part.hbond>
-2.0000

> <Gold.PLP.part.metal>
0.0000

> <Gold.PLP.part.buried>
-6.0471

> <Gold.PLP.part.nonpolar>
-27.2074

> <Gold.PLP.part.repulsive>
2.0120

> <Gold.PLP.ligand.clash>
0.0000

> <Gold.PLP.ligand.torsion>
0.2555

> <Gold.PLP.Chemscore.Hbond>
1.9120

> <Gold.PLP.Chemscore.CHOScore>
0.9081

> <Gold.PLP.Chemscore.Metal>
0.0000

> <Gold.Chemscore.Hbonds>
donor molecule, donor type, donor heavy atom, donor atom, acceptor molecule, acceptor atom, score
      L1  H     6    26       P1  8028  0.90
      L1  H     9    27       P1  8028  1.00
      L1  C    13    28       P1 10175  0.82

> <Gold.PLP.Chemscore.Internal.Correction>
0.0029

> <Gold.Rescore>
     Score         DG    S(hbond)    S(metal)    S(lipo)     H(rot)  DE(clash)    DE(int)     intcor
     16.18     -19.84       1.97        0.00      88.42       1.00       0.63       3.03       ----

> <Gold.Chemscore.Fitness>
16.1846

> <Gold.Chemscore.DG>
-19.8414

> <Gold.Chemscore.ZeroCoef>
-5.4800

> <Gold.Chemscore.Hbond>
1.9690

> <Gold.Chemscore.Metal>
0.0000

> <Gold.Chemscore.Lipo>
88.4197

> <Gold.Chemscore.Internal_Hbond>
0.0000

> <Gold.Chemscore.DEClash>
0.6275

> <Gold.Chemscore.DEInternal>
3.0293

> <Gold.Chemscore.Rot>
1.0000

> <Gold.Chemscore.Internal.Correction>
   9.000000E+99

> <Gold.Chemscore.Hbonds>
donor molecule, donor type, donor heavy atom, donor atom, acceptor molecule, acceptor atom, score
      L1  H     6    26       P1  8028  0.85
      L1  H     9    27       P1  8028  0.99

> <Gold.Chemscore.Hbond.Weighted>
-6.5763

> <Gold.Chemscore.Metal.Weighted>
-0.0000

> <Gold.Chemscore.Lipo.Weighted>
-10.3451

> <Gold.Chemscore.Internal_Hbond.Weighted>
0.0000

> <Gold.Chemscore.DEClash.Weighted>
0.6275

> <Gold.Chemscore.DEInternal.Weighted>
3.0293

> <Gold.Chemscore.Rot.Weighted>
2.5600

> <Gold.Chemscore.Internal.Correction.Weighted>
   9.000000E+99

> <Gold.Protein.RotatedTorsions>
[ 6907 6896 6895 6894 ] final  -14.20 input  -60.11 | X-H torsion
[ 7974 7965 7964 7962 ] final -175.69 input  175.53 | X-H torsion
[ 8008 7997 7996 7995 ] final   92.05 input   59.86 | X-H torsion
[ 10167 10162 10161 10158 ] final  131.43 input  -65.29 | X-H torsion
[ 10718 10713 10712 10709 ] final -104.76 input   66.30 | X-H torsion
[ 10763 10752 10751 10750 ] final   82.95 input  -60.55 | X-H torsion
[ 11005 11000 10999 10996 ] final  -38.33 input  -57.11 | X-H torsion

> <Gold.Protein.ActiveResidues>
 VAL166  LYS551  ARG553  GLY616  TRP617  ASP618  TYR619  PRO620  LYS621  CYS622 
 ASP623  PHE694  ASN695  SER759  ASP760  ASP761  ALA762  ILE779  LEU786  VAL792 
 PHE793  MET794  SER795  GLU796  ALA797  LYS798  CYS799  TRP800  GLU811  SER814 

> <Gold.Protein.RotatedAtoms>
  151.3431  135.0868  159.9377 H   0  0  0  0  0  0  0  0  0  0  0  0  # atno 6907 bound_to 6896
  152.5206  133.9427  159.7644 H   0  0  0  0  0  0  0  0  0  0  0  0  # atno 6908 bound_to 6896
  150.9788  133.6214  159.2755 H   0  0  0  0  0  0  0  0  0  0  0  0  # atno 6909 bound_to 6896
  144.7127  140.1283  143.6400 H   0  0  0  0  0  0  0  0  0  0  0  0  # atno 7974 bound_to 7965
  156.0309  140.3330  155.7139 H   0  0  0  0  0  0  0  0  0  0  0  0  # atno 8008 bound_to 7997
  155.5886  140.0644  157.2782 H   0  0  0  0  0  0  0  0  0  0  0  0  # atno 8009 bound_to 7997
  154.4353  140.1831  156.1039 H   0  0  0  0  0  0  0  0  0  0  0  0  # atno 8010 bound_to 7997
  139.5384  144.6706  151.4707 H   0  0  0  0  0  0  0  0  0  0  0  0  # atno 10167 bound_to 10162
  156.0318  130.5531  150.7443 H   0  0  0  0  0  0  0  0  0  0  0  0  # atno 10718 bound_to 10713
  153.1247  135.4709  154.9253 H   0  0  0  0  0  0  0  0  0  0  0  0  # atno 10763 bound_to 10752
  154.7609  135.3131  154.8382 H   0  0  0  0  0  0  0  0  0  0  0  0  # atno 10764 bound_to 10752
  153.8938  135.6882  153.4813 H   0  0  0  0  0  0  0  0  0  0  0  0  # atno 10765 bound_to 10752
  141.0020  133.6951  156.2040 H   0  0  0  0  0  0  0  0  0  0  0  0  # atno 11005 bound_to 11000
  145.9309  139.2606  143.1325 LP  0  0  0  0  0  0  0  0  0  0  0  0  # atno 17320 bound_to 7965
  145.9523  140.8899  143.0252 LP  0  0  0  0  0  0  0  0  0  0  0  0  # atno 17321 bound_to 7965
  140.6602  143.8514  150.6880 LP  0  0  0  0  0  0  0  0  0  0  0  0  # atno 17342 bound_to 10162
  140.1906  143.4039  152.1866 LP  0  0  0  0  0  0  0  0  0  0  0  0  # atno 17343 bound_to 10162
  157.5004  131.0918  151.0321 LP  0  0  0  0  0  0  0  0  0  0  0  0  # atno 17370 bound_to 10713
  157.0704  130.5862  149.5401 LP  0  0  0  0  0  0  0  0  0  0  0  0  # atno 17371 bound_to 10713
  140.6874  134.4702  157.5589 LP  0  0  0  0  0  0  0  0  0  0  0  0  # atno 17394 bound_to 11000
  139.9043  134.8483  156.1767 LP  0  0  0  0  0  0  0  0  0  0  0  0  # atno 17395 bound_to 11000

$$$$
