AV-unprocessed.smi:286|AV-procd|sdf|2173|dock1
  -GOLD-   2262021533D 1   1.00000     0.00000
 Structure written by MMmdl.
 46 48  0  0  0  0  0  0  0  0  1 V2000
  145.8166  142.4905  154.1544 O   0  0  0  0  0  0  0  0  0  0  0  0
  145.6783  142.4447  155.3781 C   0  0  0  0  0  0  0  0  0  0  0  0
  144.6684  143.2125  156.0985 C   0  0  0  0  0  0  0  0  0  0  0  0
  143.8277  144.0082  155.4160 F   0  0  0  0  0  0  0  0  0  0  0  0
  144.5630  143.1410  157.4434 C   0  0  0  0  0  0  0  0  0  0  0  0
  145.3887  142.3488  158.2249 N   0  0  0  0  0  0  0  0  0  0  0  0
  145.2610  142.2942  159.7330 C   0  0  2  0  0  0  0  0  0  0  0  0
  144.1392  143.2327  160.2167 C   0  0  0  0  0  0  0  0  0  0  0  0
  144.8274  144.0549  161.2884 C   0  0  0  0  0  0  0  0  0  0  0  0
  146.2690  144.0631  160.8027 C   0  0  0  0  0  0  0  0  0  0  0  0
  146.4484  142.7351  160.3280 O   0  0  0  0  0  0  0  0  0  0  0  0
  146.4014  141.5790  157.6123 C   0  0  0  0  0  0  0  0  0  0  0  0
  147.1658  140.8879  158.2906 O   0  0  0  0  0  0  0  0  0  0  0  0
  146.5035  141.6412  156.2025 N   0  0  0  0  0  0  0  0  0  0  0  0
  147.5562  140.8657  155.5669 C   0  0  0  0  0  0  0  0  0  0  0  0
  148.5613  141.7327  154.7736 C   0  0  2  0  0  0  0  0  0  0  0  0
  148.5611  141.3177  153.4209 O   0  0  0  0  0  0  0  0  0  0  0  0
  150.0014  141.6447  155.3361 C   0  0  0  0  0  0  0  0  0  0  0  0
  150.6103  140.2375  155.1511 C   0  0  0  0  0  0  0  0  0  0  0  0
  152.0648  140.1780  155.6446 C   0  0  0  0  0  0  0  0  0  0  0  0
  152.1743  140.6285  157.1092 C   0  0  0  0  0  0  0  0  0  0  0  0
  151.5818  142.0328  157.3001 C   0  0  0  0  0  0  0  0  0  0  0  0
  150.1258  142.0973  156.8104 C   0  0  0  0  0  0  0  0  0  0  0  0
  143.7957  143.7398  157.9092 H   0  0  0  0  0  0  0  0  0  0  0  0
  145.1021  141.2427  159.9787 H   0  0  0  0  0  0  0  0  0  0  0  0
  143.8048  143.8750  159.4005 H   0  0  0  0  0  0  0  0  0  0  0  0
  143.2879  142.6639  160.5914 H   0  0  0  0  0  0  0  0  0  0  0  0
  144.4076  145.0553  161.3961 H   0  0  0  0  0  0  0  0  0  0  0  0
  144.7604  143.5482  162.2519 H   0  0  0  0  0  0  0  0  0  0  0  0
  146.3994  144.7767  159.9881 H   0  0  0  0  0  0  0  0  0  0  0  0
  146.9801  144.3065  161.5923 H   0  0  0  0  0  0  0  0  0  0  0  0
  148.0549  140.3177  156.3683 H   0  0  0  0  0  0  0  0  0  0  0  0
  147.1009  140.0846  154.9557 H   0  0  0  0  0  0  0  0  0  0  0  0
  148.2485  142.7771  154.8052 H   0  0  0  0  0  0  0  0  0  0  0  0
  149.0447  140.5086  153.3548 H   0  0  0  0  0  0  0  0  0  0  0  0
  150.6094  142.3261  154.7388 H   0  0  0  0  0  0  0  0  0  0  0  0
  150.0182  139.4998  155.6935 H   0  0  0  0  0  0  0  0  0  0  0  0
  150.5724  139.9495  154.1001 H   0  0  0  0  0  0  0  0  0  0  0  0
  152.4510  139.1641  155.5386 H   0  0  0  0  0  0  0  0  0  0  0  0
  152.6904  140.8140  155.0173 H   0  0  0  0  0  0  0  0  0  0  0  0
  151.6495  139.9192  157.7505 H   0  0  0  0  0  0  0  0  0  0  0  0
  153.2178  140.6183  157.4250 H   0  0  0  0  0  0  0  0  0  0  0  0
  151.6332  142.3179  158.3512 H   0  0  0  0  0  0  0  0  0  0  0  0
  152.1836  142.7600  156.7539 H   0  0  0  0  0  0  0  0  0  0  0  0
  149.7570  143.1160  156.9287 H   0  0  0  0  0  0  0  0  0  0  0  0
  149.5059  141.4685  157.4504 H   0  0  0  0  0  0  0  0  0  0  0  0
  1  2  2  0  0  0  0
  2 14  1  0  0  0  0
  2  3  1  0  0  0  0
  3  4  1  0  0  0  0
  3  5  2  0  0  0  0
  5  6  1  0  0  0  0
  5 24  1  0  0  0  0
  6  7  1  0  0  0  0
  6 12  1  0  0  0  0
  7 11  1  0  0  0  0
  7  8  1  0  0  0  0
  7 25  1  0  0  0  0
  8  9  1  0  0  0  0
  8 26  1  0  0  0  0
  8 27  1  0  0  0  0
  9 10  1  0  0  0  0
  9 28  1  0  0  0  0
  9 29  1  0  0  0  0
 10 11  1  0  0  0  0
 10 30  1  0  0  0  0
 10 31  1  0  0  0  0
 12 13  2  0  0  0  0
 12 14  1  0  0  0  0
 14 15  1  0  0  0  0
 15 16  1  0  0  0  0
 15 32  1  0  0  0  0
 15 33  1  0  0  0  0
 16 17  1  0  0  0  0
 16 18  1  0  0  0  0
 16 34  1  0  0  0  0
 17 35  1  0  0  0  0
 18 23  1  0  0  0  0
 18 19  1  0  0  0  0
 18 36  1  0  0  0  0
 19 20  1  0  0  0  0
 19 37  1  0  0  0  0
 19 38  1  0  0  0  0
 20 21  1  0  0  0  0
 20 39  1  0  0  0  0
 20 40  1  0  0  0  0
 21 22  1  0  0  0  0
 21 41  1  0  0  0  0
 21 42  1  0  0  0  0
 22 23  1  0  0  0  0
 22 43  1  0  0  0  0
 22 44  1  0  0  0  0
 23 45  1  0  0  0  0
 23 46  1  0  0  0  0
M  END
> <s_m_source_file>
AV-unprocessed.smi

> <i_m_source_file_index>
286

> <i_lp_mmshare_version>
43012

> <i_f3d_flags>
0

> <s_epik_input>
TzFbQ0gyXVtDSDJdW0NIMl1bQ0BIXTFuKFtjSF1jKEYpYzI9TyljKD1PKW4yW0NIMl1bQ0BIXShbT0hdKVtDSF0zW0NIMl1bQ0gyXVtDSDJdW0NIMl1bQ0gyXTM=

> <s_epik_cmdline>
J2VwaWtfcHl0aG9uJywgJy1waCcsICc3LjAnLCAnLXRuJywgJzgnLCAnLW1hJywgJzIwMCcsICctbWV0YWxfYmluZGluZycsICctaW1hZScsICc8aW5maWxlLm1hZT4nLCAnLW9tYWUnLCAnPG91dGZpbGUubWFlPic=

> <r_lp_tautomer_probability>
1

> <r_epik_Ionization_Penalty>
3.15564e-07

> <r_epik_Ionization_Penalty_Charging>
2.06416e-08

> <r_epik_Ionization_Penalty_Neutral>
2.94923e-07

> <r_epik_State_Penalty>
-0

> <r_epik_Charging_Adjusted_Penalty>
2.06416e-08

> <i_epik_Tot_Q>
0

> <i_epik_Tot_abs_Q>
0

> <r_epik_Metal_State_Penalty>
-0

> <b_epik_Metal_Only>
0

> <s_epik_Chemistry_Notes>
This compound contains an acetal/aminal-like group ( X-CH(R)-Y where X, Y are N, S, or O) that may be acid/base labile, releasing an aldehyde.

> <s_lp_Force_Field>
OPLS_2005

> <r_lp_Energy>
41.5856

> <b_lp_Chiralities_Consistent>
1

> <s_lp_Variant>
AV-unprocessed.smi:286-1

> <Gold.Version>
5.8.1

> <Gold.Id.Protein>
6NUR|6NUR_protein|mol2

> <Gold.PLP.Fitness>
42.0310

> <Gold.PLP.PLP>
-37.5675

> <Gold.PLP.part.hbond>
-4.7937

> <Gold.PLP.part.metal>
0.0000

> <Gold.PLP.part.buried>
-4.8328

> <Gold.PLP.part.nonpolar>
-27.0628

> <Gold.PLP.part.repulsive>
0.2176

> <Gold.PLP.ligand.clash>
0.0000

> <Gold.PLP.ligand.torsion>
0.7716

> <Gold.PLP.Chemscore.Hbond>
1.9902

> <Gold.PLP.Chemscore.CHOScore>
0.0000

> <Gold.PLP.Chemscore.Metal>
0.0000

> <Gold.Chemscore.Hbonds>
donor molecule, donor type, donor heavy atom, donor atom, acceptor molecule, acceptor atom, score
      L1  H    17    35       P1  7957  0.07
      P1  H  6933  6944       L1    11  0.13
      P1  H  6934  6946       L1    11  0.50
      P1  H  8011  8017       L1    17  0.72

> <Gold.PLP.Chemscore.Internal.Correction>
0.0361

> <Gold.Rescore>
     Score         DG    S(hbond)    S(metal)    S(lipo)     H(rot)  DE(clash)    DE(int)     intcor
      8.88     -11.78       1.13        0.00      71.33       2.28       0.23       2.67       ----

> <Gold.Chemscore.Fitness>
8.8784

> <Gold.Chemscore.DG>
-11.7844

> <Gold.Chemscore.ZeroCoef>
-5.4800

> <Gold.Chemscore.Hbond>
1.1332

> <Gold.Chemscore.Metal>
0.0000

> <Gold.Chemscore.Lipo>
71.3260

> <Gold.Chemscore.Internal_Hbond>
0.0000

> <Gold.Chemscore.DEClash>
0.2342

> <Gold.Chemscore.DEInternal>
2.6719

> <Gold.Chemscore.Rot>
2.2756

> <Gold.Chemscore.Internal.Correction>
   9.000000E+99

> <Gold.Chemscore.Hbonds>
donor molecule, donor type, donor heavy atom, donor atom, acceptor molecule, acceptor atom, score
      L1  H    17    35       P1  7957  0.06
      P1  H  6933  6944       L1    11  0.02
      P1  H  6934  6946       L1    11  0.02
      P1  H  8011  8017       L1    17  0.10

> <Gold.Chemscore.Hbond.Weighted>
-3.7847

> <Gold.Chemscore.Metal.Weighted>
-0.0000

> <Gold.Chemscore.Lipo.Weighted>
-8.3451

> <Gold.Chemscore.Internal_Hbond.Weighted>
0.0000

> <Gold.Chemscore.DEClash.Weighted>
0.2342

> <Gold.Chemscore.DEInternal.Weighted>
2.6719

> <Gold.Chemscore.Rot.Weighted>
5.8254

> <Gold.Chemscore.Internal.Correction.Weighted>
   9.000000E+99

> <Gold.Protein.RotatedTorsions>
[ 6907 6896 6895 6894 ] final  112.49 input  -60.11 | X-H torsion
[ 7974 7965 7964 7962 ] final   19.87 input  175.53 | X-H torsion
[ 8008 7997 7996 7995 ] final -137.20 input   59.86 | X-H torsion
[ 10167 10162 10161 10158 ] final  -42.33 input  -65.29 | X-H torsion
[ 10718 10713 10712 10709 ] final   74.69 input   66.30 | X-H torsion
[ 10763 10752 10751 10750 ] final -146.90 input  -60.55 | X-H torsion
[ 11005 11000 10999 10996 ] final   68.52 input  -57.11 | X-H torsion

> <Gold.Protein.ActiveResidues>
 VAL166  LYS551  ARG553  GLY616  TRP617  ASP618  TYR619  PRO620  LYS621  CYS622 
 ASP623  PHE694  ASN695  SER759  ASP760  ASP761  ALA762  ILE779  LEU786  VAL792 
 PHE793  MET794  SER795  GLU796  ALA797  LYS798  CYS799  TRP800  GLU811  SER814 

> <Gold.Protein.RotatedAtoms>
  152.4913  133.8509  159.7200 H   0  0  0  0  0  0  0  0  0  0  0  0  # atno 6907 bound_to 6896
  150.9046  133.7065  159.2876 H   0  0  0  0  0  0  0  0  0  0  0  0  # atno 6908 bound_to 6896
  151.4494  135.1032  159.9746 H   0  0  0  0  0  0  0  0  0  0  0  0  # atno 6909 bound_to 6896
  146.2133  139.8251  142.8671 H   0  0  0  0  0  0  0  0  0  0  0  0  # atno 7974 bound_to 7965
  155.4079  140.0510  157.3033 H   0  0  0  0  0  0  0  0  0  0  0  0  # atno 8008 bound_to 7997
  154.4960  140.2138  155.9406 H   0  0  0  0  0  0  0  0  0  0  0  0  # atno 8009 bound_to 7997
  156.1406  140.3155  155.8494 H   0  0  0  0  0  0  0  0  0  0  0  0  # atno 8010 bound_to 7997
  140.6973  143.3044  151.3193 H   0  0  0  0  0  0  0  0  0  0  0  0  # atno 10167 bound_to 10162
  157.6603  130.9690  150.1247 H   0  0  0  0  0  0  0  0  0  0  0  0  # atno 10718 bound_to 10713
  154.8313  135.3374  154.6733 H   0  0  0  0  0  0  0  0  0  0  0  0  # atno 10763 bound_to 10752
  153.7353  135.6949  153.4984 H   0  0  0  0  0  0  0  0  0  0  0  0  # atno 10764 bound_to 10752
  153.2283  135.4425  155.0518 H   0  0  0  0  0  0  0  0  0  0  0  0  # atno 10765 bound_to 10752
  139.9706  134.6906  156.0454 H   0  0  0  0  0  0  0  0  0  0  0  0  # atno 11005 bound_to 11000
  145.3055  141.0206  143.3584 LP  0  0  0  0  0  0  0  0  0  0  0  0  # atno 17320 bound_to 7965
  144.8974  139.4694  143.6649 LP  0  0  0  0  0  0  0  0  0  0  0  0  # atno 17321 bound_to 7965
  139.6444  144.0478  152.2579 LP  0  0  0  0  0  0  0  0  0  0  0  0  # atno 17342 bound_to 10162
  139.9994  144.6304  150.7743 LP  0  0  0  0  0  0  0  0  0  0  0  0  # atno 17343 bound_to 10162
  156.2109  130.3666  149.8671 LP  0  0  0  0  0  0  0  0  0  0  0  0  # atno 17370 bound_to 10713
  156.6550  130.8759  151.3538 LP  0  0  0  0  0  0  0  0  0  0  0  0  # atno 17371 bound_to 10713
  141.1386  133.6569  156.3665 LP  0  0  0  0  0  0  0  0  0  0  0  0  # atno 17394 bound_to 11000
  140.5301  134.6221  157.5347 LP  0  0  0  0  0  0  0  0  0  0  0  0  # atno 17395 bound_to 11000

$$$$
