AV-unprocessed.smi:3|AV-procd|sdf|32|dock5
  -GOLD-   2262015143D 1   1.00000     0.00000
 Structure written by MMmdl.
 33 35  0  0  0  0  0  0  0  0  1 V2000
  152.2469  140.3586  157.7980 C   0  0  0  0  0  0  0  0  0  0  0  0
  151.5916  141.5889  157.3784 N   0  0  0  0  0  0  0  0  0  0  0  0
  150.6645  141.5487  156.2506 C   0  0  0  0  0  0  0  0  0  0  0  0
  150.4015  140.1216  155.7741 C   0  0  1  0  0  0  0  0  0  0  0  0
  149.5208  139.8747  154.5397 C   0  0  0  0  0  0  0  0  0  0  0  0
  150.4706  138.7535  154.1090 C   0  0  2  0  0  0  0  0  0  0  0  0
  150.0599  137.4291  154.3710 O   0  0  0  0  0  0  0  0  0  0  0  0
  151.5178  139.3555  155.0513 C   0  0  0  0  0  0  0  0  0  0  0  0
  151.5046  142.6856  158.2615 C   0  0  0  0  0  0  0  0  0  0  0  0
  150.8654  143.7932  157.8078 N   0  0  0  0  0  0  0  0  0  0  0  0
  150.7700  144.8578  158.6432 C   0  0  0  0  0  0  0  0  0  0  0  0
  151.2354  144.9656  159.9112 N   0  0  0  0  0  0  0  0  0  0  0  0
  151.8727  143.8589  160.3950 C   0  0  0  0  0  0  0  0  0  0  0  0
  152.4017  143.6900  161.6024 N   0  0  0  0  0  0  0  0  0  0  0  0
  152.8915  142.4398  161.6267 C   0  0  0  0  0  0  0  0  0  0  0  0
  152.6892  141.7215  160.3870 C   0  0  0  0  0  0  0  0  0  0  0  0
  152.0224  142.7030  159.5886 C   0  0  0  0  0  0  0  0  0  0  0  0
  150.0402  139.4950  156.5918 H   0  0  0  0  0  0  0  0  0  0  0  0
  150.7638  138.8369  153.0621 H   0  0  0  0  0  0  0  0  0  0  0  0
  153.0546  140.5586  158.5026 H   0  0  0  0  0  0  0  0  0  0  0  0
  152.6818  139.8542  156.9348 H   0  0  0  0  0  0  0  0  0  0  0  0
  151.5323  139.6766  158.2583 H   0  0  0  0  0  0  0  0  0  0  0  0
  149.7282  142.0483  156.5004 H   0  0  0  0  0  0  0  0  0  0  0  0
  151.0956  142.1333  155.4375 H   0  0  0  0  0  0  0  0  0  0  0  0
  148.5055  139.5541  154.7759 H   0  0  0  0  0  0  0  0  0  0  0  0
  149.5199  140.7130  153.8411 H   0  0  0  0  0  0  0  0  0  0  0  0
  149.7272  137.0770  153.5595 H   0  0  0  0  0  0  0  0  0  0  0  0
  152.2179  140.0115  154.5317 H   0  0  0  0  0  0  0  0  0  0  0  0
  152.0407  138.6322  155.6778 H   0  0  0  0  0  0  0  0  0  0  0  0
  150.2590  145.7240  158.2499 H   0  0  0  0  0  0  0  0  0  0  0  0
  153.3767  142.0449  162.5107 H   0  0  0  0  0  0  0  0  0  0  0  0
  152.9729  140.7052  160.1486 H   0  0  0  0  0  0  0  0  0  0  0  0
  151.0884  145.8233  160.4238 H   0  0  0  0  0  0  0  0  0  0  0  0
  1  2  1  0  0  0  0
  1 20  1  0  0  0  0
  1 21  1  0  0  0  0
  1 22  1  0  0  0  0
  2  3  1  0  0  0  0
  2  9  1  0  0  0  0
  3  4  1  0  0  0  0
  3 23  1  0  0  0  0
  3 24  1  0  0  0  0
  4 18  1  0  0  0  0
  4  8  1  0  0  0  0
  4  5  1  0  0  0  0
  5  6  1  0  0  0  0
  5 25  1  0  0  0  0
  5 26  1  0  0  0  0
  6 19  1  0  0  0  0
  6  7  1  0  0  0  0
  6  8  1  0  0  0  0
  7 27  1  0  0  0  0
  8 28  1  0  0  0  0
  8 29  1  0  0  0  0
  9 17  2  0  0  0  0
  9 10  1  0  0  0  0
 10 11  2  0  0  0  0
 11 12  1  0  0  0  0
 11 30  1  0  0  0  0
 12 13  1  0  0  0  0
 12 33  1  0  0  0  0
 13 17  1  0  0  0  0
 13 14  2  0  0  0  0
 14 15  1  0  0  0  0
 15 16  2  0  0  0  0
 15 31  1  0  0  0  0
 16 17  1  0  0  0  0
 16 32  1  0  0  0  0
M  END
> <s_m_source_file>
AV-unprocessed.smi

> <i_m_source_file_index>
3

> <i_lp_mmshare_version>
43012

> <i_f3d_flags>
0

> <s_epik_input>
W25IXTFbY0hdW2NIXWMoYzEyKWMobltjSF1uMilOKFtDSDNdKVtDSDJdW0NASF0zW0NIMl1bQ0BASF0oW09IXSlbQ0gyXTM=

> <s_epik_cmdline>
J2VwaWtfcHl0aG9uJywgJy1waCcsICc3LjAnLCAnLXRuJywgJzgnLCAnLW1hJywgJzIwMCcsICctbWV0YWxfYmluZGluZycsICctaW1hZScsICc8aW5maWxlLm1hZT4nLCAnLW9tYWUnLCAnPG91dGZpbGUubWFlPic=

> <r_lp_tautomer_probability>
1.75997e-05

> <r_epik_Ionization_Penalty>
5.52529

> <r_epik_Ionization_Penalty_Charging>
0

> <r_epik_Ionization_Penalty_Neutral>
5.52529

> <r_epik_State_Penalty>
8.99615

> <r_epik_Charging_Adjusted_Penalty>
8.99615

> <i_epik_Tot_Q>
0

> <i_epik_Tot_abs_Q>
0

> <r_epik_Metal_State_Penalty>
6.01519

> <b_epik_Metal_Only>
1

> <s_lp_Force_Field>
OPLS_2005

> <r_lp_Energy>
26.4435

> <b_lp_Chiralities_Consistent>
1

> <s_lp_Variant>
AV-unprocessed.smi:3-6

> <Gold.Version>
5.8.1

> <Gold.Id.Protein>
6NUR|6NUR_protein|mol2

> <Gold.PLP.Fitness>
43.2255

> <Gold.PLP.PLP>
-37.7115

> <Gold.PLP.part.hbond>
-1.0000

> <Gold.PLP.part.metal>
0.0000

> <Gold.PLP.part.buried>
-6.0009

> <Gold.PLP.part.nonpolar>
-32.4366

> <Gold.PLP.part.repulsive>
0.9931

> <Gold.PLP.ligand.clash>
1.3858

> <Gold.PLP.ligand.torsion>
0.3160

> <Gold.PLP.Chemscore.Hbond>
1.0000

> <Gold.PLP.Chemscore.CHOScore>
1.0000

> <Gold.PLP.Chemscore.Metal>
0.0000

> <Gold.Chemscore.Hbonds>
donor molecule, donor type, donor heavy atom, donor atom, acceptor molecule, acceptor atom, score
      L1  H     7    27       P1  7948  1.00
      L1  C    11    30       P1  8029  0.98

> <Gold.PLP.Chemscore.Internal.Correction>
1.5319

> <Gold.Rescore>
     Score         DG    S(hbond)    S(metal)    S(lipo)     H(rot)  DE(clash)    DE(int)     intcor
      9.73     -11.41       0.56        0.00      74.96       1.84       0.19       1.49       ----

> <Gold.Chemscore.Fitness>
9.7337

> <Gold.Chemscore.DG>
-11.4115

> <Gold.Chemscore.ZeroCoef>
-5.4800

> <Gold.Chemscore.Hbond>
0.5602

> <Gold.Chemscore.Metal>
0.0000

> <Gold.Chemscore.Lipo>
74.9559

> <Gold.Chemscore.Internal_Hbond>
0.0000

> <Gold.Chemscore.DEClash>
0.1906

> <Gold.Chemscore.DEInternal>
1.4872

> <Gold.Chemscore.Rot>
1.8396

> <Gold.Chemscore.Internal.Correction>
   9.000000E+99

> <Gold.Chemscore.Hbonds>
donor molecule, donor type, donor heavy atom, donor atom, acceptor molecule, acceptor atom, score
      L1  H     7    27       P1  7948  0.62

> <Gold.Chemscore.Hbond.Weighted>
-1.8711

> <Gold.Chemscore.Metal.Weighted>
-0.0000

> <Gold.Chemscore.Lipo.Weighted>
-8.7698

> <Gold.Chemscore.Internal_Hbond.Weighted>
0.0000

> <Gold.Chemscore.DEClash.Weighted>
0.1906

> <Gold.Chemscore.DEInternal.Weighted>
1.4872

> <Gold.Chemscore.Rot.Weighted>
4.7095

> <Gold.Chemscore.Internal.Correction.Weighted>
   9.000000E+99

> <Gold.Protein.RotatedTorsions>
[ 6907 6896 6895 6894 ] final -170.35 input  -60.11 | X-H torsion
[ 7974 7965 7964 7962 ] final  -64.61 input  175.53 | X-H torsion
[ 8008 7997 7996 7995 ] final  -22.72 input   59.86 | X-H torsion
[ 10167 10162 10161 10158 ] final -150.92 input  -65.29 | X-H torsion
[ 10718 10713 10712 10709 ] final  134.80 input   66.30 | X-H torsion
[ 10763 10752 10751 10750 ] final  160.14 input  -60.55 | X-H torsion
[ 11005 11000 10999 10996 ] final  170.15 input  -57.11 | X-H torsion

> <Gold.Protein.ActiveResidues>
 VAL166  LYS551  ARG553  GLY616  TRP617  ASP618  TYR619  PRO620  LYS621  CYS622 
 ASP623  PHE694  ASN695  SER759  ASP760  ASP761  ALA762  ILE779  LEU786  VAL792 
 PHE793  MET794  SER795  GLU796  ALA797  LYS798  CYS799  TRP800  GLU811  SER814 

> <Gold.Protein.RotatedAtoms>
  151.5064  133.3494  159.2877 H   0  0  0  0  0  0  0  0  0  0  0  0  # atno 6907 bound_to 6896
  150.8740  134.8122  159.7187 H   0  0  0  0  0  0  0  0  0  0  0  0  # atno 6908 bound_to 6896
  152.4718  134.4952  159.9759 H   0  0  0  0  0  0  0  0  0  0  0  0  # atno 6909 bound_to 6896
  145.7645  140.8844  143.0412 H   0  0  0  0  0  0  0  0  0  0  0  0  # atno 7974 bound_to 7965
  154.4627  140.2000  156.0200 H   0  0  0  0  0  0  0  0  0  0  0  0  # atno 8008 bound_to 7997
  156.0870  140.3263  155.7738 H   0  0  0  0  0  0  0  0  0  0  0  0  # atno 8009 bound_to 7997
  155.5018  140.0554  157.2928 H   0  0  0  0  0  0  0  0  0  0  0  0  # atno 8010 bound_to 7997
  139.7312  143.8805  152.2535 H   0  0  0  0  0  0  0  0  0  0  0  0  # atno 10167 bound_to 10162
  157.4636  131.1075  150.9890 H   0  0  0  0  0  0  0  0  0  0  0  0  # atno 10718 bound_to 10713
  154.2428  135.2774  155.2847 H   0  0  0  0  0  0  0  0  0  0  0  0  # atno 10763 bound_to 10752
  154.5530  135.5669  153.6943 H   0  0  0  0  0  0  0  0  0  0  0  0  # atno 10764 bound_to 10752
  152.9996  135.6279  154.2573 H   0  0  0  0  0  0  0  0  0  0  0  0  # atno 10765 bound_to 10752
  140.3053  134.7561  157.3949 H   0  0  0  0  0  0  0  0  0  0  0  0  # atno 11005 bound_to 11000
  144.6824  139.9769  143.7483 LP  0  0  0  0  0  0  0  0  0  0  0  0  # atno 17320 bound_to 7965
  146.0231  139.3268  143.0801 LP  0  0  0  0  0  0  0  0  0  0  0  0  # atno 17321 bound_to 7965
  139.8728  144.7059  150.8967 LP  0  0  0  0  0  0  0  0  0  0  0  0  # atno 17342 bound_to 10162
  140.7771  143.3724  151.1625 LP  0  0  0  0  0  0  0  0  0  0  0  0  # atno 17343 bound_to 10162
  157.0679  130.5852  149.5397 LP  0  0  0  0  0  0  0  0  0  0  0  0  # atno 17370 bound_to 10713
  156.0040  130.5123  150.7764 LP  0  0  0  0  0  0  0  0  0  0  0  0  # atno 17371 bound_to 10713
  140.1072  134.5393  155.8298 LP  0  0  0  0  0  0  0  0  0  0  0  0  # atno 17394 bound_to 11000
  141.2119  133.6713  156.6622 LP  0  0  0  0  0  0  0  0  0  0  0  0  # atno 17395 bound_to 11000

$$$$
