AV-unprocessed.smi:1562|AV-procd|sdf|6287|dock1
  -GOLD-   22720 6483D 1   1.00000     0.00000
 Structure written by MMmdl.
 40 41  0  0  0  0  0  0  0  0  1 V2000
  143.4861  139.9705  155.4054 N   0  0  0  0  0  0  0  0  0  0  0  0
  144.7388  140.0756  155.8563 C   0  0  0  0  0  0  0  0  0  0  0  0
  145.0290  139.8624  157.0320 O   0  0  0  0  0  0  0  0  0  0  0  0
  145.8172  140.4767  154.8406 C   0  0  0  0  0  0  0  0  0  0  0  0
  146.8648  139.3510  154.6659 C   0  0  0  0  0  0  0  0  0  0  0  0
  148.0205  139.8043  153.7555 C   0  0  0  0  0  0  0  0  0  0  0  0
  148.6244  141.0189  154.3293 N   0  0  0  0  0  0  0  0  0  0  0  0
  149.8065  141.0912  154.9925 C   0  0  0  0  0  0  0  0  0  0  0  0
  150.6738  140.2189  154.9234 O   0  0  0  0  0  0  0  0  0  0  0  0
  149.9530  142.1794  155.7656 N   0  0  0  0  0  0  0  0  0  0  0  0
  151.1272  142.4640  156.5791 C   0  0  0  0  0  0  0  0  0  0  0  0
  150.9879  141.8360  157.9729 C   0  0  0  0  0  0  0  0  0  0  0  0
  151.4026  142.7914  159.0767 C   0  0  0  0  0  0  0  0  0  0  0  0
  151.3697  144.1876  158.8730 C   0  0  0  0  0  0  0  0  0  0  0  0
  151.7741  145.0293  159.9276 C   0  0  0  0  0  0  0  0  0  0  0  0
  152.1942  144.4457  161.1386 C   0  0  0  0  0  0  0  0  0  0  0  0
  152.1908  143.0402  161.2415 C   0  0  0  0  0  0  0  0  0  0  0  0
  151.8044  142.2245  160.2369 N   0  0  0  0  0  0  0  0  0  0  0  0
  147.6741  142.1379  154.3146 C   0  0  0  0  0  0  0  0  0  0  0  0
  146.4977  141.8042  155.2505 C   0  0  0  0  0  0  0  0  0  0  0  0
  142.7459  139.7115  156.0415 H   0  0  0  0  0  0  0  0  0  0  0  0
  143.2819  140.1523  154.4335 H   0  0  0  0  0  0  0  0  0  0  0  0
  145.3384  140.6355  153.8726 H   0  0  0  0  0  0  0  0  0  0  0  0
  147.2703  139.0536  155.6346 H   0  0  0  0  0  0  0  0  0  0  0  0
  146.3925  138.4632  154.2434 H   0  0  0  0  0  0  0  0  0  0  0  0
  148.7238  138.9836  153.6152 H   0  0  0  0  0  0  0  0  0  0  0  0
  147.6407  140.0302  152.7581 H   0  0  0  0  0  0  0  0  0  0  0  0
  149.2016  142.8534  155.7877 H   0  0  0  0  0  0  0  0  0  0  0  0
  152.0179  142.0752  156.0823 H   0  0  0  0  0  0  0  0  0  0  0  0
  151.2497  143.5447  156.6642 H   0  0  0  0  0  0  0  0  0  0  0  0
  149.9569  141.5209  158.1391 H   0  0  0  0  0  0  0  0  0  0  0  0
  151.5983  140.9340  158.0391 H   0  0  0  0  0  0  0  0  0  0  0  0
  151.0453  144.6056  157.9314 H   0  0  0  0  0  0  0  0  0  0  0  0
  151.7632  146.1029  159.8093 H   0  0  0  0  0  0  0  0  0  0  0  0
  152.5120  145.0596  161.9685 H   0  0  0  0  0  0  0  0  0  0  0  0
  152.5077  142.5586  162.1546 H   0  0  0  0  0  0  0  0  0  0  0  0
  148.1318  143.0825  154.6121 H   0  0  0  0  0  0  0  0  0  0  0  0
  147.3128  142.2945  153.2972 H   0  0  0  0  0  0  0  0  0  0  0  0
  145.7720  142.6183  155.2309 H   0  0  0  0  0  0  0  0  0  0  0  0
  146.8646  141.7433  156.2766 H   0  0  0  0  0  0  0  0  0  0  0  0
  1  2  1  0  0  0  0
  1 21  1  0  0  0  0
  1 22  1  0  0  0  0
  2  3  2  0  0  0  0
  2  4  1  0  0  0  0
  4 20  1  0  0  0  0
  4  5  1  0  0  0  0
  4 23  1  0  0  0  0
  5  6  1  0  0  0  0
  5 24  1  0  0  0  0
  5 25  1  0  0  0  0
  6  7  1  0  0  0  0
  6 26  1  0  0  0  0
  6 27  1  0  0  0  0
  7  8  1  0  0  0  0
  7 19  1  0  0  0  0
  8  9  2  0  0  0  0
  8 10  1  0  0  0  0
 10 11  1  0  0  0  0
 10 28  1  0  0  0  0
 11 12  1  0  0  0  0
 11 29  1  0  0  0  0
 11 30  1  0  0  0  0
 12 13  1  0  0  0  0
 12 31  1  0  0  0  0
 12 32  1  0  0  0  0
 13 18  1  0  0  0  0
 13 14  2  0  0  0  0
 14 15  1  0  0  0  0
 14 33  1  0  0  0  0
 15 16  2  0  0  0  0
 15 34  1  0  0  0  0
 16 17  1  0  0  0  0
 16 35  1  0  0  0  0
 17 18  2  0  0  0  0
 17 36  1  0  0  0  0
 19 20  1  0  0  0  0
 19 37  1  0  0  0  0
 19 38  1  0  0  0  0
 20 39  1  0  0  0  0
 20 40  1  0  0  0  0
M  END
> <s_m_source_file>
AV-unprocessed.smi

> <i_m_source_file_index>
1562

> <i_lp_mmshare_version>
43012

> <i_f3d_flags>
0

> <s_epik_input>
W05IMl1DKD1PKVtDSF0xW0NIMl1bQ0gyXU4oW0NIMl1bQ0gyXTEpQyg9TylbTkhdW0NIMl1bQ0gyXWMyW2NIXVtjSF1bY0hdW2NIXW4y

> <s_epik_cmdline>
J2VwaWtfcHl0aG9uJywgJy1waCcsICc3LjAnLCAnLXRuJywgJzgnLCAnLW1hJywgJzIwMCcsICctbWV0YWxfYmluZGluZycsICctaW1hZScsICc8aW5maWxlLm1hZT4nLCAnLW9tYWUnLCAnPG91dGZpbGUubWFlPic=

> <r_epik_Ionization_Penalty>
0.0445602

> <r_epik_Ionization_Penalty_Charging>
0

> <r_epik_Ionization_Penalty_Neutral>
0.0445602

> <r_epik_State_Penalty>
0.0377204

> <r_epik_Charging_Adjusted_Penalty>
0.0377204

> <i_epik_Tot_Q>
0

> <i_epik_Tot_abs_Q>
0

> <r_epik_Metal_State_Penalty>
0.0350723

> <b_epik_Metal_Only>
0

> <s_lp_Force_Field>
OPLS_2005

> <r_lp_Energy>
26.805

> <b_lp_Chiralities_Consistent>
1

> <s_lp_Variant>
AV-unprocessed.smi:1562-1

> <Gold.Version>
5.8.1

> <Gold.Id.Protein>
6NUR|6NUR_protein|mol2

> <Gold.PLP.Fitness>
43.1679

> <Gold.PLP.PLP>
-38.3971

> <Gold.PLP.part.hbond>
-3.5511

> <Gold.PLP.part.metal>
0.0000

> <Gold.PLP.part.buried>
-3.0829

> <Gold.PLP.part.nonpolar>
-31.1855

> <Gold.PLP.part.repulsive>
0.2366

> <Gold.PLP.ligand.clash>
1.7300

> <Gold.PLP.ligand.torsion>
0.9481

> <Gold.PLP.Chemscore.Hbond>
2.7480

> <Gold.PLP.Chemscore.CHOScore>
0.0000

> <Gold.PLP.Chemscore.Metal>
0.0000

> <Gold.Chemscore.Hbonds>
donor molecule, donor type, donor heavy atom, donor atom, acceptor molecule, acceptor atom, score
      L1  H     1    22       P1 10175  1.00
      L1  H    10    28       P1  8028  0.83
      P1  H  7989  7998       L1     9  0.95

> <Gold.PLP.Chemscore.Internal.Correction>
0.1529

> <Gold.Rescore>
     Score         DG    S(hbond)    S(metal)    S(lipo)     H(rot)  DE(clash)    DE(int)     intcor
     17.55     -19.07       2.16        0.00      97.13       1.95       0.81       0.71       ----

> <Gold.Chemscore.Fitness>
17.5469

> <Gold.Chemscore.DG>
-19.0696

> <Gold.Chemscore.ZeroCoef>
-5.4800

> <Gold.Chemscore.Hbond>
2.1604

> <Gold.Chemscore.Metal>
0.0000

> <Gold.Chemscore.Lipo>
97.1269

> <Gold.Chemscore.Internal_Hbond>
0.0000

> <Gold.Chemscore.DEClash>
0.8118

> <Gold.Chemscore.DEInternal>
0.7109

> <Gold.Chemscore.Rot>
1.9492

> <Gold.Chemscore.Internal.Correction>
   9.000000E+99

> <Gold.Chemscore.Hbonds>
donor molecule, donor type, donor heavy atom, donor atom, acceptor molecule, acceptor atom, score
      L1  H     1    22       P1 10175  0.97
      L1  H    10    28       P1  8028  0.81
      P1  H  7989  7998       L1     9  0.21

> <Gold.Chemscore.Hbond.Weighted>
-7.2157

> <Gold.Chemscore.Metal.Weighted>
-0.0000

> <Gold.Chemscore.Lipo.Weighted>
-11.3639

> <Gold.Chemscore.Internal_Hbond.Weighted>
0.0000

> <Gold.Chemscore.DEClash.Weighted>
0.8118

> <Gold.Chemscore.DEInternal.Weighted>
0.7109

> <Gold.Chemscore.Rot.Weighted>
4.9900

> <Gold.Chemscore.Internal.Correction.Weighted>
   9.000000E+99

> <Gold.Protein.RotatedTorsions>
[ 6907 6896 6895 6894 ] final   30.38 input  -60.11 | X-H torsion
[ 7974 7965 7964 7962 ] final  106.70 input  175.53 | X-H torsion
[ 8008 7997 7996 7995 ] final   57.65 input   59.86 | X-H torsion
[ 10167 10162 10161 10158 ] final  170.96 input  -65.29 | X-H torsion
[ 10718 10713 10712 10709 ] final  101.14 input   66.30 | X-H torsion
[ 10763 10752 10751 10750 ] final  -30.43 input  -60.55 | X-H torsion
[ 11005 11000 10999 10996 ] final  135.94 input  -57.11 | X-H torsion

> <Gold.Protein.ActiveResidues>
 VAL166  LYS551  ARG553  GLY616  TRP617  ASP618  TYR619  PRO620  LYS621  CYS622 
 ASP623  PHE694  ASN695  SER759  ASP760  ASP761  ALA762  ILE779  LEU786  VAL792 
 PHE793  MET794  SER795  GLU796  ALA797  LYS798  CYS799  TRP800  GLU811  SER814 

> <Gold.Protein.RotatedAtoms>
  152.0452  134.9687  160.0574 H   0  0  0  0  0  0  0  0  0  0  0  0  # atno 6907 bound_to 6896
  152.1110  133.4296  159.4639 H   0  0  0  0  0  0  0  0  0  0  0  0  # atno 6908 bound_to 6896
  150.6843  134.2567  159.4576 H   0  0  0  0  0  0  0  0  0  0  0  0  # atno 6909 bound_to 6896
  145.3032  139.2563  143.3803 H   0  0  0  0  0  0  0  0  0  0  0  0  # atno 7974 bound_to 7965
  155.5371  140.3483  155.4439 H   0  0  0  0  0  0  0  0  0  0  0  0  # atno 8008 bound_to 7997
  156.0677  140.1355  156.9892 H   0  0  0  0  0  0  0  0  0  0  0  0  # atno 8009 bound_to 7997
  154.4512  140.0972  156.6597 H   0  0  0  0  0  0  0  0  0  0  0  0  # atno 8010 bound_to 7997
  139.5033  144.3539  151.9895 H   0  0  0  0  0  0  0  0  0  0  0  0  # atno 10167 bound_to 10162
  157.6837  131.0718  150.5207 H   0  0  0  0  0  0  0  0  0  0  0  0  # atno 10718 bound_to 10713
  153.7808  135.6905  153.4889 H   0  0  0  0  0  0  0  0  0  0  0  0  # atno 10763 bound_to 10752
  153.1812  135.4505  155.0029 H   0  0  0  0  0  0  0  0  0  0  0  0  # atno 10764 bound_to 10752
  154.8082  135.3366  154.7311 H   0  0  0  0  0  0  0  0  0  0  0  0  # atno 10765 bound_to 10752
  140.0013  134.9477  157.0077 H   0  0  0  0  0  0  0  0  0  0  0  0  # atno 11005 bound_to 11000
  146.3145  140.3550  142.8659 LP  0  0  0  0  0  0  0  0  0  0  0  0  # atno 17320 bound_to 7965
  144.9077  140.7719  143.5827 LP  0  0  0  0  0  0  0  0  0  0  0  0  # atno 17321 bound_to 7965
  140.2975  144.3684  150.6070 LP  0  0  0  0  0  0  0  0  0  0  0  0  # atno 17342 bound_to 10162
  140.5899  143.2168  151.7273 LP  0  0  0  0  0  0  0  0  0  0  0  0  # atno 17343 bound_to 10162
  156.5521  130.4234  149.6103 LP  0  0  0  0  0  0  0  0  0  0  0  0  # atno 17370 bound_to 10713
  156.2894  130.7115  151.1960 LP  0  0  0  0  0  0  0  0  0  0  0  0  # atno 17371 bound_to 10713
  140.4723  134.1373  155.7205 LP  0  0  0  0  0  0  0  0  0  0  0  0  # atno 17394 bound_to 11000
  141.1644  133.8732  157.1758 LP  0  0  0  0  0  0  0  0  0  0  0  0  # atno 17395 bound_to 11000

$$$$
