#       Name:                AV-unprocessed.smi:1417
#       Creating user name   scv26
#       Creation time:       Fri Mar 27 05:41:39 2020


#       File generated by GOLD software.
#

@<TRIPOS>MOLECULE
AV-unprocessed.smi:1417
    47    48     1
SMALL
NO_CHARGES


@<TRIPOS>ATOM
      1 ****        -5.0299   5.0219   0.9008 C.3            1 S1                 0.0000
      2 ****        -4.3656   3.6921   1.0055 C.2            1 S1                 0.0000
      3 ****        -3.0645   3.2909   0.8928 C.2            1 S1                 0.0000
      4 ****        -3.1446   1.8845   1.1095 C.2            1 S1                 0.0000
      5 ****        -2.0607   0.9691   1.0950 N.am           1 S1                 0.0000
      6 ****        -0.7487   1.2316   0.9736 C.2            1 S1                 0.0000
      7 ****        -0.2524   2.3524   0.8623 O.2            1 S1                 0.0000
      8 ****        -0.0249   0.1025   0.9916 N.am           1 S1                 0.0000
      9 ****         1.4331   0.0294   0.8980 C.3            1 S1                 0.0000
     10 ****         1.9309   0.2458  -0.5452 C.3            1 S1                 0.0000
     11 ****         1.5855  -0.9432  -1.4583 C.3            1 S1                 0.0000
     12 ****         2.1206  -2.2153  -0.9040 N.4            1 S1                 1.0000
     13 ****         1.9428  -3.3742  -1.8157 C.3            1 S1                 0.0000
     14 ****         2.9847  -3.3403  -2.9388 C.2            1 S1                 0.0000
     15 ****         4.2365  -3.5512  -2.4841 N.pl3          1 S1                -1.0000
     16 ****         2.6252  -3.1331  -4.0953 O.2            1 S1                 0.0000
     17 ****         1.6008  -2.4818   0.4609 C.3            1 S1                 0.0000
     18 ****         1.9379  -1.3264   1.4217 C.3            1 S1                 0.0000
     19 ****        -4.3801   1.4720   1.3242 N.2            1 S1                 0.0000
     20 ****        -5.1698   2.6260   1.2635 O.3            1 S1                 0.0000
     21 ****        -4.3093   5.7983   0.6430 H              1 S1                 0.0000
     22 ****        -5.4975   5.2955   1.8467 H              1 S1                 0.0000
     23 ****        -5.8024   5.0091   0.1318 H              1 S1                 0.0000
     24 ****        -2.2086   3.9160   0.6878 H              1 S1                 0.0000
     25 ****        -2.3171  -0.0013   1.2008 H              1 S1                 0.0000
     26 ****        -0.5183  -0.7723   1.0936 H              1 S1                 0.0000
     27 ****         1.8481   0.8132   1.5344 H              1 S1                 0.0000
     28 ****         1.5235   1.1676  -0.9615 H              1 S1                 0.0000
     29 ****         3.0137   0.3775  -0.5320 H              1 S1                 0.0000
     30 ****         0.5045  -1.0237  -1.5829 H              1 S1                 0.0000
     31 ****         2.0016  -0.7599  -2.4492 H              1 S1                 0.0000
     32 ****         2.0645  -4.3119  -1.2704 H              1 S1                 0.0000
     33 ****         0.9324  -3.3839  -2.2278 H              1 S1                 0.0000
     34 ****         4.3810  -3.7293  -1.4831 H              1 S1                 0.0000
     35 ****         0.5222  -2.6402   0.4165 H              1 S1                 0.0000
     36 ****         2.0396  -3.4029   0.8463 H              1 S1                 0.0000
     37 ****         3.0204  -1.2781   1.5495 H              1 S1                 0.0000
     38 ****         1.5259  -1.5284   2.4113 H              1 S1                 0.0000
     39 ****         3.1204  -2.0987  -0.8118 H              1 S1                 0.0000
     40 ****        -0.8403   3.1613   0.8574 LP             1 S1                 0.0000
     41 ****         0.7387   2.4541   0.7767 LP             1 S1                 0.0000
     42 ****         5.0136  -3.5344  -3.1132 LP             1 S1                 0.0000
     43 ****         1.6571  -2.9877  -4.2996 LP             1 S1                 0.0000
     44 ****         3.3006  -3.1098  -4.8323 LP             1 S1                 0.0000
     45 ****        -4.6864   0.5353   1.4939 LP             1 S1                 0.0000
     46 ****        -5.8478   2.5318   0.5344 LP             1 S1                 0.0000
     47 ****        -5.6367   2.7605   2.1375 LP             1 S1                 0.0000
@<TRIPOS>BOND
    1    1    2 1     
    2    1   21 1     
    3    1   22 1     
    4    1   23 1     
    5    2   20 1     
    6    2    3 2     
    7    3    4 1     
    8    3   24 1     
    9    4    5 1     
   10    4   19 2     
   11    5    6 am    
   12    5   25 1     
   13    6    7 2     
   14    6    8 am    
   15    8    9 1     
   16    8   26 1     
   17    9   18 1     
   18    9   10 1     
   19    9   27 1     
   20   10   11 1     
   21   10   28 1     
   22   10   29 1     
   23   11   12 1     
   24   11   30 1     
   25   11   31 1     
   26   12   13 1     
   27   12   17 1     
   28   12   39 1     
   29   13   14 1     
   30   13   32 1     
   31   13   33 1     
   32   14   15 1     
   33   14   16 2     
   34   15   34 1     
   35   17   18 1     
   36   17   35 1     
   37   17   36 1     
   38   18   37 1     
   39   18   38 1     
   40   19   20 1     
   41    7   40 1     
   42    7   41 1     
   43   15   42 1     
   44   16   43 1     
   45   16   44 1     
   46   19   45 1     
   47   20   46 1     
   48   20   47 1     
@<TRIPOS>SUBSTRUCTURE
      1 S1             1
@<TRIPOS>SET
LONE_PAIRS      STATIC     ATOMS    <user>   **** ""
8 40 41 42 43 44 45 46 47
DONOR_HYDROGENS      STATIC     ATOMS    <user>   **** ""
4 25 26 39 34
ATOM$BLUE        STATIC     ATOMS    COLORGROUP SYSTEM
8 40 41 42 43 44 45 46 47
ATOM$RED        STATIC     ATOMS    COLORGROUP SYSTEM
4 25 26 39 34
