AV-unprocessed.smi:830|AV-procd|sdf|3870|dock5
  -GOLD-   22720 1323D 1   1.00000     0.00000
 Structure written by MMmdl.
 52 54  0  0  0  0  0  0  0  0  1 V2000
  149.3515  136.3060  156.8564 C   0  0  0  0  0  0  0  0  0  0  0  0
  148.8551  137.2840  157.9346 C   0  0  2  0  0  0  0  0  0  0  0  0
  149.9315  138.1883  158.3352 N   0  0  0  0  0  0  0  0  0  0  0  0
  149.9319  139.5204  158.1882 C   0  0  0  0  0  0  0  0  0  0  0  0
  148.9974  140.1549  157.6982 O   0  0  0  0  0  0  0  0  0  0  0  0
  151.0853  140.0541  158.6220 N   0  0  0  0  0  0  0  0  0  0  0  0
  151.4972  141.4127  158.5383 C   0  0  0  0  0  0  0  0  0  0  0  0
  150.9237  142.2936  157.5897 C   0  0  0  0  0  0  0  0  0  0  0  0
  151.3044  143.6464  157.5872 C   0  0  0  0  0  0  0  0  0  0  0  0
  152.2362  144.0757  158.5468 C   0  0  0  0  0  0  0  0  0  0  0  0
  152.7812  143.2521  159.4643 N   0  0  0  0  0  0  0  0  0  0  0  0
  152.4364  141.9405  159.4705 C   0  0  0  0  0  0  0  0  0  0  0  0
  153.0561  141.1226  160.4439 N   0  0  0  0  0  0  0  0  0  0  0  0
  153.6702  141.7148  161.6280 C   0  0  0  0  0  0  0  0  0  0  0  0
  154.5492  140.6126  162.2124 C   0  0  0  0  0  0  0  0  0  0  0  0
  155.0521  139.8995  160.9612 C   0  0  0  0  0  0  0  0  0  0  0  0
  153.8712  139.9989  159.9903 C   0  0  0  0  0  0  0  0  0  0  0  0
  148.2302  136.5881  159.1499 C   0  0  0  0  0  0  0  0  0  0  0  0
  148.8140  135.6609  159.7133 O   0  0  0  0  0  0  0  0  0  0  0  0
  147.0285  137.0420  159.5384 N   0  0  0  0  0  0  0  0  0  0  0  0
  146.2633  136.5296  160.6713 C   0  0  0  0  0  0  0  0  0  0  0  0
  146.9458  136.9059  161.9983 C   0  0  0  0  0  0  0  0  0  0  0  0
  147.5677  135.6145  162.5295 C   0  0  0  0  0  0  0  0  0  0  0  0
  146.6240  134.5205  162.0398 C   0  0  0  0  0  0  0  0  0  0  0  0
  146.1854  134.9887  160.6505 C   0  0  0  0  0  0  0  0  0  0  0  0
  148.5572  135.6308  156.5372 H   0  0  0  0  0  0  0  0  0  0  0  0
  150.1775  135.6964  157.2249 H   0  0  0  0  0  0  0  0  0  0  0  0
  149.7008  136.8384  155.9712 H   0  0  0  0  0  0  0  0  0  0  0  0
  148.0591  137.8869  157.4927 H   0  0  0  0  0  0  0  0  0  0  0  0
  150.7426  137.7574  158.7547 H   0  0  0  0  0  0  0  0  0  0  0  0
  151.7981  139.4010  158.9130 H   0  0  0  0  0  0  0  0  0  0  0  0
  150.1826  141.9556  156.8813 H   0  0  0  0  0  0  0  0  0  0  0  0
  150.8825  144.3401  156.8751 H   0  0  0  0  0  0  0  0  0  0  0  0
  152.5488  145.1089  158.5830 H   0  0  0  0  0  0  0  0  0  0  0  0
  154.2931  142.5673  161.3550 H   0  0  0  0  0  0  0  0  0  0  0  0
  152.9171  142.0531  162.3402 H   0  0  0  0  0  0  0  0  0  0  0  0
  155.3539  140.9979  162.8389 H   0  0  0  0  0  0  0  0  0  0  0  0
  153.9455  139.9305  162.8128 H   0  0  0  0  0  0  0  0  0  0  0  0
  155.9086  140.4375  160.5529 H   0  0  0  0  0  0  0  0  0  0  0  0
  155.3603  138.8709  161.1504 H   0  0  0  0  0  0  0  0  0  0  0  0
  153.2728  139.0891  160.0417 H   0  0  0  0  0  0  0  0  0  0  0  0
  154.2114  140.1232  158.9612 H   0  0  0  0  0  0  0  0  0  0  0  0
  146.6173  137.8028  159.0168 H   0  0  0  0  0  0  0  0  0  0  0  0
  145.2599  136.9599  160.6595 H   0  0  0  0  0  0  0  0  0  0  0  0
  147.6802  137.7064  161.8980 H   0  0  0  0  0  0  0  0  0  0  0  0
  146.1898  137.2532  162.7037 H   0  0  0  0  0  0  0  0  0  0  0  0
  148.5559  135.4733  162.0897 H   0  0  0  0  0  0  0  0  0  0  0  0
  147.6814  135.6184  163.6137 H   0  0  0  0  0  0  0  0  0  0  0  0
  147.0932  133.5364  162.0223 H   0  0  0  0  0  0  0  0  0  0  0  0
  145.7565  134.4640  162.6986 H   0  0  0  0  0  0  0  0  0  0  0  0
  145.1859  134.6327  160.3995 H   0  0  0  0  0  0  0  0  0  0  0  0
  146.8681  134.5774  159.9049 H   0  0  0  0  0  0  0  0  0  0  0  0
  1  2  1  0  0  0  0
  1 26  1  0  0  0  0
  1 27  1  0  0  0  0
  1 28  1  0  0  0  0
  2  3  1  0  0  0  0
  2 18  1  0  0  0  0
  2 29  1  0  0  0  0
  3  4  1  0  0  0  0
  3 30  1  0  0  0  0
  4  5  2  0  0  0  0
  4  6  1  0  0  0  0
  6  7  1  0  0  0  0
  6 31  1  0  0  0  0
  7 12  1  0  0  0  0
  7  8  2  0  0  0  0
  8  9  1  0  0  0  0
  8 32  1  0  0  0  0
  9 10  2  0  0  0  0
  9 33  1  0  0  0  0
 10 11  1  0  0  0  0
 10 34  1  0  0  0  0
 11 12  2  0  0  0  0
 12 13  1  0  0  0  0
 13 17  1  0  0  0  0
 13 14  1  0  0  0  0
 14 15  1  0  0  0  0
 14 35  1  0  0  0  0
 14 36  1  0  0  0  0
 15 16  1  0  0  0  0
 15 37  1  0  0  0  0
 15 38  1  0  0  0  0
 16 17  1  0  0  0  0
 16 39  1  0  0  0  0
 16 40  1  0  0  0  0
 17 41  1  0  0  0  0
 17 42  1  0  0  0  0
 18 19  2  0  0  0  0
 18 20  1  0  0  0  0
 20 21  1  0  0  0  0
 20 43  1  0  0  0  0
 21 25  1  0  0  0  0
 21 22  1  0  0  0  0
 21 44  1  0  0  0  0
 22 23  1  0  0  0  0
 22 45  1  0  0  0  0
 22 46  1  0  0  0  0
 23 24  1  0  0  0  0
 23 47  1  0  0  0  0
 23 48  1  0  0  0  0
 24 25  1  0  0  0  0
 24 49  1  0  0  0  0
 24 50  1  0  0  0  0
 25 51  1  0  0  0  0
 25 52  1  0  0  0  0
M  END
> <s_m_source_file>
AV-unprocessed.smi

> <i_m_source_file_index>
830

> <i_lp_mmshare_version>
43012

> <i_f3d_flags>
0

> <s_epik_input>
W0NIMl0xW0NIMl1bQ0gyXVtDSDJdW0NIXTFbTkhdQyg9TylbQ0BIXShbQ0gzXSlbTkhdQyg9TylbTkhdYzJbY0hdW2NIXVtjSF1uYzJOM1tDSDJdW0NIMl1bQ0gyXVtDSDJdMw==

> <s_epik_cmdline>
J2VwaWtfcHl0aG9uJywgJy1waCcsICc3LjAnLCAnLXRuJywgJzgnLCAnLW1hJywgJzIwMCcsICctbWV0YWxfYmluZGluZycsICctaW1hZScsICc8aW5maWxlLm1hZT4nLCAnLW9tYWUnLCAnPG91dGZpbGUubWFlPic=

> <r_lp_tautomer_probability>
1

> <r_epik_Ionization_Penalty>
0.0827694

> <r_epik_Ionization_Penalty_Charging>
0

> <r_epik_Ionization_Penalty_Neutral>
0.0827694

> <r_epik_State_Penalty>
0.0729202

> <r_epik_Charging_Adjusted_Penalty>
0.0729202

> <i_epik_Tot_Q>
0

> <i_epik_Tot_abs_Q>
0

> <r_epik_Metal_State_Penalty>
0.0639723

> <b_epik_Metal_Only>
0

> <s_lp_Force_Field>
OPLS_2005

> <r_lp_Energy>
46.0812

> <b_lp_Chiralities_Consistent>
1

> <s_lp_Variant>
AV-unprocessed.smi:830-1

> <Gold.Version>
5.8.1

> <Gold.Id.Protein>
6NUR|6NUR_protein|mol2

> <Gold.PLP.Fitness>
45.4948

> <Gold.PLP.PLP>
-43.6869

> <Gold.PLP.part.hbond>
-1.0000

> <Gold.PLP.part.metal>
0.0000

> <Gold.PLP.part.buried>
-4.7348

> <Gold.PLP.part.nonpolar>
-38.2969

> <Gold.PLP.part.repulsive>
0.4635

> <Gold.PLP.ligand.clash>
0.0000

> <Gold.PLP.ligand.torsion>
0.8150

> <Gold.PLP.Chemscore.Hbond>
1.0000

> <Gold.PLP.Chemscore.CHOScore>
0.0000

> <Gold.PLP.Chemscore.Metal>
0.0000

> <Gold.Chemscore.Hbonds>
donor molecule, donor type, donor heavy atom, donor atom, acceptor molecule, acceptor atom, score
      P1  H  6896  6908       L1    19  0.75

> <Gold.PLP.Chemscore.Internal.Correction>
0.4379

> <Gold.Rescore>
     Score         DG    S(hbond)    S(metal)    S(lipo)     H(rot)  DE(clash)    DE(int)     intcor
     14.20     -18.38       0.97        0.00     118.42       1.64       0.04       4.14       ----

> <Gold.Chemscore.Fitness>
14.2047

> <Gold.Chemscore.DG>
-18.3783

> <Gold.Chemscore.ZeroCoef>
-5.4800

> <Gold.Chemscore.Hbond>
0.9690

> <Gold.Chemscore.Metal>
0.0000

> <Gold.Chemscore.Lipo>
118.4233

> <Gold.Chemscore.Internal_Hbond>
0.0000

> <Gold.Chemscore.DEClash>
0.0383

> <Gold.Chemscore.DEInternal>
4.1354

> <Gold.Chemscore.Rot>
1.6382

> <Gold.Chemscore.Internal.Correction>
   9.000000E+99

> <Gold.Chemscore.Hbonds>
donor molecule, donor type, donor heavy atom, donor atom, acceptor molecule, acceptor atom, score
      P1  H  6896  6908       L1    19  0.74

> <Gold.Chemscore.Hbond.Weighted>
-3.2364

> <Gold.Chemscore.Metal.Weighted>
-0.0000

> <Gold.Chemscore.Lipo.Weighted>
-13.8555

> <Gold.Chemscore.Internal_Hbond.Weighted>
0.0000

> <Gold.Chemscore.DEClash.Weighted>
0.0383

> <Gold.Chemscore.DEInternal.Weighted>
4.1354

> <Gold.Chemscore.Rot.Weighted>
4.1937

> <Gold.Chemscore.Internal.Correction.Weighted>
   9.000000E+99

> <Gold.Protein.RotatedTorsions>
[ 6907 6896 6895 6894 ] final  179.50 input  -60.11 | X-H torsion
[ 7974 7965 7964 7962 ] final    4.90 input  175.53 | X-H torsion
[ 8008 7997 7996 7995 ] final  147.07 input   59.86 | X-H torsion
[ 10167 10162 10161 10158 ] final  -31.89 input  -65.29 | X-H torsion
[ 10718 10713 10712 10709 ] final  171.62 input   66.30 | X-H torsion
[ 10763 10752 10751 10750 ] final  -14.78 input  -60.55 | X-H torsion
[ 11005 11000 10999 10996 ] final  118.83 input  -57.11 | X-H torsion

> <Gold.Protein.ActiveResidues>
 VAL166  LYS551  ARG553  GLY616  TRP617  ASP618  TYR619  PRO620  LYS621  CYS622 
 ASP623  PHE694  ASN695  SER759  ASP760  ASP761  ALA762  ILE779  LEU786  VAL792 
 PHE793  MET794  SER795  GLU796  ALA797  LYS798  CYS799  TRP800  GLU811  SER814 

> <Gold.Protein.RotatedAtoms>
  151.6707  133.3314  159.3195 H   0  0  0  0  0  0  0  0  0  0  0  0  # atno 6907 bound_to 6896
  150.7869  134.6865  159.6482 H   0  0  0  0  0  0  0  0  0  0  0  0  # atno 6908 bound_to 6896
  152.3941  134.6398  160.0148 H   0  0  0  0  0  0  0  0  0  0  0  0  # atno 6909 bound_to 6896
  146.2442  140.0466  142.8378 H   0  0  0  0  0  0  0  0  0  0  0  0  # atno 7974 bound_to 7965
  156.2836  140.2165  156.5479 H   0  0  0  0  0  0  0  0  0  0  0  0  # atno 8008 bound_to 7997
  154.7315  140.0495  157.0753 H   0  0  0  0  0  0  0  0  0  0  0  0  # atno 8009 bound_to 7997
  155.0347  140.3139  155.4749 H   0  0  0  0  0  0  0  0  0  0  0  0  # atno 8010 bound_to 7997
  140.7229  143.3736  151.1731 H   0  0  0  0  0  0  0  0  0  0  0  0  # atno 10167 bound_to 10162
  156.9909  131.0147  151.2857 H   0  0  0  0  0  0  0  0  0  0  0  0  # atno 10718 bound_to 10713
  153.5335  135.7014  153.5672 H   0  0  0  0  0  0  0  0  0  0  0  0  # atno 10763 bound_to 10752
  153.3669  135.3955  155.1760 H   0  0  0  0  0  0  0  0  0  0  0  0  # atno 10764 bound_to 10752
  154.8682  135.3802  154.4833 H   0  0  0  0  0  0  0  0  0  0  0  0  # atno 10765 bound_to 10752
  139.9124  134.9623  156.7563 H   0  0  0  0  0  0  0  0  0  0  0  0  # atno 11005 bound_to 11000
  145.1022  140.9353  143.4706 LP  0  0  0  0  0  0  0  0  0  0  0  0  # atno 17320 bound_to 7965
  145.0661  139.3067  143.5856 LP  0  0  0  0  0  0  0  0  0  0  0  0  # atno 17321 bound_to 7965
  139.7312  143.9070  152.3020 LP  0  0  0  0  0  0  0  0  0  0  0  0  # atno 17342 bound_to 10162
  139.8859  144.6992  150.8825 LP  0  0  0  0  0  0  0  0  0  0  0  0  # atno 17343 bound_to 10162
  157.5459  130.8150  149.8085 LP  0  0  0  0  0  0  0  0  0  0  0  0  # atno 17370 bound_to 10713
  156.0207  130.3796  150.1970 LP  0  0  0  0  0  0  0  0  0  0  0  0  # atno 17371 bound_to 10713
  140.6733  133.9540  155.7869 LP  0  0  0  0  0  0  0  0  0  0  0  0  # atno 17394 bound_to 11000
  141.0562  134.0413  157.3719 LP  0  0  0  0  0  0  0  0  0  0  0  0  # atno 17395 bound_to 11000

$$$$
