AV-unprocessed.smi:393|AV-procd|sdf|2484|dock10
  -GOLD-   2262022423D 1   1.00000     0.00000
 Structure written by MMmdl.
 43 44  0  0  0  0  0  0  0  0  1 V2000
  144.0208  145.7674  155.0050 C   0  0  0  0  0  0  0  0  0  0  0  0
  143.7098  144.2711  155.1198 C   0  0  0  0  0  0  0  0  0  0  0  0
  144.7797  143.3945  154.4535 C   0  0  0  0  0  0  0  0  0  0  0  0
  145.9140  143.0135  155.4208 C   0  0  0  0  0  0  0  0  0  0  0  0
  146.7820  141.8794  154.8720 C   0  0  0  0  0  0  0  0  0  0  0  0
  146.2636  140.8262  154.5009 O   0  0  0  0  0  0  0  0  0  0  0  0
  148.1028  142.1092  154.8170 N   0  0  0  0  0  0  0  0  0  0  0  0
  149.0902  141.1808  154.2749 C   0  0  0  0  0  0  0  0  0  0  0  0
  150.2268  140.8301  155.2278 C   0  0  0  0  0  0  0  0  0  0  0  0
  150.9123  139.6097  155.0727 C   0  0  0  0  0  0  0  0  0  0  0  0
  151.9628  139.3117  155.9595 C   0  0  0  0  0  0  0  0  0  0  0  0
  152.3439  140.1345  156.9584 N   0  0  0  0  0  0  0  0  0  0  0  0
  151.6840  141.3065  157.1302 C   0  0  0  0  0  0  0  0  0  0  0  0
  152.0928  142.1571  158.1805 N   0  0  0  0  0  0  0  0  0  0  0  0
  151.5689  143.5201  158.1382 C   0  0  0  0  0  0  0  0  0  0  0  0
  152.3300  144.4168  159.1297 C   0  0  0  0  0  0  0  0  0  0  0  0
  152.2796  143.8462  160.4331 O   0  0  0  0  0  0  0  0  0  0  0  0
  152.8971  142.5639  160.4728 C   0  0  0  0  0  0  0  0  0  0  0  0
  152.1543  141.6012  159.5311 C   0  0  0  0  0  0  0  0  0  0  0  0
  150.6169  141.6873  156.2818 C   0  0  0  0  0  0  0  0  0  0  0  0
  143.2513  146.3637  155.4955 H   0  0  0  0  0  0  0  0  0  0  0  0
  144.0694  146.0799  153.9618 H   0  0  0  0  0  0  0  0  0  0  0  0
  144.9762  146.0078  155.4723 H   0  0  0  0  0  0  0  0  0  0  0  0
  143.6209  144.0032  156.1730 H   0  0  0  0  0  0  0  0  0  0  0  0
  142.7385  144.0697  154.6667 H   0  0  0  0  0  0  0  0  0  0  0  0
  144.3100  142.4917  154.0601 H   0  0  0  0  0  0  0  0  0  0  0  0
  145.1955  143.9245  153.5948 H   0  0  0  0  0  0  0  0  0  0  0  0
  146.5345  143.8878  155.6238 H   0  0  0  0  0  0  0  0  0  0  0  0
  145.4985  142.6971  156.3780 H   0  0  0  0  0  0  0  0  0  0  0  0
  148.4454  143.0004  155.1449 H   0  0  0  0  0  0  0  0  0  0  0  0
  148.5751  140.2587  154.0053 H   0  0  0  0  0  0  0  0  0  0  0  0
  149.5021  141.5862  153.3491 H   0  0  0  0  0  0  0  0  0  0  0  0
  150.6461  138.9181  154.2866 H   0  0  0  0  0  0  0  0  0  0  0  0
  152.5132  138.3876  155.8640 H   0  0  0  0  0  0  0  0  0  0  0  0
  151.6430  143.9534  157.1419 H   0  0  0  0  0  0  0  0  0  0  0  0
  150.5092  143.4969  158.3956 H   0  0  0  0  0  0  0  0  0  0  0  0
  153.3674  144.5475  158.8179 H   0  0  0  0  0  0  0  0  0  0  0  0
  151.8800  145.4090  159.1593 H   0  0  0  0  0  0  0  0  0  0  0  0
  153.9490  142.6462  160.1938 H   0  0  0  0  0  0  0  0  0  0  0  0
  152.8675  142.1865  161.4948 H   0  0  0  0  0  0  0  0  0  0  0  0
  151.1411  141.4280  159.8968 H   0  0  0  0  0  0  0  0  0  0  0  0
  152.6679  140.6391  159.5210 H   0  0  0  0  0  0  0  0  0  0  0  0
  150.1170  142.6335  156.4238 H   0  0  0  0  0  0  0  0  0  0  0  0
  1  2  1  0  0  0  0
  1 21  1  0  0  0  0
  1 22  1  0  0  0  0
  1 23  1  0  0  0  0
  2  3  1  0  0  0  0
  2 24  1  0  0  0  0
  2 25  1  0  0  0  0
  3  4  1  0  0  0  0
  3 26  1  0  0  0  0
  3 27  1  0  0  0  0
  4  5  1  0  0  0  0
  4 28  1  0  0  0  0
  4 29  1  0  0  0  0
  5  6  2  0  0  0  0
  5  7  1  0  0  0  0
  7  8  1  0  0  0  0
  7 30  1  0  0  0  0
  8  9  1  0  0  0  0
  8 31  1  0  0  0  0
  8 32  1  0  0  0  0
  9 20  1  0  0  0  0
  9 10  2  0  0  0  0
 10 11  1  0  0  0  0
 10 33  1  0  0  0  0
 11 12  2  0  0  0  0
 11 34  1  0  0  0  0
 12 13  1  0  0  0  0
 13 14  1  0  0  0  0
 13 20  2  0  0  0  0
 14 19  1  0  0  0  0
 14 15  1  0  0  0  0
 15 16  1  0  0  0  0
 15 35  1  0  0  0  0
 15 36  1  0  0  0  0
 16 17  1  0  0  0  0
 16 37  1  0  0  0  0
 16 38  1  0  0  0  0
 17 18  1  0  0  0  0
 18 19  1  0  0  0  0
 18 39  1  0  0  0  0
 18 40  1  0  0  0  0
 19 41  1  0  0  0  0
 19 42  1  0  0  0  0
 20 43  1  0  0  0  0
M  END
> <s_m_source_file>
AV-unprocessed.smi

> <i_m_source_file_index>
393

> <i_lp_mmshare_version>
43012

> <i_f3d_flags>
0

> <s_epik_input>
W0NIM11bQ0gyXVtDSDJdW0NIMl1DKD1PKVtOSF1bQ0gyXWMxW2NIXVtjSF1uYyhbY0hdMSlOMltDSDJdW0NIMl1PW0NIMl1bQ0gyXTI=

> <s_epik_cmdline>
J2VwaWtfcHl0aG9uJywgJy1waCcsICc3LjAnLCAnLXRuJywgJzgnLCAnLW1hJywgJzIwMCcsICctbWV0YWxfYmluZGluZycsICctaW1hZScsICc8aW5maWxlLm1hZT4nLCAnLW9tYWUnLCAnPG91dGZpbGUubWFlPic=

> <r_lp_tautomer_probability>
1

> <r_epik_Ionization_Penalty>
0.00585334

> <r_epik_Ionization_Penalty_Charging>
0

> <r_epik_Ionization_Penalty_Neutral>
0.00585334

> <r_epik_State_Penalty>
0.00430121

> <r_epik_Charging_Adjusted_Penalty>
0.00430121

> <i_epik_Tot_Q>
0

> <i_epik_Tot_abs_Q>
0

> <r_epik_Metal_State_Penalty>
-0

> <b_epik_Metal_Only>
0

> <s_lp_Force_Field>
OPLS_2005

> <r_lp_Energy>
14.3492

> <b_lp_Chiralities_Consistent>
1

> <s_lp_Variant>
AV-unprocessed.smi:393-1

> <Gold.Version>
5.8.1

> <Gold.Id.Protein>
6NUR|6NUR_protein|mol2

> <Gold.PLP.Fitness>
45.7056

> <Gold.PLP.PLP>
-40.9786

> <Gold.PLP.part.hbond>
-2.0000

> <Gold.PLP.part.metal>
0.0000

> <Gold.PLP.part.buried>
-4.5352

> <Gold.PLP.part.nonpolar>
-34.7192

> <Gold.PLP.part.repulsive>
0.3092

> <Gold.PLP.ligand.clash>
0.0000

> <Gold.PLP.ligand.torsion>
0.8255

> <Gold.PLP.Chemscore.Hbond>
2.0000

> <Gold.PLP.Chemscore.CHOScore>
0.0000

> <Gold.PLP.Chemscore.Metal>
0.0000

> <Gold.Chemscore.Hbonds>
donor molecule, donor type, donor heavy atom, donor atom, acceptor molecule, acceptor atom, score
      L1  H     7    30       P1  8028  1.00
      P1  H  7997  8008       L1    12  0.88

> <Gold.PLP.Chemscore.Internal.Correction>
0.3780

> <Gold.Rescore>
     Score         DG    S(hbond)    S(metal)    S(lipo)     H(rot)  DE(clash)    DE(int)     intcor
     16.42     -17.54       1.49        0.00      99.32       1.77       0.43       0.70       ----

> <Gold.Chemscore.Fitness>
16.4156

> <Gold.Chemscore.DG>
-17.5430

> <Gold.Chemscore.ZeroCoef>
-5.4800

> <Gold.Chemscore.Hbond>
1.4880

> <Gold.Chemscore.Metal>
0.0000

> <Gold.Chemscore.Lipo>
99.3170

> <Gold.Chemscore.Internal_Hbond>
0.0000

> <Gold.Chemscore.DEClash>
0.4324

> <Gold.Chemscore.DEInternal>
0.6951

> <Gold.Chemscore.Rot>
1.7684

> <Gold.Chemscore.Internal.Correction>
   9.000000E+99

> <Gold.Chemscore.Hbonds>
donor molecule, donor type, donor heavy atom, donor atom, acceptor molecule, acceptor atom, score
      L1  H     7    30       P1  8028  1.00
      P1  H  7997  8008       L1    12  0.18

> <Gold.Chemscore.Hbond.Weighted>
-4.9700

> <Gold.Chemscore.Metal.Weighted>
-0.0000

> <Gold.Chemscore.Lipo.Weighted>
-11.6201

> <Gold.Chemscore.Internal_Hbond.Weighted>
0.0000

> <Gold.Chemscore.DEClash.Weighted>
0.4324

> <Gold.Chemscore.DEInternal.Weighted>
0.6951

> <Gold.Chemscore.Rot.Weighted>
4.5271

> <Gold.Chemscore.Internal.Correction.Weighted>
   9.000000E+99

> <Gold.Protein.RotatedTorsions>
[ 6907 6896 6895 6894 ] final  114.71 input  -60.11 | X-H torsion
[ 7974 7965 7964 7962 ] final  -52.79 input  175.53 | X-H torsion
[ 8008 7997 7996 7995 ] final  -62.34 input   59.86 | X-H torsion
[ 10167 10162 10161 10158 ] final  -37.41 input  -65.29 | X-H torsion
[ 10718 10713 10712 10709 ] final  103.28 input   66.30 | X-H torsion
[ 10763 10752 10751 10750 ] final   -2.92 input  -60.55 | X-H torsion
[ 11005 11000 10999 10996 ] final -103.02 input  -57.11 | X-H torsion

> <Gold.Protein.ActiveResidues>
 VAL166  LYS551  ARG553  GLY616  TRP617  ASP618  TYR619  PRO620  LYS621  CYS622 
 ASP623  PHE694  ASN695  SER759  ASP760  ASP761  ALA762  ILE779  LEU786  VAL792 
 PHE793  MET794  SER795  GLU796  ALA797  LYS798  CYS799  TRP800  GLU811  SER814 

> <Gold.Protein.RotatedAtoms>
  152.4786  133.8198  159.7047 H   0  0  0  0  0  0  0  0  0  0  0  0  # atno 6907 bound_to 6896
  150.8819  133.7350  159.2936 H   0  0  0  0  0  0  0  0  0  0  0  0  # atno 6908 bound_to 6896
  151.4852  135.1058  159.9840 H   0  0  0  0  0  0  0  0  0  0  0  0  # atno 6909 bound_to 6896
  145.9040  140.7970  142.9729 H   0  0  0  0  0  0  0  0  0  0  0  0  # atno 7974 bound_to 7965
  154.4495  140.0998  156.6572 H   0  0  0  0  0  0  0  0  0  0  0  0  # atno 8008 bound_to 7997
  155.5332  140.3482  155.4412 H   0  0  0  0  0  0  0  0  0  0  0  0  # atno 8009 bound_to 7997
  156.0649  140.1335  156.9886 H   0  0  0  0  0  0  0  0  0  0  0  0  # atno 8010 bound_to 7997
  140.7119  143.3344  151.2497 H   0  0  0  0  0  0  0  0  0  0  0  0  # atno 10167 bound_to 10162
  157.6777  131.0775  150.5531 H   0  0  0  0  0  0  0  0  0  0  0  0  # atno 10718 bound_to 10713
  153.3644  135.6992  153.6687 H   0  0  0  0  0  0  0  0  0  0  0  0  # atno 10763 bound_to 10752
  153.5362  135.3582  155.2699 H   0  0  0  0  0  0  0  0  0  0  0  0  # atno 10764 bound_to 10752
  154.8672  135.4192  154.2908 H   0  0  0  0  0  0  0  0  0  0  0  0  # atno 10765 bound_to 10752
  141.1164  133.8606  157.1433 H   0  0  0  0  0  0  0  0  0  0  0  0  # atno 11005 bound_to 11000
  144.6738  140.1722  143.7413 LP  0  0  0  0  0  0  0  0  0  0  0  0  # atno 17320 bound_to 7965
  145.8755  139.2294  143.1636 LP  0  0  0  0  0  0  0  0  0  0  0  0  # atno 17321 bound_to 7965
  139.6834  143.9814  152.2821 LP  0  0  0  0  0  0  0  0  0  0  0  0  # atno 17342 bound_to 10162
  139.9452  144.6656  150.8226 LP  0  0  0  0  0  0  0  0  0  0  0  0  # atno 17343 bound_to 10162
  156.5835  130.4310  149.5967 LP  0  0  0  0  0  0  0  0  0  0  0  0  # atno 17370 bound_to 10713
  156.2641  130.6979  151.1757 LP  0  0  0  0  0  0  0  0  0  0  0  0  # atno 17371 bound_to 10713
  140.0089  134.9996  157.0353 LP  0  0  0  0  0  0  0  0  0  0  0  0  # atno 17394 bound_to 11000
  140.4634  134.1461  155.7194 LP  0  0  0  0  0  0  0  0  0  0  0  0  # atno 17395 bound_to 11000

$$$$
