AV-unprocessed.smi:653|AV-procd|sdf|3208|dock6
  -GOLD-   22720 0143D 1   1.00000     0.00000
 Structure written by MMmdl.
 45 46  0  0  0  0  0  0  0  0  2 V2000
  143.4753  132.0914  148.1413 C   0  0  0  0  0  0  0  0  0  0  0  0
  144.2412  132.7063  149.2937 C   0  0  0  0  0  0  0  0  0  0  0  0
  145.5924  132.3913  149.5519 C   0  0  0  0  0  0  0  0  0  0  0  0
  146.2468  133.0044  150.6405 C   0  0  0  0  0  0  0  0  0  0  0  0
  145.5379  133.9198  151.4499 C   0  0  0  0  0  0  0  0  0  0  0  0
  146.2155  134.5989  152.6274 C   0  0  0  0  0  0  0  0  0  0  0  0
  147.1059  133.6095  153.3827 C   0  0  0  0  0  0  0  0  0  0  0  0
  146.6040  132.6492  153.9674 O   0  0  0  0  0  0  0  0  0  0  0  0
  148.4253  133.8529  153.3618 N   0  0  0  0  0  0  0  0  0  0  0  0
  149.4368  133.0312  154.0176 C   0  0  0  0  0  0  0  0  0  0  0  0
  149.9299  133.6626  155.3348 C   0  0  2  0  0  0  0  0  0  0  0  0
  150.1347  135.1642  155.2701 C   0  0  0  0  0  0  0  0  0  0  0  0
  151.0410  135.4073  156.4719 C   0  0  0  0  0  0  0  0  0  0  0  0
  151.8523  134.2423  156.5829 O   0  0  0  0  0  0  0  0  0  0  0  0
  151.3269  133.1948  155.7689 C   0  0  1  0  0  0  0  0  0  0  0  0
  151.3931  131.8323  156.4971 C   0  0  0  0  0  0  0  0  0  0  0  0
  152.8024  131.4748  157.0039 C   0  0  0  0  0  0  0  0  0  0  0  0
  150.8392  130.7095  155.6058 C   0  0  0  0  0  0  0  0  0  0  0  0
  144.1876  134.1957  151.1431 C   0  0  0  0  0  0  0  0  0  0  0  0
  143.5972  133.5888  150.0903 N   0  3  0  0  0  0  0  0  0  0  0  0
  143.9251  131.1460  147.8367 H   0  0  0  0  0  0  0  0  0  0  0  0
  143.4787  132.7649  147.2841 H   0  0  0  0  0  0  0  0  0  0  0  0
  142.4399  131.8975  148.4234 H   0  0  0  0  0  0  0  0  0  0  0  0
  146.1239  131.6904  148.9245 H   0  0  0  0  0  0  0  0  0  0  0  0
  147.2823  132.7764  150.8475 H   0  0  0  0  0  0  0  0  0  0  0  0
  146.7987  135.4497  152.2709 H   0  0  0  0  0  0  0  0  0  0  0  0
  145.4649  134.9959  153.3120 H   0  0  0  0  0  0  0  0  0  0  0  0
  148.7529  134.6664  152.8613 H   0  0  0  0  0  0  0  0  0  0  0  0
  149.0369  132.0328  154.2011 H   0  0  0  0  0  0  0  0  0  0  0  0
  150.2700  132.9036  153.3260 H   0  0  0  0  0  0  0  0  0  0  0  0
  149.2096  133.4592  156.1265 H   0  0  0  0  0  0  0  0  0  0  0  0
  150.6517  135.4411  154.3502 H   0  0  0  0  0  0  0  0  0  0  0  0
  149.2030  135.7284  155.3226 H   0  0  0  0  0  0  0  0  0  0  0  0
  151.6466  136.3072  156.3631 H   0  0  0  0  0  0  0  0  0  0  0  0
  150.4480  135.5050  157.3823 H   0  0  0  0  0  0  0  0  0  0  0  0
  151.9579  133.1530  154.8792 H   0  0  0  0  0  0  0  0  0  0  0  0
  150.7401  131.8917  157.3683 H   0  0  0  0  0  0  0  0  0  0  0  0
  153.5205  131.4282  156.1849 H   0  0  0  0  0  0  0  0  0  0  0  0
  152.8032  130.5018  157.4956 H   0  0  0  0  0  0  0  0  0  0  0  0
  153.1716  132.1962  157.7315 H   0  0  0  0  0  0  0  0  0  0  0  0
  151.4416  130.5838  154.7057 H   0  0  0  0  0  0  0  0  0  0  0  0
  149.8159  130.9213  155.2946 H   0  0  0  0  0  0  0  0  0  0  0  0
  150.8285  129.7560  156.1346 H   0  0  0  0  0  0  0  0  0  0  0  0
  143.5670  134.8817  151.7010 H   0  0  0  0  0  0  0  0  0  0  0  0
  142.6216  133.8066  149.8865 H   0  0  0  0  0  0  0  0  0  0  0  0
  1  2  1  0  0  0  0
  1 21  1  0  0  0  0
  1 22  1  0  0  0  0
  1 23  1  0  0  0  0
  2 20  1  0  0  0  0
  2  3  2  0  0  0  0
  3  4  1  0  0  0  0
  3 24  1  0  0  0  0
  4  5  2  0  0  0  0
  4 25  1  0  0  0  0
  5  6  1  0  0  0  0
  5 19  1  0  0  0  0
  6  7  1  0  0  0  0
  6 26  1  0  0  0  0
  6 27  1  0  0  0  0
  7  8  2  0  0  0  0
  7  9  1  0  0  0  0
  9 10  1  0  0  0  0
  9 28  1  0  0  0  0
 10 11  1  0  0  0  0
 10 29  1  0  0  0  0
 10 30  1  0  0  0  0
 11 15  1  0  0  0  0
 11 12  1  0  0  0  0
 11 31  1  0  0  0  0
 12 13  1  0  0  0  0
 12 32  1  0  0  0  0
 12 33  1  0  0  0  0
 13 14  1  0  0  0  0
 13 34  1  0  0  0  0
 13 35  1  0  0  0  0
 14 15  1  0  0  0  0
 15 16  1  0  0  0  0
 15 36  1  0  0  0  0
 16 17  1  0  0  0  0
 16 18  1  0  0  0  0
 16 37  1  0  0  0  0
 17 38  1  0  0  0  0
 17 39  1  0  0  0  0
 17 40  1  0  0  0  0
 18 41  1  0  0  0  0
 18 42  1  0  0  0  0
 18 43  1  0  0  0  0
 19 20  2  0  0  0  0
 19 44  1  0  0  0  0
 20 45  1  0  0  0  0
M  CHG  1  20   1
M  END
> <s_m_source_file>
AV-unprocessed.smi

> <i_m_source_file_index>
653

> <i_lp_mmshare_version>
43012

> <i_f3d_flags>
0

> <s_epik_input>
W0NIM11jMVtjSF1bY0hdYyhbY0hdbjEpW0NIMl1DKD1PKVtOSF1bQ0gyXVtDQEBIXTJbQ0gyXVtDSDJdT1tDQEhdMltDSF0oW0NIM10pW0NIM10=

> <s_epik_cmdline>
J2VwaWtfcHl0aG9uJywgJy1waCcsICc3LjAnLCAnLXRuJywgJzgnLCAnLW1hJywgJzIwMCcsICctbWV0YWxfYmluZGluZycsICctaW1hZScsICc8aW5maWxlLm1hZT4nLCAnLW9tYWUnLCAnPG91dGZpbGUubWFlPic=

> <r_epik_Ionization_Penalty>
2.12486

> <r_epik_Ionization_Penalty_Charging>
2.12486

> <r_epik_Ionization_Penalty_Neutral>
9.0873e-08

> <r_epik_State_Penalty>
2.26279

> <r_epik_Charging_Adjusted_Penalty>
4.38765

> <i_epik_Tot_Q>
1

> <i_epik_Tot_abs_Q>
1

> <r_epik_Metal_State_Penalty>
2.27914

> <b_epik_Metal_Only>
0

> <s_lp_Force_Field>
OPLS_2005

> <r_lp_Energy>
26.2023

> <b_lp_Chiralities_Consistent>
1

> <s_lp_Variant>
AV-unprocessed.smi:653-5

> <Gold.Version>
5.8.1

> <Gold.Id.Protein>
6NUR|6NUR_protein|mol2

> <Gold.PLP.Fitness>
42.5059

> <Gold.PLP.PLP>
-35.0610

> <Gold.PLP.part.hbond>
-2.7419

> <Gold.PLP.part.metal>
0.0000

> <Gold.PLP.part.buried>
-1.0536

> <Gold.PLP.part.nonpolar>
-29.7042

> <Gold.PLP.part.repulsive>
0.1237

> <Gold.PLP.ligand.clash>
0.0000

> <Gold.PLP.ligand.torsion>
0.6391

> <Gold.PLP.Chemscore.Hbond>
2.9000

> <Gold.PLP.Chemscore.CHOScore>
0.0000

> <Gold.PLP.Chemscore.Metal>
0.0000

> <Gold.Chemscore.Hbonds>
donor molecule, donor type, donor heavy atom, donor atom, acceptor molecule, acceptor atom, score
      L1  H     9    28       P1  7948  0.75
      L1  H    20    45       P1 10186  2.00

> <Gold.PLP.Chemscore.Internal.Correction>
0.0232

> <Gold.Rescore>
     Score         DG    S(hbond)    S(metal)    S(lipo)     H(rot)  DE(clash)    DE(int)     intcor
     16.85     -18.85       1.69        0.00     100.41       1.57       1.45       0.55       ----

> <Gold.Chemscore.Fitness>
16.8512

> <Gold.Chemscore.DG>
-18.8524

> <Gold.Chemscore.ZeroCoef>
-5.4800

> <Gold.Chemscore.Hbond>
1.6899

> <Gold.Chemscore.Metal>
0.0000

> <Gold.Chemscore.Lipo>
100.4078

> <Gold.Chemscore.Internal_Hbond>
0.0000

> <Gold.Chemscore.DEClash>
1.4487

> <Gold.Chemscore.DEInternal>
0.5524

> <Gold.Chemscore.Rot>
1.5701

> <Gold.Chemscore.Internal.Correction>
   9.000000E+99

> <Gold.Chemscore.Hbonds>
donor molecule, donor type, donor heavy atom, donor atom, acceptor molecule, acceptor atom, score
      L1  H     9    28       P1  7948  0.09
      L1  H    20    45       P1 10186  1.00

> <Gold.Chemscore.Hbond.Weighted>
-5.6442

> <Gold.Chemscore.Metal.Weighted>
-0.0000

> <Gold.Chemscore.Lipo.Weighted>
-11.7477

> <Gold.Chemscore.Internal_Hbond.Weighted>
0.0000

> <Gold.Chemscore.DEClash.Weighted>
1.4487

> <Gold.Chemscore.DEInternal.Weighted>
0.5524

> <Gold.Chemscore.Rot.Weighted>
4.0196

> <Gold.Chemscore.Internal.Correction.Weighted>
   9.000000E+99

> <Gold.Protein.RotatedTorsions>
[ 6907 6896 6895 6894 ] final -117.45 input  -60.11 | X-H torsion
[ 7974 7965 7964 7962 ] final -173.42 input  175.53 | X-H torsion
[ 8008 7997 7996 7995 ] final  -65.81 input   59.86 | X-H torsion
[ 10167 10162 10161 10158 ] final  -89.57 input  -65.29 | X-H torsion
[ 10718 10713 10712 10709 ] final   -7.01 input   66.30 | X-H torsion
[ 10763 10752 10751 10750 ] final   34.25 input  -60.55 | X-H torsion
[ 11005 11000 10999 10996 ] final   43.95 input  -57.11 | X-H torsion

> <Gold.Protein.ActiveResidues>
 VAL166  LYS551  ARG553  GLY616  TRP617  ASP618  TYR619  PRO620  LYS621  CYS622 
 ASP623  PHE694  ASN695  SER759  ASP760  ASP761  ALA762  ILE779  LEU786  VAL792 
 PHE793  MET794  SER795  GLU796  ALA797  LYS798  CYS799  TRP800  GLU811  SER814 

> <Gold.Protein.RotatedAtoms>
  150.8137  133.8375  159.3170 H   0  0  0  0  0  0  0  0  0  0  0  0  # atno 6907 bound_to 6896
  151.6153  135.1035  160.0099 H   0  0  0  0  0  0  0  0  0  0  0  0  # atno 6908 bound_to 6896
  152.4229  133.7106  159.6533 H   0  0  0  0  0  0  0  0  0  0  0  0  # atno 6909 bound_to 6896
  144.7138  140.1625  143.6375 H   0  0  0  0  0  0  0  0  0  0  0  0  # atno 7974 bound_to 7965
  154.4695  140.0925  156.7107 H   0  0  0  0  0  0  0  0  0  0  0  0  # atno 8008 bound_to 7997
  155.4764  140.3466  155.4315 H   0  0  0  0  0  0  0  0  0  0  0  0  # atno 8009 bound_to 7997
  156.1014  140.1423  156.9450 H   0  0  0  0  0  0  0  0  0  0  0  0  # atno 8010 bound_to 7997
  140.3635  143.2830  151.9586 H   0  0  0  0  0  0  0  0  0  0  0  0  # atno 10167 bound_to 10162
  156.7235  130.5158  149.5862 H   0  0  0  0  0  0  0  0  0  0  0  0  # atno 10718 bound_to 10713
  153.0173  135.6365  154.1640 H   0  0  0  0  0  0  0  0  0  0  0  0  # atno 10763 bound_to 10752
  154.1378  135.2836  155.3170 H   0  0  0  0  0  0  0  0  0  0  0  0  # atno 10764 bound_to 10752
  154.6147  135.5545  153.7572 H   0  0  0  0  0  0  0  0  0  0  0  0  # atno 10765 bound_to 10752
  140.1597  134.4357  155.8326 H   0  0  0  0  0  0  0  0  0  0  0  0  # atno 11005 bound_to 11000
  145.9018  139.2435  143.1489 LP  0  0  0  0  0  0  0  0  0  0  0  0  # atno 17320 bound_to 7965
  145.9803  140.8688  143.0117 LP  0  0  0  0  0  0  0  0  0  0  0  0  # atno 17321 bound_to 7965
  139.4811  144.5972  151.7670 LP  0  0  0  0  0  0  0  0  0  0  0  0  # atno 17342 bound_to 10162
  140.5104  144.1034  150.5993 LP  0  0  0  0  0  0  0  0  0  0  0  0  # atno 17343 bound_to 10162
  156.1578  130.6353  151.0679 LP  0  0  0  0  0  0  0  0  0  0  0  0  # atno 17370 bound_to 10713
  157.6888  131.0816  150.7167 LP  0  0  0  0  0  0  0  0  0  0  0  0  # atno 17371 bound_to 10713
  141.2208  133.6908  156.7572 LP  0  0  0  0  0  0  0  0  0  0  0  0  # atno 17394 bound_to 11000
  140.2504  134.8545  157.3662 LP  0  0  0  0  0  0  0  0  0  0  0  0  # atno 17395 bound_to 11000

$$$$
