#       Name:                AV-unprocessed.smi:2300
#       Creating user name   scv26
#       Creation time:       Fri Mar 27 12:45:24 2020


#       File generated by GOLD software.
#

@<TRIPOS>MOLECULE
AV-unprocessed.smi:2300
    58    59     1
SMALL
NO_CHARGES


@<TRIPOS>ATOM
      1 ****        -7.0228  -1.9176  -1.6598 C.3            1 S1                 0.0000
      2 ****        -5.5041  -1.8138  -1.7602 C.2            1 S1                 0.0000
      3 ****        -4.8104  -2.8208  -1.6231 O.2            1 S1                 0.0000
      4 ****        -4.9992  -0.5928  -1.9940 N.am           1 S1                 0.0000
      5 ****        -3.5786  -0.2810  -2.1091 C.3            1 S1                 0.0000
      6 ****        -2.9123  -0.1427  -0.7299 C.3            1 S1                 0.0000
      7 ****        -1.3944   0.0898  -0.8484 C.3            1 S1                 0.0000
      8 ****        -0.8075   0.3128   0.4713 N.3            1 S1                 0.0000
      9 ****         0.5983   0.2703   0.5844 C.ar           1 S1                 0.0000
     10 ****         1.2261   0.2660   1.8523 C.ar           1 S1                 0.0000
     11 ****         2.6362   0.2165   1.8693 C.ar           1 S1                 0.0000
     12 ****         3.4098   0.2005   3.1801 C.3            1 S1                 0.0000
     13 ****         4.2962   1.4458   3.3354 C.3            1 S1                 0.0000
     14 ****         4.1991  -1.1055   3.3608 C.3            1 S1                 0.0000
     15 ****         3.3566   0.1761   0.7264 N.ar           1 S1                 0.0000
     16 ****         2.6733   0.1796  -0.4207 C.ar           1 S1                 0.0000
     17 ****         3.4888   0.1359  -1.7063 C.3            1 S1                 0.0000
     18 ****         3.3342   1.4251  -2.5279 C.3            1 S1                 0.0000
     19 ****         3.2082  -1.1351  -2.5233 C.3            1 S1                 0.0000
     20 ****         1.3433   0.2237  -0.5470 N.ar           1 S1                 0.0000
     21 ****        -1.4767   1.3616   1.2357 C.3            1 S1                 0.0000
     22 ****        -2.9940   1.1114   1.2724 C.3            1 S1                 0.0000
     23 ****        -3.4927   0.9705  -0.0537 O.3            1 S1                 0.0000
     24 ****        -7.5103  -1.0089  -2.0151 H              1 S1                 0.0000
     25 ****        -7.3197  -2.0834  -0.6239 H              1 S1                 0.0000
     26 ****        -7.3858  -2.7535  -2.2586 H              1 S1                 0.0000
     27 ****        -5.6439   0.1788  -2.0866 H              1 S1                 0.0000
     28 ****        -3.0792  -1.0542  -2.6957 H              1 S1                 0.0000
     29 ****        -3.4732   0.6477  -2.6707 H              1 S1                 0.0000
     30 ****        -3.0906  -1.0516  -0.1517 H              1 S1                 0.0000
     31 ****        -0.9331  -0.7781  -1.3216 H              1 S1                 0.0000
     32 ****        -1.1921   0.9539  -1.4830 H              1 S1                 0.0000
     33 ****         0.6610   0.2819   2.7722 H              1 S1                 0.0000
     34 ****         2.6753   0.2366   3.9857 H              1 S1                 0.0000
     35 ****         3.7037   2.3586   3.2656 H              1 S1                 0.0000
     36 ****         5.0656   1.4881   2.5638 H              1 S1                 0.0000
     37 ****         4.7980   1.4513   4.3033 H              1 S1                 0.0000
     38 ****         3.5384  -1.9715   3.3118 H              1 S1                 0.0000
     39 ****         4.7025  -1.1289   4.3275 H              1 S1                 0.0000
     40 ****         4.9601  -1.2229   2.5886 H              1 S1                 0.0000
     41 ****         4.5405   0.0840  -1.4181 H              1 S1                 0.0000
     42 ****         3.6145   2.2994  -1.9398 H              1 S1                 0.0000
     43 ****         2.3057   1.5642  -2.8626 H              1 S1                 0.0000
     44 ****         3.9708   1.4044  -3.4126 H              1 S1                 0.0000
     45 ****         3.3975  -2.0309  -1.9310 H              1 S1                 0.0000
     46 ****         3.8452  -1.1817  -3.4067 H              1 S1                 0.0000
     47 ****         2.1717  -1.1715  -2.8606 H              1 S1                 0.0000
     48 ****        -1.1029   1.4187   2.2569 H              1 S1                 0.0000
     49 ****        -1.2688   2.3241   0.7667 H              1 S1                 0.0000
     50 ****        -3.2276   0.2200   1.8570 H              1 S1                 0.0000
     51 ****        -3.5000   1.9482   1.7540 H              1 S1                 0.0000
     52 ****        -5.2423  -3.7052  -1.4462 LP             1 S1                 0.0000
     53 ****        -3.8147  -2.7548  -1.6886 LP             1 S1                 0.0000
     54 ****        -1.0246  -0.5393   0.9476 LP             1 S1                 0.0000
     55 ****         4.3560   0.1450   0.7394 LP             1 S1                 0.0000
     56 ****         0.9111   0.2224  -1.4488 LP             1 S1                 0.0000
     57 ****        -4.4837   0.8425  -0.0136 LP             1 S1                 0.0000
     58 ****        -3.2848   1.8034  -0.5665 LP             1 S1                 0.0000
@<TRIPOS>BOND
    1    1    2 1     
    2    1   24 1     
    3    1   25 1     
    4    1   26 1     
    5    2    3 2     
    6    2    4 am    
    7    4    5 1     
    8    4   27 1     
    9    5    6 1     
   10    5   28 1     
   11    5   29 1     
   12    6   23 1     
   13    6    7 1     
   14    6   30 1     
   15    7    8 1     
   16    7   31 1     
   17    7   32 1     
   18    8    9 1     
   19    8   21 1     
   20    9   20 ar    
   21    9   10 ar    
   22   10   11 ar    
   23   10   33 1     
   24   11   12 1     
   25   11   15 ar    
   26   12   13 1     
   27   12   14 1     
   28   12   34 1     
   29   13   35 1     
   30   13   36 1     
   31   13   37 1     
   32   14   38 1     
   33   14   39 1     
   34   14   40 1     
   35   15   16 ar    
   36   16   17 1     
   37   16   20 ar    
   38   17   18 1     
   39   17   19 1     
   40   17   41 1     
   41   18   42 1     
   42   18   43 1     
   43   18   44 1     
   44   19   45 1     
   45   19   46 1     
   46   19   47 1     
   47   21   22 1     
   48   21   48 1     
   49   21   49 1     
   50   22   23 1     
   51   22   50 1     
   52   22   51 1     
   53    3   52 1     
   54    3   53 1     
   55    8   54 1     
   56   15   55 1     
   57   20   56 1     
   58   23   57 1     
   59   23   58 1     
@<TRIPOS>SUBSTRUCTURE
      1 S1             1
@<TRIPOS>SET
LONE_PAIRS      STATIC     ATOMS    <user>   **** ""
7 52 53 54 55 56 57 58
DONOR_HYDROGENS      STATIC     ATOMS    <user>   **** ""
1 27
ATOM$BLUE        STATIC     ATOMS    COLORGROUP SYSTEM
7 52 53 54 55 56 57 58
ATOM$RED        STATIC     ATOMS    COLORGROUP SYSTEM
1 27
