#       Name:                AV-unprocessed.smi:1867
#       Creating user name   scv26
#       Creation time:       Fri Mar 27 09:28:59 2020


#       File generated by GOLD software.
#

@<TRIPOS>MOLECULE
AV-unprocessed.smi:1867
    55    58     1
SMALL
NO_CHARGES


@<TRIPOS>ATOM
      1 ****        -0.8175   2.8230   0.0314 O.2            1 S1                 0.0000
      2 ****        -1.2437   1.6955  -0.2099 C.2            1 S1                 0.0000
      3 ****        -0.3620   0.6987  -0.4718 N.am           1 S1                 0.0000
      4 ****         1.0544   0.7485  -0.5738 C.ar           1 S1                 0.0000
      5 ****         1.7683  -0.4507  -0.3716 C.ar           1 S1                 0.0000
      6 ****         3.1733  -0.4581  -0.4859 C.ar           1 S1                 0.0000
      7 ****         3.8555   0.7367  -0.8170 C.ar           1 S1                 0.0000
      8 ****         5.2558   0.8059  -0.9469 N.pl3          1 S1                 0.0000
      9 ****         6.0678  -0.3966  -1.0361 C.3            1 S1                 0.0000
     10 ****         7.4726   0.1061  -1.3667 C.3            1 S1                 0.0000
     11 ****         7.2074   1.3646  -2.1927 C.3            1 S1                 0.0000
     12 ****         5.9109   1.9305  -1.6028 C.3            1 S1                 0.0000
     13 ****         3.1284   1.8625  -1.0119 N.pl3          1 S1                 1.0000
     14 ****         1.7826   1.9136  -0.9121 C.ar           1 S1                 0.0000
     15 ****        -2.5849   1.4277  -0.1910 N.pl3          1 S1                -1.0000
     16 ****        -3.2792   0.1469  -0.4130 C.3            1 S1                 0.0000
     17 ****        -4.7307   0.4160  -0.8134 C.3            1 S1                 0.0000
     18 ****        -5.4774   0.6003   0.5123 C.3            1 S1                 0.0000
     19 ****        -4.6802  -0.0998   1.5471 N.4            1 S1                 1.0000
     20 ****        -5.4509  -1.0828   2.3557 C.3            1 S1                 0.0000
     21 ****        -4.5080  -2.0313   3.1124 C.3            1 S1                 0.0000
     22 ****        -3.6332  -2.8513   2.1436 C.3            1 S1                 0.0000
     23 ****        -3.4661  -2.1616   0.7749 C.3            1 S1                 0.0000
     24 ****        -3.4289  -0.6182   0.9209 C.3            1 S1                 0.0000
     25 ****        -0.7687  -0.2199  -0.5682 H              1 S1                 0.0000
     26 ****         1.2445  -1.3627  -0.1242 H              1 S1                 0.0000
     27 ****         3.7075  -1.3811  -0.3180 H              1 S1                 0.0000
     28 ****         6.0545  -0.9637  -0.1048 H              1 S1                 0.0000
     29 ****         5.6884  -1.0333  -1.8368 H              1 S1                 0.0000
     30 ****         7.9954   0.3734  -0.4473 H              1 S1                 0.0000
     31 ****         8.0751  -0.6335  -1.8950 H              1 S1                 0.0000
     32 ****         8.0326   2.0767  -2.1619 H              1 S1                 0.0000
     33 ****         7.0441   1.0869  -3.2350 H              1 S1                 0.0000
     34 ****         5.2938   2.3810  -2.3810 H              1 S1                 0.0000
     35 ****         6.1280   2.6932  -0.8543 H              1 S1                 0.0000
     36 ****         1.3477   2.8795  -1.1210 H              1 S1                 0.0000
     37 ****        -2.7812  -0.4633  -1.1678 H              1 S1                 0.0000
     38 ****        -4.8488   1.2660  -1.4873 H              1 S1                 0.0000
     39 ****        -5.1261  -0.4605  -1.3286 H              1 S1                 0.0000
     40 ****        -5.5345   1.6567   0.7816 H              1 S1                 0.0000
     41 ****        -6.5022   0.2326   0.4423 H              1 S1                 0.0000
     42 ****        -6.0944  -0.5428   3.0508 H              1 S1                 0.0000
     43 ****        -6.1051  -1.6706   1.7094 H              1 S1                 0.0000
     44 ****        -3.8684  -1.4414   3.7708 H              1 S1                 0.0000
     45 ****        -5.0756  -2.7005   3.7596 H              1 S1                 0.0000
     46 ****        -2.6570  -3.0168   2.6009 H              1 S1                 0.0000
     47 ****        -4.0678  -3.8398   1.9908 H              1 S1                 0.0000
     48 ****        -2.5596  -2.5385   0.2969 H              1 S1                 0.0000
     49 ****        -4.2955  -2.4619   0.1303 H              1 S1                 0.0000
     50 ****        -2.5955  -0.3834   1.5860 H              1 S1                 0.0000
     51 ****        -4.3706   0.6214   2.1832 H              1 S1                 0.0000
     52 ****         3.6228   2.7211  -1.2540 H              1 S1                 0.0000
     53 ****         0.1676   2.9955   0.0328 LP             1 S1                 0.0000
     54 ****        -1.4558   3.5677   0.2263 LP             1 S1                 0.0000
     55 ****        -3.1771   2.2104   0.0002 LP             1 S1                 0.0000
@<TRIPOS>BOND
    1    1    2 2     
    2    2    3 am    
    3    2   15 1     
    4    3    4 1     
    5    3   25 1     
    6    4   14 ar    
    7    4    5 ar    
    8    5    6 ar    
    9    5   26 1     
   10    6    7 ar    
   11    6   27 1     
   12    7    8 1     
   13    7   13 ar    
   14    8   12 1     
   15    8    9 1     
   16    9   10 1     
   17    9   28 1     
   18    9   29 1     
   19   10   11 1     
   20   10   30 1     
   21   10   31 1     
   22   11   12 1     
   23   11   32 1     
   24   11   33 1     
   25   12   34 1     
   26   12   35 1     
   27   13   14 ar    
   28   13   52 1     
   29   14   36 1     
   30   15   16 1     
   31   16   24 1     
   32   16   17 1     
   33   16   37 1     
   34   17   18 1     
   35   17   38 1     
   36   17   39 1     
   37   18   19 1     
   38   18   40 1     
   39   18   41 1     
   40   19   24 1     
   41   19   20 1     
   42   19   51 1     
   43   20   21 1     
   44   20   42 1     
   45   20   43 1     
   46   21   22 1     
   47   21   44 1     
   48   21   45 1     
   49   22   23 1     
   50   22   46 1     
   51   22   47 1     
   52   23   24 1     
   53   23   48 1     
   54   23   49 1     
   55   24   50 1     
   56    1   53 1     
   57    1   54 1     
   58   15   55 1     
@<TRIPOS>SUBSTRUCTURE
      1 S1             1
@<TRIPOS>SET
LONE_PAIRS      STATIC     ATOMS    <user>   **** ""
3 53 54 55
DONOR_HYDROGENS      STATIC     ATOMS    <user>   **** ""
3 25 52 51
ATOM$BLUE        STATIC     ATOMS    COLORGROUP SYSTEM
3 53 54 55
ATOM$RED        STATIC     ATOMS    COLORGROUP SYSTEM
3 25 52 51
