AV-unprocessed.smi:3330|AV-procd|sdf|12806|dock5
  -GOLD-   2272019173D 1   1.00000     0.00000
 Structure written by MMmdl.
 38 39  0  0  0  0  0  0  0  0  1 V2000
  150.8599  141.0499  158.6568 C   0  0  0  0  0  0  0  0  0  0  0  0
  150.8589  142.4041  157.9141 C   0  0  1  0  0  0  0  0  0  0  0  0
  149.4841  142.7499  157.5694 N   0  0  0  0  0  0  0  0  0  0  0  0
  148.8426  141.7131  156.7725 C   0  0  0  0  0  0  0  0  0  0  0  0
  149.4962  141.6319  155.3815 C   0  0  0  0  0  0  0  0  0  0  0  0
  148.9353  140.5428  154.5734 N   0  0  0  0  0  0  0  0  0  0  0  0
  147.6726  140.5039  154.1269 C   0  0  0  0  0  0  0  0  0  0  0  0
  146.7915  141.3469  154.2924 O   0  0  0  0  0  0  0  0  0  0  0  0
  147.4746  139.2145  153.3600 C   0  0  0  0  0  0  0  0  0  0  0  0
  148.7999  138.6511  153.5016 N   0  0  0  0  0  0  0  0  0  0  0  0
  149.6176  139.4412  154.2094 C   0  0  0  0  0  0  0  0  0  0  0  0
  150.7914  139.1871  154.4756 O   0  0  0  0  0  0  0  0  0  0  0  0
  151.4572  143.5650  158.7535 C   0  0  2  0  0  0  0  0  0  0  0  0
  152.3379  144.5089  157.9109 C   0  0  0  0  0  0  0  0  0  0  0  0
  152.2050  143.0804  159.9079 N   0  0  0  0  0  0  0  0  0  0  0  0
  153.3387  142.2936  159.9196 C   0  0  0  0  0  0  0  0  0  0  0  0
  153.6904  142.1017  161.2249 C   0  0  0  0  0  0  0  0  0  0  0  0
  152.6995  142.8192  161.9506 C   0  0  0  0  0  0  0  0  0  0  0  0
  151.8127  143.4037  161.1617 N   0  0  0  0  0  0  0  0  0  0  0  0
  151.8725  140.7194  158.8868 H   0  0  0  0  0  0  0  0  0  0  0  0
  150.4035  140.2568  158.0657 H   0  0  0  0  0  0  0  0  0  0  0  0
  150.3117  141.1165  159.5973 H   0  0  0  0  0  0  0  0  0  0  0  0
  151.4479  142.3082  157.0005 H   0  0  0  0  0  0  0  0  0  0  0  0
  149.4795  143.6110  157.0413 H   0  0  0  0  0  0  0  0  0  0  0  0
  148.9600  140.7572  157.2842 H   0  0  0  0  0  0  0  0  0  0  0  0
  147.7724  141.8932  156.6758 H   0  0  0  0  0  0  0  0  0  0  0  0
  149.4100  142.5892  154.8640 H   0  0  0  0  0  0  0  0  0  0  0  0
  150.5678  141.4636  155.4998 H   0  0  0  0  0  0  0  0  0  0  0  0
  146.7171  138.5820  153.8237 H   0  0  0  0  0  0  0  0  0  0  0  0
  147.2252  139.4007  152.3150 H   0  0  0  0  0  0  0  0  0  0  0  0
  149.0635  137.7585  153.1099 H   0  0  0  0  0  0  0  0  0  0  0  0
  150.6300  144.1559  159.1510 H   0  0  0  0  0  0  0  0  0  0  0  0
  151.7662  144.9857  157.1147 H   0  0  0  0  0  0  0  0  0  0  0  0
  153.1676  143.9751  157.4464 H   0  0  0  0  0  0  0  0  0  0  0  0
  152.7580  145.3043  158.5272 H   0  0  0  0  0  0  0  0  0  0  0  0
  153.7977  141.9416  159.0074 H   0  0  0  0  0  0  0  0  0  0  0  0
  154.5287  141.5358  161.6034 H   0  0  0  0  0  0  0  0  0  0  0  0
  152.5994  142.9330  163.0199 H   0  0  0  0  0  0  0  0  0  0  0  0
  1  2  1  0  0  0  0
  1 20  1  0  0  0  0
  1 21  1  0  0  0  0
  1 22  1  0  0  0  0
  2  3  1  0  0  0  0
  2 13  1  0  0  0  0
  2 23  1  0  0  0  0
  3  4  1  0  0  0  0
  3 24  1  0  0  0  0
  4  5  1  0  0  0  0
  4 25  1  0  0  0  0
  4 26  1  0  0  0  0
  5  6  1  0  0  0  0
  5 27  1  0  0  0  0
  5 28  1  0  0  0  0
  6 11  1  0  0  0  0
  6  7  1  0  0  0  0
  7  8  2  0  0  0  0
  7  9  1  0  0  0  0
  9 10  1  0  0  0  0
  9 29  1  0  0  0  0
  9 30  1  0  0  0  0
 10 11  1  0  0  0  0
 10 31  1  0  0  0  0
 11 12  2  0  0  0  0
 13 14  1  0  0  0  0
 13 15  1  0  0  0  0
 13 32  1  0  0  0  0
 14 33  1  0  0  0  0
 14 34  1  0  0  0  0
 14 35  1  0  0  0  0
 15 19  1  0  0  0  0
 15 16  1  0  0  0  0
 16 17  2  0  0  0  0
 16 36  1  0  0  0  0
 17 18  1  0  0  0  0
 17 37  1  0  0  0  0
 18 19  2  0  0  0  0
 18 38  1  0  0  0  0
M  END
> <s_m_source_file>
AV-unprocessed.smi

> <i_m_source_file_index>
3330

> <i_lp_mmshare_version>
43012

> <i_f3d_flags>
0

> <s_epik_input>
bjFbY0hdW2NIXVtjSF1uMVtDQEBIXShbQ0gzXSlbQ0BIXShbQ0gzXSlbTkhdW0NIMl1bQ0gyXU4yQyg9TylbQ0gyXVtOSF1DMj1P

> <s_epik_cmdline>
J2VwaWtfcHl0aG9uJywgJy1waCcsICc3LjAnLCAnLXRuJywgJzgnLCAnLW1hJywgJzIwMCcsICctbWV0YWxfYmluZGluZycsICctaW1hZScsICc8aW5maWxlLm1hZT4nLCAnLW9tYWUnLCAnPG91dGZpbGUubWFlPic=

> <r_lp_tautomer_probability>
1

> <r_epik_Ionization_Penalty>
2.2997

> <r_epik_Ionization_Penalty_Charging>
0

> <r_epik_Ionization_Penalty_Neutral>
2.2997

> <r_epik_State_Penalty>
2.44917

> <r_epik_Charging_Adjusted_Penalty>
2.44917

> <i_epik_Tot_Q>
0

> <i_epik_Tot_abs_Q>
0

> <r_epik_Metal_State_Penalty>
2.52438

> <b_epik_Metal_Only>
0

> <s_lp_Force_Field>
OPLS_2005

> <r_lp_Energy>
29.8527

> <b_lp_Chiralities_Consistent>
1

> <s_lp_Variant>
AV-unprocessed.smi:3330-6

> <Gold.Version>
5.8.1

> <Gold.Id.Protein>
6NUR|6NUR_protein|mol2

> <Gold.PLP.Fitness>
51.0814

> <Gold.PLP.PLP>
-44.4629

> <Gold.PLP.part.hbond>
-4.5342

> <Gold.PLP.part.metal>
0.0000

> <Gold.PLP.part.buried>
-2.3444

> <Gold.PLP.part.nonpolar>
-37.8972

> <Gold.PLP.part.repulsive>
0.4979

> <Gold.PLP.ligand.clash>
0.0000

> <Gold.PLP.ligand.torsion>
1.2843

> <Gold.PLP.Chemscore.Hbond>
3.0000

> <Gold.PLP.Chemscore.CHOScore>
0.0000

> <Gold.PLP.Chemscore.Metal>
0.0000

> <Gold.Chemscore.Hbonds>
donor molecule, donor type, donor heavy atom, donor atom, acceptor molecule, acceptor atom, score
      L1  H     3    24       P1  8028  1.00
      L1  H    10    31       P1  7948  1.00
      P1  H  7989  7998       L1    12  0.68

> <Gold.PLP.Chemscore.Internal.Correction>
0.1870

> <Gold.Rescore>
     Score         DG    S(hbond)    S(metal)    S(lipo)     H(rot)  DE(clash)    DE(int)     intcor
     16.36     -17.78       2.58        0.00      88.24       2.60       0.26       1.17       ----

> <Gold.Chemscore.Fitness>
16.3578

> <Gold.Chemscore.DG>
-17.7797

> <Gold.Chemscore.ZeroCoef>
-5.4800

> <Gold.Chemscore.Hbond>
2.5806

> <Gold.Chemscore.Metal>
0.0000

> <Gold.Chemscore.Lipo>
88.2413

> <Gold.Chemscore.Internal_Hbond>
0.0000

> <Gold.Chemscore.DEClash>
0.2569

> <Gold.Chemscore.DEInternal>
1.1650

> <Gold.Chemscore.Rot>
2.5952

> <Gold.Chemscore.Internal.Correction>
   9.000000E+99

> <Gold.Chemscore.Hbonds>
donor molecule, donor type, donor heavy atom, donor atom, acceptor molecule, acceptor atom, score
      L1  H     3    24       P1  8028  0.86
      L1  H    10    31       P1  7948  0.97
      P1  H  7989  7998       L1    12  0.12

> <Gold.Chemscore.Hbond.Weighted>
-8.6192

> <Gold.Chemscore.Metal.Weighted>
-0.0000

> <Gold.Chemscore.Lipo.Weighted>
-10.3242

> <Gold.Chemscore.Internal_Hbond.Weighted>
0.0000

> <Gold.Chemscore.DEClash.Weighted>
0.2569

> <Gold.Chemscore.DEInternal.Weighted>
1.1650

> <Gold.Chemscore.Rot.Weighted>
6.6437

> <Gold.Chemscore.Internal.Correction.Weighted>
   9.000000E+99

> <Gold.Protein.RotatedTorsions>
[ 6907 6896 6895 6894 ] final -120.71 input  -60.11 | X-H torsion
[ 7974 7965 7964 7962 ] final  133.22 input  175.53 | X-H torsion
[ 8008 7997 7996 7995 ] final -100.65 input   59.86 | X-H torsion
[ 10167 10162 10161 10158 ] final   12.87 input  -65.29 | X-H torsion
[ 10718 10713 10712 10709 ] final   49.01 input   66.30 | X-H torsion
[ 10763 10752 10751 10750 ] final   71.41 input  -60.55 | X-H torsion
[ 11005 11000 10999 10996 ] final -141.60 input  -57.11 | X-H torsion

> <Gold.Protein.ActiveResidues>
 VAL166  LYS551  ARG553  GLY616  TRP617  ASP618  TYR619  PRO620  LYS621  CYS622 
 ASP623  PHE694  ASN695  SER759  ASP760  ASP761  ALA762  ILE779  LEU786  VAL792 
 PHE793  MET794  SER795  GLU796  ALA797  LYS798  CYS799  TRP800  GLU811  SER814 

> <Gold.Protein.RotatedAtoms>
  150.8418  133.7924  159.3057 H   0  0  0  0  0  0  0  0  0  0  0  0  # atno 6907 bound_to 6896
  151.5624  135.1063  159.9985 H   0  0  0  0  0  0  0  0  0  0  0  0  # atno 6908 bound_to 6896
  152.4480  133.7531  159.6761 H   0  0  0  0  0  0  0  0  0  0  0  0  # atno 6909 bound_to 6896
  144.9888  139.4428  143.5349 H   0  0  0  0  0  0  0  0  0  0  0  0  # atno 7974 bound_to 7965
  154.8316  140.0439  157.1480 H   0  0  0  0  0  0  0  0  0  0  0  0  # atno 8008 bound_to 7997
  154.9146  140.3018  155.5228 H   0  0  0  0  0  0  0  0  0  0  0  0  # atno 8009 bound_to 7997
  156.2987  140.2352  156.4189 H   0  0  0  0  0  0  0  0  0  0  0  0  # atno 8010 bound_to 7997
  140.6040  143.8547  150.6994 H   0  0  0  0  0  0  0  0  0  0  0  0  # atno 10167 bound_to 10162
  157.4744  130.8276  149.8023 H   0  0  0  0  0  0  0  0  0  0  0  0  # atno 10718 bound_to 10713
  153.0398  135.5138  154.7589 H   0  0  0  0  0  0  0  0  0  0  0  0  # atno 10763 bound_to 10752
  154.6537  135.2928  154.9957 H   0  0  0  0  0  0  0  0  0  0  0  0  # atno 10764 bound_to 10752
  154.0833  135.6661  153.4893 H   0  0  0  0  0  0  0  0  0  0  0  0  # atno 10765 bound_to 10752
  140.8308  134.2519  157.4857 H   0  0  0  0  0  0  0  0  0  0  0  0  # atno 11005 bound_to 11000
  146.3426  139.9207  142.8767 LP  0  0  0  0  0  0  0  0  0  0  0  0  # atno 17320 bound_to 7965
  145.2315  140.9975  143.3988 LP  0  0  0  0  0  0  0  0  0  0  0  0  # atno 17321 bound_to 7965
  140.2099  143.3891  152.1726 LP  0  0  0  0  0  0  0  0  0  0  0  0  # atno 17342 bound_to 10162
  139.5311  144.7160  151.5053 LP  0  0  0  0  0  0  0  0  0  0  0  0  # atno 17343 bound_to 10162
  156.0089  130.3842  150.2332 LP  0  0  0  0  0  0  0  0  0  0  0  0  # atno 17370 bound_to 10713
  157.0515  131.0064  151.3252 LP  0  0  0  0  0  0  0  0  0  0  0  0  # atno 17371 bound_to 10713
  139.8705  134.9585  156.4302 LP  0  0  0  0  0  0  0  0  0  0  0  0  # atno 17394 bound_to 11000
  140.9000  133.7786  155.9669 LP  0  0  0  0  0  0  0  0  0  0  0  0  # atno 17395 bound_to 11000

$$$$
