AV-unprocessed.smi:186|AV-procd|sdf|1467|dock7
  -GOLD-   2262019283D 1   1.00000     0.00000
 Structure written by MMmdl.
 48 51  0  0  0  0  0  0  0  0  1 V2000
  145.3330  135.2078  150.8496 C   0  0  0  0  0  0  0  0  0  0  0  0
  145.9674  135.0718  152.1091 O   0  0  0  0  0  0  0  0  0  0  0  0
  146.3723  133.7369  152.3714 C   0  0  0  0  0  0  0  0  0  0  0  0
  147.1141  133.6762  153.7077 C   0  0  0  0  0  0  0  0  0  0  0  0
  146.7244  132.9380  154.6131 O   0  0  0  0  0  0  0  0  0  0  0  0
  148.1904  134.4680  153.8181 N   0  0  0  0  0  0  0  0  0  0  0  0
  149.0328  134.5544  155.0040 C   0  0  0  0  0  0  0  0  0  0  0  0
  148.9524  135.9019  155.7263 C   0  0  0  0  0  0  0  0  0  0  0  0
  150.3969  135.7704  155.8737 N   0  0  0  0  0  0  0  0  0  0  0  0
  151.1316  136.9897  155.8432 C   0  0  0  0  0  0  0  0  0  0  0  0
  152.4858  136.9519  155.7213 N   0  0  0  0  0  0  0  0  0  0  0  0
  153.2089  138.0750  155.6997 C   0  0  0  0  0  0  0  0  0  0  0  0
  152.7902  139.3364  155.7981 N   0  0  0  0  0  0  0  0  0  0  0  0
  151.4369  139.3925  155.9471 C   0  0  0  0  0  0  0  0  0  0  0  0
  150.5454  138.2820  155.9767 C   0  0  0  0  0  0  0  0  0  0  0  0
  149.2407  138.7334  156.1394 N   0  0  0  0  0  0  0  0  0  0  0  0
  149.3542  140.0320  156.1968 C   0  0  0  0  0  0  0  0  0  0  0  0
  150.6403  140.5137  156.1045 N   0  0  0  0  0  0  0  0  0  0  0  0
  151.0565  141.9080  156.1442 C   0  0  0  0  0  0  0  0  0  0  0  0
  150.8058  142.6089  157.5042 C   0  0  2  0  0  0  0  0  0  0  0  0
  149.4169  142.8268  157.6709 O   0  0  0  0  0  0  0  0  0  0  0  0
  151.5434  143.9405  157.6705 C   0  0  0  0  0  0  0  0  0  0  0  0
  152.7404  143.5682  158.5339 C   0  0  0  0  0  0  0  0  0  0  0  0
  152.1840  142.6253  159.4317 O   0  0  0  0  0  0  0  0  0  0  0  0
  151.3362  141.7652  158.6813 C   0  0  0  0  0  0  0  0  0  0  0  0
  150.4807  134.9265  154.6853 C   0  0  0  0  0  0  0  0  0  0  0  0
  145.0446  136.2474  150.6943 H   0  0  0  0  0  0  0  0  0  0  0  0
  144.4311  134.5967  150.7954 H   0  0  0  0  0  0  0  0  0  0  0  0
  146.0016  134.9186  150.0378 H   0  0  0  0  0  0  0  0  0  0  0  0
  145.5019  133.0796  152.4092 H   0  0  0  0  0  0  0  0  0  0  0  0
  147.0324  133.3776  151.5803 H   0  0  0  0  0  0  0  0  0  0  0  0
  148.4440  135.0455  153.0299 H   0  0  0  0  0  0  0  0  0  0  0  0
  148.9526  133.6983  155.6785 H   0  0  0  0  0  0  0  0  0  0  0  0
  148.6584  136.7339  155.0832 H   0  0  0  0  0  0  0  0  0  0  0  0
  148.4022  135.8783  156.6672 H   0  0  0  0  0  0  0  0  0  0  0  0
  154.2752  137.9438  155.5909 H   0  0  0  0  0  0  0  0  0  0  0  0
  148.4962  140.6778  156.3157 H   0  0  0  0  0  0  0  0  0  0  0  0
  152.1172  141.9504  155.8926 H   0  0  0  0  0  0  0  0  0  0  0  0
  150.5343  142.4397  155.3474 H   0  0  0  0  0  0  0  0  0  0  0  0
  149.0891  143.2724  156.9049 H   0  0  0  0  0  0  0  0  0  0  0  0
  151.8375  144.4146  156.7358 H   0  0  0  0  0  0  0  0  0  0  0  0
  150.9295  144.6581  158.2176 H   0  0  0  0  0  0  0  0  0  0  0  0
  153.5247  143.0980  157.9386 H   0  0  0  0  0  0  0  0  0  0  0  0
  153.1659  144.4237  159.0587 H   0  0  0  0  0  0  0  0  0  0  0  0
  150.5466  141.3584  159.3145 H   0  0  0  0  0  0  0  0  0  0  0  0
  151.9333  140.9241  158.3256 H   0  0  0  0  0  0  0  0  0  0  0  0
  151.1916  134.1044  154.7720 H   0  0  0  0  0  0  0  0  0  0  0  0
  150.5946  135.4896  153.7567 H   0  0  0  0  0  0  0  0  0  0  0  0
  1  2  1  0  0  0  0
  1 27  1  0  0  0  0
  1 28  1  0  0  0  0
  1 29  1  0  0  0  0
  2  3  1  0  0  0  0
  3  4  1  0  0  0  0
  3 30  1  0  0  0  0
  3 31  1  0  0  0  0
  4  5  2  0  0  0  0
  4  6  1  0  0  0  0
  6  7  1  0  0  0  0
  6 32  1  0  0  0  0
  7 26  1  0  0  0  0
  7  8  1  0  0  0  0
  7 33  1  0  0  0  0
  8  9  1  0  0  0  0
  8 34  1  0  0  0  0
  8 35  1  0  0  0  0
  9 10  1  0  0  0  0
  9 26  1  0  0  0  0
 10 15  1  0  0  0  0
 10 11  2  0  0  0  0
 11 12  1  0  0  0  0
 12 13  2  0  0  0  0
 12 36  1  0  0  0  0
 13 14  1  0  0  0  0
 14 18  1  0  0  0  0
 14 15  2  0  0  0  0
 15 16  1  0  0  0  0
 16 17  2  0  0  0  0
 17 18  1  0  0  0  0
 17 37  1  0  0  0  0
 18 19  1  0  0  0  0
 19 20  1  0  0  0  0
 19 38  1  0  0  0  0
 19 39  1  0  0  0  0
 20 25  1  0  0  0  0
 20 21  1  0  0  0  0
 20 22  1  0  0  0  0
 21 40  1  0  0  0  0
 22 23  1  0  0  0  0
 22 41  1  0  0  0  0
 22 42  1  0  0  0  0
 23 24  1  0  0  0  0
 23 43  1  0  0  0  0
 23 44  1  0  0  0  0
 24 25  1  0  0  0  0
 25 45  1  0  0  0  0
 25 46  1  0  0  0  0
 26 47  1  0  0  0  0
 26 48  1  0  0  0  0
M  END
> <s_m_source_file>
AV-unprocessed.smi

> <i_m_source_file_index>
186

> <i_lp_mmshare_version>
43012

> <i_f3d_flags>
0

> <s_epik_input>
W0NIM11PW0NIMl1DKD1PKVtOSF1bQ0hdMVtDSDJdTihbQ0gyXTEpYyhuW2NIXW4yKWMoYzIzKW5bY0hdbjNbQ0gyXVtDQEBdNChbT0hdKVtDSDJdW0NIMl1PW0NIMl00

> <s_epik_cmdline>
J2VwaWtfcHl0aG9uJywgJy1waCcsICc3LjAnLCAnLXRuJywgJzgnLCAnLW1hJywgJzIwMCcsICctbWV0YWxfYmluZGluZycsICctaW1hZScsICc8aW5maWxlLm1hZT4nLCAnLW9tYWUnLCAnPG91dGZpbGUubWFlPic=

> <r_lp_tautomer_probability>
1

> <r_epik_Ionization_Penalty>
0.00138671

> <r_epik_Ionization_Penalty_Charging>
0

> <r_epik_Ionization_Penalty_Neutral>
0.00138671

> <r_epik_State_Penalty>
0.000746021

> <r_epik_Charging_Adjusted_Penalty>
0.000746021

> <i_epik_Tot_Q>
0

> <i_epik_Tot_abs_Q>
0

> <r_epik_Metal_State_Penalty>
-0

> <b_epik_Metal_Only>
0

> <s_lp_Force_Field>
OPLS_2005

> <r_lp_Energy>
43.6542

> <b_lp_Chiralities_Consistent>
1

> <s_lp_Variant>
AV-unprocessed.smi:186-2

> <Gold.Version>
5.8.1

> <Gold.Id.Protein>
6NUR|6NUR_protein|mol2

> <Gold.PLP.Fitness>
48.9338

> <Gold.PLP.PLP>
-37.9882

> <Gold.PLP.part.hbond>
-4.0000

> <Gold.PLP.part.metal>
0.0000

> <Gold.PLP.part.buried>
-7.1527

> <Gold.PLP.part.nonpolar>
-27.8285

> <Gold.PLP.part.repulsive>
0.2949

> <Gold.PLP.ligand.clash>
0.0000

> <Gold.PLP.ligand.torsion>
0.5286

> <Gold.PLP.Chemscore.Hbond>
3.8300

> <Gold.PLP.Chemscore.CHOScore>
0.0000

> <Gold.PLP.Chemscore.Metal>
0.0000

> <Gold.Chemscore.Hbonds>
donor molecule, donor type, donor heavy atom, donor atom, acceptor molecule, acceptor atom, score
      L1  H     6    32       P1  7948  1.00
      L1  H    21    40       P1  8028  1.00
      P1  H  7997  8010       L1    13  0.95
      P1  H 10752 10765       L1    11  0.82

> <Gold.PLP.Chemscore.Internal.Correction>
0.5127

> <Gold.Rescore>
     Score         DG    S(hbond)    S(metal)    S(lipo)     H(rot)  DE(clash)    DE(int)     intcor
     14.79     -16.72       3.33        0.00      74.58       3.36       0.15       1.79       ----

> <Gold.Chemscore.Fitness>
14.7911

> <Gold.Chemscore.DG>
-16.7235

> <Gold.Chemscore.ZeroCoef>
-5.4800

> <Gold.Chemscore.Hbond>
3.3308

> <Gold.Chemscore.Metal>
0.0000

> <Gold.Chemscore.Lipo>
74.5768

> <Gold.Chemscore.Internal_Hbond>
0.0000

> <Gold.Chemscore.DEClash>
0.1455

> <Gold.Chemscore.DEInternal>
1.7869

> <Gold.Chemscore.Rot>
3.3620

> <Gold.Chemscore.Internal.Correction>
   9.000000E+99

> <Gold.Chemscore.Hbonds>
donor molecule, donor type, donor heavy atom, donor atom, acceptor molecule, acceptor atom, score
      L1  H     6    32       P1  7948  0.78
      L1  H    21    40       P1  8028  0.87
      P1  H  7997  8010       L1    13  0.22
      P1  H 10752 10765       L1    11  0.70

> <Gold.Chemscore.Hbond.Weighted>
-11.1247

> <Gold.Chemscore.Metal.Weighted>
-0.0000

> <Gold.Chemscore.Lipo.Weighted>
-8.7255

> <Gold.Chemscore.Internal_Hbond.Weighted>
0.0000

> <Gold.Chemscore.DEClash.Weighted>
0.1455

> <Gold.Chemscore.DEInternal.Weighted>
1.7869

> <Gold.Chemscore.Rot.Weighted>
8.6067

> <Gold.Chemscore.Internal.Correction.Weighted>
   9.000000E+99

> <Gold.Protein.RotatedTorsions>
[ 6907 6896 6895 6894 ] final  146.37 input  -60.11 | X-H torsion
[ 7974 7965 7964 7962 ] final   70.16 input  175.53 | X-H torsion
[ 8008 7997 7996 7995 ] final   88.08 input   59.86 | X-H torsion
[ 10167 10162 10161 10158 ] final  169.61 input  -65.29 | X-H torsion
[ 10718 10713 10712 10709 ] final  132.65 input   66.30 | X-H torsion
[ 10763 10752 10751 10750 ] final -161.47 input  -60.55 | X-H torsion
[ 11005 11000 10999 10996 ] final  -22.64 input  -57.11 | X-H torsion

> <Gold.Protein.ActiveResidues>
 VAL166  LYS551  ARG553  GLY616  TRP617  ASP618  TYR619  PRO620  LYS621  CYS622 
 ASP623  PHE694  ASN695  SER759  ASP760  ASP761  ALA762  ILE779  LEU786  VAL792 
 PHE793  MET794  SER795  GLU796  ALA797  LYS798  CYS799  TRP800  GLU811  SER814 

> <Gold.Protein.RotatedAtoms>
  152.1688  133.4629  159.4897 H   0  0  0  0  0  0  0  0  0  0  0  0  # atno 6907 bound_to 6896
  150.6917  134.1980  159.4320 H   0  0  0  0  0  0  0  0  0  0  0  0  # atno 6908 bound_to 6896
  151.9886  134.9991  160.0611 H   0  0  0  0  0  0  0  0  0  0  0  0  # atno 6909 bound_to 6896
  145.7816  139.2890  143.1262 H   0  0  0  0  0  0  0  0  0  0  0  0  # atno 7974 bound_to 7965
  155.9834  140.3375  155.6684 H   0  0  0  0  0  0  0  0  0  0  0  0  # atno 8008 bound_to 7997
  155.6518  140.0706  157.2602 H   0  0  0  0  0  0  0  0  0  0  0  0  # atno 8009 bound_to 7997
  154.4198  140.1724  156.1670 H   0  0  0  0  0  0  0  0  0  0  0  0  # atno 8010 bound_to 7997
  139.4997  144.3687  151.9748 H   0  0  0  0  0  0  0  0  0  0  0  0  # atno 10167 bound_to 10162
  157.4851  131.1088  150.9631 H   0  0  0  0  0  0  0  0  0  0  0  0  # atno 10718 bound_to 10713
  154.7300  135.3044  154.8906 H   0  0  0  0  0  0  0  0  0  0  0  0  # atno 10763 bound_to 10752
  153.9752  135.6737  153.4752 H   0  0  0  0  0  0  0  0  0  0  0  0  # atno 10764 bound_to 10752
  153.0910  135.4959  154.8610 H   0  0  0  0  0  0  0  0  0  0  0  0  # atno 10765 bound_to 10752
  140.8676  133.7743  156.0148 H   0  0  0  0  0  0  0  0  0  0  0  0  # atno 11005 bound_to 11000
  146.0068  140.8471  142.9991 LP  0  0  0  0  0  0  0  0  0  0  0  0  # atno 17320 bound_to 7965
  144.6795  140.2432  143.7341 LP  0  0  0  0  0  0  0  0  0  0  0  0  # atno 17321 bound_to 7965
  140.3123  144.3524  150.6030 LP  0  0  0  0  0  0  0  0  0  0  0  0  # atno 17342 bound_to 10162
  140.5789  143.2174  151.7465 LP  0  0  0  0  0  0  0  0  0  0  0  0  # atno 17343 bound_to 10162
  157.0351  130.5727  149.5348 LP  0  0  0  0  0  0  0  0  0  0  0  0  # atno 17370 bound_to 10713
  156.0142  130.5235  150.8084 LP  0  0  0  0  0  0  0  0  0  0  0  0  # atno 17371 bound_to 10713
  140.8610  134.2840  157.5234 LP  0  0  0  0  0  0  0  0  0  0  0  0  # atno 17394 bound_to 11000
  139.8710  134.9518  156.4096 LP  0  0  0  0  0  0  0  0  0  0  0  0  # atno 17395 bound_to 11000

$$$$
