#       Name:                AV-unprocessed.smi:2828
#       Creating user name   scv26
#       Creation time:       Fri Mar 27 15:34:33 2020


#       File generated by GOLD software.
#

@<TRIPOS>MOLECULE
AV-unprocessed.smi:2828
    44    45     1
SMALL
NO_CHARGES


@<TRIPOS>ATOM
      1 ****        -1.6792  -1.6575   2.6064 C.3            1 S1                 0.0000
      2 ****        -2.4592  -0.6881   1.7179 C.3            1 S1                 0.0000
      3 ****        -3.6051  -0.1124   2.5394 C.3            1 S1                 0.0000
      4 ****        -1.7992   0.2181   0.6792 C.3            1 S1                 0.0000
      5 ****        -0.3121   0.2117   0.5276 C.2            1 S1                 0.0000
      6 ****         0.4542   0.2543   1.4901 O.2            1 S1                 0.0000
      7 ****         0.1091   0.2311  -0.7463 N.am           1 S1                 0.0000
      8 ****         1.5055   0.2564  -1.1654 C.3            1 S1                 0.0000
      9 ****         2.0937   1.6746  -1.0942 C.3            1 S1                 0.0000
     10 ****         3.5178   1.7228  -1.5361 C.2            1 S1                 0.0000
     11 ****         4.6009   1.6107  -0.7706 N.2            1 S1                 0.0000
     12 ****         5.5870   1.6714  -1.7051 C.2            1 S1                 0.0000
     13 ****         6.9411   1.6033  -1.3382 N.pl3          1 S1                 0.0000
     14 ****         5.1890   1.7938  -2.9644 N.2            1 S1                 0.0000
     15 ****         3.7905   1.8168  -2.8598 O.3            1 S1                 0.0000
     16 ****        -2.6309  -0.9787   0.2261 C.3            1 S1                 0.0000
     17 ****        -2.0070  -2.2250  -0.4024 C.3            1 S1                 0.0000
     18 ****        -3.9565  -0.7059  -0.4718 C.3            1 S1                 0.0000
     19 ****        -1.3288  -1.1480   3.5046 H              1 S1                 0.0000
     20 ****        -0.8060  -2.0758   2.1100 H              1 S1                 0.0000
     21 ****        -2.3202  -2.4856   2.9101 H              1 S1                 0.0000
     22 ****        -4.1195   0.6875   2.0085 H              1 S1                 0.0000
     23 ****        -3.2307   0.3062   3.4741 H              1 S1                 0.0000
     24 ****        -4.3302  -0.8919   2.7749 H              1 S1                 0.0000
     25 ****        -2.2438   1.2065   0.5763 H              1 S1                 0.0000
     26 ****        -0.5881   0.2189  -1.4768 H              1 S1                 0.0000
     27 ****         2.0915  -0.4322  -0.5541 H              1 S1                 0.0000
     28 ****         1.5578  -0.1163  -2.1887 H              1 S1                 0.0000
     29 ****         1.5131   2.3547  -1.7184 H              1 S1                 0.0000
     30 ****         2.0362   2.0601  -0.0755 H              1 S1                 0.0000
     31 ****         7.2029   1.5075  -0.3676 H              1 S1                 0.0000
     32 ****         7.6630   1.6410  -2.0431 H              1 S1                 0.0000
     33 ****        -1.9247  -2.1036  -1.4828 H              1 S1                 0.0000
     34 ****        -2.6306  -3.0967  -0.2020 H              1 S1                 0.0000
     35 ****        -1.0076  -2.4315  -0.0244 H              1 S1                 0.0000
     36 ****        -3.8190  -0.6711  -1.5529 H              1 S1                 0.0000
     37 ****        -4.3812   0.2500  -0.1680 H              1 S1                 0.0000
     38 ****        -4.6750  -1.4924  -0.2387 H              1 S1                 0.0000
     39 ****         0.0877   0.2952   2.4196 LP             1 S1                 0.0000
     40 ****         1.4432   0.2479   1.3425 LP             1 S1                 0.0000
     41 ****         4.6706   1.5093   0.2218 LP             1 S1                 0.0000
     42 ****         5.7507   1.8549  -3.7895 LP             1 S1                 0.0000
     43 ****         3.4276   2.6718  -3.2302 LP             1 S1                 0.0000
     44 ****         3.3917   1.0438  -3.3533 LP             1 S1                 0.0000
@<TRIPOS>BOND
    1    1    2 1     
    2    1   19 1     
    3    1   20 1     
    4    1   21 1     
    5    2   16 1     
    6    2    3 1     
    7    2    4 1     
    8    3   22 1     
    9    3   23 1     
   10    3   24 1     
   11    4    5 1     
   12    4   16 1     
   13    4   25 1     
   14    5    6 2     
   15    5    7 am    
   16    7    8 1     
   17    7   26 1     
   18    8    9 1     
   19    8   27 1     
   20    8   28 1     
   21    9   10 1     
   22    9   29 1     
   23    9   30 1     
   24   10   15 1     
   25   10   11 2     
   26   11   12 1     
   27   12   13 1     
   28   12   14 2     
   29   13   31 1     
   30   13   32 1     
   31   14   15 1     
   32   16   17 1     
   33   16   18 1     
   34   17   33 1     
   35   17   34 1     
   36   17   35 1     
   37   18   36 1     
   38   18   37 1     
   39   18   38 1     
   40    6   39 1     
   41    6   40 1     
   42   11   41 1     
   43   14   42 1     
   44   15   43 1     
   45   15   44 1     
@<TRIPOS>SUBSTRUCTURE
      1 S1             1
@<TRIPOS>SET
LONE_PAIRS      STATIC     ATOMS    <user>   **** ""
6 39 40 41 42 43 44
DONOR_HYDROGENS      STATIC     ATOMS    <user>   **** ""
3 26 31 32
ATOM$BLUE        STATIC     ATOMS    COLORGROUP SYSTEM
6 39 40 41 42 43 44
ATOM$RED        STATIC     ATOMS    COLORGROUP SYSTEM
3 26 31 32
