AV-unprocessed.smi:1503|AV-procd|sdf|6070|dock7
  -GOLD-   22720 6193D 1   1.00000     0.00000
 Structure written by MMmdl.
 43 44  0  0  0  0  0  0  0  0  2 V2000
  145.4962  136.3349  151.3445 C   0  0  0  0  0  0  0  0  0  0  0  0
  145.2307  136.7575  152.5922 C   0  0  0  0  0  0  0  0  0  0  0  0
  146.0389  137.7558  153.4094 C   0  0  0  0  0  0  0  0  0  0  0  0
  147.4510  137.4112  153.5571 N   0  0  0  0  0  0  0  0  0  0  0  0
  148.2248  137.7462  154.6016 C   0  0  0  0  0  0  0  0  0  0  0  0
  147.8176  138.4099  155.5558 O   0  0  0  0  0  0  0  0  0  0  0  0
  149.6726  137.2484  154.5510 C   0  0  0  0  0  0  0  0  0  0  0  0
  150.6726  138.3187  154.0722 C   0  0  0  0  0  0  0  0  0  0  0  0
  151.0333  139.3046  155.1817 C   0  0  0  0  0  0  0  0  0  0  0  0
  150.3265  140.4427  155.4303 C   0  0  0  0  0  0  0  0  0  0  0  0
  149.1164  140.8617  154.6146 C   0  0  0  0  0  0  0  0  0  0  0  0
  150.6920  141.3071  156.4734 N   0  0  0  0  0  0  0  0  0  0  0  0
  151.7155  141.0310  157.2247 C   0  0  0  0  0  0  0  0  0  0  0  0
  152.1067  141.8631  158.2789 N   0  0  0  0  0  0  0  0  0  0  0  0
  151.3294  143.0505  158.6451 C   0  0  0  0  0  0  0  0  0  0  0  0
  152.1999  144.0869  159.3747 C   0  0  0  0  0  0  0  0  0  0  0  0
  152.8103  143.4872  160.5095 O   0  0  0  0  0  0  0  0  0  0  0  0
  153.6623  142.4152  160.1301 C   0  0  0  0  0  0  0  0  0  0  0  0
  152.8420  141.3232  159.4235 C   0  0  0  0  0  0  0  0  0  0  0  0
  152.4819  139.8903  157.0425 N   0  5  0  0  0  0  0  0  0  0  0  0
  152.1902  139.0092  156.0444 C   0  0  0  0  0  0  0  0  0  0  0  0
  152.8624  137.9969  155.8511 O   0  0  0  0  0  0  0  0  0  0  0  0
  146.3510  136.6892  150.7875 H   0  0  0  0  0  0  0  0  0  0  0  0
  144.8501  135.6181  150.8594 H   0  0  0  0  0  0  0  0  0  0  0  0
  144.3585  136.3592  153.0898 H   0  0  0  0  0  0  0  0  0  0  0  0
  145.9344  138.7458  152.9629 H   0  0  0  0  0  0  0  0  0  0  0  0
  145.5989  137.8188  154.4046 H   0  0  0  0  0  0  0  0  0  0  0  0
  147.8677  136.8658  152.8163 H   0  0  0  0  0  0  0  0  0  0  0  0
  149.9472  136.9000  155.5473 H   0  0  0  0  0  0  0  0  0  0  0  0
  149.7268  136.3809  153.8915 H   0  0  0  0  0  0  0  0  0  0  0  0
  151.5746  137.8369  153.6945 H   0  0  0  0  0  0  0  0  0  0  0  0
  150.2675  138.8681  153.2209 H   0  0  0  0  0  0  0  0  0  0  0  0
  149.3441  140.8429  153.5486 H   0  0  0  0  0  0  0  0  0  0  0  0
  148.7993  141.8734  154.8695 H   0  0  0  0  0  0  0  0  0  0  0  0
  148.2804  140.1882  154.8040 H   0  0  0  0  0  0  0  0  0  0  0  0
  150.8796  143.5249  157.7728 H   0  0  0  0  0  0  0  0  0  0  0  0
  150.5053  142.7405  159.2888 H   0  0  0  0  0  0  0  0  0  0  0  0
  152.9614  144.4932  158.7068 H   0  0  0  0  0  0  0  0  0  0  0  0
  151.5862  144.9249  159.7047 H   0  0  0  0  0  0  0  0  0  0  0  0
  154.4612  142.7810  159.4827 H   0  0  0  0  0  0  0  0  0  0  0  0
  154.1378  142.0075  161.0223 H   0  0  0  0  0  0  0  0  0  0  0  0
  152.1312  140.8786  160.1212 H   0  0  0  0  0  0  0  0  0  0  0  0
  153.5161  140.5273  159.1044 H   0  0  0  0  0  0  0  0  0  0  0  0
  1  2  2  0  0  0  0
  1 23  1  0  0  0  0
  1 24  1  0  0  0  0
  2  3  1  0  0  0  0
  2 25  1  0  0  0  0
  3  4  1  0  0  0  0
  3 26  1  0  0  0  0
  3 27  1  0  0  0  0
  4  5  1  0  0  0  0
  4 28  1  0  0  0  0
  5  6  2  0  0  0  0
  5  7  1  0  0  0  0
  7  8  1  0  0  0  0
  7 29  1  0  0  0  0
  7 30  1  0  0  0  0
  8  9  1  0  0  0  0
  8 31  1  0  0  0  0
  8 32  1  0  0  0  0
  9 21  1  0  0  0  0
  9 10  2  0  0  0  0
 10 11  1  0  0  0  0
 10 12  1  0  0  0  0
 11 33  1  0  0  0  0
 11 34  1  0  0  0  0
 11 35  1  0  0  0  0
 12 13  2  0  0  0  0
 13 14  1  0  0  0  0
 13 20  1  0  0  0  0
 14 19  1  0  0  0  0
 14 15  1  0  0  0  0
 15 16  1  0  0  0  0
 15 36  1  0  0  0  0
 15 37  1  0  0  0  0
 16 17  1  0  0  0  0
 16 38  1  0  0  0  0
 16 39  1  0  0  0  0
 17 18  1  0  0  0  0
 18 19  1  0  0  0  0
 18 40  1  0  0  0  0
 18 41  1  0  0  0  0
 19 42  1  0  0  0  0
 19 43  1  0  0  0  0
 20 21  1  0  0  0  0
 21 22  2  0  0  0  0
M  CHG  1  20  -1
M  END
> <s_m_source_file>
AV-unprocessed.smi

> <i_m_source_file_index>
1503

> <i_lp_mmshare_version>
43012

> <i_f3d_flags>
0

> <s_epik_input>
W0NIMl09W0NIXVtDSDJdW05IXUMoPU8pW0NIMl1bQ0gyXWMxYyhbQ0gzXSluYyhbbkhdYzE9TylOMltDSDJdW0NIMl1PW0NIMl1bQ0gyXTI=

> <s_epik_cmdline>
J2VwaWtfcHl0aG9uJywgJy1waCcsICc3LjAnLCAnLXRuJywgJzgnLCAnLW1hJywgJzIwMCcsICctbWV0YWxfYmluZGluZycsICctaW1hZScsICc8aW5maWxlLm1hZT4nLCAnLW9tYWUnLCAnPG91dGZpbGUubWFlPic=

> <r_lp_tautomer_probability>
1

> <r_epik_Ionization_Penalty>
5.02457

> <r_epik_Ionization_Penalty_Charging>
9.64055e-08

> <r_epik_Ionization_Penalty_Neutral>
5.02457

> <r_epik_State_Penalty>
2.56428

> <r_epik_Charging_Adjusted_Penalty>
2.56428

> <i_epik_Tot_Q>
-1

> <i_epik_Tot_abs_Q>
1

> <r_epik_Metal_State_Penalty>
0.122481

> <b_epik_Metal_Only>
0

> <s_lp_Force_Field>
OPLS_2005

> <r_lp_Energy>
26.3767

> <b_lp_Chiralities_Consistent>
1

> <s_lp_Variant>
AV-unprocessed.smi:1503-3

> <Gold.Version>
5.8.1

> <Gold.Id.Protein>
6NUR|6NUR_protein|mol2

> <Gold.PLP.Fitness>
43.9506

> <Gold.PLP.PLP>
-36.9019

> <Gold.PLP.part.hbond>
-2.0830

> <Gold.PLP.part.metal>
0.0000

> <Gold.PLP.part.buried>
-3.8067

> <Gold.PLP.part.nonpolar>
-31.4287

> <Gold.PLP.part.repulsive>
0.1215

> <Gold.PLP.ligand.clash>
0.0000

> <Gold.PLP.ligand.torsion>
1.1012

> <Gold.PLP.Chemscore.Hbond>
3.0000

> <Gold.PLP.Chemscore.CHOScore>
0.0000

> <Gold.PLP.Chemscore.Metal>
0.0000

> <Gold.Chemscore.Hbonds>
donor molecule, donor type, donor heavy atom, donor atom, acceptor molecule, acceptor atom, score
      L1  H     4    28       P1  7948  1.00
      P1  H  7997  8010       L1    20  2.00

> <Gold.PLP.Chemscore.Internal.Correction>
0.2509

> <Gold.Rescore>
     Score         DG    S(hbond)    S(metal)    S(lipo)     H(rot)  DE(clash)    DE(int)     intcor
     14.15     -15.83       1.28        0.00      92.99       1.87       0.55       1.13       ----

> <Gold.Chemscore.Fitness>
14.1518

> <Gold.Chemscore.DG>
-15.8250

> <Gold.Chemscore.ZeroCoef>
-5.4800

> <Gold.Chemscore.Hbond>
1.2751

> <Gold.Chemscore.Metal>
0.0000

> <Gold.Chemscore.Lipo>
92.9949

> <Gold.Chemscore.Internal_Hbond>
0.0000

> <Gold.Chemscore.DEClash>
0.5465

> <Gold.Chemscore.DEInternal>
1.1267

> <Gold.Chemscore.Rot>
1.8727

> <Gold.Chemscore.Internal.Correction>
   9.000000E+99

> <Gold.Chemscore.Hbonds>
donor molecule, donor type, donor heavy atom, donor atom, acceptor molecule, acceptor atom, score
      L1  H     4    28       P1  7948  0.97
      P1  H  7997  8010       L1    20  0.24

> <Gold.Chemscore.Hbond.Weighted>
-4.2588

> <Gold.Chemscore.Metal.Weighted>
-0.0000

> <Gold.Chemscore.Lipo.Weighted>
-10.8804

> <Gold.Chemscore.Internal_Hbond.Weighted>
0.0000

> <Gold.Chemscore.DEClash.Weighted>
0.5465

> <Gold.Chemscore.DEInternal.Weighted>
1.1267

> <Gold.Chemscore.Rot.Weighted>
4.7942

> <Gold.Chemscore.Internal.Correction.Weighted>
   9.000000E+99

> <Gold.Protein.RotatedTorsions>
[ 6907 6896 6895 6894 ] final  -39.22 input  -60.11 | X-H torsion
[ 7974 7965 7964 7962 ] final   33.57 input  175.53 | X-H torsion
[ 8008 7997 7996 7995 ] final   51.71 input   59.86 | X-H torsion
[ 10167 10162 10161 10158 ] final -166.67 input  -65.29 | X-H torsion
[ 10718 10713 10712 10709 ] final  -30.36 input   66.30 | X-H torsion
[ 10763 10752 10751 10750 ] final   40.36 input  -60.55 | X-H torsion
[ 11005 11000 10999 10996 ] final  125.77 input  -57.11 | X-H torsion

> <Gold.Protein.ActiveResidues>
 VAL166  LYS551  ARG553  GLY616  TRP617  ASP618  TYR619  PRO620  LYS621  CYS622 
 ASP623  PHE694  ASN695  SER759  ASP760  ASP761  ALA762  ILE779  LEU786  VAL792 
 PHE793  MET794  SER795  GLU796  ALA797  LYS798  CYS799  TRP800  GLU811  SER814 

> <Gold.Protein.RotatedAtoms>
  150.9929  134.9260  159.7909 H   0  0  0  0  0  0  0  0  0  0  0  0  # atno 6907 bound_to 6896
  152.5256  134.3257  159.9174 H   0  0  0  0  0  0  0  0  0  0  0  0  # atno 6908 bound_to 6896
  151.3263  133.3978  159.2693 H   0  0  0  0  0  0  0  0  0  0  0  0  # atno 6909 bound_to 6896
  146.1412  139.6380  142.9162 H   0  0  0  0  0  0  0  0  0  0  0  0  # atno 7974 bound_to 7965
  155.4398  140.3454  155.4288 H   0  0  0  0  0  0  0  0  0  0  0  0  # atno 8008 bound_to 7997
  156.1286  140.1507  156.9130 H   0  0  0  0  0  0  0  0  0  0  0  0  # atno 8009 bound_to 7997
  154.4877  140.0850  156.7504 H   0  0  0  0  0  0  0  0  0  0  0  0  # atno 8010 bound_to 7997
  139.6100  144.0835  152.1832 H   0  0  0  0  0  0  0  0  0  0  0  0  # atno 10167 bound_to 10162
  156.4007  130.4390  149.7324 H   0  0  0  0  0  0  0  0  0  0  0  0  # atno 10718 bound_to 10713
  152.9939  135.6193  154.2614 H   0  0  0  0  0  0  0  0  0  0  0  0  # atno 10763 bound_to 10752
  154.2349  135.2790  155.2877 H   0  0  0  0  0  0  0  0  0  0  0  0  # atno 10764 bound_to 10752
  154.5418  135.5759  153.6904 H   0  0  0  0  0  0  0  0  0  0  0  0  # atno 10765 bound_to 10752
  139.9423  134.9634  156.8608 H   0  0  0  0  0  0  0  0  0  0  0  0  # atno 11005 bound_to 11000
  145.5043  141.0437  143.2523 LP  0  0  0  0  0  0  0  0  0  0  0  0  # atno 17320 bound_to 7965
  144.7794  139.6558  143.7161 LP  0  0  0  0  0  0  0  0  0  0  0  0  # atno 17321 bound_to 7965
  140.0451  144.5977  150.7380 LP  0  0  0  0  0  0  0  0  0  0  0  0  # atno 17342 bound_to 10162
  140.7312  143.2692  151.3945 LP  0  0  0  0  0  0  0  0  0  0  0  0  # atno 17343 bound_to 10162
  156.4341  130.7829  151.2850 LP  0  0  0  0  0  0  0  0  0  0  0  0  # atno 17370 bound_to 10713
  157.7503  131.0145  150.3466 LP  0  0  0  0  0  0  0  0  0  0  0  0  # atno 17371 bound_to 10713
  140.5921  134.0251  155.7504 LP  0  0  0  0  0  0  0  0  0  0  0  0  # atno 17394 bound_to 11000
  141.1061  133.9691  157.2993 LP  0  0  0  0  0  0  0  0  0  0  0  0  # atno 17395 bound_to 11000

$$$$
