AV-unprocessed.smi:1561|AV-procd|sdf|6286|dock1
  -GOLD-   22720 6483D 1   1.00000     0.00000
 Structure written by MMmdl.
 33 34  0  0  0  0  0  0  0  0  1 V2000
  154.0586  141.7558  161.1601 C   0  0  0  0  0  0  0  0  0  0  0  0
  153.6151  142.1362  159.7327 C   0  0  1  0  0  0  0  0  0  0  0  0
  152.9279  140.9748  158.9974 C   0  0  0  0  0  0  0  0  0  0  0  0
  153.5555  139.9560  158.7066 O   0  0  0  0  0  0  0  0  0  0  0  0
  151.6298  141.1474  158.7004 N   0  0  0  0  0  0  0  0  0  0  0  0
  150.7776  140.1786  158.0184 C   0  0  0  0  0  0  0  0  0  0  0  0
  151.1119  140.0717  156.5186 C   0  0  1  0  0  0  0  0  0  0  0  0
  150.7565  138.7479  155.8684 C   0  0  0  0  0  0  0  0  0  0  0  0
  150.7255  139.1141  154.3869 C   0  0  0  0  0  0  0  0  0  0  0  0
  150.3692  140.4927  154.3281 O   0  0  0  0  0  0  0  0  0  0  0  0
  150.3200  141.0399  155.6417 C   0  0  0  0  0  0  0  0  0  0  0  0
  152.7648  143.3210  159.7132 N   0  0  0  0  0  0  0  0  0  0  0  0
  152.3857  144.0745  158.6205 C   0  0  0  0  0  0  0  0  0  0  0  0
  151.5567  145.0624  159.0690 C   0  0  0  0  0  0  0  0  0  0  0  0
  151.4749  144.8243  160.4689 C   0  0  0  0  0  0  0  0  0  0  0  0
  152.1897  143.7788  160.8499 N   0  0  0  0  0  0  0  0  0  0  0  0
  154.7415  140.9056  161.1445 H   0  0  0  0  0  0  0  0  0  0  0  0
  153.2139  141.4880  161.7964 H   0  0  0  0  0  0  0  0  0  0  0  0
  154.5814  142.5849  161.6376 H   0  0  0  0  0  0  0  0  0  0  0  0
  154.5199  142.3843  159.1753 H   0  0  0  0  0  0  0  0  0  0  0  0
  151.1955  142.0158  158.9770 H   0  0  0  0  0  0  0  0  0  0  0  0
  150.8384  139.2006  158.4993 H   0  0  0  0  0  0  0  0  0  0  0  0
  149.7458  140.5101  158.1362 H   0  0  0  0  0  0  0  0  0  0  0  0
  152.1762  140.2616  156.3682 H   0  0  0  0  0  0  0  0  0  0  0  0
  151.4677  137.9523  156.0921 H   0  0  0  0  0  0  0  0  0  0  0  0
  149.7669  138.4207  156.1913 H   0  0  0  0  0  0  0  0  0  0  0  0
  151.7144  138.9940  153.9432 H   0  0  0  0  0  0  0  0  0  0  0  0
  150.0245  138.4974  153.8239 H   0  0  0  0  0  0  0  0  0  0  0  0
  149.2768  141.0829  155.9580 H   0  0  0  0  0  0  0  0  0  0  0  0
  150.7224  142.0530  155.6662 H   0  0  0  0  0  0  0  0  0  0  0  0
  152.7343  143.8474  157.6237 H   0  0  0  0  0  0  0  0  0  0  0  0
  151.0778  145.8347  158.4857 H   0  0  0  0  0  0  0  0  0  0  0  0
  150.9176  145.3732  161.2135 H   0  0  0  0  0  0  0  0  0  0  0  0
  1  2  1  0  0  0  0
  1 17  1  0  0  0  0
  1 18  1  0  0  0  0
  1 19  1  0  0  0  0
  2  3  1  0  0  0  0
  2 12  1  0  0  0  0
  2 20  1  0  0  0  0
  3  4  2  0  0  0  0
  3  5  1  0  0  0  0
  5  6  1  0  0  0  0
  5 21  1  0  0  0  0
  6  7  1  0  0  0  0
  6 22  1  0  0  0  0
  6 23  1  0  0  0  0
  7 11  1  0  0  0  0
  7  8  1  0  0  0  0
  7 24  1  0  0  0  0
  8  9  1  0  0  0  0
  8 25  1  0  0  0  0
  8 26  1  0  0  0  0
  9 10  1  0  0  0  0
  9 27  1  0  0  0  0
  9 28  1  0  0  0  0
 10 11  1  0  0  0  0
 11 29  1  0  0  0  0
 11 30  1  0  0  0  0
 12 16  1  0  0  0  0
 12 13  1  0  0  0  0
 13 14  2  0  0  0  0
 13 31  1  0  0  0  0
 14 15  1  0  0  0  0
 14 32  1  0  0  0  0
 15 16  2  0  0  0  0
 15 33  1  0  0  0  0
M  END
> <s_m_source_file>
AV-unprocessed.smi

> <i_m_source_file_index>
1561

> <i_lp_mmshare_version>
43012

> <i_f3d_flags>
0

> <s_epik_input>
bjFbY0hdW2NIXVtjSF1uMVtDQEhdKFtDSDNdKUMoPU8pW05IXVtDSDJdW0NAQEhdMltDSDJdW0NIMl1PW0NIMl0y

> <s_epik_cmdline>
J2VwaWtfcHl0aG9uJywgJy1waCcsICc3LjAnLCAnLXRuJywgJzgnLCAnLW1hJywgJzIwMCcsICctbWV0YWxfYmluZGluZycsICctaW1hZScsICc8aW5maWxlLm1hZT4nLCAnLW9tYWUnLCAnPG91dGZpbGUubWFlPic=

> <r_lp_tautomer_probability>
1

> <r_epik_Ionization_Penalty>
3.82077e-05

> <r_epik_Ionization_Penalty_Charging>
0

> <r_epik_Ionization_Penalty_Neutral>
3.82077e-05

> <r_epik_State_Penalty>
-0

> <r_epik_Charging_Adjusted_Penalty>
0

> <i_epik_Tot_Q>
0

> <i_epik_Tot_abs_Q>
0

> <r_epik_Metal_State_Penalty>
-0

> <b_epik_Metal_Only>
0

> <s_lp_Force_Field>
OPLS_2005

> <r_lp_Energy>
22.4357

> <b_lp_Chiralities_Consistent>
1

> <s_lp_Variant>
AV-unprocessed.smi:1561-4

> <Gold.Version>
5.8.1

> <Gold.Id.Protein>
6NUR|6NUR_protein|mol2

> <Gold.PLP.Fitness>
42.9240

> <Gold.PLP.PLP>
-38.4157

> <Gold.PLP.part.hbond>
-1.7718

> <Gold.PLP.part.metal>
0.0000

> <Gold.PLP.part.buried>
-4.0113

> <Gold.PLP.part.nonpolar>
-31.9109

> <Gold.PLP.part.repulsive>
0.3297

> <Gold.PLP.ligand.clash>
0.0000

> <Gold.PLP.ligand.torsion>
0.7868

> <Gold.PLP.Chemscore.Hbond>
1.9920

> <Gold.PLP.Chemscore.CHOScore>
0.0000

> <Gold.PLP.Chemscore.Metal>
0.0000

> <Gold.Chemscore.Hbonds>
donor molecule, donor type, donor heavy atom, donor atom, acceptor molecule, acceptor atom, score
      P1  H  7989  7998       L1    10  0.66
      P1  H  7997  8009       L1     4  0.98

> <Gold.PLP.Chemscore.Internal.Correction>
0.1059

> <Gold.Rescore>
     Score         DG    S(hbond)    S(metal)    S(lipo)     H(rot)  DE(clash)    DE(int)     intcor
     15.65     -16.60       1.45        0.00      88.72       1.61       0.13       0.82       ----

> <Gold.Chemscore.Fitness>
15.6513

> <Gold.Chemscore.DG>
-16.5992

> <Gold.Chemscore.ZeroCoef>
-5.4800

> <Gold.Chemscore.Hbond>
1.4548

> <Gold.Chemscore.Metal>
0.0000

> <Gold.Chemscore.Lipo>
88.7208

> <Gold.Chemscore.Internal_Hbond>
0.0000

> <Gold.Chemscore.DEClash>
0.1307

> <Gold.Chemscore.DEInternal>
0.8172

> <Gold.Chemscore.Rot>
1.6094

> <Gold.Chemscore.Internal.Correction>
   9.000000E+99

> <Gold.Chemscore.Hbonds>
donor molecule, donor type, donor heavy atom, donor atom, acceptor molecule, acceptor atom, score
      P1  H  7989  7998       L1    10  0.06
      P1  H  7997  8009       L1     4  0.82

> <Gold.Chemscore.Hbond.Weighted>
-4.8590

> <Gold.Chemscore.Metal.Weighted>
-0.0000

> <Gold.Chemscore.Lipo.Weighted>
-10.3803

> <Gold.Chemscore.Internal_Hbond.Weighted>
0.0000

> <Gold.Chemscore.DEClash.Weighted>
0.1307

> <Gold.Chemscore.DEInternal.Weighted>
0.8172

> <Gold.Chemscore.Rot.Weighted>
4.1201

> <Gold.Chemscore.Internal.Correction.Weighted>
   9.000000E+99

> <Gold.Protein.RotatedTorsions>
[ 6907 6896 6895 6894 ] final   74.90 input  -60.11 | X-H torsion
[ 7974 7965 7964 7962 ] final   64.41 input  175.53 | X-H torsion
[ 8008 7997 7996 7995 ] final  156.50 input   59.86 | X-H torsion
[ 10167 10162 10161 10158 ] final   87.79 input  -65.29 | X-H torsion
[ 10718 10713 10712 10709 ] final   78.38 input   66.30 | X-H torsion
[ 10763 10752 10751 10750 ] final  -95.34 input  -60.55 | X-H torsion
[ 11005 11000 10999 10996 ] final -105.91 input  -57.11 | X-H torsion

> <Gold.Protein.ActiveResidues>
 VAL166  LYS551  ARG553  GLY616  TRP617  ASP618  TYR619  PRO620  LYS621  CYS622 
 ASP623  PHE694  ASN695  SER759  ASP760  ASP761  ALA762  ILE779  LEU786  VAL792 
 PHE793  MET794  SER795  GLU796  ALA797  LYS798  CYS799  TRP800  GLU811  SER814 

> <Gold.Protein.RotatedAtoms>
  152.4999  134.4201  159.9477 H   0  0  0  0  0  0  0  0  0  0  0  0  # atno 6907 bound_to 6896
  151.4174  133.3702  159.2759 H   0  0  0  0  0  0  0  0  0  0  0  0  # atno 6908 bound_to 6896
  150.9247  134.8687  159.7572 H   0  0  0  0  0  0  0  0  0  0  0  0  # atno 6909 bound_to 6896
  145.8505  139.3251  143.0878 H   0  0  0  0  0  0  0  0  0  0  0  0  # atno 7974 bound_to 7965
  156.2419  140.1911  156.6964 H   0  0  0  0  0  0  0  0  0  0  0  0  # atno 8008 bound_to 7997
  154.6213  140.0608  156.9645 H   0  0  0  0  0  0  0  0  0  0  0  0  # atno 8009 bound_to 7997
  155.1856  140.3280  155.4370 H   0  0  0  0  0  0  0  0  0  0  0  0  # atno 8010 bound_to 7997
  139.8738  144.6478  150.8919 H   0  0  0  0  0  0  0  0  0  0  0  0  # atno 10167 bound_to 10162
  157.6743  130.9865  150.1778 H   0  0  0  0  0  0  0  0  0  0  0  0  # atno 10718 bound_to 10713
  154.7139  135.5124  153.8708 H   0  0  0  0  0  0  0  0  0  0  0  0  # atno 10763 bound_to 10752
  153.0804  135.6629  154.0066 H   0  0  0  0  0  0  0  0  0  0  0  0  # atno 10764 bound_to 10752
  153.9902  135.3020  155.3392 H   0  0  0  0  0  0  0  0  0  0  0  0  # atno 10765 bound_to 10752
  141.1030  133.8848  157.1792 H   0  0  0  0  0  0  0  0  0  0  0  0  # atno 11005 bound_to 11000
  145.9363  140.9012  143.0330 LP  0  0  0  0  0  0  0  0  0  0  0  0  # atno 17320 bound_to 7965
  144.6729  140.1487  143.7431 LP  0  0  0  0  0  0  0  0  0  0  0  0  # atno 17321 bound_to 7965
  140.7756  143.3641  151.1771 LP  0  0  0  0  0  0  0  0  0  0  0  0  # atno 17342 bound_to 10162
  139.7259  143.9150  152.3002 LP  0  0  0  0  0  0  0  0  0  0  0  0  # atno 17343 bound_to 10162
  156.2517  130.3701  149.8225 LP  0  0  0  0  0  0  0  0  0  0  0  0  # atno 17370 bound_to 10713
  156.5995  130.8541  151.3428 LP  0  0  0  0  0  0  0  0  0  0  0  0  # atno 17371 bound_to 10713
  139.9889  135.0072  156.9929 LP  0  0  0  0  0  0  0  0  0  0  0  0  # atno 17394 bound_to 11000
  140.4973  134.1133  155.7243 LP  0  0  0  0  0  0  0  0  0  0  0  0  # atno 17395 bound_to 11000

$$$$
