AV-unprocessed.smi:648|AV-procd|sdf|3171|dock4
  -GOLD-   22720 0 93D 1   1.00000     0.00000
 Structure written by MMmdl.
 46 47  0  0  0  0  0  0  0  0  2 V2000
  147.7693  141.7599  153.8653 C   0  0  0  0  0  0  0  0  0  0  0  0
  148.8578  140.8169  154.3991 C   0  0  1  0  0  0  0  0  0  0  0  0
  149.0732  141.0230  155.9107 C   0  0  0  0  0  0  0  0  0  0  0  0
  150.1699  140.1153  156.5169 C   0  0  0  0  0  0  0  0  0  0  0  0
  151.5789  140.6386  156.1554 C   0  0  0  0  0  0  0  0  0  0  0  0
  150.0619  140.1871  158.0558 C   0  0  0  0  0  0  0  0  0  0  0  0
  149.9438  138.6329  156.0919 C   0  0  0  0  0  0  0  0  0  0  0  0
  149.5930  138.3447  154.5995 C   0  0  1  0  0  0  0  0  0  0  0  0
  150.8606  138.4287  153.7052 C   0  0  0  0  0  0  0  0  0  0  0  0
  151.7338  137.3374  153.9270 O   0  0  0  0  0  0  0  0  0  0  0  0
  149.1352  136.9283  154.4857 N   0  3  0  0  0  0  0  0  0  0  0  0
  147.9992  136.4653  155.3167 C   0  0  0  0  0  0  0  0  0  0  0  0
  148.1442  134.9724  155.6452 C   0  0  0  0  0  0  0  0  0  0  0  0
  148.0953  134.1496  154.4524 N   0  0  0  0  0  0  0  0  0  0  0  0
  147.1461  134.0166  153.5246 C   0  0  0  0  0  0  0  0  0  0  0  0
  147.4584  133.1644  152.5582 N   0  0  0  0  0  0  0  0  0  0  0  0
  148.7015  132.7859  152.9800 C   0  0  0  0  0  0  0  0  0  0  0  0
  149.1314  133.3488  154.1095 N   0  0  0  0  0  0  0  0  0  0  0  0
  148.5029  139.3444  154.1186 C   0  0  0  0  0  0  0  0  0  0  0  0
  146.8077  141.5714  154.3439 H   0  0  0  0  0  0  0  0  0  0  0  0
  147.6362  141.6379  152.7900 H   0  0  0  0  0  0  0  0  0  0  0  0
  148.0317  142.8028  154.0460 H   0  0  0  0  0  0  0  0  0  0  0  0
  149.7743  141.0735  153.8704 H   0  0  0  0  0  0  0  0  0  0  0  0
  149.3096  142.0691  156.1114 H   0  0  0  0  0  0  0  0  0  0  0  0
  148.1266  140.8321  156.4190 H   0  0  0  0  0  0  0  0  0  0  0  0
  152.3545  139.9279  156.4424 H   0  0  0  0  0  0  0  0  0  0  0  0
  151.7919  141.5728  156.6765 H   0  0  0  0  0  0  0  0  0  0  0  0
  151.7027  140.8620  155.1004 H   0  0  0  0  0  0  0  0  0  0  0  0
  150.8224  139.5705  158.5367 H   0  0  0  0  0  0  0  0  0  0  0  0
  149.0900  139.8423  158.4111 H   0  0  0  0  0  0  0  0  0  0  0  0
  150.1908  141.2076  158.4185 H   0  0  0  0  0  0  0  0  0  0  0  0
  150.8008  138.0289  156.3935 H   0  0  0  0  0  0  0  0  0  0  0  0
  149.1226  138.2633  156.7040 H   0  0  0  0  0  0  0  0  0  0  0  0
  150.6305  138.4225  152.6461 H   0  0  0  0  0  0  0  0  0  0  0  0
  151.4101  139.3508  153.8999 H   0  0  0  0  0  0  0  0  0  0  0  0
  151.7862  136.8275  153.1322 H   0  0  0  0  0  0  0  0  0  0  0  0
  148.8716  136.7821  153.5212 H   0  0  0  0  0  0  0  0  0  0  0  0
  147.9394  137.0358  156.2422 H   0  0  0  0  0  0  0  0  0  0  0  0
  147.0646  136.6224  154.7774 H   0  0  0  0  0  0  0  0  0  0  0  0
  149.0887  134.7852  156.1580 H   0  0  0  0  0  0  0  0  0  0  0  0
  147.3478  134.6498  156.3176 H   0  0  0  0  0  0  0  0  0  0  0  0
  146.2085  134.5524  153.5552 H   0  0  0  0  0  0  0  0  0  0  0  0
  149.3080  132.0748  152.4387 H   0  0  0  0  0  0  0  0  0  0  0  0
  147.5595  139.1519  154.6287 H   0  0  0  0  0  0  0  0  0  0  0  0
  148.3006  139.2039  153.0562 H   0  0  0  0  0  0  0  0  0  0  0  0
  149.9307  136.3377  154.6813 H   0  0  0  0  0  0  0  0  0  0  0  0
  1  2  1  0  0  0  0
  1 20  1  0  0  0  0
  1 21  1  0  0  0  0
  1 22  1  0  0  0  0
  2 19  1  0  0  0  0
  2  3  1  0  0  0  0
  2 23  1  0  0  0  0
  3  4  1  0  0  0  0
  3 24  1  0  0  0  0
  3 25  1  0  0  0  0
  4  5  1  0  0  0  0
  4  6  1  0  0  0  0
  4  7  1  0  0  0  0
  5 26  1  0  0  0  0
  5 27  1  0  0  0  0
  5 28  1  0  0  0  0
  6 29  1  0  0  0  0
  6 30  1  0  0  0  0
  6 31  1  0  0  0  0
  7  8  1  0  0  0  0
  7 32  1  0  0  0  0
  7 33  1  0  0  0  0
  8  9  1  0  0  0  0
  8 11  1  0  0  0  0
  8 19  1  0  0  0  0
  9 10  1  0  0  0  0
  9 34  1  0  0  0  0
  9 35  1  0  0  0  0
 10 36  1  0  0  0  0
 11 12  1  0  0  0  0
 11 37  1  0  0  0  0
 11 46  1  0  0  0  0
 12 13  1  0  0  0  0
 12 38  1  0  0  0  0
 12 39  1  0  0  0  0
 13 14  1  0  0  0  0
 13 40  1  0  0  0  0
 13 41  1  0  0  0  0
 14 18  1  0  0  0  0
 14 15  1  0  0  0  0
 15 16  2  0  0  0  0
 15 42  1  0  0  0  0
 16 17  1  0  0  0  0
 17 18  2  0  0  0  0
 17 43  1  0  0  0  0
 19 44  1  0  0  0  0
 19 45  1  0  0  0  0
M  CHG  1  11   1
M  END
> <s_m_source_file>
AV-unprocessed.smi

> <i_m_source_file_index>
648

> <i_lp_mmshare_version>
43012

> <i_f3d_flags>
0

> <s_epik_input>
W0NIM11DMShbQ0gzXSlbQ0gyXVtDQEBIXShbQ0gzXSlbQ0gyXVtDQF0oW0NIMl0xKShbQ0gyXVtPSF0pW05IXVtDSDJdW0NIMl1uMltjSF1uW2NIXW4y

> <s_epik_cmdline>
J2VwaWtfcHl0aG9uJywgJy1waCcsICc3LjAnLCAnLXRuJywgJzgnLCAnLW1hJywgJzIwMCcsICctbWV0YWxfYmluZGluZycsICctaW1hZScsICc8aW5maWxlLm1hZT4nLCAnLW9tYWUnLCAnPG91dGZpbGUubWFlPic=

> <r_lp_tautomer_probability>
1

> <r_epik_Ionization_Penalty>
0.00942316

> <r_epik_Ionization_Penalty_Charging>
0.00942185

> <r_epik_Ionization_Penalty_Neutral>
1.31257e-06

> <r_epik_State_Penalty>
0.00715409

> <r_epik_Charging_Adjusted_Penalty>
0.0165759

> <i_epik_Tot_Q>
1

> <i_epik_Tot_abs_Q>
1

> <r_epik_Metal_State_Penalty>
0.00715563

> <b_epik_Metal_Only>
0

> <s_lp_Force_Field>
OPLS_2005

> <r_lp_Energy>
31.5534

> <b_lp_Chiralities_Consistent>
1

> <s_lp_Variant>
AV-unprocessed.smi:648-2

> <Gold.Version>
5.8.1

> <Gold.Id.Protein>
6NUR|6NUR_protein|mol2

> <Gold.PLP.Fitness>
38.4283

> <Gold.PLP.PLP>
-27.0665

> <Gold.PLP.part.hbond>
-3.0000

> <Gold.PLP.part.metal>
0.0000

> <Gold.PLP.part.buried>
-4.5767

> <Gold.PLP.part.nonpolar>
-19.4629

> <Gold.PLP.part.repulsive>
0.2988

> <Gold.PLP.ligand.clash>
0.0000

> <Gold.PLP.ligand.torsion>
0.3336

> <Gold.PLP.Chemscore.Hbond>
3.0000

> <Gold.PLP.Chemscore.CHOScore>
1.0000

> <Gold.PLP.Chemscore.Metal>
0.0000

> <Gold.Chemscore.Hbonds>
donor molecule, donor type, donor heavy atom, donor atom, acceptor molecule, acceptor atom, score
      L1  H    10    36       P1  7949  1.00
      L1  H    11    37       P1  7948  2.00
      L1  C    17    43       P1 10747  1.00

> <Gold.PLP.Chemscore.Internal.Correction>
0.0291

> <Gold.Rescore>
     Score         DG    S(hbond)    S(metal)    S(lipo)     H(rot)  DE(clash)    DE(int)     intcor
     10.70     -11.10       1.98        0.00      61.08       3.17       0.17       0.23       ----

> <Gold.Chemscore.Fitness>
10.7046

> <Gold.Chemscore.DG>
-11.1049

> <Gold.Chemscore.ZeroCoef>
-5.4800

> <Gold.Chemscore.Hbond>
1.9781

> <Gold.Chemscore.Metal>
0.0000

> <Gold.Chemscore.Lipo>
61.0781

> <Gold.Chemscore.Internal_Hbond>
0.0000

> <Gold.Chemscore.DEClash>
0.1748

> <Gold.Chemscore.DEInternal>
0.2256

> <Gold.Chemscore.Rot>
3.1750

> <Gold.Chemscore.Internal.Correction>
   9.000000E+99

> <Gold.Chemscore.Hbonds>
donor molecule, donor type, donor heavy atom, donor atom, acceptor molecule, acceptor atom, score
      L1  H    10    36       P1  7949  0.98
      L1  H    11    37       P1  7948  0.99

> <Gold.Chemscore.Hbond.Weighted>
-6.6067

> <Gold.Chemscore.Metal.Weighted>
-0.0000

> <Gold.Chemscore.Lipo.Weighted>
-7.1461

> <Gold.Chemscore.Internal_Hbond.Weighted>
0.0000

> <Gold.Chemscore.DEClash.Weighted>
0.1748

> <Gold.Chemscore.DEInternal.Weighted>
0.2256

> <Gold.Chemscore.Rot.Weighted>
8.1279

> <Gold.Chemscore.Internal.Correction.Weighted>
   9.000000E+99

> <Gold.Protein.RotatedTorsions>
[ 6907 6896 6895 6894 ] final  -98.38 input  -60.11 | X-H torsion
[ 7974 7965 7964 7962 ] final -175.19 input  175.53 | X-H torsion
[ 8008 7997 7996 7995 ] final -161.29 input   59.86 | X-H torsion
[ 10167 10162 10161 10158 ] final  -80.12 input  -65.29 | X-H torsion
[ 10718 10713 10712 10709 ] final  -33.30 input   66.30 | X-H torsion
[ 10763 10752 10751 10750 ] final   24.56 input  -60.55 | X-H torsion
[ 11005 11000 10999 10996 ] final -127.35 input  -57.11 | X-H torsion

> <Gold.Protein.ActiveResidues>
 VAL166  LYS551  ARG553  GLY616  TRP617  ASP618  TYR619  PRO620  LYS621  CYS622 
 ASP623  PHE694  ASN695  SER759  ASP760  ASP761  ALA762  ILE779  LEU786  VAL792 
 PHE793  MET794  SER795  GLU796  ALA797  LYS798  CYS799  TRP800  GLU811  SER814 

> <Gold.Protein.RotatedAtoms>
  150.7045  134.1203  159.4031 H   0  0  0  0  0  0  0  0  0  0  0  0  # atno 6907 bound_to 6896
  151.9189  135.0304  160.0530 H   0  0  0  0  0  0  0  0  0  0  0  0  # atno 6908 bound_to 6896
  152.2273  133.4995  159.5232 H   0  0  0  0  0  0  0  0  0  0  0  0  # atno 6909 bound_to 6896
  144.7129  140.1359  143.6395 H   0  0  0  0  0  0  0  0  0  0  0  0  # atno 7974 bound_to 7965
  155.7901  140.0877  157.2013 H   0  0  0  0  0  0  0  0  0  0  0  0  # atno 8008 bound_to 7997
  154.3986  140.1492  156.3210 H   0  0  0  0  0  0  0  0  0  0  0  0  # atno 8009 bound_to 7997
  155.8568  140.3432  155.5732 H   0  0  0  0  0  0  0  0  0  0  0  0  # atno 8010 bound_to 7997
  140.4532  143.2476  151.8459 H   0  0  0  0  0  0  0  0  0  0  0  0  # atno 10167 bound_to 10162
  156.3644  130.4329  149.7597 H   0  0  0  0  0  0  0  0  0  0  0  0  # atno 10718 bound_to 10713
  153.0755  135.6602  154.0155 H   0  0  0  0  0  0  0  0  0  0  0  0  # atno 10763 bound_to 10752
  153.9789  135.2957  155.3423 H   0  0  0  0  0  0  0  0  0  0  0  0  # atno 10764 bound_to 10752
  154.7142  135.5192  153.8783 H   0  0  0  0  0  0  0  0  0  0  0  0  # atno 10765 bound_to 10752
  140.9606  134.0941  157.3972 H   0  0  0  0  0  0  0  0  0  0  0  0  # atno 11005 bound_to 11000
  145.9245  139.2567  143.1361 LP  0  0  0  0  0  0  0  0  0  0  0  0  # atno 17320 bound_to 7965
  145.9586  140.8853  143.0222 LP  0  0  0  0  0  0  0  0  0  0  0  0  # atno 17321 bound_to 7965
  139.4798  144.5096  151.8951 LP  0  0  0  0  0  0  0  0  0  0  0  0  # atno 17342 bound_to 10162
  140.4183  144.2278  150.5887 LP  0  0  0  0  0  0  0  0  0  0  0  0  # atno 17343 bound_to 10162
  156.4749  130.8014  151.3030 LP  0  0  0  0  0  0  0  0  0  0  0  0  # atno 17370 bound_to 10713
  157.7477  131.0024  150.2999 LP  0  0  0  0  0  0  0  0  0  0  0  0  # atno 17371 bound_to 10713
  139.8877  135.0092  156.6575 LP  0  0  0  0  0  0  0  0  0  0  0  0  # atno 17394 bound_to 11000
  140.7472  133.8927  155.8321 LP  0  0  0  0  0  0  0  0  0  0  0  0  # atno 17395 bound_to 11000

$$$$
