AV-unprocessed.smi:3267|AV-procd|sdf|12506|dock9
  -GOLD-   2272018413D 1   1.00000     0.00000
 Structure written by MMmdl.
 38 39  0  0  0  0  0  0  0  0  1 V2000
  149.8458  137.2157  156.4717 C   0  0  0  0  0  0  0  0  0  0  0  0
  150.6747  136.7844  155.2537 C   0  0  2  0  0  0  0  0  0  0  0  0
  151.2600  138.0005  154.4934 C   0  0  0  0  0  0  0  0  0  0  0  0
  150.3173  139.1009  154.4226 N   0  0  0  0  0  0  0  0  0  0  0  0
  149.0229  139.0913  153.9479 C   0  0  0  0  0  0  0  0  0  0  0  0
  148.5363  140.3610  154.0714 C   0  0  0  0  0  0  0  0  0  0  0  0
  149.6220  141.0850  154.6390 C   0  0  0  0  0  0  0  0  0  0  0  0
  150.6869  140.3279  154.8489 N   0  0  0  0  0  0  0  0  0  0  0  0
  149.8452  135.9623  154.3760 N   0  0  0  0  0  0  0  0  0  0  0  0
  149.2471  134.8164  154.7324 C   0  0  0  0  0  0  0  0  0  0  0  0
  149.3379  134.3084  155.8502 O   0  0  0  0  0  0  0  0  0  0  0  0
  148.5462  134.2853  153.7219 N   0  0  0  0  0  0  0  0  0  0  0  0
  147.8211  133.0217  153.7856 C   0  0  0  0  0  0  0  0  0  0  0  0
  147.1497  132.6918  152.4424 C   0  0  1  0  0  0  0  0  0  0  0  0
  146.3354  131.3989  152.4632 C   0  0  0  0  0  0  0  0  0  0  0  0
  145.3309  131.6523  151.3627 C   0  0  0  0  0  0  0  0  0  0  0  0
  145.0242  133.1328  151.5629 C   0  0  0  0  0  0  0  0  0  0  0  0
  146.2183  133.7113  152.0835 O   0  0  0  0  0  0  0  0  0  0  0  0
  150.4514  137.7949  157.1694 H   0  0  0  0  0  0  0  0  0  0  0  0
  149.4599  136.3508  157.0121 H   0  0  0  0  0  0  0  0  0  0  0  0
  148.9960  137.8321  156.1765 H   0  0  0  0  0  0  0  0  0  0  0  0
  151.4867  136.1556  155.6258 H   0  0  0  0  0  0  0  0  0  0  0  0
  152.1724  138.3671  154.9662 H   0  0  0  0  0  0  0  0  0  0  0  0
  151.5450  137.7284  153.4759 H   0  0  0  0  0  0  0  0  0  0  0  0
  148.5634  138.1929  153.5623 H   0  0  0  0  0  0  0  0  0  0  0  0
  147.5555  140.7184  153.7955 H   0  0  0  0  0  0  0  0  0  0  0  0
  149.6679  142.1314  154.9020 H   0  0  0  0  0  0  0  0  0  0  0  0
  149.7128  136.2942  153.4319 H   0  0  0  0  0  0  0  0  0  0  0  0
  148.5326  134.7742  152.8388 H   0  0  0  0  0  0  0  0  0  0  0  0
  148.4998  132.2182  154.0764 H   0  0  0  0  0  0  0  0  0  0  0  0
  147.0712  133.0932  154.5737 H   0  0  0  0  0  0  0  0  0  0  0  0
  147.8949  132.6243  151.6479 H   0  0  0  0  0  0  0  0  0  0  0  0
  146.9445  130.5109  152.2916 H   0  0  0  0  0  0  0  0  0  0  0  0
  145.8196  131.2816  153.4175 H   0  0  0  0  0  0  0  0  0  0  0  0
  145.7930  131.4912  150.3878 H   0  0  0  0  0  0  0  0  0  0  0  0
  144.4458  131.0194  151.4326 H   0  0  0  0  0  0  0  0  0  0  0  0
  144.7116  133.6222  150.6402 H   0  0  0  0  0  0  0  0  0  0  0  0
  144.2298  133.2596  152.2995 H   0  0  0  0  0  0  0  0  0  0  0  0
  1  2  1  0  0  0  0
  1 19  1  0  0  0  0
  1 20  1  0  0  0  0
  1 21  1  0  0  0  0
  2  3  1  0  0  0  0
  2  9  1  0  0  0  0
  2 22  1  0  0  0  0
  3  4  1  0  0  0  0
  3 23  1  0  0  0  0
  3 24  1  0  0  0  0
  4  8  1  0  0  0  0
  4  5  1  0  0  0  0
  5  6  2  0  0  0  0
  5 25  1  0  0  0  0
  6  7  1  0  0  0  0
  6 26  1  0  0  0  0
  7  8  2  0  0  0  0
  7 27  1  0  0  0  0
  9 10  1  0  0  0  0
  9 28  1  0  0  0  0
 10 11  2  0  0  0  0
 10 12  1  0  0  0  0
 12 13  1  0  0  0  0
 12 29  1  0  0  0  0
 13 14  1  0  0  0  0
 13 30  1  0  0  0  0
 13 31  1  0  0  0  0
 14 18  1  0  0  0  0
 14 15  1  0  0  0  0
 14 32  1  0  0  0  0
 15 16  1  0  0  0  0
 15 33  1  0  0  0  0
 15 34  1  0  0  0  0
 16 17  1  0  0  0  0
 16 35  1  0  0  0  0
 16 36  1  0  0  0  0
 17 18  1  0  0  0  0
 17 37  1  0  0  0  0
 17 38  1  0  0  0  0
M  END
> <s_m_source_file>
AV-unprocessed.smi

> <i_m_source_file_index>
3267

> <i_lp_mmshare_version>
43012

> <i_f3d_flags>
0

> <s_epik_input>
bjFbY0hdW2NIXVtjSF1uMVtDSDJdW0NAQEhdKFtDSDNdKVtOSF1DKD1PKVtOSF1bQ0gyXVtDQEBIXTJbQ0gyXVtDSDJdW0NIMl1PMg==

> <s_epik_cmdline>
J2VwaWtfcHl0aG9uJywgJy1waCcsICc3LjAnLCAnLXRuJywgJzgnLCAnLW1hJywgJzIwMCcsICctbWV0YWxfYmluZGluZycsICctaW1hZScsICc8aW5maWxlLm1hZT4nLCAnLW9tYWUnLCAnPG91dGZpbGUubWFlPic=

> <r_lp_tautomer_probability>
1

> <r_epik_Ionization_Penalty>
6.24796e-05

> <r_epik_Ionization_Penalty_Charging>
0

> <r_epik_Ionization_Penalty_Neutral>
6.24796e-05

> <r_epik_State_Penalty>
-0

> <r_epik_Charging_Adjusted_Penalty>
0

> <i_epik_Tot_Q>
0

> <i_epik_Tot_abs_Q>
0

> <r_epik_Metal_State_Penalty>
-0

> <b_epik_Metal_Only>
0

> <s_lp_Force_Field>
OPLS_2005

> <r_lp_Energy>
17.3536

> <b_lp_Chiralities_Consistent>
1

> <s_lp_Variant>
AV-unprocessed.smi:3267-3

> <Gold.Version>
5.8.1

> <Gold.Id.Protein>
6NUR|6NUR_protein|mol2

> <Gold.PLP.Fitness>
42.8701

> <Gold.PLP.PLP>
-30.7437

> <Gold.PLP.part.hbond>
-3.5917

> <Gold.PLP.part.metal>
0.0000

> <Gold.PLP.part.buried>
0.7933

> <Gold.PLP.part.nonpolar>
-26.2980

> <Gold.PLP.part.repulsive>
0.2805

> <Gold.PLP.ligand.clash>
0.0000

> <Gold.PLP.ligand.torsion>
0.2573

> <Gold.PLP.Chemscore.Hbond>
2.9500

> <Gold.PLP.Chemscore.CHOScore>
1.2576

> <Gold.PLP.Chemscore.Metal>
0.0000

> <Gold.Chemscore.Hbonds>
donor molecule, donor type, donor heavy atom, donor atom, acceptor molecule, acceptor atom, score
      L1  H     9    28       P1  7948  1.00
      L1  H    12    29       P1  7948  1.00
      P1  H  7989  7998       L1     8  0.85
      L1  C     5    25       P1  7948  0.81
      L1  C     7    27       P1  8028  0.33

> <Gold.PLP.Chemscore.Internal.Correction>
0.0182

> <Gold.Rescore>
     Score         DG    S(hbond)    S(metal)    S(lipo)     H(rot)  DE(clash)    DE(int)     intcor
     13.87     -14.23       1.81        0.00      64.11       1.87       0.00       0.35       ----

> <Gold.Chemscore.Fitness>
13.8749

> <Gold.Chemscore.DG>
-14.2284

> <Gold.Chemscore.ZeroCoef>
-5.4800

> <Gold.Chemscore.Hbond>
1.8088

> <Gold.Chemscore.Metal>
0.0000

> <Gold.Chemscore.Lipo>
64.1051

> <Gold.Chemscore.Internal_Hbond>
0.0000

> <Gold.Chemscore.DEClash>
0.0029

> <Gold.Chemscore.DEInternal>
0.3506

> <Gold.Chemscore.Rot>
1.8724

> <Gold.Chemscore.Internal.Correction>
   9.000000E+99

> <Gold.Chemscore.Hbonds>
donor molecule, donor type, donor heavy atom, donor atom, acceptor molecule, acceptor atom, score
      L1  H     9    28       P1  7948  0.25
      L1  H    12    29       P1  7948  0.33
      P1  H  7989  7998       L1     8  0.04

> <Gold.Chemscore.Hbond.Weighted>
-6.0413

> <Gold.Chemscore.Metal.Weighted>
-0.0000

> <Gold.Chemscore.Lipo.Weighted>
-7.5003

> <Gold.Chemscore.Internal_Hbond.Weighted>
0.0000

> <Gold.Chemscore.DEClash.Weighted>
0.0029

> <Gold.Chemscore.DEInternal.Weighted>
0.3506

> <Gold.Chemscore.Rot.Weighted>
4.7933

> <Gold.Chemscore.Internal.Correction.Weighted>
   9.000000E+99

> <Gold.Protein.RotatedTorsions>
[ 6907 6896 6895 6894 ] final -153.03 input  -60.11 | X-H torsion
[ 7974 7965 7964 7962 ] final  -93.36 input  175.53 | X-H torsion
[ 8008 7997 7996 7995 ] final  176.14 input   59.86 | X-H torsion
[ 10167 10162 10161 10158 ] final  109.25 input  -65.29 | X-H torsion
[ 10718 10713 10712 10709 ] final   -8.28 input   66.30 | X-H torsion
[ 10763 10752 10751 10750 ] final   57.64 input  -60.55 | X-H torsion
[ 11005 11000 10999 10996 ] final  152.06 input  -57.11 | X-H torsion

> <Gold.Protein.ActiveResidues>
 VAL166  LYS551  ARG553  GLY616  TRP617  ASP618  TYR619  PRO620  LYS621  CYS622 
 ASP623  PHE694  ASN695  SER759  ASP760  ASP761  ALA762  ILE779  LEU786  VAL792 
 PHE793  MET794  SER795  GLU796  ALA797  LYS798  CYS799  TRP800  GLU811  SER814 

> <Gold.Protein.RotatedAtoms>
  151.2365  133.4422  159.2605 H   0  0  0  0  0  0  0  0  0  0  0  0  # atno 6907 bound_to 6896
  151.0745  134.9820  159.8335 H   0  0  0  0  0  0  0  0  0  0  0  0  # atno 6908 bound_to 6896
  152.5416  134.2308  159.8877 H   0  0  0  0  0  0  0  0  0  0  0  0  # atno 6909 bound_to 6896
  145.3876  140.9524  143.2358 H   0  0  0  0  0  0  0  0  0  0  0  0  # atno 7974 bound_to 7965
  156.0796  140.1391  156.9729 H   0  0  0  0  0  0  0  0  0  0  0  0  # atno 8008 bound_to 7997
  154.4577  140.0955  156.6855 H   0  0  0  0  0  0  0  0  0  0  0  0  # atno 8009 bound_to 7997
  155.5097  140.3453  155.4388 H   0  0  0  0  0  0  0  0  0  0  0  0  # atno 8010 bound_to 7997
  139.6781  144.7120  151.1564 H   0  0  0  0  0  0  0  0  0  0  0  0  # atno 10167 bound_to 10162
  156.7049  130.5104  149.5907 H   0  0  0  0  0  0  0  0  0  0  0  0  # atno 10718 bound_to 10713
  152.9854  135.5634  154.5424 H   0  0  0  0  0  0  0  0  0  0  0  0  # atno 10763 bound_to 10752
  154.4876  135.2791  155.1524 H   0  0  0  0  0  0  0  0  0  0  0  0  # atno 10764 bound_to 10752
  154.3007  135.6308  153.5476 H   0  0  0  0  0  0  0  0  0  0  0  0  # atno 10765 bound_to 10752
  140.1274  134.8824  157.2156 H   0  0  0  0  0  0  0  0  0  0  0  0  # atno 11005 bound_to 11000
  144.8463  139.5392  143.6877 LP  0  0  0  0  0  0  0  0  0  0  0  0  # atno 17320 bound_to 7965
  146.2813  139.6884  142.9227 LP  0  0  0  0  0  0  0  0  0  0  0  0  # atno 17321 bound_to 7965
  140.7643  143.5740  150.8965 LP  0  0  0  0  0  0  0  0  0  0  0  0  # atno 17342 bound_to 10162
  139.9410  143.6382  152.3053 LP  0  0  0  0  0  0  0  0  0  0  0  0  # atno 17343 bound_to 10162
  156.1702  130.6432  151.0828 LP  0  0  0  0  0  0  0  0  0  0  0  0  # atno 17370 bound_to 10713
  157.6958  131.0794  150.6971 LP  0  0  0  0  0  0  0  0  0  0  0  0  # atno 17371 bound_to 10713
  140.2887  134.3266  155.7321 LP  0  0  0  0  0  0  0  0  0  0  0  0  # atno 17394 bound_to 11000
  141.2164  133.7521  156.9470 LP  0  0  0  0  0  0  0  0  0  0  0  0  # atno 17395 bound_to 11000

$$$$
