#       Name:                AV-unprocessed.smi:1157
#       Creating user name   scv26
#       Creation time:       Fri Mar 27 03:48:36 2020


#       File generated by GOLD software.
#

@<TRIPOS>MOLECULE
AV-unprocessed.smi:1157
    60    62     1
SMALL
NO_CHARGES


@<TRIPOS>ATOM
      1 ****        -2.5263  -0.1376  -2.0328 C.3            1 S1                 0.0000
      2 ****        -1.7326   0.5596  -3.1700 C.3            1 S1                 0.0000
      3 ****        -2.0700   2.0700  -3.1289 C.3            1 S1                 0.0000
      4 ****        -0.2099   0.3498  -2.9045 C.3            1 S1                 0.0000
      5 ****         0.2469   0.8575  -1.6101 N.am           1 S1                 0.0000
      6 ****         0.6203   0.1030  -0.5663 C.2            1 S1                 0.0000
      7 ****         0.5966  -1.1275  -0.5748 O.2            1 S1                 0.0000
      8 ****         0.9900   0.8634   0.4785 N.am           1 S1                 0.0000
      9 ****         1.4599   0.4411   1.7513 C.ar           1 S1                 0.0000
     10 ****         2.0765  -0.8114   1.9919 C.ar           1 S1                 0.0000
     11 ****         2.5251  -1.1276   3.2908 C.ar           1 S1                 0.0000
     12 ****         2.3612  -0.1917   4.3390 C.ar           1 S1                 0.0000
     13 ****         2.7887  -0.4405   5.6570 N.pl3          1 S1                 0.0000
     14 ****         2.4302   0.4446   6.7539 C.3            1 S1                 0.0000
     15 ****         2.9367  -0.2692   8.0063 C.3            1 S1                 0.0000
     16 ****         2.7806  -1.7476   7.6491 C.3            1 S1                 0.0000
     17 ****         3.0226  -1.7959   6.1357 C.3            1 S1                 0.0000
     18 ****         1.7834   1.0003   4.0561 N.pl3          1 S1                 1.0000
     19 ****         1.3407   1.3439   2.8275 C.ar           1 S1                 0.0000
     20 ****        -2.0793  -0.0445  -4.5109 N.4            1 S1                 1.0000
     21 ****        -3.5284  -0.2903  -4.7688 C.3            1 S1                 0.0000
     22 ****        -3.7336  -1.0373  -6.0987 C.3            1 S1                 0.0000
     23 ****        -3.1402  -0.3106  -7.1641 O.3            1 S1                 0.0000
     24 ****        -1.7401  -0.1682  -6.9789 C.3            1 S1                 0.0000
     25 ****        -1.4761   0.6340  -5.6950 C.3            1 S1                 0.0000
     26 ****        -2.2304   0.2171  -1.0461 H              1 S1                 0.0000
     27 ****        -2.3783  -1.2182  -2.0464 H              1 S1                 0.0000
     28 ****        -3.5962   0.0612  -2.0915 H              1 S1                 0.0000
     29 ****        -1.9162   2.4835  -2.1316 H              1 S1                 0.0000
     30 ****        -3.1104   2.2609  -3.3915 H              1 S1                 0.0000
     31 ****        -1.4435   2.6499  -3.8069 H              1 S1                 0.0000
     32 ****         0.0460  -0.7048  -3.0216 H              1 S1                 0.0000
     33 ****         0.3935   0.8824  -3.6369 H              1 S1                 0.0000
     34 ****         0.2898   1.8612  -1.5084 H              1 S1                 0.0000
     35 ****         0.8700   1.8599   0.3689 H              1 S1                 0.0000
     36 ****         2.2298  -1.5317   1.2031 H              1 S1                 0.0000
     37 ****         2.9998  -2.0821   3.4637 H              1 S1                 0.0000
     38 ****         2.8820   1.4307   6.6414 H              1 S1                 0.0000
     39 ****         1.3460   0.5608   6.7893 H              1 S1                 0.0000
     40 ****         3.9912  -0.0377   8.1636 H              1 S1                 0.0000
     41 ****         2.3908   0.0137   8.9068 H              1 S1                 0.0000
     42 ****         3.4589  -2.3942   8.2065 H              1 S1                 0.0000
     43 ****         1.7605  -2.0674   7.8660 H              1 S1                 0.0000
     44 ****         2.3636  -2.5229   5.6598 H              1 S1                 0.0000
     45 ****         4.0546  -2.0729   5.9178 H              1 S1                 0.0000
     46 ****         0.9004   2.3273   2.7469 H              1 S1                 0.0000
     47 ****        -3.9768  -0.9085  -3.9933 H              1 S1                 0.0000
     48 ****        -4.0715   0.6552  -4.7867 H              1 S1                 0.0000
     49 ****        -3.3106  -2.0420  -6.0490 H              1 S1                 0.0000
     50 ****        -4.7984  -1.1526  -6.3028 H              1 S1                 0.0000
     51 ****        -1.2586  -1.1468  -6.9372 H              1 S1                 0.0000
     52 ****        -1.3236   0.3547  -7.8400 H              1 S1                 0.0000
     53 ****        -1.8970   1.6331  -5.8115 H              1 S1                 0.0000
     54 ****        -0.4000   0.7507  -5.5911 H              1 S1                 0.0000
     55 ****        -1.6646  -0.9655  -4.4887 H              1 S1                 0.0000
     56 ****         1.6764   1.6765   4.8124 H              1 S1                 0.0000
     57 ****         0.2868  -1.6160  -1.3905 LP             1 S1                 0.0000
     58 ****         0.8872  -1.6388   0.2340 LP             1 S1                 0.0000
     59 ****        -3.5562   0.5977  -7.2095 LP             1 S1                 0.0000
     60 ****        -3.3069  -0.7968  -8.0218 LP             1 S1                 0.0000
@<TRIPOS>BOND
    1    1    2 1     
    2    1   26 1     
    3    1   27 1     
    4    1   28 1     
    5    2    3 1     
    6    2    4 1     
    7    2   20 1     
    8    3   29 1     
    9    3   30 1     
   10    3   31 1     
   11    4    5 1     
   12    4   32 1     
   13    4   33 1     
   14    5    6 am    
   15    5   34 1     
   16    6    7 2     
   17    6    8 am    
   18    8    9 1     
   19    8   35 1     
   20    9   19 ar    
   21    9   10 ar    
   22   10   11 ar    
   23   10   36 1     
   24   11   12 ar    
   25   11   37 1     
   26   12   13 1     
   27   12   18 ar    
   28   13   17 1     
   29   13   14 1     
   30   14   15 1     
   31   14   38 1     
   32   14   39 1     
   33   15   16 1     
   34   15   40 1     
   35   15   41 1     
   36   16   17 1     
   37   16   42 1     
   38   16   43 1     
   39   17   44 1     
   40   17   45 1     
   41   18   19 ar    
   42   18   56 1     
   43   19   46 1     
   44   20   25 1     
   45   20   21 1     
   46   20   55 1     
   47   21   22 1     
   48   21   47 1     
   49   21   48 1     
   50   22   23 1     
   51   22   49 1     
   52   22   50 1     
   53   23   24 1     
   54   24   25 1     
   55   24   51 1     
   56   24   52 1     
   57   25   53 1     
   58   25   54 1     
   59    7   57 1     
   60    7   58 1     
   61   23   59 1     
   62   23   60 1     
@<TRIPOS>SUBSTRUCTURE
      1 S1             1
@<TRIPOS>SET
LONE_PAIRS      STATIC     ATOMS    <user>   **** ""
4 57 58 59 60
DONOR_HYDROGENS      STATIC     ATOMS    <user>   **** ""
4 34 35 56 55
ATOM$BLUE        STATIC     ATOMS    COLORGROUP SYSTEM
4 57 58 59 60
ATOM$RED        STATIC     ATOMS    COLORGROUP SYSTEM
4 34 35 56 55
