#       Name:                AV-unprocessed.smi:1507
#       Creating user name   scv26
#       Creation time:       Fri Mar 27 06:20:30 2020


#       File generated by GOLD software.
#

@<TRIPOS>MOLECULE
AV-unprocessed.smi:1507
    40    41     1
SMALL
NO_CHARGES


@<TRIPOS>ATOM
      1 ****        -4.5863   4.1696   0.3456 N.3            1 S1                 0.0000
      2 ****        -2.9578   4.6943   0.1791 S.o2           1 S1                 0.0000
      3 ****        -2.7080   5.0164  -1.2338 O.2            1 S1                 0.0000
      4 ****        -2.6629   5.6642   1.2444 O.2            1 S1                 0.0000
      5 ****        -2.1580   3.2154   0.5518 N.3            1 S1                 0.0000
      6 ****        -0.6990   3.1519   0.5194 C.3            1 S1                 0.0000
      7 ****        -0.1837   1.7326   0.3902 C.ar           1 S1                 0.0000
      8 ****         0.4126   1.0735   1.4825 C.ar           1 S1                 0.0000
      9 ****         0.8759  -0.2452   1.3116 C.ar           1 S1                 0.0000
     10 ****         0.7315  -0.8712   0.0499 C.ar           1 S1                 0.0000
     11 ****         1.1935  -2.1912  -0.1452 N.3            1 S1                 0.0000
     12 ****         2.5805  -2.4386   0.2415 C.3            1 S1                 0.0000
     13 ****         2.8696  -3.9497   0.2691 C.3            1 S1                 0.0000
     14 ****         2.5340  -4.5284  -0.9873 O.3            1 S1                 0.0000
     15 ****         1.1511  -4.3740  -1.2876 C.3            1 S1                 0.0000
     16 ****         0.8047  -2.8783  -1.3758 C.3            1 S1                 0.0000
     17 ****         0.1476  -0.2330  -0.9952 N.ar           1 S1                 0.0000
     18 ****        -0.2926   1.0316  -0.8271 C.ar           1 S1                 0.0000
     19 ****        -4.6470   3.3028   0.8787 H              1 S1                 0.0000
     20 ****        -5.0406   4.0792  -0.5630 H              1 S1                 0.0000
     21 ****        -2.6358   2.3763   0.2244 H              1 S1                 0.0000
     22 ****        -0.3350   3.7308  -0.3304 H              1 S1                 0.0000
     23 ****        -0.3013   3.6254   1.4176 H              1 S1                 0.0000
     24 ****         0.5126   1.5661   2.4385 H              1 S1                 0.0000
     25 ****         1.3207  -0.7619   2.1487 H              1 S1                 0.0000
     26 ****         3.2378  -1.9465  -0.4766 H              1 S1                 0.0000
     27 ****         2.8091  -2.0177   1.2194 H              1 S1                 0.0000
     28 ****         3.9268  -4.1253   0.4691 H              1 S1                 0.0000
     29 ****         2.3095  -4.4383   1.0679 H              1 S1                 0.0000
     30 ****         0.9366  -4.8651  -2.2368 H              1 S1                 0.0000
     31 ****         0.5446  -4.8705  -0.5285 H              1 S1                 0.0000
     32 ****        -0.2663  -2.7660  -1.5493 H              1 S1                 0.0000
     33 ****         1.3227  -2.4250  -2.2223 H              1 S1                 0.0000
     34 ****        -0.7474   1.4961  -1.6898 H              1 S1                 0.0000
     35 ****        -5.0768   4.8723   0.8610 LP             1 S1                 0.0000
     36 ****        -2.2747   3.2290   1.5449 LP             1 S1                 0.0000
     37 ****         0.6350  -2.6545   0.5428 LP             1 S1                 0.0000
     38 ****         2.7532  -5.5038  -0.9634 LP             1 S1                 0.0000
     39 ****         3.0724  -4.0833  -1.7029 LP             1 S1                 0.0000
     40 ****         0.0449  -0.6929  -1.8772 LP             1 S1                 0.0000
@<TRIPOS>BOND
    1    1    2 1     
    2    1   19 1     
    3    1   20 1     
    4    2    3 2     
    5    2    4 2     
    6    2    5 1     
    7    5    6 1     
    8    5   21 1     
    9    6    7 1     
   10    6   22 1     
   11    6   23 1     
   12    7   18 ar    
   13    7    8 ar    
   14    8    9 ar    
   15    8   24 1     
   16    9   10 ar    
   17    9   25 1     
   18   10   11 1     
   19   10   17 ar    
   20   11   16 1     
   21   11   12 1     
   22   12   13 1     
   23   12   26 1     
   24   12   27 1     
   25   13   14 1     
   26   13   28 1     
   27   13   29 1     
   28   14   15 1     
   29   15   16 1     
   30   15   30 1     
   31   15   31 1     
   32   16   32 1     
   33   16   33 1     
   34   17   18 ar    
   35   18   34 1     
   36    1   35 1     
   37    5   36 1     
   38   11   37 1     
   39   14   38 1     
   40   14   39 1     
   41   17   40 1     
@<TRIPOS>SUBSTRUCTURE
      1 S1             1
@<TRIPOS>SET
LONE_PAIRS      STATIC     ATOMS    <user>   **** ""
8 35 3 4 36 37 38 39 40
DONOR_HYDROGENS      STATIC     ATOMS    <user>   **** ""
3 19 20 21
ATOM$BLUE        STATIC     ATOMS    COLORGROUP SYSTEM
8 35 3 4 36 37 38 39 40
ATOM$RED        STATIC     ATOMS    COLORGROUP SYSTEM
3 19 20 21
