AV-unprocessed.smi:703|AV-procd|sdf|3433|dock8
  -GOLD-   22720 0423D 1   1.00000     0.00000
 Structure written by MMmdl.
 38 39  0  0  0  0  0  0  0  0  2 V2000
  148.4819  140.4844  154.7699 C   0  0  0  0  0  0  0  0  0  0  0  0
  148.1201  139.3763  153.7717 C   0  0  0  0  0  0  0  0  0  0  0  0
  148.9022  138.1380  153.9998 N   0  3  2  0  0  0  0  0  0  0  0  0
  148.4486  137.3158  155.1431 C   0  0  0  0  0  0  0  0  0  0  0  0
  149.6891  136.5552  155.6088 C   0  0  2  0  0  0  0  0  0  0  0  0
  149.5814  135.9332  157.0110 C   0  0  0  0  0  0  0  0  0  0  0  0
  150.8172  137.5715  155.3923 C   0  0  2  0  0  0  0  0  0  0  0  0
  150.9596  138.4696  156.5452 N   0  0  0  0  0  0  0  0  0  0  0  0
  152.1489  139.7190  156.6063 S   0  0  0  0  0  0  0  0  0  0  0  0
  153.1133  139.3709  157.6614 O   0  0  0  0  0  0  0  0  0  0  0  0
  152.6032  139.9342  155.2245 O   0  0  0  0  0  0  0  0  0  0  0  0
  151.1626  141.1980  157.1171 C   0  0  0  0  0  0  0  0  0  0  0  0
  151.6286  141.7351  158.4419 C   0  0  0  0  0  0  0  0  0  0  0  0
  152.9569  141.8001  158.9471 C   0  0  0  0  0  0  0  0  0  0  0  0
  152.8024  142.3613  160.1820 C   0  0  0  0  0  0  0  0  0  0  0  0
  151.4928  142.6151  160.4275 O   0  0  0  0  0  0  0  0  0  0  0  0
  150.7506  142.2045  159.3144 N   0  0  0  0  0  0  0  0  0  0  0  0
  150.3608  138.3611  154.1526 C   0  0  0  0  0  0  0  0  0  0  0  0
  147.8491  141.3592  154.6191 H   0  0  0  0  0  0  0  0  0  0  0  0
  149.5171  140.8070  154.6566 H   0  0  0  0  0  0  0  0  0  0  0  0
  148.3434  140.1500  155.7983 H   0  0  0  0  0  0  0  0  0  0  0  0
  147.0599  139.1435  153.8796 H   0  0  0  0  0  0  0  0  0  0  0  0
  148.2630  139.7237  152.7473 H   0  0  0  0  0  0  0  0  0  0  0  0
  148.0881  137.9620  155.9455 H   0  0  0  0  0  0  0  0  0  0  0  0
  147.6348  136.6484  154.8579 H   0  0  0  0  0  0  0  0  0  0  0  0
  149.8543  135.7395  154.9024 H   0  0  0  0  0  0  0  0  0  0  0  0
  149.3559  136.6796  157.7730 H   0  0  0  0  0  0  0  0  0  0  0  0
  150.5107  135.4381  157.2916 H   0  0  0  0  0  0  0  0  0  0  0  0
  148.7880  135.1862  157.0420 H   0  0  0  0  0  0  0  0  0  0  0  0
  151.7694  137.0722  155.2138 H   0  0  0  0  0  0  0  0  0  0  0  0
  150.1700  138.5589  157.1845 H   0  0  0  0  0  0  0  0  0  0  0  0
  151.2769  141.9558  156.3415 H   0  0  0  0  0  0  0  0  0  0  0  0
  150.1093  140.9200  157.1450 H   0  0  0  0  0  0  0  0  0  0  0  0
  153.8772  141.4854  158.4789 H   0  0  0  0  0  0  0  0  0  0  0  0
  153.4927  142.6274  160.9687 H   0  0  0  0  0  0  0  0  0  0  0  0
  150.8547  137.9795  153.2585 H   0  0  0  0  0  0  0  0  0  0  0  0
  150.6110  139.4210  154.2254 H   0  0  0  0  0  0  0  0  0  0  0  0
  148.7993  137.5648  153.1747 H   0  0  0  0  0  0  0  0  0  0  0  0
  1  2  1  0  0  0  0
  1 19  1  0  0  0  0
  1 20  1  0  0  0  0
  1 21  1  0  0  0  0
  2  3  1  0  0  0  0
  2 22  1  0  0  0  0
  2 23  1  0  0  0  0
  3 18  1  0  0  0  0
  3  4  1  0  0  0  0
  3 38  1  0  0  0  0
  4  5  1  0  0  0  0
  4 24  1  0  0  0  0
  4 25  1  0  0  0  0
  5  6  1  0  0  0  0
  5  7  1  0  0  0  0
  5 26  1  0  0  0  0
  6 27  1  0  0  0  0
  6 28  1  0  0  0  0
  6 29  1  0  0  0  0
  7  8  1  0  0  0  0
  7 18  1  0  0  0  0
  7 30  1  0  0  0  0
  8  9  1  0  0  0  0
  8 31  1  0  0  0  0
  9 10  2  0  0  0  0
  9 11  2  0  0  0  0
  9 12  1  0  0  0  0
 12 13  1  0  0  0  0
 12 32  1  0  0  0  0
 12 33  1  0  0  0  0
 13 17  2  0  0  0  0
 13 14  1  0  0  0  0
 14 15  2  0  0  0  0
 14 34  1  0  0  0  0
 15 16  1  0  0  0  0
 15 35  1  0  0  0  0
 16 17  1  0  0  0  0
 18 36  1  0  0  0  0
 18 37  1  0  0  0  0
M  CHG  1   3   1
M  END
> <s_m_source_file>
AV-unprocessed.smi

> <i_m_source_file_index>
703

> <i_lp_mmshare_version>
43012

> <i_f3d_flags>
0

> <s_epik_input>
W0NIM11bQ0gyXU4xW0NIMl1bQ0BASF0oW0NIM10pW0NASF0oW0NIMl0xKVtOSF1TKD1PKSg9TylbQ0gyXWMyW2NIXVtjSF1vbjI=

> <s_epik_cmdline>
J2VwaWtfcHl0aG9uJywgJy1waCcsICc3LjAnLCAnLXRuJywgJzgnLCAnLW1hJywgJzIwMCcsICctbWV0YWxfYmluZGluZycsICctaW1hZScsICc8aW5maWxlLm1hZT4nLCAnLW9tYWUnLCAnPG91dGZpbGUubWFlPic=

> <r_epik_Ionization_Penalty>
0.00324529

> <r_epik_Ionization_Penalty_Charging>
0.0019384

> <r_epik_Ionization_Penalty_Neutral>
0.00130689

> <r_epik_State_Penalty>
0.00218682

> <r_epik_Charging_Adjusted_Penalty>
0.00412522

> <i_epik_Tot_Q>
1

> <i_epik_Tot_abs_Q>
1

> <r_epik_Metal_State_Penalty>
0.310831

> <b_epik_Metal_Only>
0

> <s_lp_Force_Field>
OPLS_2005

> <r_lp_Energy>
18.8873

> <b_lp_Chiralities_Consistent>
1

> <s_lp_Variant>
AV-unprocessed.smi:703-8

> <Gold.Version>
5.8.1

> <Gold.Id.Protein>
6NUR|6NUR_protein|mol2

> <Gold.PLP.Fitness>
37.0802

> <Gold.PLP.PLP>
-27.3536

> <Gold.PLP.part.hbond>
-5.9193

> <Gold.PLP.part.metal>
0.0000

> <Gold.PLP.part.buried>
-2.2963

> <Gold.PLP.part.nonpolar>
-19.3196

> <Gold.PLP.part.repulsive>
0.1017

> <Gold.PLP.ligand.clash>
0.0000

> <Gold.PLP.ligand.torsion>
1.0655

> <Gold.PLP.Chemscore.Hbond>
3.5760

> <Gold.PLP.Chemscore.CHOScore>
0.0000

> <Gold.PLP.Chemscore.Metal>
0.0000

> <Gold.Chemscore.Hbonds>
donor molecule, donor type, donor heavy atom, donor atom, acceptor molecule, acceptor atom, score
      L1  H     3    38       P1  7948  2.00
      P1  H  7989  7998       L1    11  0.37
      P1  H  7997  8009       L1    10  1.00

> <Gold.PLP.Chemscore.Internal.Correction>
1.1295

> <Gold.Rescore>
     Score         DG    S(hbond)    S(metal)    S(lipo)     H(rot)  DE(clash)    DE(int)     intcor
     13.74     -17.24       2.62        0.00      62.39       1.68       0.00       3.50       ----

> <Gold.Chemscore.Fitness>
13.7371

> <Gold.Chemscore.DG>
-17.2376

> <Gold.Chemscore.ZeroCoef>
-5.4800

> <Gold.Chemscore.Hbond>
2.6200

> <Gold.Chemscore.Metal>
0.0000

> <Gold.Chemscore.Lipo>
62.3944

> <Gold.Chemscore.Internal_Hbond>
0.0000

> <Gold.Chemscore.DEClash>
0.0048

> <Gold.Chemscore.DEInternal>
3.4957

> <Gold.Chemscore.Rot>
1.6770

> <Gold.Chemscore.Internal.Correction>
   9.000000E+99

> <Gold.Chemscore.Hbonds>
donor molecule, donor type, donor heavy atom, donor atom, acceptor molecule, acceptor atom, score
      L1  H     3    38       P1  7948  1.00
      P1  H  7989  7998       L1    11  0.37
      P1  H  7997  8009       L1    10  0.44
      P1  H  7997  8010       L1    11  0.01

> <Gold.Chemscore.Hbond.Weighted>
-8.7507

> <Gold.Chemscore.Metal.Weighted>
-0.0000

> <Gold.Chemscore.Lipo.Weighted>
-7.3001

> <Gold.Chemscore.Internal_Hbond.Weighted>
0.0000

> <Gold.Chemscore.DEClash.Weighted>
0.0048

> <Gold.Chemscore.DEInternal.Weighted>
3.4957

> <Gold.Chemscore.Rot.Weighted>
4.2932

> <Gold.Chemscore.Internal.Correction.Weighted>
   9.000000E+99

> <Gold.Protein.RotatedTorsions>
[ 6907 6896 6895 6894 ] final  114.64 input  -60.11 | X-H torsion
[ 7974 7965 7964 7962 ] final   54.34 input  175.53 | X-H torsion
[ 8008 7997 7996 7995 ] final  148.49 input   59.86 | X-H torsion
[ 10167 10162 10161 10158 ] final  154.35 input  -65.29 | X-H torsion
[ 10718 10713 10712 10709 ] final  103.03 input   66.30 | X-H torsion
[ 10763 10752 10751 10750 ] final  -71.86 input  -60.55 | X-H torsion
[ 11005 11000 10999 10996 ] final  -81.59 input  -57.11 | X-H torsion

> <Gold.Protein.ActiveResidues>
 VAL166  LYS551  ARG553  GLY616  TRP617  ASP618  TYR619  PRO620  LYS621  CYS622 
 ASP623  PHE694  ASN695  SER759  ASP760  ASP761  ALA762  ILE779  LEU786  VAL792 
 PHE793  MET794  SER795  GLU796  ALA797  LYS798  CYS799  TRP800  GLU811  SER814 

> <Gold.Protein.RotatedAtoms>
  152.4790  133.8208  159.7052 H   0  0  0  0  0  0  0  0  0  0  0  0  # atno 6907 bound_to 6896
  150.8826  133.7341  159.2934 H   0  0  0  0  0  0  0  0  0  0  0  0  # atno 6908 bound_to 6896
  151.4840  135.1057  159.9837 H   0  0  0  0  0  0  0  0  0  0  0  0  # atno 6909 bound_to 6896
  145.9619  139.4067  143.0243 H   0  0  0  0  0  0  0  0  0  0  0  0  # atno 7974 bound_to 7965
  156.2789  140.2127  156.5707 H   0  0  0  0  0  0  0  0  0  0  0  0  # atno 8008 bound_to 7997
  154.7138  140.0509  157.0598 H   0  0  0  0  0  0  0  0  0  0  0  0  # atno 8009 bound_to 7997
  155.0570  140.3162  155.4676 H   0  0  0  0  0  0  0  0  0  0  0  0  # atno 8010 bound_to 7997
  139.4823  144.5194  151.7900 H   0  0  0  0  0  0  0  0  0  0  0  0  # atno 10167 bound_to 10162
  157.6784  131.0768  150.5494 H   0  0  0  0  0  0  0  0  0  0  0  0  # atno 10718 bound_to 10713
  154.4376  135.5948  153.6109 H   0  0  0  0  0  0  0  0  0  0  0  0  # atno 10763 bound_to 10752
  152.9803  135.5990  154.3762 H   0  0  0  0  0  0  0  0  0  0  0  0  # atno 10764 bound_to 10752
  154.3607  135.2841  155.2300 H   0  0  0  0  0  0  0  0  0  0  0  0  # atno 10765 bound_to 10752
  141.1666  133.7204  156.8446 H   0  0  0  0  0  0  0  0  0  0  0  0  # atno 11005 bound_to 11000
  145.8028  140.9763  143.0989 LP  0  0  0  0  0  0  0  0  0  0  0  0  # atno 17320 bound_to 7965
  144.6817  139.9823  143.7483 LP  0  0  0  0  0  0  0  0  0  0  0  0  # atno 17321 bound_to 7965
  140.4706  144.1592  150.5917 LP  0  0  0  0  0  0  0  0  0  0  0  0  # atno 17342 bound_to 10162
  140.4386  143.2536  151.9502 LP  0  0  0  0  0  0  0  0  0  0  0  0  # atno 17343 bound_to 10162
  156.5799  130.4301  149.5982 LP  0  0  0  0  0  0  0  0  0  0  0  0  # atno 17370 bound_to 10713
  156.2670  130.6995  151.1781 LP  0  0  0  0  0  0  0  0  0  0  0  0  # atno 17371 bound_to 10713
  140.1959  134.8932  157.3114 LP  0  0  0  0  0  0  0  0  0  0  0  0  # atno 17394 bound_to 11000
  140.2240  134.3989  155.7552 LP  0  0  0  0  0  0  0  0  0  0  0  0  # atno 17395 bound_to 11000

$$$$
