#       Name:                AV-unprocessed.smi:928
#       Creating user name   scv26
#       Creation time:       Fri Mar 27 02:09:50 2020


#       File generated by GOLD software.
#

@<TRIPOS>MOLECULE
AV-unprocessed.smi:928
    48    49     1
SMALL
NO_CHARGES


@<TRIPOS>ATOM
      1 ****        -1.9339   2.5215  -0.0386 C.3            1 S1                 0.0000
      2 ****        -3.1943   2.0409  -0.7680 C.3            1 S1                 0.0000
      3 ****        -3.0328   0.6861  -1.3728 C.2            1 S1                 0.0000
      4 ****        -2.8543   0.3738  -2.6981 C.2            1 S1                 0.0000
      5 ****        -2.6729  -0.9901  -2.9382 N.2            1 S1                 0.0000
      6 ****        -2.7137  -1.7139  -1.8173 C.2            1 S1                 0.0000
      7 ****        -2.4191  -3.1794  -1.7709 C.3            1 S1                 0.0000
      8 ****        -0.9119  -3.5134  -1.7363 C.3            1 S1                 0.0000
      9 ****        -0.2177  -2.8556  -0.6301 N.am           1 S1                 0.0000
     10 ****         0.4219  -1.6791  -0.7093 C.2            1 S1                 0.0000
     11 ****         0.5957  -1.0548  -1.7560 O.2            1 S1                 0.0000
     12 ****         0.7962  -1.2344   0.4976 N.am           1 S1                 0.0000
     13 ****         1.3631   0.0860   0.7620 C.3            1 S1                 0.0000
     14 ****         1.0657   0.5214   2.2092 C.3            1 S1                 0.0000
     15 ****         1.6289   1.9240   2.4877 C.3            1 S1                 0.0000
     16 ****         3.1368   1.9873   2.1957 C.3            1 S1                 0.0000
     17 ****         3.4541   1.5358   0.7578 C.3            1 S1                 0.0000
     18 ****         2.8760   0.1422   0.4414 C.3            1 S1                 0.0000
     19 ****         3.5842  -0.8335   1.1833 O.3            1 S1                 0.0000
     20 ****        -3.0307  -0.7473  -0.3797 S.3            1 S1                 0.0000
     21 ****        -2.0822   3.5170   0.3799 H              1 S1                 0.0000
     22 ****        -1.0812   2.5680  -0.7167 H              1 S1                 0.0000
     23 ****        -1.6714   1.8520   0.7810 H              1 S1                 0.0000
     24 ****        -4.0336   2.0294  -0.0720 H              1 S1                 0.0000
     25 ****        -3.4557   2.7591  -1.5458 H              1 S1                 0.0000
     26 ****        -2.8165   1.0599  -3.5312 H              1 S1                 0.0000
     27 ****        -2.9065  -3.5972  -0.8894 H              1 S1                 0.0000
     28 ****        -2.8839  -3.6579  -2.6335 H              1 S1                 0.0000
     29 ****        -0.7781  -4.5902  -1.6329 H              1 S1                 0.0000
     30 ****        -0.4509  -3.2420  -2.6876 H              1 S1                 0.0000
     31 ****        -0.3012  -3.2884   0.2781 H              1 S1                 0.0000
     32 ****         0.6101  -1.8176   1.3002 H              1 S1                 0.0000
     33 ****         0.8578   0.8006   0.1086 H              1 S1                 0.0000
     34 ****        -0.0106   0.5189   2.3860 H              1 S1                 0.0000
     35 ****         1.4956  -0.1925   2.9133 H              1 S1                 0.0000
     36 ****         1.1057   2.6560   1.8707 H              1 S1                 0.0000
     37 ****         1.4389   2.2017   3.5247 H              1 S1                 0.0000
     38 ****         3.5026   3.0022   2.3535 H              1 S1                 0.0000
     39 ****         3.6720   1.3556   2.9057 H              1 S1                 0.0000
     40 ****         3.0339   2.2607   0.0594 H              1 S1                 0.0000
     41 ****         4.5320   1.5446   0.5912 H              1 S1                 0.0000
     42 ****         3.0362  -0.0735  -0.6156 H              1 S1                 0.0000
     43 ****         3.2438  -1.6848   0.9542 H              1 S1                 0.0000
     44 ****        -2.5286  -1.3805  -3.8475 LP             1 S1                 0.0000
     45 ****         0.2501  -1.4211  -2.6200 LP             1 S1                 0.0000
     46 ****         1.0825  -0.1814  -1.7423 LP             1 S1                 0.0000
     47 ****         3.4586  -0.6712   2.1620 LP             1 S1                 0.0000
     48 ****         4.5579  -0.7873   0.9600 LP             1 S1                 0.0000
@<TRIPOS>BOND
    1    1    2 1     
    2    1   21 1     
    3    1   22 1     
    4    1   23 1     
    5    2    3 1     
    6    2   24 1     
    7    2   25 1     
    8    3   20 1     
    9    3    4 2     
   10    4    5 1     
   11    4   26 1     
   12    5    6 2     
   13    6    7 1     
   14    6   20 1     
   15    7    8 1     
   16    7   27 1     
   17    7   28 1     
   18    8    9 1     
   19    8   29 1     
   20    8   30 1     
   21    9   10 am    
   22    9   31 1     
   23   10   11 2     
   24   10   12 am    
   25   12   13 1     
   26   12   32 1     
   27   13   18 1     
   28   13   14 1     
   29   13   33 1     
   30   14   15 1     
   31   14   34 1     
   32   14   35 1     
   33   15   16 1     
   34   15   36 1     
   35   15   37 1     
   36   16   17 1     
   37   16   38 1     
   38   16   39 1     
   39   17   18 1     
   40   17   40 1     
   41   17   41 1     
   42   18   19 1     
   43   18   42 1     
   44   19   43 1     
   45    5   44 1     
   46   11   45 1     
   47   11   46 1     
   48   19   47 1     
   49   19   48 1     
@<TRIPOS>SUBSTRUCTURE
      1 S1             1
@<TRIPOS>SET
LONE_PAIRS      STATIC     ATOMS    <user>   **** ""
5 44 45 46 47 48
DONOR_HYDROGENS      STATIC     ATOMS    <user>   **** ""
3 31 32 43
ATOM$BLUE        STATIC     ATOMS    COLORGROUP SYSTEM
5 44 45 46 47 48
ATOM$RED        STATIC     ATOMS    COLORGROUP SYSTEM
3 31 32 43
