AV-unprocessed.smi:587|AV-procd|sdf|3003|dock7
  -GOLD-   2262023513D 1   1.00000     0.00000
 Structure written by MMmdl.
 47 49  0  0  0  0  0  0  0  0  2 V2000
  150.1361  140.9585  154.2708 C   0  0  0  0  0  0  0  0  0  0  0  0
  150.0913  139.7523  155.0705 N   0  0  0  0  0  0  0  0  0  0  0  0
  149.6611  138.5095  154.6092 C   0  0  0  0  0  0  0  0  0  0  0  0
  149.2439  138.4000  153.2903 N   0  0  0  0  0  0  0  0  0  0  0  0
  149.6510  137.4202  155.4239 C   0  0  0  0  0  0  0  0  0  0  0  0
  149.1835  136.1203  154.8510 N   0  3  0  0  0  0  0  0  0  0  0  0
  147.7331  135.8471  155.0176 C   0  0  0  0  0  0  0  0  0  0  0  0
  147.3022  134.6464  154.1589 C   0  0  0  0  0  0  0  0  0  0  0  0
  148.1435  133.4050  154.4888 C   0  0  0  0  0  0  0  0  0  0  0  0
  149.6380  133.7260  154.3465 C   0  0  0  0  0  0  0  0  0  0  0  0
  150.0223  134.9453  155.2011 C   0  0  0  0  0  0  0  0  0  0  0  0
  150.0883  137.5108  156.8207 C   0  0  0  0  0  0  0  0  0  0  0  0
  150.1024  136.5500  157.5920 O   0  0  0  0  0  0  0  0  0  0  0  0
  150.5159  138.7850  157.2551 N   0  0  0  0  0  0  0  0  0  0  0  0
  150.9992  138.9362  158.6467 C   0  0  0  0  0  0  0  0  0  0  0  0
  152.3938  139.5741  158.7455 C   0  0  0  0  0  0  0  0  0  0  0  0
  153.3462  139.1192  158.1094 O   0  0  0  0  0  0  0  0  0  0  0  0
  152.4915  140.6337  159.5611 N   0  0  0  0  0  0  0  0  0  0  0  0
  153.6794  141.3858  159.8053 C   0  0  0  0  0  0  0  0  0  0  0  0
  153.6219  142.4724  160.8573 C   0  0  0  0  0  0  0  0  0  0  0  0
  153.6796  142.8444  159.4013 C   0  0  0  0  0  0  0  0  0  0  0  0
  150.5386  139.9094  156.4038 C   0  0  0  0  0  0  0  0  0  0  0  0
  150.9442  140.9997  156.8170 O   0  0  0  0  0  0  0  0  0  0  0  0
  149.7473  140.7704  153.2725 H   0  0  0  0  0  0  0  0  0  0  0  0
  151.1799  141.2720  154.2103 H   0  0  0  0  0  0  0  0  0  0  0  0
  149.5166  141.7071  154.7682 H   0  0  0  0  0  0  0  0  0  0  0  0
  149.2386  139.1811  152.6512 H   0  0  0  0  0  0  0  0  0  0  0  0
  148.9206  137.5200  152.9128 H   0  0  0  0  0  0  0  0  0  0  0  0
  147.5033  135.6549  156.0662 H   0  0  0  0  0  0  0  0  0  0  0  0
  147.1641  136.7300  154.7238 H   0  0  0  0  0  0  0  0  0  0  0  0
  146.2445  134.4339  154.3177 H   0  0  0  0  0  0  0  0  0  0  0  0
  147.4128  134.8940  153.1022 H   0  0  0  0  0  0  0  0  0  0  0  0
  147.9325  133.0769  155.5075 H   0  0  0  0  0  0  0  0  0  0  0  0
  147.8709  132.5789  153.8313 H   0  0  0  0  0  0  0  0  0  0  0  0
  150.2350  132.8618  154.6396 H   0  0  0  0  0  0  0  0  0  0  0  0
  149.8726  133.9238  153.2998 H   0  0  0  0  0  0  0  0  0  0  0  0
  151.0725  135.1904  155.0377 H   0  0  0  0  0  0  0  0  0  0  0  0
  149.9126  134.7058  156.2594 H   0  0  0  0  0  0  0  0  0  0  0  0
  150.3031  139.5307  159.2409 H   0  0  0  0  0  0  0  0  0  0  0  0
  151.0229  137.9738  159.1603 H   0  0  0  0  0  0  0  0  0  0  0  0
  151.6572  140.9371  160.0424 H   0  0  0  0  0  0  0  0  0  0  0  0
  154.6308  140.8647  159.7077 H   0  0  0  0  0  0  0  0  0  0  0  0
  152.6792  142.6276  161.3785 H   0  0  0  0  0  0  0  0  0  0  0  0
  154.5163  142.6398  161.4541 H   0  0  0  0  0  0  0  0  0  0  0  0
  154.6122  143.2594  159.0248 H   0  0  0  0  0  0  0  0  0  0  0  0
  152.7749  143.2488  158.9509 H   0  0  0  0  0  0  0  0  0  0  0  0
  149.2984  136.2084  153.8522 H   0  0  0  0  0  0  0  0  0  0  0  0
  1  2  1  0  0  0  0
  1 24  1  0  0  0  0
  1 25  1  0  0  0  0
  1 26  1  0  0  0  0
  2 22  1  0  0  0  0
  2  3  1  0  0  0  0
  3  4  1  0  0  0  0
  3  5  2  0  0  0  0
  4 27  1  0  0  0  0
  4 28  1  0  0  0  0
  5  6  1  0  0  0  0
  5 12  1  0  0  0  0
  6 11  1  0  0  0  0
  6  7  1  0  0  0  0
  6 47  1  0  0  0  0
  7  8  1  0  0  0  0
  7 29  1  0  0  0  0
  7 30  1  0  0  0  0
  8  9  1  0  0  0  0
  8 31  1  0  0  0  0
  8 32  1  0  0  0  0
  9 10  1  0  0  0  0
  9 33  1  0  0  0  0
  9 34  1  0  0  0  0
 10 11  1  0  0  0  0
 10 35  1  0  0  0  0
 10 36  1  0  0  0  0
 11 37  1  0  0  0  0
 11 38  1  0  0  0  0
 12 13  2  0  0  0  0
 12 14  1  0  0  0  0
 14 15  1  0  0  0  0
 14 22  1  0  0  0  0
 15 16  1  0  0  0  0
 15 39  1  0  0  0  0
 15 40  1  0  0  0  0
 16 17  2  0  0  0  0
 16 18  1  0  0  0  0
 18 19  1  0  0  0  0
 18 41  1  0  0  0  0
 19 21  1  0  0  0  0
 19 20  1  0  0  0  0
 19 42  1  0  0  0  0
 20 21  1  0  0  0  0
 20 43  1  0  0  0  0
 20 44  1  0  0  0  0
 21 45  1  0  0  0  0
 21 46  1  0  0  0  0
 22 23  2  0  0  0  0
M  CHG  1   6   1
M  END
> <s_m_source_file>
AV-unprocessed.smi

> <i_m_source_file_index>
587

> <i_lp_mmshare_version>
43012

> <i_f3d_flags>
0

> <s_epik_input>
W0NIMl0xW0NIMl1bQ0gyXVtDSDJdW0NIMl1OMWMoYyhbTkgyXSluMltDSDNdKWMoPU8pbihjMj1PKVtDSDJdQyg9TylbTkhdW0NIXTNbQ0gyXVtDSDJdMw==

> <s_epik_cmdline>
J2VwaWtfcHl0aG9uJywgJy1waCcsICc3LjAnLCAnLXRuJywgJzgnLCAnLW1hJywgJzIwMCcsICctbWV0YWxfYmluZGluZycsICctaW1hZScsICc8aW5maWxlLm1hZT4nLCAnLW9tYWUnLCAnPG91dGZpbGUubWFlPic=

> <r_epik_Ionization_Penalty>
2.48068

> <r_epik_Ionization_Penalty_Charging>
2.47625

> <r_epik_Ionization_Penalty_Neutral>
0.00443673

> <r_epik_State_Penalty>
2.66159

> <r_epik_Charging_Adjusted_Penalty>
5.13784

> <i_epik_Tot_Q>
1

> <i_epik_Tot_abs_Q>
1

> <r_epik_Metal_State_Penalty>
2.66159

> <b_epik_Metal_Only>
0

> <s_lp_Force_Field>
OPLS_2005

> <r_lp_Energy>
35.5709

> <b_lp_Chiralities_Consistent>
1

> <s_lp_Variant>
AV-unprocessed.smi:587-2

> <Gold.Version>
5.8.1

> <Gold.Id.Protein>
6NUR|6NUR_protein|mol2

> <Gold.PLP.Fitness>
47.7072

> <Gold.PLP.PLP>
-34.9529

> <Gold.PLP.part.hbond>
-4.0000

> <Gold.PLP.part.metal>
0.0000

> <Gold.PLP.part.buried>
-3.8623

> <Gold.PLP.part.nonpolar>
-26.3680

> <Gold.PLP.part.repulsive>
0.2728

> <Gold.PLP.ligand.clash>
0.0000

> <Gold.PLP.ligand.torsion>
0.6971

> <Gold.PLP.Chemscore.Hbond>
4.6480

> <Gold.PLP.Chemscore.CHOScore>
0.0000

> <Gold.PLP.Chemscore.Metal>
0.0000

> <Gold.Chemscore.Hbonds>
donor molecule, donor type, donor heavy atom, donor atom, acceptor molecule, acceptor atom, score
      L1  H     4    27       P1  7957  1.00
      L1  H     4    28       P1  7948  1.00
      L1  H     6    47       P1  7948  2.00
      P1  H  7997  8009       L1    17  1.00

> <Gold.PLP.Chemscore.Internal.Correction>
0.2045

> <Gold.Rescore>
     Score         DG    S(hbond)    S(metal)    S(lipo)     H(rot)  DE(clash)    DE(int)     intcor
     17.34     -20.84       3.51        0.00      71.91       1.87       0.04       3.47       ----

> <Gold.Chemscore.Fitness>
17.3416

> <Gold.Chemscore.DG>
-20.8434

> <Gold.Chemscore.ZeroCoef>
-5.4800

> <Gold.Chemscore.Hbond>
3.5120

> <Gold.Chemscore.Metal>
0.0000

> <Gold.Chemscore.Lipo>
71.9078

> <Gold.Chemscore.Internal_Hbond>
0.0000

> <Gold.Chemscore.DEClash>
0.0365

> <Gold.Chemscore.DEInternal>
3.4653

> <Gold.Chemscore.Rot>
1.8672

> <Gold.Chemscore.Internal.Correction>
   9.000000E+99

> <Gold.Chemscore.Hbonds>
donor molecule, donor type, donor heavy atom, donor atom, acceptor molecule, acceptor atom, score
      L1  H     4    27       P1  7957  0.98
      L1  H     4    28       P1  7948  0.97
      L1  H     6    47       P1  7948  0.83
      P1  H  7997  8009       L1    17  0.99

> <Gold.Chemscore.Hbond.Weighted>
-11.7301

> <Gold.Chemscore.Metal.Weighted>
-0.0000

> <Gold.Chemscore.Lipo.Weighted>
-8.4132

> <Gold.Chemscore.Internal_Hbond.Weighted>
0.0000

> <Gold.Chemscore.DEClash.Weighted>
0.0365

> <Gold.Chemscore.DEInternal.Weighted>
3.4653

> <Gold.Chemscore.Rot.Weighted>
4.7799

> <Gold.Chemscore.Internal.Correction.Weighted>
   9.000000E+99

> <Gold.Protein.RotatedTorsions>
[ 6907 6896 6895 6894 ] final    1.13 input  -60.11 | X-H torsion
[ 7974 7965 7964 7962 ] final   90.97 input  175.53 | X-H torsion
[ 8008 7997 7996 7995 ] final  165.73 input   59.86 | X-H torsion
[ 10167 10162 10161 10158 ] final   10.42 input  -65.29 | X-H torsion
[ 10718 10713 10712 10709 ] final   46.17 input   66.30 | X-H torsion
[ 10763 10752 10751 10750 ] final -106.51 input  -60.55 | X-H torsion
[ 11005 11000 10999 10996 ] final  176.72 input  -57.11 | X-H torsion

> <Gold.Protein.ActiveResidues>
 VAL166  LYS551  ARG553  GLY616  TRP617  ASP618  TYR619  PRO620  LYS621  CYS622 
 ASP623  PHE694  ASN695  SER759  ASP760  ASP761  ALA762  ILE779  LEU786  VAL792 
 PHE793  MET794  SER795  GLU796  ALA797  LYS798  CYS799  TRP800  GLU811  SER814 

> <Gold.Protein.RotatedAtoms>
  151.5877  135.1055  160.0031 H   0  0  0  0  0  0  0  0  0  0  0  0  # atno 6907 bound_to 6896
  152.4322  133.7294  159.6589 H   0  0  0  0  0  0  0  0  0  0  0  0  # atno 6908 bound_to 6896
  150.8216  133.8173  159.3159 H   0  0  0  0  0  0  0  0  0  0  0  0  # atno 6909 bound_to 6896
  145.5120  139.2277  143.2719 H   0  0  0  0  0  0  0  0  0  0  0  0  # atno 7974 bound_to 7965
  156.1776  140.1662  156.8334 H   0  0  0  0  0  0  0  0  0  0  0  0  # atno 8008 bound_to 7997
  154.5324  140.0754  156.8402 H   0  0  0  0  0  0  0  0  0  0  0  0  # atno 8009 bound_to 7997
  155.3379  140.3383  155.4241 H   0  0  0  0  0  0  0  0  0  0  0  0  # atno 8010 bound_to 7997
  140.6195  143.8235  150.7158 H   0  0  0  0  0  0  0  0  0  0  0  0  # atno 10167 bound_to 10162
  157.4453  130.8106  149.7734 H   0  0  0  0  0  0  0  0  0  0  0  0  # atno 10718 bound_to 10713
  154.8016  135.4709  154.0291 H   0  0  0  0  0  0  0  0  0  0  0  0  # atno 10763 bound_to 10752
  153.1791  135.6837  153.8509 H   0  0  0  0  0  0  0  0  0  0  0  0  # atno 10764 bound_to 10752
  153.8065  135.3223  155.3373 H   0  0  0  0  0  0  0  0  0  0  0  0  # atno 10765 bound_to 10752
  140.3762  134.6987  157.4423 H   0  0  0  0  0  0  0  0  0  0  0  0  # atno 11005 bound_to 11000
  146.2161  140.5927  142.9038 LP  0  0  0  0  0  0  0  0  0  0  0  0  # atno 17320 bound_to 7965
  144.7722  140.5663  143.6662 LP  0  0  0  0  0  0  0  0  0  0  0  0  # atno 17321 bound_to 7965
  140.1822  143.4105  152.1924 LP  0  0  0  0  0  0  0  0  0  0  0  0  # atno 17342 bound_to 10162
  139.5426  144.7270  151.4684 LP  0  0  0  0  0  0  0  0  0  0  0  0  # atno 17343 bound_to 10162
  155.9965  130.3905  150.2777 LP  0  0  0  0  0  0  0  0  0  0  0  0  # atno 17370 bound_to 10713
  157.0945  131.0179  151.3109 LP  0  0  0  0  0  0  0  0  0  0  0  0  # atno 17371 bound_to 10713
  140.0513  134.6126  155.8858 LP  0  0  0  0  0  0  0  0  0  0  0  0  # atno 17394 bound_to 11000
  141.1938  133.6580  156.5567 LP  0  0  0  0  0  0  0  0  0  0  0  0  # atno 17395 bound_to 11000

$$$$
