#       Name:                AV-unprocessed.smi:1072
#       Creating user name   scv26
#       Creation time:       Fri Mar 27 03:20:37 2020


#       File generated by GOLD software.
#

@<TRIPOS>MOLECULE
AV-unprocessed.smi:1072
    51    52     1
SMALL
NO_CHARGES


@<TRIPOS>ATOM
      1 ****        -3.8823   5.8641   0.2746 C.3            1 S1                 0.0000
      2 ****        -3.2885   4.4729   0.2163 C.2            1 S1                 0.0000
      3 ****        -2.8064   4.0449  -0.8878 N.2            1 S1                 0.0000
      4 ****        -2.2518   2.7551  -0.9464 C.2            1 S1                 0.0000
      5 ****        -1.7044   2.3281  -2.2973 C.3            1 S1                 0.0000
      6 ****        -2.2161   1.9514   0.1550 C.2            1 S1                 0.0000
      7 ****        -1.6238   0.5421   0.1406 C.3            1 S1                 0.0000
      8 ****        -0.0981   0.4572   0.2269 C.2            1 S1                 0.0000
      9 ****         0.5398   1.3286   0.8170 O.2            1 S1                 0.0000
     10 ****         0.4633  -0.6049  -0.3769 N.am           1 S1                 0.0000
     11 ****         1.8871  -0.9562  -0.4801 C.3            1 S1                 0.0000
     12 ****         2.6413   0.1430  -1.2593 C.3            1 S1                 0.0000
     13 ****         2.5289  -1.1648   0.9170 C.3            1 S1                 0.0000
     14 ****         1.9103  -2.3454   1.6869 C.3            1 S1                 0.0000
     15 ****         2.0108  -3.6549   0.8840 C.3            1 S1                 0.0000
     16 ****         1.3836  -4.8309   1.6459 C.3            1 S1                 0.0000
     17 ****         1.3766  -3.4809  -0.5083 C.3            1 S1                 0.0000
     18 ****         1.9857  -2.2855  -1.2668 C.3            1 S1                 0.0000
     19 ****        -2.7785   2.4837   1.4091 C.2            1 S1                 0.0000
     20 ****        -2.7600   1.8056   2.4356 O.2            1 S1                 0.0000
     21 ****        -3.3080   3.7401   1.3817 N.pl3          1 S1                -1.0000
     22 ****        -3.6321   6.4355  -0.6202 H              1 S1                 0.0000
     23 ****        -3.5008   6.4055   1.1410 H              1 S1                 0.0000
     24 ****        -4.9681   5.8062   0.3538 H              1 S1                 0.0000
     25 ****        -2.2589   1.4716  -2.6810 H              1 S1                 0.0000
     26 ****        -0.6522   2.0547  -2.2173 H              1 S1                 0.0000
     27 ****        -1.7848   3.1337  -3.0279 H              1 S1                 0.0000
     28 ****        -2.0437  -0.0651   0.9428 H              1 S1                 0.0000
     29 ****        -1.9490   0.0487  -0.7759 H              1 S1                 0.0000
     30 ****        -0.1724  -1.2499  -0.8233 H              1 S1                 0.0000
     31 ****         3.6797  -0.1396  -1.4347 H              1 S1                 0.0000
     32 ****         2.6573   1.0904  -0.7204 H              1 S1                 0.0000
     33 ****         2.1829   0.3248  -2.2321 H              1 S1                 0.0000
     34 ****         3.5967  -1.3515   0.7958 H              1 S1                 0.0000
     35 ****         2.4608  -0.2595   1.5201 H              1 S1                 0.0000
     36 ****         2.4190  -2.4580   2.6449 H              1 S1                 0.0000
     37 ****         0.8671  -2.1288   1.9203 H              1 S1                 0.0000
     38 ****         3.0688  -3.8811   0.7431 H              1 S1                 0.0000
     39 ****         0.3199  -4.6676   1.8217 H              1 S1                 0.0000
     40 ****         1.8631  -4.9711   2.6150 H              1 S1                 0.0000
     41 ****         1.4900  -5.7619   1.0884 H              1 S1                 0.0000
     42 ****         1.5166  -4.3900  -1.0944 H              1 S1                 0.0000
     43 ****         0.2985  -3.3472  -0.4099 H              1 S1                 0.0000
     44 ****         1.4986  -2.1850  -2.2379 H              1 S1                 0.0000
     45 ****         3.0327  -2.5067  -1.4797 H              1 S1                 0.0000
     46 ****        -2.8238   4.6234  -1.7032 LP             1 S1                 0.0000
     47 ****         0.0614   2.0965   1.2428 LP             1 S1                 0.0000
     48 ****         1.5366   1.2687   0.8707 LP             1 S1                 0.0000
     49 ****        -2.3620   0.8883   2.4218 LP             1 S1                 0.0000
     50 ****        -3.1430   2.1717   3.2837 LP             1 S1                 0.0000
     51 ****        -3.7112   4.1299   2.2096 LP             1 S1                 0.0000
@<TRIPOS>BOND
    1    1    2 1     
    2    1   22 1     
    3    1   23 1     
    4    1   24 1     
    5    2   21 1     
    6    2    3 2     
    7    3    4 1     
    8    4    5 1     
    9    4    6 2     
   10    5   25 1     
   11    5   26 1     
   12    5   27 1     
   13    6    7 1     
   14    6   19 1     
   15    7    8 1     
   16    7   28 1     
   17    7   29 1     
   18    8    9 2     
   19    8   10 am    
   20   10   11 1     
   21   10   30 1     
   22   11   18 1     
   23   11   12 1     
   24   11   13 1     
   25   12   31 1     
   26   12   32 1     
   27   12   33 1     
   28   13   14 1     
   29   13   34 1     
   30   13   35 1     
   31   14   15 1     
   32   14   36 1     
   33   14   37 1     
   34   15   16 1     
   35   15   17 1     
   36   15   38 1     
   37   16   39 1     
   38   16   40 1     
   39   16   41 1     
   40   17   18 1     
   41   17   42 1     
   42   17   43 1     
   43   18   44 1     
   44   18   45 1     
   45   19   20 2     
   46   19   21 1     
   47    3   46 1     
   48    9   47 1     
   49    9   48 1     
   50   20   49 1     
   51   20   50 1     
   52   21   51 1     
@<TRIPOS>SUBSTRUCTURE
      1 S1             1
@<TRIPOS>SET
LONE_PAIRS      STATIC     ATOMS    <user>   **** ""
6 46 47 48 49 50 51
DONOR_HYDROGENS      STATIC     ATOMS    <user>   **** ""
1 30
ATOM$BLUE        STATIC     ATOMS    COLORGROUP SYSTEM
6 46 47 48 49 50 51
ATOM$RED        STATIC     ATOMS    COLORGROUP SYSTEM
1 30
