#       Name:                AV-unprocessed.smi:1433
#       Creating user name   scv26
#       Creation time:       Fri Mar 27 05:50:25 2020


#       File generated by GOLD software.
#

@<TRIPOS>MOLECULE
AV-unprocessed.smi:1433
    50    51     1
SMALL
NO_CHARGES


@<TRIPOS>ATOM
      1 ****        -2.5098  -4.2016   1.5022 C.3            1 S1                 0.0000
      2 ****        -2.1009  -2.7718   1.8713 C.3            1 S1                 0.0000
      3 ****        -1.4152  -2.0460   0.6996 C.3            1 S1                 0.0000
      4 ****        -1.0917  -0.6491   1.0043 N.3            1 S1                 0.0000
      5 ****        -0.4187   0.0446  -0.1192 C.3            1 S1                 0.0000
      6 ****        -0.1027   1.5299   0.1988 C.3            1 S1                 0.0000
      7 ****         0.8880  -0.6571  -0.5828 C.3            1 S1                 0.0000
      8 ****         1.4988   0.0159  -1.7225 N.am           1 S1                 0.0000
      9 ****         2.7801  -0.1096  -2.0977 C.2            1 S1                 0.0000
     10 ****         3.5798  -0.8633  -1.5438 O.2            1 S1                 0.0000
     11 ****         3.2297   0.7519  -3.2794 C.3            1 S1                 0.0000
     12 ****         3.1351   2.1672  -2.9642 N.pl3          1 S1                 0.0000
     13 ****         4.0257   2.9482  -2.2573 C.2            1 S1                 0.0000
     14 ****         3.5058   4.2096  -2.2026 C.2            1 S1                 0.0000
     15 ****         2.2785   4.1009  -2.9143 C.2            1 S1                 0.0000
     16 ****         2.0585   2.8776  -3.3686 N.2            1 S1                 0.0000
     17 ****        -2.3308   0.0213   1.4156 C.3            1 S1                 0.0000
     18 ****        -3.0678  -0.6899   2.5677 C.3            1 S1                 0.0000
     19 ****        -2.3807  -0.5128   3.9328 C.3            1 S1                 0.0000
     20 ****        -3.2760  -2.0637   2.2501 O.3            1 S1                 0.0000
     21 ****        -1.6429  -4.7967   1.2145 H              1 S1                 0.0000
     22 ****        -3.2122  -4.2084   0.6683 H              1 S1                 0.0000
     23 ****        -2.9891  -4.6996   2.3455 H              1 S1                 0.0000
     24 ****        -1.4166  -2.8213   2.7187 H              1 S1                 0.0000
     25 ****        -0.5125  -2.6089   0.4717 H              1 S1                 0.0000
     26 ****        -2.0514  -2.0926  -0.1858 H              1 S1                 0.0000
     27 ****        -1.0997   0.0402  -0.9719 H              1 S1                 0.0000
     28 ****         0.4419   2.0261  -0.6041 H              1 S1                 0.0000
     29 ****         0.4995   1.6187   1.1037 H              1 S1                 0.0000
     30 ****        -1.0044   2.1251   0.3340 H              1 S1                 0.0000
     31 ****         1.5936  -0.7076   0.2487 H              1 S1                 0.0000
     32 ****         0.7051  -1.6784  -0.9124 H              1 S1                 0.0000
     33 ****         0.9157   0.6582  -2.2398 H              1 S1                 0.0000
     34 ****         4.2631   0.5203  -3.5411 H              1 S1                 0.0000
     35 ****         2.6179   0.5290  -4.1551 H              1 S1                 0.0000
     36 ****         4.9427   2.5435  -1.8542 H              1 S1                 0.0000
     37 ****         3.9364   5.0776  -1.7262 H              1 S1                 0.0000
     38 ****         1.5454   4.8691  -3.1120 H              1 S1                 0.0000
     39 ****        -2.1322   1.0408   1.7413 H              1 S1                 0.0000
     40 ****        -3.0028   0.0937   0.5589 H              1 S1                 0.0000
     41 ****        -4.0594  -0.2449   2.6536 H              1 S1                 0.0000
     42 ****        -2.3443   0.5400   4.2135 H              1 S1                 0.0000
     43 ****        -1.3554  -0.8823   3.9282 H              1 S1                 0.0000
     44 ****        -2.9249  -1.0438   4.7139 H              1 S1                 0.0000
     45 ****        -0.4268  -0.6185   1.7506 LP             1 S1                 0.0000
     46 ****         3.2850  -1.4237  -0.7699 LP             1 S1                 0.0000
     47 ****         4.5245  -0.9154  -1.8677 LP             1 S1                 0.0000
     48 ****         1.2721   2.5518  -3.8935 LP             1 S1                 0.0000
     49 ****        -3.6651  -2.5136   3.0539 LP             1 S1                 0.0000
     50 ****        -3.9270  -2.1130   1.4926 LP             1 S1                 0.0000
@<TRIPOS>BOND
    1    1    2 1     
    2    1   21 1     
    3    1   22 1     
    4    1   23 1     
    5    2   20 1     
    6    2    3 1     
    7    2   24 1     
    8    3    4 1     
    9    3   25 1     
   10    3   26 1     
   11    4    5 1     
   12    4   17 1     
   13    5    6 1     
   14    5    7 1     
   15    5   27 1     
   16    6   28 1     
   17    6   29 1     
   18    6   30 1     
   19    7    8 1     
   20    7   31 1     
   21    7   32 1     
   22    8    9 am    
   23    8   33 1     
   24    9   10 2     
   25    9   11 1     
   26   11   12 1     
   27   11   34 1     
   28   11   35 1     
   29   12   16 1     
   30   12   13 1     
   31   13   14 2     
   32   13   36 1     
   33   14   15 1     
   34   14   37 1     
   35   15   16 2     
   36   15   38 1     
   37   17   18 1     
   38   17   39 1     
   39   17   40 1     
   40   18   19 1     
   41   18   20 1     
   42   18   41 1     
   43   19   42 1     
   44   19   43 1     
   45   19   44 1     
   46    4   45 1     
   47   10   46 1     
   48   10   47 1     
   49   16   48 1     
   50   20   49 1     
   51   20   50 1     
@<TRIPOS>SUBSTRUCTURE
      1 S1             1
@<TRIPOS>SET
LONE_PAIRS      STATIC     ATOMS    <user>   **** ""
6 45 46 47 48 49 50
DONOR_HYDROGENS      STATIC     ATOMS    <user>   **** ""
1 33
ATOM$BLUE        STATIC     ATOMS    COLORGROUP SYSTEM
6 45 46 47 48 49 50
ATOM$RED        STATIC     ATOMS    COLORGROUP SYSTEM
1 33
