AV-unprocessed.smi:3101|AV-procd|sdf|11811|dock5
  -GOLD-   2272017183D 1   1.00000     0.00000
 Structure written by MMmdl.
 28 29  0  0  0  0  0  0  0  0  1 V2000
  153.4767  141.3892  159.6207 C   0  0  0  0  0  0  0  0  0  0  0  0
  152.2270  142.2690  159.4578 C   0  0  1  0  0  0  0  0  0  0  0  0
  152.2792  143.5512  160.2636 C   0  0  0  0  0  0  0  0  0  0  0  0
  151.2170  144.4027  159.5771 C   0  0  0  0  0  0  0  0  0  0  0  0
  151.2115  143.9947  158.2123 O   0  0  0  0  0  0  0  0  0  0  0  0
  152.0053  142.8199  158.0397 C   0  0  2  0  0  0  0  0  0  0  0  0
  151.3122  141.8609  157.0593 C   0  0  0  0  0  0  0  0  0  0  0  0
  150.1724  142.1022  156.6607 O   0  0  0  0  0  0  0  0  0  0  0  0
  152.0240  140.7745  156.7050 N   0  0  0  0  0  0  0  0  0  0  0  0
  151.6492  139.7267  155.8238 C   0  0  0  0  0  0  0  0  0  0  0  0
  152.3340  138.5012  156.0002 C   0  0  0  0  0  0  0  0  0  0  0  0
  152.0886  137.4121  155.2384 N   0  0  0  0  0  0  0  0  0  0  0  0
  151.1439  137.5440  154.2829 C   0  0  0  0  0  0  0  0  0  0  0  0
  150.4513  138.7564  154.0930 C   0  0  0  0  0  0  0  0  0  0  0  0
  150.7015  139.8411  154.8582 N   0  0  0  0  0  0  0  0  0  0  0  0
  154.3790  141.9197  159.3154 H   0  0  0  0  0  0  0  0  0  0  0  0
  153.4060  140.4822  159.0205 H   0  0  0  0  0  0  0  0  0  0  0  0
  153.6048  141.0861  160.6598 H   0  0  0  0  0  0  0  0  0  0  0  0
  151.3489  141.7014  159.7719 H   0  0  0  0  0  0  0  0  0  0  0  0
  152.0809  143.3999  161.3250 H   0  0  0  0  0  0  0  0  0  0  0  0
  153.2570  144.0249  160.1634 H   0  0  0  0  0  0  0  0  0  0  0  0
  150.2334  144.1986  160.0015 H   0  0  0  0  0  0  0  0  0  0  0  0
  151.4127  145.4708  159.6739 H   0  0  0  0  0  0  0  0  0  0  0  0
  152.9597  143.1294  157.6111 H   0  0  0  0  0  0  0  0  0  0  0  0
  152.9473  140.6989  157.1068 H   0  0  0  0  0  0  0  0  0  0  0  0
  153.0910  138.3908  156.7632 H   0  0  0  0  0  0  0  0  0  0  0  0
  150.9394  136.6803  153.6678 H   0  0  0  0  0  0  0  0  0  0  0  0
  149.6963  138.8562  153.3274 H   0  0  0  0  0  0  0  0  0  0  0  0
  1  2  1  0  0  0  0
  1 16  1  0  0  0  0
  1 17  1  0  0  0  0
  1 18  1  0  0  0  0
  2  6  1  0  0  0  0
  2  3  1  0  0  0  0
  2 19  1  0  0  0  0
  3  4  1  0  0  0  0
  3 20  1  0  0  0  0
  3 21  1  0  0  0  0
  4  5  1  0  0  0  0
  4 22  1  0  0  0  0
  4 23  1  0  0  0  0
  5  6  1  0  0  0  0
  6  7  1  0  0  0  0
  6 24  1  0  0  0  0
  7  8  2  0  0  0  0
  7  9  1  0  0  0  0
  9 10  1  0  0  0  0
  9 25  1  0  0  0  0
 10 15  1  0  0  0  0
 10 11  2  0  0  0  0
 11 12  1  0  0  0  0
 11 26  1  0  0  0  0
 12 13  2  0  0  0  0
 13 14  1  0  0  0  0
 13 27  1  0  0  0  0
 14 15  2  0  0  0  0
 14 28  1  0  0  0  0
M  END
> <s_m_source_file>
AV-unprocessed.smi

> <i_m_source_file_index>
3101

> <i_lp_mmshare_version>
43012

> <i_f3d_flags>
0

> <s_epik_input>
W0NIM11bQ0BASF0xW0NIMl1bQ0gyXU9bQ0BIXTFDKD1PKVtOSF1jMltjSF1uW2NIXVtjSF1uMg==

> <s_epik_cmdline>
J2VwaWtfcHl0aG9uJywgJy1waCcsICc3LjAnLCAnLXRuJywgJzgnLCAnLW1hJywgJzIwMCcsICctbWV0YWxfYmluZGluZycsICctaW1hZScsICc8aW5maWxlLm1hZT4nLCAnLW9tYWUnLCAnPG91dGZpbGUubWFlPic=

> <r_lp_tautomer_probability>
1

> <r_epik_Ionization_Penalty>
2.83174e-06

> <r_epik_Ionization_Penalty_Charging>
0

> <r_epik_Ionization_Penalty_Neutral>
2.83174e-06

> <r_epik_State_Penalty>
-0

> <r_epik_Charging_Adjusted_Penalty>
0

> <i_epik_Tot_Q>
0

> <i_epik_Tot_abs_Q>
0

> <r_epik_Metal_State_Penalty>
-0

> <b_epik_Metal_Only>
0

> <s_lp_Force_Field>
OPLS_2005

> <r_lp_Energy>
26.5221

> <b_lp_Chiralities_Consistent>
1

> <s_lp_Variant>
AV-unprocessed.smi:3101-4

> <Gold.Version>
5.8.1

> <Gold.Id.Protein>
6NUR|6NUR_protein|mol2

> <Gold.PLP.Fitness>
39.3077

> <Gold.PLP.PLP>
-28.9746

> <Gold.PLP.part.hbond>
-2.0000

> <Gold.PLP.part.metal>
0.0000

> <Gold.PLP.part.buried>
-3.7870

> <Gold.PLP.part.nonpolar>
-24.0569

> <Gold.PLP.part.repulsive>
0.7021

> <Gold.PLP.ligand.clash>
0.0000

> <Gold.PLP.ligand.torsion>
0.2207

> <Gold.PLP.Chemscore.Hbond>
1.5807

> <Gold.PLP.Chemscore.CHOScore>
2.0101

> <Gold.PLP.Chemscore.Metal>
0.0000

> <Gold.Chemscore.Hbonds>
donor molecule, donor type, donor heavy atom, donor atom, acceptor molecule, acceptor atom, score
      P1  H  7989  7998       L1    15  0.85
      P1  H 10752 10763       L1    12  0.64
      L1  C    13    27       P1  7948  0.07
      L1  C    13    27       P1  7949  0.95
      L1  C    14    28       P1  7957  1.00

> <Gold.PLP.Chemscore.Internal.Correction>
0.0022

> <Gold.Rescore>
     Score         DG    S(hbond)    S(metal)    S(lipo)     H(rot)  DE(clash)    DE(int)     intcor
     10.38     -11.74       0.00        0.00      75.35       1.00       0.00       1.35       ----

> <Gold.Chemscore.Fitness>
10.3810

> <Gold.Chemscore.DG>
-11.7363

> <Gold.Chemscore.ZeroCoef>
-5.4800

> <Gold.Chemscore.Hbond>
0.0000

> <Gold.Chemscore.Metal>
0.0000

> <Gold.Chemscore.Lipo>
75.3531

> <Gold.Chemscore.Internal_Hbond>
0.0000

> <Gold.Chemscore.DEClash>
0.0021

> <Gold.Chemscore.DEInternal>
1.3532

> <Gold.Chemscore.Rot>
1.0000

> <Gold.Chemscore.Internal.Correction>
   9.000000E+99

> <Gold.Chemscore.Hbonds>
donor molecule, donor type, donor heavy atom, donor atom, acceptor molecule, acceptor atom, score
      P1  H  7989  7998       L1    15  0.05
      P1  H 10752 10763       L1    12  0.14

> <Gold.Chemscore.Hbond.Weighted>
-0.0000

> <Gold.Chemscore.Metal.Weighted>
-0.0000

> <Gold.Chemscore.Lipo.Weighted>
-8.8163

> <Gold.Chemscore.Internal_Hbond.Weighted>
0.0000

> <Gold.Chemscore.DEClash.Weighted>
0.0021

> <Gold.Chemscore.DEInternal.Weighted>
1.3532

> <Gold.Chemscore.Rot.Weighted>
2.5600

> <Gold.Chemscore.Internal.Correction.Weighted>
   9.000000E+99

> <Gold.Protein.RotatedTorsions>
[ 6907 6896 6895 6894 ] final -109.84 input  -60.11 | X-H torsion
[ 7974 7965 7964 7962 ] final -135.28 input  175.53 | X-H torsion
[ 8008 7997 7996 7995 ] final  144.88 input   59.86 | X-H torsion
[ 10167 10162 10161 10158 ] final   -0.94 input  -65.29 | X-H torsion
[ 10718 10713 10712 10709 ] final  147.03 input   66.30 | X-H torsion
[ 10763 10752 10751 10750 ] final   60.61 input  -60.55 | X-H torsion
[ 11005 11000 10999 10996 ] final   39.59 input  -57.11 | X-H torsion

> <Gold.Protein.ActiveResidues>
 VAL166  LYS551  ARG553  GLY616  TRP617  ASP618  TYR619  PRO620  LYS621  CYS622 
 ASP623  PHE694  ASN695  SER759  ASP760  ASP761  ALA762  ILE779  LEU786  VAL792 
 PHE793  MET794  SER795  GLU796  ALA797  LYS798  CYS799  TRP800  GLU811  SER814 

> <Gold.Protein.RotatedAtoms>
  150.7587  133.9470  159.3473 H   0  0  0  0  0  0  0  0  0  0  0  0  # atno 6907 bound_to 6896
  151.7384  135.0857  160.0321 H   0  0  0  0  0  0  0  0  0  0  0  0  # atno 6908 bound_to 6896
  152.3544  133.6182  159.6004 H   0  0  0  0  0  0  0  0  0  0  0  0  # atno 6909 bound_to 6896
  144.9028  140.6794  143.5074 H   0  0  0  0  0  0  0  0  0  0  0  0  # atno 7974 bound_to 7965
  156.2897  140.2224  156.5124 H   0  0  0  0  0  0  0  0  0  0  0  0  # atno 8008 bound_to 7997
  154.7597  140.0474  157.0985 H   0  0  0  0  0  0  0  0  0  0  0  0  # atno 8009 bound_to 7997
  155.0006  140.3101  155.4872 H   0  0  0  0  0  0  0  0  0  0  0  0  # atno 8010 bound_to 7997
  140.6789  143.6834  150.8086 H   0  0  0  0  0  0  0  0  0  0  0  0  # atno 10167 bound_to 10162
  157.3260  131.0912  151.1201 H   0  0  0  0  0  0  0  0  0  0  0  0  # atno 10718 bound_to 10713
  152.9926  135.5530  154.5901 H   0  0  0  0  0  0  0  0  0  0  0  0  # atno 10763 bound_to 10752
  154.5264  135.2811  155.1220 H   0  0  0  0  0  0  0  0  0  0  0  0  # atno 10764 bound_to 10752
  154.2553  135.6391  153.5307 H   0  0  0  0  0  0  0  0  0  0  0  0  # atno 10765 bound_to 10752
  140.2013  134.3867  155.8095 H   0  0  0  0  0  0  0  0  0  0  0  0  # atno 11005 bound_to 11000
  145.3587  139.1687  143.4395 LP  0  0  0  0  0  0  0  0  0  0  0  0  # atno 17320 bound_to 7965
  146.3118  140.3646  142.8668 LP  0  0  0  0  0  0  0  0  0  0  0  0  # atno 17321 bound_to 7965
  140.0532  143.5229  152.2664 LP  0  0  0  0  0  0  0  0  0  0  0  0  # atno 17342 bound_to 10162
  139.6098  144.7606  151.2977 LP  0  0  0  0  0  0  0  0  0  0  0  0  # atno 17343 bound_to 10162
  157.2468  130.6595  149.5914 LP  0  0  0  0  0  0  0  0  0  0  0  0  # atno 17370 bound_to 10713
  155.9690  130.4551  150.5874 LP  0  0  0  0  0  0  0  0  0  0  0  0  # atno 17371 bound_to 10713
  141.2227  133.7095  156.8262 LP  0  0  0  0  0  0  0  0  0  0  0  0  # atno 17394 bound_to 11000
  140.2051  134.8868  157.3213 LP  0  0  0  0  0  0  0  0  0  0  0  0  # atno 17395 bound_to 11000

$$$$
