AV-unprocessed.smi:826|AV-procd|sdf|3855|dock5
  -GOLD-   22720 1303D 1   1.00000     0.00000
 Structure written by MMmdl.
 38 39  0  0  0  0  0  0  0  0  2 V2000
  146.8071  134.1315  162.4223 C   0  0  0  0  0  0  0  0  0  0  0  0
  147.3279  135.2887  161.6410 C   0  0  0  0  0  0  0  0  0  0  0  0
  147.2474  136.5499  162.0721 N   0  0  0  0  0  0  0  0  0  0  0  0
  147.8057  137.4465  161.1724 N   0  0  0  0  0  0  0  0  0  0  0  0
  148.3102  136.8517  160.0820 C   0  0  0  0  0  0  0  0  0  0  0  0
  148.8977  137.5426  159.0912 N   0  5  0  0  0  0  0  0  0  0  0  0
  150.2242  137.8016  159.1444 C   0  0  0  0  0  0  0  0  0  0  0  0
  151.0799  137.1148  159.7080 O   0  0  0  0  0  0  0  0  0  0  0  0
  150.5845  138.9220  158.4999 N   0  0  0  0  0  0  0  0  0  0  0  0
  151.9466  139.4405  158.3789 C   0  0  1  0  0  0  0  0  0  0  0  0
  152.3978  139.2582  156.9196 C   0  0  0  0  0  0  0  0  0  0  0  0
  151.9793  140.9407  158.7099 C   0  0  0  0  0  0  0  0  0  0  0  0
  151.0882  141.6922  158.3109 O   0  0  0  0  0  0  0  0  0  0  0  0
  153.0313  141.3636  159.4268 N   0  0  0  0  0  0  0  0  0  0  0  0
  153.2699  142.7447  159.8351 C   0  0  0  0  0  0  0  0  0  0  0  0
  152.2489  143.2054  160.8968 C   0  0  0  0  0  0  0  0  0  0  0  0
  151.6585  144.5196  160.3805 C   0  0  0  0  0  0  0  0  0  0  0  0
  151.7727  144.4189  158.8625 C   0  0  0  0  0  0  0  0  0  0  0  0
  153.1011  143.6971  158.6381 C   0  0  0  0  0  0  0  0  0  0  0  0
  148.1040  135.1001  160.0783 S   0  0  0  0  0  0  0  0  0  0  0  0
  147.6104  133.6914  163.0132 H   0  0  0  0  0  0  0  0  0  0  0  0
  146.4102  133.3721  161.7486 H   0  0  0  0  0  0  0  0  0  0  0  0
  146.0103  134.4515  163.0946 H   0  0  0  0  0  0  0  0  0  0  0  0
  149.8520  139.4602  158.0613 H   0  0  0  0  0  0  0  0  0  0  0  0
  152.6195  138.8872  159.0373 H   0  0  0  0  0  0  0  0  0  0  0  0
  153.4116  139.6311  156.7693 H   0  0  0  0  0  0  0  0  0  0  0  0
  151.7428  139.7805  156.2205 H   0  0  0  0  0  0  0  0  0  0  0  0
  152.3967  138.2036  156.6431 H   0  0  0  0  0  0  0  0  0  0  0  0
  153.7118  140.6766  159.7162 H   0  0  0  0  0  0  0  0  0  0  0  0
  154.2872  142.8402  160.2195 H   0  0  0  0  0  0  0  0  0  0  0  0
  151.4474  142.4726  161.0046 H   0  0  0  0  0  0  0  0  0  0  0  0
  152.7065  143.3255  161.8792 H   0  0  0  0  0  0  0  0  0  0  0  0
  150.6333  144.6790  160.7154 H   0  0  0  0  0  0  0  0  0  0  0  0
  152.2592  145.3573  160.7373 H   0  0  0  0  0  0  0  0  0  0  0  0
  150.9541  143.8139  158.4706 H   0  0  0  0  0  0  0  0  0  0  0  0
  151.7354  145.3919  158.3717 H   0  0  0  0  0  0  0  0  0  0  0  0
  153.9102  144.4288  158.6466 H   0  0  0  0  0  0  0  0  0  0  0  0
  153.1388  143.1919  157.6720 H   0  0  0  0  0  0  0  0  0  0  0  0
  1  2  1  0  0  0  0
  1 21  1  0  0  0  0
  1 22  1  0  0  0  0
  1 23  1  0  0  0  0
  2 20  1  0  0  0  0
  2  3  2  0  0  0  0
  3  4  1  0  0  0  0
  4  5  2  0  0  0  0
  5  6  1  0  0  0  0
  5 20  1  0  0  0  0
  6  7  1  0  0  0  0
  7  8  2  0  0  0  0
  7  9  1  0  0  0  0
  9 10  1  0  0  0  0
  9 24  1  0  0  0  0
 10 11  1  0  0  0  0
 10 12  1  0  0  0  0
 10 25  1  0  0  0  0
 11 26  1  0  0  0  0
 11 27  1  0  0  0  0
 11 28  1  0  0  0  0
 12 13  2  0  0  0  0
 12 14  1  0  0  0  0
 14 15  1  0  0  0  0
 14 29  1  0  0  0  0
 15 19  1  0  0  0  0
 15 16  1  0  0  0  0
 15 30  1  0  0  0  0
 16 17  1  0  0  0  0
 16 31  1  0  0  0  0
 16 32  1  0  0  0  0
 17 18  1  0  0  0  0
 17 33  1  0  0  0  0
 17 34  1  0  0  0  0
 18 19  1  0  0  0  0
 18 35  1  0  0  0  0
 18 36  1  0  0  0  0
 19 37  1  0  0  0  0
 19 38  1  0  0  0  0
M  CHG  1   6  -1
M  END
> <s_m_source_file>
AV-unprocessed.smi

> <i_m_source_file_index>
826

> <i_lp_mmshare_version>
43012

> <i_f3d_flags>
0

> <s_epik_input>
W0NIM11jMW5uYyhzMSlbTkhdQyg9TylbTkhdW0NASF0oW0NIM10pQyg9TylbTkhdW0NIXTJbQ0gyXVtDSDJdW0NIMl1bQ0gyXTI=

> <s_epik_cmdline>
J2VwaWtfcHl0aG9uJywgJy1waCcsICc3LjAnLCAnLXRuJywgJzgnLCAnLW1hJywgJzIwMCcsICctbWV0YWxfYmluZGluZycsICctaW1hZScsICc8aW5maWxlLm1hZT4nLCAnLW9tYWUnLCAnPG91dGZpbGUubWFlPic=

> <r_lp_tautomer_probability>
1

> <r_epik_Ionization_Penalty>
3.15008

> <r_epik_Ionization_Penalty_Charging>
3.01509

> <r_epik_Ionization_Penalty_Neutral>
0.134987

> <r_epik_State_Penalty>
3.01143

> <r_epik_Charging_Adjusted_Penalty>
6.02652

> <i_epik_Tot_Q>
-1

> <i_epik_Tot_abs_Q>
1

> <r_epik_Metal_State_Penalty>
0.454645

> <b_epik_Metal_Only>
1

> <s_lp_Force_Field>
OPLS_2005

> <r_lp_Energy>
16.5176

> <b_lp_Chiralities_Consistent>
1

> <s_lp_Variant>
AV-unprocessed.smi:826-4

> <Gold.Version>
5.8.1

> <Gold.Id.Protein>
6NUR|6NUR_protein|mol2

> <Gold.PLP.Fitness>
45.5981

> <Gold.PLP.PLP>
-40.6245

> <Gold.PLP.part.hbond>
-3.0000

> <Gold.PLP.part.metal>
0.0000

> <Gold.PLP.part.buried>
-5.6736

> <Gold.PLP.part.nonpolar>
-32.5915

> <Gold.PLP.part.repulsive>
0.2593

> <Gold.PLP.ligand.clash>
0.0000

> <Gold.PLP.ligand.torsion>
1.6472

> <Gold.PLP.Chemscore.Hbond>
2.7280

> <Gold.PLP.Chemscore.CHOScore>
0.0000

> <Gold.PLP.Chemscore.Metal>
0.0000

> <Gold.Chemscore.Hbonds>
donor molecule, donor type, donor heavy atom, donor atom, acceptor molecule, acceptor atom, score
      P1  H  6896  6909       L1     8  0.99
      P1  H  6931  6943       L1     4  0.83
      P1  H  6934  6947       L1     4  0.75

> <Gold.PLP.Chemscore.Internal.Correction>
0.0839

> <Gold.Rescore>
     Score         DG    S(hbond)    S(metal)    S(lipo)     H(rot)  DE(clash)    DE(int)     intcor
     15.63     -19.77       2.32        0.00      91.40       1.62       0.01       4.13       ----

> <Gold.Chemscore.Fitness>
15.6284

> <Gold.Chemscore.DG>
-19.7693

> <Gold.Chemscore.ZeroCoef>
-5.4800

> <Gold.Chemscore.Hbond>
2.3181

> <Gold.Chemscore.Metal>
0.0000

> <Gold.Chemscore.Lipo>
91.4045

> <Gold.Chemscore.Internal_Hbond>
0.0000

> <Gold.Chemscore.DEClash>
0.0073

> <Gold.Chemscore.DEInternal>
4.1336

> <Gold.Chemscore.Rot>
1.6201

> <Gold.Chemscore.Internal.Correction>
   9.000000E+99

> <Gold.Chemscore.Hbonds>
donor molecule, donor type, donor heavy atom, donor atom, acceptor molecule, acceptor atom, score
      P1  H  6896  6909       L1     8  0.92
      P1  H  6931  6943       L1     4  0.40
      P1  H  6934  6947       L1     4  0.68

> <Gold.Chemscore.Hbond.Weighted>
-7.7424

> <Gold.Chemscore.Metal.Weighted>
-0.0000

> <Gold.Chemscore.Lipo.Weighted>
-10.6943

> <Gold.Chemscore.Internal_Hbond.Weighted>
0.0000

> <Gold.Chemscore.DEClash.Weighted>
0.0073

> <Gold.Chemscore.DEInternal.Weighted>
4.1336

> <Gold.Chemscore.Rot.Weighted>
4.1475

> <Gold.Chemscore.Internal.Correction.Weighted>
   9.000000E+99

> <Gold.Protein.RotatedTorsions>
[ 6907 6896 6895 6894 ] final   91.84 input  -60.11 | X-H torsion
[ 7974 7965 7964 7962 ] final -101.19 input  175.53 | X-H torsion
[ 8008 7997 7996 7995 ] final -112.36 input   59.86 | X-H torsion
[ 10167 10162 10161 10158 ] final  168.88 input  -65.29 | X-H torsion
[ 10718 10713 10712 10709 ] final  -49.34 input   66.30 | X-H torsion
[ 10763 10752 10751 10750 ] final  -39.34 input  -60.55 | X-H torsion
[ 11005 11000 10999 10996 ] final   61.70 input  -57.11 | X-H torsion

> <Gold.Protein.ActiveResidues>
 VAL166  LYS551  ARG553  GLY616  TRP617  ASP618  TYR619  PRO620  LYS621  CYS622 
 ASP623  PHE694  ASN695  SER759  ASP760  ASP761  ALA762  ILE779  LEU786  VAL792 
 PHE793  MET794  SER795  GLU796  ALA797  LYS798  CYS799  TRP800  GLU811  SER814 

> <Gold.Protein.RotatedAtoms>
  152.5451  134.1595  159.8551 H   0  0  0  0  0  0  0  0  0  0  0  0  # atno 6907 bound_to 6896
  151.1614  133.4835  159.2601 H   0  0  0  0  0  0  0  0  0  0  0  0  # atno 6908 bound_to 6896
  151.1369  135.0170  159.8663 H   0  0  0  0  0  0  0  0  0  0  0  0  # atno 6909 bound_to 6896
  145.2848  140.9336  143.2911 H   0  0  0  0  0  0  0  0  0  0  0  0  # atno 7974 bound_to 7965
  155.0041  140.0394  157.2372 H   0  0  0  0  0  0  0  0  0  0  0  0  # atno 8008 bound_to 7997
  154.7518  140.2768  155.6263 H   0  0  0  0  0  0  0  0  0  0  0  0  # atno 8009 bound_to 7997
  156.2886  140.2645  156.2273 H   0  0  0  0  0  0  0  0  0  0  0  0  # atno 8010 bound_to 7997
  139.4978  144.3766  151.9667 H   0  0  0  0  0  0  0  0  0  0  0  0  # atno 10167 bound_to 10162
  156.1902  130.4152  149.9382 H   0  0  0  0  0  0  0  0  0  0  0  0  # atno 10718 bound_to 10713
  153.9278  135.6775  153.4746 H   0  0  0  0  0  0  0  0  0  0  0  0  # atno 10763 bound_to 10752
  153.0995  135.4835  154.8838 H   0  0  0  0  0  0  0  0  0  0  0  0  # atno 10764 bound_to 10752
  154.7444  135.3169  154.8628 H   0  0  0  0  0  0  0  0  0  0  0  0  # atno 10765 bound_to 10752
  140.0143  134.6249  155.9734 H   0  0  0  0  0  0  0  0  0  0  0  0  # atno 11005 bound_to 11000
  144.9223  139.4397  143.6535 LP  0  0  0  0  0  0  0  0  0  0  0  0  # atno 17320 bound_to 7965
  146.3204  139.8089  142.8950 LP  0  0  0  0  0  0  0  0  0  0  0  0  # atno 17321 bound_to 7965
  140.3203  144.3436  150.6011 LP  0  0  0  0  0  0  0  0  0  0  0  0  # atno 17342 bound_to 10162
  140.5728  143.2179  151.7568 LP  0  0  0  0  0  0  0  0  0  0  0  0  # atno 17343 bound_to 10162
  156.7125  130.8975  151.3610 LP  0  0  0  0  0  0  0  0  0  0  0  0  # atno 17370 bound_to 10713
  157.6924  130.9247  150.0551 LP  0  0  0  0  0  0  0  0  0  0  0  0  # atno 17371 bound_to 10713
  141.1732  133.6538  156.4729 LP  0  0  0  0  0  0  0  0  0  0  0  0  # atno 17394 bound_to 11000
  140.4499  134.6938  157.5034 LP  0  0  0  0  0  0  0  0  0  0  0  0  # atno 17395 bound_to 11000

$$$$
