AV-unprocessed.smi:2806|AV-procd|sdf|10815|dock7
  -GOLD-   2272015253D 1   1.00000     0.00000
 Structure written by MMmdl.
 47 48  0  0  0  0  0  0  0  0  1 V2000
  147.4313  132.4313  154.8664 C   0  0  0  0  0  0  0  0  0  0  0  0
  148.3875  132.3878  153.6623 C   0  0  0  0  0  0  0  0  0  0  0  0
  148.7329  130.9187  153.3616 C   0  0  0  0  0  0  0  0  0  0  0  0
  147.6873  133.0268  152.4490 C   0  0  0  0  0  0  0  0  0  0  0  0
  149.8809  133.3453  154.1096 S   0  0  0  0  0  0  0  0  0  0  0  0
  149.2732  134.9385  154.7536 C   0  0  0  0  0  0  0  0  0  0  0  0
  150.3696  135.9833  154.9665 C   0  0  0  0  0  0  0  0  0  0  0  0
  151.2563  135.7950  155.7996 O   0  0  0  0  0  0  0  0  0  0  0  0
  150.3055  137.0786  154.1944 N   0  0  0  0  0  0  0  0  0  0  0  0
  151.2936  138.1503  154.1936 C   0  0  0  0  0  0  0  0  0  0  0  0
  150.7758  139.4247  154.8377 C   0  0  0  0  0  0  0  0  0  0  0  0
  149.5994  140.0399  154.3682 C   0  0  0  0  0  0  0  0  0  0  0  0
  149.1637  141.2171  155.0034 C   0  0  0  0  0  0  0  0  0  0  0  0
  149.8179  141.7857  156.0378 N   0  0  0  0  0  0  0  0  0  0  0  0
  150.9502  141.2002  156.5009 C   0  0  0  0  0  0  0  0  0  0  0  0
  151.6250  141.8103  157.5805 N   0  0  0  0  0  0  0  0  0  0  0  0
  151.3408  143.2160  157.8638 C   0  0  0  0  0  0  0  0  0  0  0  0
  152.3739  143.7819  158.8527 C   0  0  0  0  0  0  0  0  0  0  0  0
  152.4044  142.9786  160.0278 O   0  0  0  0  0  0  0  0  0  0  0  0
  152.7884  141.6375  159.7433 C   0  0  0  0  0  0  0  0  0  0  0  0
  151.7698  140.9973  158.7851 C   0  0  0  0  0  0  0  0  0  0  0  0
  151.4621  140.0157  155.9194 C   0  0  0  0  0  0  0  0  0  0  0  0
  146.5094  131.8841  154.6657 H   0  0  0  0  0  0  0  0  0  0  0  0
  147.1557  133.4562  155.1177 H   0  0  0  0  0  0  0  0  0  0  0  0
  147.8895  131.9881  155.7515 H   0  0  0  0  0  0  0  0  0  0  0  0
  149.3278  130.4747  154.1606 H   0  0  0  0  0  0  0  0  0  0  0  0
  149.2894  130.8165  152.4313 H   0  0  0  0  0  0  0  0  0  0  0  0
  147.8288  130.3193  153.2548 H   0  0  0  0  0  0  0  0  0  0  0  0
  146.7407  132.5292  152.2351 H   0  0  0  0  0  0  0  0  0  0  0  0
  148.2915  132.9612  151.5453 H   0  0  0  0  0  0  0  0  0  0  0  0
  147.4707  134.0808  152.6268 H   0  0  0  0  0  0  0  0  0  0  0  0
  148.4807  135.3283  154.1165 H   0  0  0  0  0  0  0  0  0  0  0  0
  148.8183  134.7462  155.7254 H   0  0  0  0  0  0  0  0  0  0  0  0
  149.5436  137.1565  153.5366 H   0  0  0  0  0  0  0  0  0  0  0  0
  152.1669  137.8116  154.7514 H   0  0  0  0  0  0  0  0  0  0  0  0
  151.6353  138.3477  153.1760 H   0  0  0  0  0  0  0  0  0  0  0  0
  149.0397  139.6217  153.5447 H   0  0  0  0  0  0  0  0  0  0  0  0
  148.2662  141.7174  154.6710 H   0  0  0  0  0  0  0  0  0  0  0  0
  151.3653  143.8006  156.9432 H   0  0  0  0  0  0  0  0  0  0  0  0
  150.3367  143.3044  158.2811 H   0  0  0  0  0  0  0  0  0  0  0  0
  153.3658  143.8201  158.3993 H   0  0  0  0  0  0  0  0  0  0  0  0
  152.1101  144.8034  159.1270 H   0  0  0  0  0  0  0  0  0  0  0  0
  153.7918  141.6172  159.3145 H   0  0  0  0  0  0  0  0  0  0  0  0
  152.8297  141.0751  160.6763 H   0  0  0  0  0  0  0  0  0  0  0  0
  150.7981  140.9252  159.2746 H   0  0  0  0  0  0  0  0  0  0  0  0
  152.0868  139.9814  158.5546 H   0  0  0  0  0  0  0  0  0  0  0  0
  152.3750  139.5658  156.2804 H   0  0  0  0  0  0  0  0  0  0  0  0
  1  2  1  0  0  0  0
  1 23  1  0  0  0  0
  1 24  1  0  0  0  0
  1 25  1  0  0  0  0
  2  3  1  0  0  0  0
  2  4  1  0  0  0  0
  2  5  1  0  0  0  0
  3 26  1  0  0  0  0
  3 27  1  0  0  0  0
  3 28  1  0  0  0  0
  4 29  1  0  0  0  0
  4 30  1  0  0  0  0
  4 31  1  0  0  0  0
  5  6  1  0  0  0  0
  6  7  1  0  0  0  0
  6 32  1  0  0  0  0
  6 33  1  0  0  0  0
  7  8  2  0  0  0  0
  7  9  1  0  0  0  0
  9 10  1  0  0  0  0
  9 34  1  0  0  0  0
 10 11  1  0  0  0  0
 10 35  1  0  0  0  0
 10 36  1  0  0  0  0
 11 22  1  0  0  0  0
 11 12  2  0  0  0  0
 12 13  1  0  0  0  0
 12 37  1  0  0  0  0
 13 14  2  0  0  0  0
 13 38  1  0  0  0  0
 14 15  1  0  0  0  0
 15 16  1  0  0  0  0
 15 22  2  0  0  0  0
 16 21  1  0  0  0  0
 16 17  1  0  0  0  0
 17 18  1  0  0  0  0
 17 39  1  0  0  0  0
 17 40  1  0  0  0  0
 18 19  1  0  0  0  0
 18 41  1  0  0  0  0
 18 42  1  0  0  0  0
 19 20  1  0  0  0  0
 20 21  1  0  0  0  0
 20 43  1  0  0  0  0
 20 44  1  0  0  0  0
 21 45  1  0  0  0  0
 21 46  1  0  0  0  0
 22 47  1  0  0  0  0
M  END
> <s_m_source_file>
AV-unprocessed.smi

> <i_m_source_file_index>
2806

> <i_lp_mmshare_version>
43012

> <i_f3d_flags>
0

> <s_epik_input>
W0NIM11DKFtDSDNdKShbQ0gzXSlTW0NIMl1DKD1PKVtOSF1bQ0gyXWMxW2NIXVtjSF1uYyhbY0hdMSlOMltDSDJdW0NIMl1PW0NIMl1bQ0gyXTI=

> <s_epik_cmdline>
J2VwaWtfcHl0aG9uJywgJy1waCcsICc3LjAnLCAnLXRuJywgJzgnLCAnLW1hJywgJzIwMCcsICctbWV0YWxfYmluZGluZycsICctaW1hZScsICc8aW5maWxlLm1hZT4nLCAnLW9tYWUnLCAnPG91dGZpbGUubWFlPic=

> <r_lp_tautomer_probability>
1

> <r_epik_Ionization_Penalty>
0.00423361

> <r_epik_Ionization_Penalty_Charging>
0

> <r_epik_Ionization_Penalty_Neutral>
0.00423361

> <r_epik_State_Penalty>
0.00304279

> <r_epik_Charging_Adjusted_Penalty>
0.00304279

> <i_epik_Tot_Q>
0

> <i_epik_Tot_abs_Q>
0

> <r_epik_Metal_State_Penalty>
-0

> <b_epik_Metal_Only>
0

> <s_lp_Force_Field>
OPLS_2005

> <r_lp_Energy>
13.38

> <b_lp_Chiralities_Consistent>
1

> <s_lp_Variant>
AV-unprocessed.smi:2806-1

> <Gold.Version>
5.8.1

> <Gold.Id.Protein>
6NUR|6NUR_protein|mol2

> <Gold.PLP.Fitness>
49.3858

> <Gold.PLP.PLP>
-44.5207

> <Gold.PLP.part.hbond>
-2.8370

> <Gold.PLP.part.metal>
0.0000

> <Gold.PLP.part.buried>
-4.1645

> <Gold.PLP.part.nonpolar>
-38.2484

> <Gold.PLP.part.repulsive>
0.2353

> <Gold.PLP.ligand.clash>
0.0000

> <Gold.PLP.ligand.torsion>
0.4710

> <Gold.PLP.Chemscore.Hbond>
1.8001

> <Gold.PLP.Chemscore.CHOScore>
0.0000

> <Gold.PLP.Chemscore.Metal>
0.0000

> <Gold.Chemscore.Hbonds>
donor molecule, donor type, donor heavy atom, donor atom, acceptor molecule, acceptor atom, score
      L1  H     9    34       P1  7948  0.72
      P1  H 10752 10764       L1     8  1.00

> <Gold.PLP.Chemscore.Internal.Correction>
0.4067

> <Gold.Rescore>
     Score         DG    S(hbond)    S(metal)    S(lipo)     H(rot)  DE(clash)    DE(int)     intcor
     16.60     -17.67       1.17        0.00     108.50       1.73       0.31       0.76       ----

> <Gold.Chemscore.Fitness>
16.6035

> <Gold.Chemscore.DG>
-17.6672

> <Gold.Chemscore.ZeroCoef>
-5.4800

> <Gold.Chemscore.Hbond>
1.1748

> <Gold.Chemscore.Metal>
0.0000

> <Gold.Chemscore.Lipo>
108.4979

> <Gold.Chemscore.Internal_Hbond>
0.0000

> <Gold.Chemscore.DEClash>
0.3064

> <Gold.Chemscore.DEInternal>
0.7573

> <Gold.Chemscore.Rot>
1.7308

> <Gold.Chemscore.Internal.Correction>
   9.000000E+99

> <Gold.Chemscore.Hbonds>
donor molecule, donor type, donor heavy atom, donor atom, acceptor molecule, acceptor atom, score
      L1  H     9    34       P1  7948  0.62
      P1  H 10752 10764       L1     8  0.52

> <Gold.Chemscore.Hbond.Weighted>
-3.9238

> <Gold.Chemscore.Metal.Weighted>
-0.0000

> <Gold.Chemscore.Lipo.Weighted>
-12.6943

> <Gold.Chemscore.Internal_Hbond.Weighted>
0.0000

> <Gold.Chemscore.DEClash.Weighted>
0.3064

> <Gold.Chemscore.DEInternal.Weighted>
0.7573

> <Gold.Chemscore.Rot.Weighted>
4.4309

> <Gold.Chemscore.Internal.Correction.Weighted>
   9.000000E+99

> <Gold.Protein.RotatedTorsions>
[ 6907 6896 6895 6894 ] final  149.74 input  -60.11 | X-H torsion
[ 7974 7965 7964 7962 ] final  -70.65 input  175.53 | X-H torsion
[ 8008 7997 7996 7995 ] final  -24.05 input   59.86 | X-H torsion
[ 10167 10162 10161 10158 ] final -125.92 input  -65.29 | X-H torsion
[ 10718 10713 10712 10709 ] final   51.89 input   66.30 | X-H torsion
[ 10763 10752 10751 10750 ] final  -50.11 input  -60.55 | X-H torsion
[ 11005 11000 10999 10996 ] final   53.13 input  -57.11 | X-H torsion

> <Gold.Protein.ActiveResidues>
 VAL166  LYS551  ARG553  GLY616  TRP617  ASP618  TYR619  PRO620  LYS621  CYS622 
 ASP623  PHE694  ASN695  SER759  ASP760  ASP761  ALA762  ILE779  LEU786  VAL792 
 PHE793  MET794  SER795  GLU796  ALA797  LYS798  CYS799  TRP800  GLU811  SER814 

> <Gold.Protein.RotatedAtoms>
  152.1239  133.4369  159.4688 H   0  0  0  0  0  0  0  0  0  0  0  0  # atno 6907 bound_to 6896
  150.6873  134.2502  159.4517 H   0  0  0  0  0  0  0  0  0  0  0  0  # atno 6908 bound_to 6896
  152.0381  134.9727  160.0624 H   0  0  0  0  0  0  0  0  0  0  0  0  # atno 6909 bound_to 6896
  145.6882  140.9163  143.0795 H   0  0  0  0  0  0  0  0  0  0  0  0  # atno 7974 bound_to 7965
  154.4551  140.1964  156.0404 H   0  0  0  0  0  0  0  0  0  0  0  0  # atno 8008 bound_to 7997
  156.0729  140.3282  155.7570 H   0  0  0  0  0  0  0  0  0  0  0  0  # atno 8009 bound_to 7997
  155.5235  140.0572  157.2893 H   0  0  0  0  0  0  0  0  0  0  0  0  # atno 8010 bound_to 7997
  139.9770  143.5784  152.2392 H   0  0  0  0  0  0  0  0  0  0  0  0  # atno 10167 bound_to 10162
  157.5023  130.8446  149.8332 H   0  0  0  0  0  0  0  0  0  0  0  0  # atno 10718 bound_to 10713
  154.1050  135.6557  153.4875 H   0  0  0  0  0  0  0  0  0  0  0  0  # atno 10763 bound_to 10752
  153.0275  135.5234  154.7248 H   0  0  0  0  0  0  0  0  0  0  0  0  # atno 10764 bound_to 10752
  154.6412  135.2988  155.0071 H   0  0  0  0  0  0  0  0  0  0  0  0  # atno 10765 bound_to 10752
  140.0792  134.5362  155.8964 H   0  0  0  0  0  0  0  0  0  0  0  0  # atno 11005 bound_to 11000
  144.7004  139.8787  143.7445 LP  0  0  0  0  0  0  0  0  0  0  0  0  # atno 17320 bound_to 7965
  146.0905  139.3894  143.0409 LP  0  0  0  0  0  0  0  0  0  0  0  0  # atno 17321 bound_to 7965
  139.6438  144.7657  151.2285 LP  0  0  0  0  0  0  0  0  0  0  0  0  # atno 17342 bound_to 10162
  140.7502  143.6273  150.8456 LP  0  0  0  0  0  0  0  0  0  0  0  0  # atno 17343 bound_to 10162
  156.0237  130.3787  150.1886 LP  0  0  0  0  0  0  0  0  0  0  0  0  # atno 17370 bound_to 10713
  157.0076  130.9941  151.3374 LP  0  0  0  0  0  0  0  0  0  0  0  0  # atno 17371 bound_to 10713
  141.2041  133.6636  156.6099 LP  0  0  0  0  0  0  0  0  0  0  0  0  # atno 17394 bound_to 11000
  140.3512  134.7767  157.4468 LP  0  0  0  0  0  0  0  0  0  0  0  0  # atno 17395 bound_to 11000

$$$$
