AV-unprocessed.smi:438|AV-procd|sdf|2565|dock7
  -GOLD-   2262022543D 1   1.00000     0.00000
 Structure written by MMmdl.
 48 49  0  0  0  0  0  0  0  0  1 V2000
  145.3674  134.8490  150.9545 C   0  0  0  0  0  0  0  0  0  0  0  0
  146.0213  133.7158  151.7248 C   0  0  0  0  0  0  0  0  0  0  0  0
  146.7983  134.1009  152.8247 N   0  0  0  0  0  0  0  0  0  0  0  0
  147.3929  133.2047  153.5452 C   0  0  0  0  0  0  0  0  0  0  0  0
  148.4356  133.4181  155.0149 S   0  0  0  0  0  0  0  0  0  0  0  0
  149.8093  134.3941  154.3389 C   0  0  0  0  0  0  0  0  0  0  0  0
  150.7437  134.8994  155.4330 C   0  0  0  0  0  0  0  0  0  0  0  0
  151.2379  134.1112  156.2384 O   0  0  0  0  0  0  0  0  0  0  0  0
  150.9683  136.2220  155.4522 N   0  0  0  0  0  0  0  0  0  0  0  0
  151.7756  136.9394  156.4382 C   0  0  2  0  0  0  0  0  0  0  0  0
  151.1098  136.8867  157.8308 C   0  0  0  0  0  0  0  0  0  0  0  0
  149.8144  137.7153  157.8846 C   0  0  0  0  0  0  0  0  0  0  0  0
  150.0650  139.1666  157.4484 C   0  0  0  0  0  0  0  0  0  0  0  0
  150.7146  139.2303  156.0567 C   0  0  0  0  0  0  0  0  0  0  0  0
  152.0174  138.4046  155.9983 C   0  0  2  0  0  0  0  0  0  0  0  0
  152.6929  138.5098  154.6200 C   0  0  0  0  0  0  0  0  0  0  0  0
  147.2729  131.8505  153.2317 N   0  0  0  0  0  0  0  0  0  0  0  0
  146.5512  131.3770  152.1919 C   0  0  0  0  0  0  0  0  0  0  0  0
  146.4936  130.1683  151.9718 O   0  0  0  0  0  0  0  0  0  0  0  0
  145.8752  132.4050  151.3829 C   0  0  0  0  0  0  0  0  0  0  0  0
  145.0205  131.9360  150.2087 C   0  0  0  0  0  0  0  0  0  0  0  0
  143.5416  132.3117  150.3801 C   0  0  0  0  0  0  0  0  0  0  0  0
  142.8425  132.0579  149.1810 O   0  0  0  0  0  0  0  0  0  0  0  0
  145.5973  134.7752  149.8914 H   0  0  0  0  0  0  0  0  0  0  0  0
  145.7198  135.8203  151.3040 H   0  0  0  0  0  0  0  0  0  0  0  0
  144.2849  134.8199  151.0800 H   0  0  0  0  0  0  0  0  0  0  0  0
  149.4128  135.2492  153.7904 H   0  0  0  0  0  0  0  0  0  0  0  0
  150.3669  133.7840  153.6270 H   0  0  0  0  0  0  0  0  0  0  0  0
  150.5191  136.7847  154.7442 H   0  0  0  0  0  0  0  0  0  0  0  0
  152.7473  136.4466  156.5052 H   0  0  0  0  0  0  0  0  0  0  0  0
  150.9039  135.8549  158.1183 H   0  0  0  0  0  0  0  0  0  0  0  0
  151.8086  137.2707  158.5747 H   0  0  0  0  0  0  0  0  0  0  0  0
  149.0591  137.2636  157.2402 H   0  0  0  0  0  0  0  0  0  0  0  0
  149.4052  137.6975  158.8950 H   0  0  0  0  0  0  0  0  0  0  0  0
  149.1262  139.7213  157.4460 H   0  0  0  0  0  0  0  0  0  0  0  0
  150.7120  139.6593  158.1755 H   0  0  0  0  0  0  0  0  0  0  0  0
  150.0085  138.8678  155.3084 H   0  0  0  0  0  0  0  0  0  0  0  0
  150.9219  140.2702  155.8017 H   0  0  0  0  0  0  0  0  0  0  0  0
  152.7093  138.8437  156.7188 H   0  0  0  0  0  0  0  0  0  0  0  0
  152.0442  138.1489  153.8213 H   0  0  0  0  0  0  0  0  0  0  0  0
  153.6141  137.9274  154.5901 H   0  0  0  0  0  0  0  0  0  0  0  0
  152.9512  139.5439  154.3908 H   0  0  0  0  0  0  0  0  0  0  0  0
  147.7537  131.1779  153.8112 H   0  0  0  0  0  0  0  0  0  0  0  0
  145.1106  130.8571  150.0840 H   0  0  0  0  0  0  0  0  0  0  0  0
  145.4110  132.3627  149.2836 H   0  0  0  0  0  0  0  0  0  0  0  0
  143.0877  131.7330  151.1851 H   0  0  0  0  0  0  0  0  0  0  0  0
  143.4351  133.3665  150.6350 H   0  0  0  0  0  0  0  0  0  0  0  0
  142.1553  132.7005  149.0917 H   0  0  0  0  0  0  0  0  0  0  0  0
  1 24  1  0  0  0  0
  1 25  1  0  0  0  0
  1 26  1  0  0  0  0
  1  2  1  0  0  0  0
  2 20  2  0  0  0  0
  2  3  1  0  0  0  0
  3  4  2  0  0  0  0
  4  5  1  0  0  0  0
  4 17  1  0  0  0  0
  5  6  1  0  0  0  0
  6  7  1  0  0  0  0
  6 27  1  0  0  0  0
  6 28  1  0  0  0  0
  7  8  2  0  0  0  0
  7  9  1  0  0  0  0
  9 10  1  0  0  0  0
  9 29  1  0  0  0  0
 10 15  1  0  0  0  0
 10 11  1  0  0  0  0
 10 30  1  0  0  0  0
 11 12  1  0  0  0  0
 11 31  1  0  0  0  0
 11 32  1  0  0  0  0
 12 13  1  0  0  0  0
 12 33  1  0  0  0  0
 12 34  1  0  0  0  0
 13 14  1  0  0  0  0
 13 35  1  0  0  0  0
 13 36  1  0  0  0  0
 14 15  1  0  0  0  0
 14 37  1  0  0  0  0
 14 38  1  0  0  0  0
 15 16  1  0  0  0  0
 15 39  1  0  0  0  0
 16 40  1  0  0  0  0
 16 41  1  0  0  0  0
 16 42  1  0  0  0  0
 17 43  1  0  0  0  0
 17 18  1  0  0  0  0
 18 19  2  0  0  0  0
 18 20  1  0  0  0  0
 20 21  1  0  0  0  0
 21 22  1  0  0  0  0
 21 44  1  0  0  0  0
 21 45  1  0  0  0  0
 22 23  1  0  0  0  0
 22 46  1  0  0  0  0
 22 47  1  0  0  0  0
 23 48  1  0  0  0  0
M  END
> <s_m_source_file>
AV-unprocessed.smi

> <i_m_source_file_index>
438

> <i_lp_mmshare_version>
43012

> <i_f3d_flags>
0

> <s_epik_input>
W09IXVtDSDJdW0NIMl1jMWMoW09IXSluYyhuYzFbQ0gzXSlTW0NIMl1DKD1PKVtOSF1bQ0BASF0yW0NIMl1bQ0gyXVtDSDJdW0NIMl1bQ0BIXTJbQ0gzXQ==

> <s_epik_cmdline>
J2VwaWtfcHl0aG9uJywgJy1waCcsICc3LjAnLCAnLXRuJywgJzgnLCAnLW1hJywgJzIwMCcsICctbWV0YWxfYmluZGluZycsICctaW1hZScsICc8aW5maWxlLm1hZT4nLCAnLW9tYWUnLCAnPG91dGZpbGUubWFlPic=

> <r_lp_tautomer_probability>
0.660323

> <r_epik_Ionization_Penalty>
0.00860626

> <r_epik_Ionization_Penalty_Charging>
0.00860522

> <r_epik_Ionization_Penalty_Neutral>
1.04215e-06

> <r_epik_State_Penalty>
0.156825

> <r_epik_Charging_Adjusted_Penalty>
0.16543

> <i_epik_Tot_Q>
0

> <i_epik_Tot_abs_Q>
0

> <r_epik_Metal_State_Penalty>
0.752038

> <b_epik_Metal_Only>
0

> <s_lp_Force_Field>
OPLS_2005

> <r_lp_Energy>
12.4019

> <b_lp_Chiralities_Consistent>
1

> <s_lp_Variant>
AV-unprocessed.smi:438-3

> <Gold.Version>
5.8.1

> <Gold.Id.Protein>
6NUR|6NUR_protein|mol2

> <Gold.PLP.Fitness>
41.4123

> <Gold.PLP.PLP>
-36.1503

> <Gold.PLP.part.hbond>
-3.0000

> <Gold.PLP.part.metal>
0.0000

> <Gold.PLP.part.buried>
-7.4982

> <Gold.PLP.part.nonpolar>
-27.1526

> <Gold.PLP.part.repulsive>
0.4382

> <Gold.PLP.ligand.clash>
0.0000

> <Gold.PLP.ligand.torsion>
0.1588

> <Gold.PLP.Chemscore.Hbond>
1.8525

> <Gold.PLP.Chemscore.CHOScore>
0.0000

> <Gold.PLP.Chemscore.Metal>
0.0000

> <Gold.Chemscore.Hbonds>
donor molecule, donor type, donor heavy atom, donor atom, acceptor molecule, acceptor atom, score
      L1  H    23    48       P1 10186  0.81
      P1  H 10785 10796       L1    23  1.00

> <Gold.PLP.Chemscore.Internal.Correction>
0.0222

> <Gold.Rescore>
     Score         DG    S(hbond)    S(metal)    S(lipo)     H(rot)  DE(clash)    DE(int)     intcor
     13.31     -13.51       1.72        0.00      82.33       2.86       0.01       0.19       ----

> <Gold.Chemscore.Fitness>
13.3086

> <Gold.Chemscore.DG>
-13.5149

> <Gold.Chemscore.ZeroCoef>
-5.4800

> <Gold.Chemscore.Hbond>
1.7173

> <Gold.Chemscore.Metal>
0.0000

> <Gold.Chemscore.Lipo>
82.3272

> <Gold.Chemscore.Internal_Hbond>
0.0000

> <Gold.Chemscore.DEClash>
0.0121

> <Gold.Chemscore.DEInternal>
0.1942

> <Gold.Chemscore.Rot>
2.8645

> <Gold.Chemscore.Internal.Correction>
   9.000000E+99

> <Gold.Chemscore.Hbonds>
donor molecule, donor type, donor heavy atom, donor atom, acceptor molecule, acceptor atom, score
      L1  H    23    48       P1 10186  0.80
      P1  H 10785 10796       L1    23  0.53

> <Gold.Chemscore.Hbond.Weighted>
-5.7357

> <Gold.Chemscore.Metal.Weighted>
-0.0000

> <Gold.Chemscore.Lipo.Weighted>
-9.6323

> <Gold.Chemscore.Internal_Hbond.Weighted>
0.0000

> <Gold.Chemscore.DEClash.Weighted>
0.0121

> <Gold.Chemscore.DEInternal.Weighted>
0.1942

> <Gold.Chemscore.Rot.Weighted>
7.3331

> <Gold.Chemscore.Internal.Correction.Weighted>
   9.000000E+99

> <Gold.Protein.RotatedTorsions>
[ 6907 6896 6895 6894 ] final  109.06 input  -60.11 | X-H torsion
[ 7974 7965 7964 7962 ] final   81.27 input  175.53 | X-H torsion
[ 8008 7997 7996 7995 ] final  147.94 input   59.86 | X-H torsion
[ 10167 10162 10161 10158 ] final  -55.77 input  -65.29 | X-H torsion
[ 10718 10713 10712 10709 ] final   26.71 input   66.30 | X-H torsion
[ 10763 10752 10751 10750 ] final   52.86 input  -60.55 | X-H torsion
[ 11005 11000 10999 10996 ] final   11.73 input  -57.11 | X-H torsion

> <Gold.Protein.ActiveResidues>
 VAL166  LYS551  ARG553  GLY616  TRP617  ASP618  TYR619  PRO620  LYS621  CYS622 
 ASP623  PHE694  ASN695  SER759  ASP760  ASP761  ALA762  ILE779  LEU786  VAL792 
 PHE793  MET794  SER795  GLU796  ALA797  LYS798  CYS799  TRP800  GLU811  SER814 

> <Gold.Protein.RotatedAtoms>
  152.5084  133.8999  159.7435 H   0  0  0  0  0  0  0  0  0  0  0  0  # atno 6907 bound_to 6896
  150.9417  133.6640  159.2796 H   0  0  0  0  0  0  0  0  0  0  0  0  # atno 6908 bound_to 6896
  151.3949  135.0967  159.9590 H   0  0  0  0  0  0  0  0  0  0  0  0  # atno 6909 bound_to 6896
  145.6403  139.2424  143.2034 H   0  0  0  0  0  0  0  0  0  0  0  0  # atno 7974 bound_to 7965
  156.2808  140.2142  156.5619 H   0  0  0  0  0  0  0  0  0  0  0  0  # atno 8008 bound_to 7997
  154.7206  140.0504  157.0658 H   0  0  0  0  0  0  0  0  0  0  0  0  # atno 8009 bound_to 7997
  155.0484  140.3153  155.4703 H   0  0  0  0  0  0  0  0  0  0  0  0  # atno 8010 bound_to 7997
  140.6356  143.2480  151.5128 H   0  0  0  0  0  0  0  0  0  0  0  0  # atno 10167 bound_to 10162
  157.2105  130.6932  149.6226 H   0  0  0  0  0  0  0  0  0  0  0  0  # atno 10718 bound_to 10713
  152.9791  135.5798  154.4647 H   0  0  0  0  0  0  0  0  0  0  0  0  # atno 10763 bound_to 10752
  154.4218  135.2772  155.1972 H   0  0  0  0  0  0  0  0  0  0  0  0  # atno 10764 bound_to 10752
  154.3718  135.6166  153.5798 H   0  0  0  0  0  0  0  0  0  0  0  0  # atno 10765 bound_to 10752
  140.4999  134.0756  155.7791 H   0  0  0  0  0  0  0  0  0  0  0  0  # atno 11005 bound_to 11000
  146.1286  140.7215  142.9423 LP  0  0  0  0  0  0  0  0  0  0  0  0  # atno 17320 bound_to 7965
  144.7160  140.4210  143.7044 LP  0  0  0  0  0  0  0  0  0  0  0  0  # atno 17321 bound_to 7965
  139.5566  144.2260  152.1623 LP  0  0  0  0  0  0  0  0  0  0  0  0  # atno 17342 bound_to 10162
  140.1515  144.5110  150.6684 LP  0  0  0  0  0  0  0  0  0  0  0  0  # atno 17343 bound_to 10162
  155.9691  130.4552  150.5881 LP  0  0  0  0  0  0  0  0  0  0  0  0  # atno 17370 bound_to 10713
  157.3677  131.0760  151.1584 LP  0  0  0  0  0  0  0  0  0  0  0  0  # atno 17371 bound_to 10713
  141.1441  133.9087  157.2258 LP  0  0  0  0  0  0  0  0  0  0  0  0  # atno 17394 bound_to 11000
  139.9719  135.0125  156.9534 LP  0  0  0  0  0  0  0  0  0  0  0  0  # atno 17395 bound_to 11000

$$$$
