AV-unprocessed.smi:2718|AV-procd|sdf|10487|dock9
  -GOLD-   2272014533D 1   1.00000     0.00000
 Structure written by MMmdl.
 47 48  0  0  0  0  0  0  0  0  1 V2000
  152.5894  141.2642  158.5482 C   0  0  0  0  0  0  0  0  0  0  0  0
  151.6866  141.2772  157.3309 C   0  0  0  0  0  0  0  0  0  0  0  0
  150.5610  142.2950  157.3891 C   0  0  0  0  0  0  0  0  0  0  0  0
  151.8897  140.4441  156.2916 C   0  0  0  0  0  0  0  0  0  0  0  0
  151.0874  140.3612  155.0361 C   0  0  1  0  0  0  0  0  0  0  0  0
  150.5527  139.0630  154.4401 C   0  0  1  0  0  0  0  0  0  0  0  0
  150.8299  137.7505  155.1186 C   0  0  0  0  0  0  0  0  0  0  0  0
  151.4307  137.6326  156.1869 O   0  0  0  0  0  0  0  0  0  0  0  0
  150.3913  136.6893  154.4244 N   0  0  0  0  0  0  0  0  0  0  0  0
  150.6294  135.2972  154.7927 C   0  0  0  0  0  0  0  0  0  0  0  0
  149.3128  134.5203  155.0078 C   0  0  2  0  0  0  0  0  0  0  0  0
  148.7734  134.6359  156.4444 C   0  0  0  0  0  0  0  0  0  0  0  0
  149.4553  133.0833  154.5920 C   0  0  0  0  0  0  0  0  0  0  0  0
  150.2648  132.2098  155.2064 N   0  0  0  0  0  0  0  0  0  0  0  0
  150.1174  131.0188  154.5245 N   0  0  0  0  0  0  0  0  0  0  0  0
  149.2360  131.2906  153.5633 C   0  0  0  0  0  0  0  0  0  0  0  0
  148.7849  132.5538  153.5464 N   0  0  0  0  0  0  0  0  0  0  0  0
  147.8343  133.1583  152.6337 C   0  0  0  0  0  0  0  0  0  0  0  0
  149.5911  140.0855  155.0404 C   0  0  0  0  0  0  0  0  0  0  0  0
  148.8304  139.8627  156.3463 C   0  0  0  0  0  0  0  0  0  0  0  0
  148.6997  140.8525  154.0784 C   0  0  0  0  0  0  0  0  0  0  0  0
  152.0119  141.0424  159.4458 H   0  0  0  0  0  0  0  0  0  0  0  0
  153.0631  142.2379  158.6761 H   0  0  0  0  0  0  0  0  0  0  0  0
  153.3762  140.5146  158.4571 H   0  0  0  0  0  0  0  0  0  0  0  0
  150.9716  143.3020  157.4627 H   0  0  0  0  0  0  0  0  0  0  0  0
  149.9390  142.1165  158.2662 H   0  0  0  0  0  0  0  0  0  0  0  0
  149.9172  142.2572  156.5110 H   0  0  0  0  0  0  0  0  0  0  0  0
  152.7125  139.7470  156.3538 H   0  0  0  0  0  0  0  0  0  0  0  0
  151.4346  141.1026  154.3188 H   0  0  0  0  0  0  0  0  0  0  0  0
  150.5719  139.0154  153.3521 H   0  0  0  0  0  0  0  0  0  0  0  0
  149.9038  136.8565  153.5559 H   0  0  0  0  0  0  0  0  0  0  0  0
  151.2298  134.8148  154.0191 H   0  0  0  0  0  0  0  0  0  0  0  0
  151.2309  135.2789  155.7020 H   0  0  0  0  0  0  0  0  0  0  0  0
  148.5627  134.9785  154.3644 H   0  0  0  0  0  0  0  0  0  0  0  0
  147.8227  134.1118  156.5463 H   0  0  0  0  0  0  0  0  0  0  0  0
  148.6028  135.6749  156.7263 H   0  0  0  0  0  0  0  0  0  0  0  0
  149.4694  134.2062  157.1656 H   0  0  0  0  0  0  0  0  0  0  0  0
  148.9125  130.5467  152.8498 H   0  0  0  0  0  0  0  0  0  0  0  0
  147.4903  132.4216  151.9069 H   0  0  0  0  0  0  0  0  0  0  0  0
  148.3080  133.9849  152.1032 H   0  0  0  0  0  0  0  0  0  0  0  0
  146.9750  133.5330  153.1905 H   0  0  0  0  0  0  0  0  0  0  0  0
  148.0203  139.1496  156.1918 H   0  0  0  0  0  0  0  0  0  0  0  0
  148.3985  140.8006  156.6968 H   0  0  0  0  0  0  0  0  0  0  0  0
  149.4691  139.4878  157.1435 H   0  0  0  0  0  0  0  0  0  0  0  0
  147.7862  140.2919  153.8779 H   0  0  0  0  0  0  0  0  0  0  0  0
  149.2094  141.0253  153.1301 H   0  0  0  0  0  0  0  0  0  0  0  0
  148.4303  141.8218  154.4989 H   0  0  0  0  0  0  0  0  0  0  0  0
  1  2  1  0  0  0  0
  1 22  1  0  0  0  0
  1 23  1  0  0  0  0
  1 24  1  0  0  0  0
  2  3  1  0  0  0  0
  2  4  2  0  0  0  0
  3 25  1  0  0  0  0
  3 26  1  0  0  0  0
  3 27  1  0  0  0  0
  4  5  1  0  0  0  0
  4 28  1  0  0  0  0
  5 19  1  0  0  0  0
  5  6  1  0  0  0  0
  5 29  1  0  0  0  0
  6  7  1  0  0  0  0
  6 19  1  0  0  0  0
  6 30  1  0  0  0  0
  7  8  2  0  0  0  0
  7  9  1  0  0  0  0
  9 10  1  0  0  0  0
  9 31  1  0  0  0  0
 10 11  1  0  0  0  0
 10 32  1  0  0  0  0
 10 33  1  0  0  0  0
 11 12  1  0  0  0  0
 11 13  1  0  0  0  0
 11 34  1  0  0  0  0
 12 35  1  0  0  0  0
 12 36  1  0  0  0  0
 12 37  1  0  0  0  0
 13 17  1  0  0  0  0
 13 14  2  0  0  0  0
 14 15  1  0  0  0  0
 15 16  2  0  0  0  0
 16 17  1  0  0  0  0
 16 38  1  0  0  0  0
 17 18  1  0  0  0  0
 18 39  1  0  0  0  0
 18 40  1  0  0  0  0
 18 41  1  0  0  0  0
 19 20  1  0  0  0  0
 19 21  1  0  0  0  0
 20 42  1  0  0  0  0
 20 43  1  0  0  0  0
 20 44  1  0  0  0  0
 21 45  1  0  0  0  0
 21 46  1  0  0  0  0
 21 47  1  0  0  0  0
M  END
> <s_m_source_file>
AV-unprocessed.smi

> <i_m_source_file_index>
2718

> <i_lp_mmshare_version>
43012

> <i_f3d_flags>
0

> <s_epik_input>
W0NIM11DKFtDSDNdKT1bQ0hdW0NAQEhdKEMxKFtDSDNdKVtDSDNdKVtDQEhdMUMoPU8pW05IXVtDSDJdW0NASF0oW0NIM10pYzJubltjSF1uMltDSDNd

> <s_epik_cmdline>
J2VwaWtfcHl0aG9uJywgJy1waCcsICc3LjAnLCAnLXRuJywgJzgnLCAnLW1hJywgJzIwMCcsICctbWV0YWxfYmluZGluZycsICctaW1hZScsICc8aW5maWxlLm1hZT4nLCAnLW9tYWUnLCAnPG91dGZpbGUubWFlPic=

> <r_lp_tautomer_probability>
1

> <r_epik_Ionization_Penalty>
0.000449586

> <r_epik_Ionization_Penalty_Charging>
0

> <r_epik_Ionization_Penalty_Neutral>
0.000449586

> <r_epik_State_Penalty>
0.000243372

> <r_epik_Charging_Adjusted_Penalty>
0.000243372

> <i_epik_Tot_Q>
0

> <i_epik_Tot_abs_Q>
0

> <r_epik_Metal_State_Penalty>
-0

> <b_epik_Metal_Only>
0

> <s_lp_Force_Field>
OPLS_2005

> <r_lp_Energy>
16.2745

> <b_lp_Chiralities_Consistent>
1

> <s_lp_Variant>
AV-unprocessed.smi:2718-2

> <Gold.Version>
5.8.1

> <Gold.Id.Protein>
6NUR|6NUR_protein|mol2

> <Gold.PLP.Fitness>
40.2892

> <Gold.PLP.PLP>
-35.4601

> <Gold.PLP.part.hbond>
-1.5445

> <Gold.PLP.part.metal>
0.0000

> <Gold.PLP.part.buried>
-1.5591

> <Gold.PLP.part.nonpolar>
-32.5287

> <Gold.PLP.part.repulsive>
0.1047

> <Gold.PLP.ligand.clash>
0.0000

> <Gold.PLP.ligand.torsion>
0.5414

> <Gold.PLP.Chemscore.Hbond>
1.0000

> <Gold.PLP.Chemscore.CHOScore>
0.8702

> <Gold.PLP.Chemscore.Metal>
0.0000

> <Gold.Chemscore.Hbonds>
donor molecule, donor type, donor heavy atom, donor atom, acceptor molecule, acceptor atom, score
      L1  H     9    31       P1  7948  1.00
      L1  C    16    38       P1 10747  0.83

> <Gold.PLP.Chemscore.Internal.Correction>
0.3014

> <Gold.Rescore>
     Score         DG    S(hbond)    S(metal)    S(lipo)     H(rot)  DE(clash)    DE(int)     intcor
      9.29     -11.23       0.61        0.00      74.44       1.95       0.06       1.89       ----

> <Gold.Chemscore.Fitness>
9.2857

> <Gold.Chemscore.DG>
-11.2344

> <Gold.Chemscore.ZeroCoef>
-5.4800

> <Gold.Chemscore.Hbond>
0.6123

> <Gold.Chemscore.Metal>
0.0000

> <Gold.Chemscore.Lipo>
74.4423

> <Gold.Chemscore.Internal_Hbond>
0.0000

> <Gold.Chemscore.DEClash>
0.0563

> <Gold.Chemscore.DEInternal>
1.8923

> <Gold.Chemscore.Rot>
1.9533

> <Gold.Chemscore.Internal.Correction>
   9.000000E+99

> <Gold.Chemscore.Hbonds>
donor molecule, donor type, donor heavy atom, donor atom, acceptor molecule, acceptor atom, score
      L1  H     9    31       P1  7948  0.32

> <Gold.Chemscore.Hbond.Weighted>
-2.0452

> <Gold.Chemscore.Metal.Weighted>
-0.0000

> <Gold.Chemscore.Lipo.Weighted>
-8.7097

> <Gold.Chemscore.Internal_Hbond.Weighted>
0.0000

> <Gold.Chemscore.DEClash.Weighted>
0.0563

> <Gold.Chemscore.DEInternal.Weighted>
1.8923

> <Gold.Chemscore.Rot.Weighted>
5.0005

> <Gold.Chemscore.Internal.Correction.Weighted>
   9.000000E+99

> <Gold.Protein.RotatedTorsions>
[ 6907 6896 6895 6894 ] final -106.66 input  -60.11 | X-H torsion
[ 7974 7965 7964 7962 ] final   18.25 input  175.53 | X-H torsion
[ 8008 7997 7996 7995 ] final   79.73 input   59.86 | X-H torsion
[ 10167 10162 10161 10158 ] final  -45.76 input  -65.29 | X-H torsion
[ 10718 10713 10712 10709 ] final -139.42 input   66.30 | X-H torsion
[ 10763 10752 10751 10750 ] final   -5.99 input  -60.55 | X-H torsion
[ 11005 11000 10999 10996 ] final -104.63 input  -57.11 | X-H torsion

> <Gold.Protein.ActiveResidues>
 VAL166  LYS551  ARG553  GLY616  TRP617  ASP618  TYR619  PRO620  LYS621  CYS622 
 ASP623  PHE694  ASN695  SER759  ASP760  ASP761  ALA762  ILE779  LEU786  VAL792 
 PHE793  MET794  SER795  GLU796  ALA797  LYS798  CYS799  TRP800  GLU811  SER814 

> <Gold.Protein.RotatedAtoms>
  150.7401  133.9943  159.3616 H   0  0  0  0  0  0  0  0  0  0  0  0  # atno 6907 bound_to 6896
  151.7893  135.0738  160.0394 H   0  0  0  0  0  0  0  0  0  0  0  0  # atno 6908 bound_to 6896
  152.3219  133.5827  159.5787 H   0  0  0  0  0  0  0  0  0  0  0  0  # atno 6909 bound_to 6896
  146.2191  139.8484  142.8627 H   0  0  0  0  0  0  0  0  0  0  0  0  # atno 7974 bound_to 7965
  155.8737  140.3447  155.5839 H   0  0  0  0  0  0  0  0  0  0  0  0  # atno 8008 bound_to 7997
  155.7798  140.0857  157.2084 H   0  0  0  0  0  0  0  0  0  0  0  0  # atno 8009 bound_to 7997
  154.4019  140.1503  156.3026 H   0  0  0  0  0  0  0  0  0  0  0  0  # atno 8010 bound_to 7997
  140.6845  143.2864  151.3685 H   0  0  0  0  0  0  0  0  0  0  0  0  # atno 10167 bound_to 10162
  156.3105  130.7479  151.1553 H   0  0  0  0  0  0  0  0  0  0  0  0  # atno 10718 bound_to 10713
  153.4061  135.7006  153.6391 H   0  0  0  0  0  0  0  0  0  0  0  0  # atno 10763 bound_to 10752
  153.4905  135.3674  155.2489 H   0  0  0  0  0  0  0  0  0  0  0  0  # atno 10764 bound_to 10752
  154.8714  135.4088  154.3405 H   0  0  0  0  0  0  0  0  0  0  0  0  # atno 10765 bound_to 10752
  141.1091  133.8739  157.1635 H   0  0  0  0  0  0  0  0  0  0  0  0  # atno 11005 bound_to 11000
  145.2826  141.0143  143.3708 LP  0  0  0  0  0  0  0  0  0  0  0  0  # atno 17320 bound_to 7965
  144.9138  139.4496  143.6574 LP  0  0  0  0  0  0  0  0  0  0  0  0  # atno 17321 bound_to 7965
  139.6193  144.0940  152.2375 LP  0  0  0  0  0  0  0  0  0  0  0  0  # atno 17342 bound_to 10162
  140.0379  144.6030  150.7435 LP  0  0  0  0  0  0  0  0  0  0  0  0  # atno 17343 bound_to 10162
  157.7390  131.0534  150.5261 LP  0  0  0  0  0  0  0  0  0  0  0  0  # atno 17370 bound_to 10713
  156.5400  130.4205  149.6159 LP  0  0  0  0  0  0  0  0  0  0  0  0  # atno 17371 bound_to 10713
  139.9976  135.0040  157.0118 LP  0  0  0  0  0  0  0  0  0  0  0  0  # atno 17394 bound_to 11000
  140.4822  134.1277  155.7219 LP  0  0  0  0  0  0  0  0  0  0  0  0  # atno 17395 bound_to 11000

$$$$
