AV-unprocessed.smi:720|AV-procd|sdf|3502|dock7
  -GOLD-   22720 0493D 1   1.00000     0.00000
 Structure written by MMmdl.
 46 48  0  0  0  0  0  0  0  0  1 V2000
  151.7121  142.1526  159.1769 C   0  0  0  0  0  0  0  0  0  0  0  0
  152.0000  142.8733  157.9426 N   0  0  0  0  0  0  0  0  0  0  0  0
  151.9803  144.3008  158.2341 C   0  0  0  0  0  0  0  0  0  0  0  0
  151.0146  142.5897  156.8978 C   0  0  0  0  0  0  0  0  0  0  0  0
  151.0890  141.1486  156.3489 C   0  0  0  0  0  0  0  0  0  0  0  0
  150.0326  140.8363  155.4016 N   0  0  0  0  0  0  0  0  0  0  0  0
  149.1519  141.7021  154.7830 C   0  0  0  0  0  0  0  0  0  0  0  0
  148.3560  140.9607  153.9570 C   0  0  0  0  0  0  0  0  0  0  0  0
  148.8433  139.6373  154.1361 C   0  0  0  0  0  0  0  0  0  0  0  0
  148.2599  138.5526  153.4346 N   0  0  0  0  0  0  0  0  0  0  0  0
  146.9542  138.2325  153.3462 C   0  0  0  0  0  0  0  0  0  0  0  0
  146.0432  138.8582  153.8854 O   0  0  0  0  0  0  0  0  0  0  0  0
  146.7032  137.1473  152.5921 N   0  0  0  0  0  0  0  0  0  0  0  0
  145.4040  136.5378  152.2945 C   0  0  1  0  0  0  0  0  0  0  0  0
  145.3402  136.0483  150.8309 C   0  0  0  0  0  0  0  0  0  0  0  0
  145.0252  134.5482  150.9771 C   0  0  1  0  0  0  0  0  0  0  0  0
  146.2646  133.8109  151.5191 C   0  0  0  0  0  0  0  0  0  0  0  0
  146.3042  134.2503  152.9949 C   0  0  0  0  0  0  0  0  0  0  0  0
  145.1181  135.2343  153.0855 C   0  0  2  0  0  0  0  0  0  0  0  0
  144.0990  134.5432  152.1858 C   0  0  0  0  0  0  0  0  0  0  0  0
  149.8558  139.5622  154.9883 N   0  0  0  0  0  0  0  0  0  0  0  0
  151.8396  141.0802  159.0439 H   0  0  0  0  0  0  0  0  0  0  0  0
  150.6948  142.3409  159.5218 H   0  0  0  0  0  0  0  0  0  0  0  0
  152.4015  142.4551  159.9661 H   0  0  0  0  0  0  0  0  0  0  0  0
  152.2241  144.8792  157.3423 H   0  0  0  0  0  0  0  0  0  0  0  0
  152.7200  144.5484  158.9962 H   0  0  0  0  0  0  0  0  0  0  0  0
  151.0004  144.6206  158.5921 H   0  0  0  0  0  0  0  0  0  0  0  0
  150.0069  142.8383  157.2340 H   0  0  0  0  0  0  0  0  0  0  0  0
  151.2261  143.2570  156.0612 H   0  0  0  0  0  0  0  0  0  0  0  0
  152.0344  141.0187  155.8212 H   0  0  0  0  0  0  0  0  0  0  0  0
  151.0909  140.4200  157.1616 H   0  0  0  0  0  0  0  0  0  0  0  0
  149.1637  142.7635  154.9824 H   0  0  0  0  0  0  0  0  0  0  0  0
  147.5537  141.3113  153.3249 H   0  0  0  0  0  0  0  0  0  0  0  0
  148.9029  137.9601  152.9306 H   0  0  0  0  0  0  0  0  0  0  0  0
  147.5039  136.7002  152.1693 H   0  0  0  0  0  0  0  0  0  0  0  0
  144.6057  137.2640  152.4601 H   0  0  0  0  0  0  0  0  0  0  0  0
  144.5390  136.5589  150.2951 H   0  0  0  0  0  0  0  0  0  0  0  0
  146.2642  136.2174  150.2759 H   0  0  0  0  0  0  0  0  0  0  0  0
  144.6094  134.0996  150.0744 H   0  0  0  0  0  0  0  0  0  0  0  0
  146.1410  132.7299  151.4442 H   0  0  0  0  0  0  0  0  0  0  0  0
  147.1732  134.0827  150.9807 H   0  0  0  0  0  0  0  0  0  0  0  0
  146.1362  133.3928  153.6478 H   0  0  0  0  0  0  0  0  0  0  0  0
  147.2604  134.6894  153.2792 H   0  0  0  0  0  0  0  0  0  0  0  0
  144.7770  135.4071  154.1067 H   0  0  0  0  0  0  0  0  0  0  0  0
  143.1883  135.1257  152.0360 H   0  0  0  0  0  0  0  0  0  0  0  0
  143.8305  133.5399  152.5221 H   0  0  0  0  0  0  0  0  0  0  0  0
  1  2  1  0  0  0  0
  1 22  1  0  0  0  0
  1 23  1  0  0  0  0
  1 24  1  0  0  0  0
  2  3  1  0  0  0  0
  2  4  1  0  0  0  0
  3 25  1  0  0  0  0
  3 26  1  0  0  0  0
  3 27  1  0  0  0  0
  4  5  1  0  0  0  0
  4 28  1  0  0  0  0
  4 29  1  0  0  0  0
  5  6  1  0  0  0  0
  5 30  1  0  0  0  0
  5 31  1  0  0  0  0
  6 21  1  0  0  0  0
  6  7  1  0  0  0  0
  7  8  2  0  0  0  0
  7 32  1  0  0  0  0
  8  9  1  0  0  0  0
  8 33  1  0  0  0  0
  9 10  1  0  0  0  0
  9 21  2  0  0  0  0
 10 11  1  0  0  0  0
 10 34  1  0  0  0  0
 11 12  2  0  0  0  0
 11 13  1  0  0  0  0
 13 14  1  0  0  0  0
 13 35  1  0  0  0  0
 14 19  1  0  0  0  0
 14 15  1  0  0  0  0
 14 36  1  0  0  0  0
 15 16  1  0  0  0  0
 15 37  1  0  0  0  0
 15 38  1  0  0  0  0
 16 20  1  0  0  0  0
 16 17  1  0  0  0  0
 16 39  1  0  0  0  0
 17 18  1  0  0  0  0
 17 40  1  0  0  0  0
 17 41  1  0  0  0  0
 18 19  1  0  0  0  0
 18 42  1  0  0  0  0
 18 43  1  0  0  0  0
 19 20  1  0  0  0  0
 19 44  1  0  0  0  0
 20 45  1  0  0  0  0
 20 46  1  0  0  0  0
M  END
> <s_m_source_file>
AV-unprocessed.smi

> <i_m_source_file_index>
720

> <i_lp_mmshare_version>
43012

> <i_f3d_flags>
0

> <s_epik_input>
W0NIM11OKFtDSDNdKVtDSDJdW0NIMl1uMVtjSF1bY0hdYyhuMSlbTkhdQyg9TylbTkhdW0NASF0oW0NIMl1bQ0BIXTIzKVtDQEhdKFtDSDJdMylbQ0gyXVtDSDJdMg==

> <s_epik_cmdline>
J2VwaWtfcHl0aG9uJywgJy1waCcsICc3LjAnLCAnLXRuJywgJzgnLCAnLW1hJywgJzIwMCcsICctbWV0YWxfYmluZGluZycsICctaW1hZScsICc8aW5maWxlLm1hZT4nLCAnLW9tYWUnLCAnPG91dGZpbGUubWFlPic=

> <r_lp_tautomer_probability>
1

> <r_epik_Ionization_Penalty>
1.83819

> <r_epik_Ionization_Penalty_Charging>
0

> <r_epik_Ionization_Penalty_Neutral>
1.83819

> <r_epik_State_Penalty>
1.95467

> <r_epik_Charging_Adjusted_Penalty>
1.95467

> <i_epik_Tot_Q>
0

> <i_epik_Tot_abs_Q>
0

> <r_epik_Metal_State_Penalty>
1.95467

> <b_epik_Metal_Only>
0

> <s_lp_Force_Field>
OPLS_2005

> <r_lp_Energy>
62.953

> <b_lp_Chiralities_Consistent>
1

> <s_lp_Variant>
AV-unprocessed.smi:720-8

> <Gold.Version>
5.8.1

> <Gold.Id.Protein>
6NUR|6NUR_protein|mol2

> <Gold.PLP.Fitness>
44.0862

> <Gold.PLP.PLP>
-37.1840

> <Gold.PLP.part.hbond>
-2.9708

> <Gold.PLP.part.metal>
0.0000

> <Gold.PLP.part.buried>
-0.3624

> <Gold.PLP.part.nonpolar>
-34.6590

> <Gold.PLP.part.repulsive>
0.3551

> <Gold.PLP.ligand.clash>
0.0000

> <Gold.PLP.ligand.torsion>
0.8547

> <Gold.PLP.Chemscore.Hbond>
1.8480

> <Gold.PLP.Chemscore.CHOScore>
1.0000

> <Gold.PLP.Chemscore.Metal>
0.0000

> <Gold.Chemscore.Hbonds>
donor molecule, donor type, donor heavy atom, donor atom, acceptor molecule, acceptor atom, score
      L1  H    10    34       P1  7948  0.85
      L1  H    13    35       P1  7948  1.00
      L1  C     7    32       P1  8028  1.00

> <Gold.PLP.Chemscore.Internal.Correction>
0.0677

> <Gold.Rescore>
     Score         DG    S(hbond)    S(metal)    S(lipo)     H(rot)  DE(clash)    DE(int)     intcor
     16.52     -17.69       1.79        0.00      86.92       1.53       0.32       0.86       ----

> <Gold.Chemscore.Fitness>
16.5158

> <Gold.Chemscore.DG>
-17.6943

> <Gold.Chemscore.ZeroCoef>
-5.4800

> <Gold.Chemscore.Hbond>
1.7857

> <Gold.Chemscore.Metal>
0.0000

> <Gold.Chemscore.Lipo>
86.9224

> <Gold.Chemscore.Internal_Hbond>
0.0000

> <Gold.Chemscore.DEClash>
0.3188

> <Gold.Chemscore.DEInternal>
0.8597

> <Gold.Chemscore.Rot>
1.5312

> <Gold.Chemscore.Internal.Correction>
   9.000000E+99

> <Gold.Chemscore.Hbonds>
donor molecule, donor type, donor heavy atom, donor atom, acceptor molecule, acceptor atom, score
      L1  H    10    34       P1  7948  0.79
      L1  H    13    35       P1  7948  0.94

> <Gold.Chemscore.Hbond.Weighted>
-5.9642

> <Gold.Chemscore.Metal.Weighted>
-0.0000

> <Gold.Chemscore.Lipo.Weighted>
-10.1699

> <Gold.Chemscore.Internal_Hbond.Weighted>
0.0000

> <Gold.Chemscore.DEClash.Weighted>
0.3188

> <Gold.Chemscore.DEInternal.Weighted>
0.8597

> <Gold.Chemscore.Rot.Weighted>
3.9199

> <Gold.Chemscore.Internal.Correction.Weighted>
   9.000000E+99

> <Gold.Protein.RotatedTorsions>
[ 6907 6896 6895 6894 ] final -104.80 input  -60.11 | X-H torsion
[ 7974 7965 7964 7962 ] final    9.24 input  175.53 | X-H torsion
[ 8008 7997 7996 7995 ] final -134.58 input   59.86 | X-H torsion
[ 10167 10162 10161 10158 ] final  117.31 input  -65.29 | X-H torsion
[ 10718 10713 10712 10709 ] final -160.31 input   66.30 | X-H torsion
[ 10763 10752 10751 10750 ] final   85.19 input  -60.55 | X-H torsion
[ 11005 11000 10999 10996 ] final  -68.73 input  -57.11 | X-H torsion

> <Gold.Protein.ActiveResidues>
 VAL166  LYS551  ARG553  GLY616  TRP617  ASP618  TYR619  PRO620  LYS621  CYS622 
 ASP623  PHE694  ASN695  SER759  ASP760  ASP761  ALA762  ILE779  LEU786  VAL792 
 PHE793  MET794  SER795  GLU796  ALA797  LYS798  CYS799  TRP800  GLU811  SER814 

> <Gold.Protein.RotatedAtoms>
  150.7305  134.0222  159.3705 H   0  0  0  0  0  0  0  0  0  0  0  0  # atno 6907 bound_to 6896
  151.8188  135.0656  160.0431 H   0  0  0  0  0  0  0  0  0  0  0  0  # atno 6908 bound_to 6896
  152.3019  133.5628  159.5660 H   0  0  0  0  0  0  0  0  0  0  0  0  # atno 6909 bound_to 6896
  146.2406  139.9813  142.8436 H   0  0  0  0  0  0  0  0  0  0  0  0  # atno 7974 bound_to 7965
  155.3644  140.0484  157.3046 H   0  0  0  0  0  0  0  0  0  0  0  0  # atno 8008 bound_to 7997
  154.5162  140.2209  155.9025 H   0  0  0  0  0  0  0  0  0  0  0  0  # atno 8009 bound_to 7997
  156.1639  140.3110  155.8860 H   0  0  0  0  0  0  0  0  0  0  0  0  # atno 8010 bound_to 7997
  139.6187  144.7097  151.2682 H   0  0  0  0  0  0  0  0  0  0  0  0  # atno 10167 bound_to 10162
  156.5803  130.8726  151.2862 H   0  0  0  0  0  0  0  0  0  0  0  0  # atno 10718 bound_to 10713
  153.1451  135.4626  154.9554 H   0  0  0  0  0  0  0  0  0  0  0  0  # atno 10763 bound_to 10752
  154.7779  135.3179  154.8054 H   0  0  0  0  0  0  0  0  0  0  0  0  # atno 10764 bound_to 10752
  153.8570  135.6916  153.4841 H   0  0  0  0  0  0  0  0  0  0  0  0  # atno 10765 bound_to 10752
  141.1538  133.6747  156.6491 H   0  0  0  0  0  0  0  0  0  0  0  0  # atno 11005 bound_to 11000
  145.1589  140.9662  143.4389 LP  0  0  0  0  0  0  0  0  0  0  0  0  # atno 17320 bound_to 7965
  145.0135  139.3489  143.6108 LP  0  0  0  0  0  0  0  0  0  0  0  0  # atno 17321 bound_to 7965
  140.7368  143.6697  150.8092 LP  0  0  0  0  0  0  0  0  0  0  0  0  # atno 17342 bound_to 10162
  140.0304  143.5449  152.2762 LP  0  0  0  0  0  0  0  0  0  0  0  0  # atno 17343 bound_to 10162
  157.7328  130.9720  150.1946 LP  0  0  0  0  0  0  0  0  0  0  0  0  # atno 17370 bound_to 10713
  156.2637  130.3714  149.8103 LP  0  0  0  0  0  0  0  0  0  0  0  0  # atno 17371 bound_to 10713
  140.3334  134.7910  157.4343 LP  0  0  0  0  0  0  0  0  0  0  0  0  # atno 17394 bound_to 11000
  140.0998  134.5488  155.8364 LP  0  0  0  0  0  0  0  0  0  0  0  0  # atno 17395 bound_to 11000

$$$$
