AV-unprocessed.smi:222|AV-procd|sdf|1702|dock2
  -GOLD-   2262020153D 1   1.00000     0.00000
 Structure written by MMmdl.
 59 61  0  0  0  0  0  0  0  0  1 V2000
  147.4942  129.3102  161.1603 C   0  0  0  0  0  0  0  0  0  0  0  0
  147.3327  130.5681  160.5247 O   0  0  0  0  0  0  0  0  0  0  0  0
  148.5462  131.1759  160.1003 C   0  0  0  0  0  0  0  0  0  0  0  0
  148.3198  132.4489  159.2590 C   0  0  0  0  0  0  0  0  0  0  0  0
  147.6701  133.5270  160.0147 N   0  0  0  0  0  0  0  0  0  0  0  0
  147.3016  133.2685  161.4165 C   0  0  0  0  0  0  0  0  0  0  0  0
  145.7950  133.4163  161.7246 C   0  0  0  0  0  0  0  0  0  0  0  0
  145.0780  132.4136  161.7389 O   0  0  0  0  0  0  0  0  0  0  0  0
  145.3036  134.6509  161.9773 N   0  0  0  0  0  0  0  0  0  0  0  0
  146.1356  135.8568  161.9976 C   0  0  0  0  0  0  0  0  0  0  0  0
  143.8778  134.8437  162.2521 C   0  0  0  0  0  0  0  0  0  0  0  0
  147.2834  134.6779  159.3827 C   0  0  0  0  0  0  0  0  0  0  0  0
  145.9587  134.9885  159.3563 N   0  0  0  0  0  0  0  0  0  0  0  0
  145.5239  136.1100  158.7779 C   0  0  0  0  0  0  0  0  0  0  0  0
  146.2314  137.0581  158.1655 N   0  0  0  0  0  0  0  0  0  0  0  0
  147.5612  136.7605  158.1715 C   0  0  0  0  0  0  0  0  0  0  0  0
  148.1693  135.6071  158.7505 C   0  0  0  0  0  0  0  0  0  0  0  0
  149.5448  135.6679  158.5478 N   0  0  0  0  0  0  0  0  0  0  0  0
  149.7366  136.7867  157.9076 C   0  0  0  0  0  0  0  0  0  0  0  0
  148.5961  137.5001  157.6236 N   0  0  0  0  0  0  0  0  0  0  0  0
  148.5180  138.7777  156.9286 C   0  0  0  0  0  0  0  0  0  0  0  0
  148.8709  138.7306  155.4078 C   0  0  0  0  0  0  0  0  0  0  0  0
  147.8042  137.8659  154.6802 C   0  0  0  0  0  0  0  0  0  0  0  0
  147.8748  137.9525  153.2703 O   0  0  0  0  0  0  0  0  0  0  0  0
  148.8638  140.1755  154.8446 C   0  0  0  0  0  0  0  0  0  0  0  0
  150.0623  141.0112  155.3350 C   0  0  0  0  0  0  0  0  0  0  0  0
  151.2827  140.3488  155.0259 O   0  0  0  0  0  0  0  0  0  0  0  0
  151.4023  139.0776  155.6528 C   0  0  0  0  0  0  0  0  0  0  0  0
  150.2842  138.1440  155.1560 C   0  0  0  0  0  0  0  0  0  0  0  0
  146.5132  128.9003  161.4000 H   0  0  0  0  0  0  0  0  0  0  0  0
  148.0522  129.3919  162.0924 H   0  0  0  0  0  0  0  0  0  0  0  0
  148.0025  128.5994  160.5078 H   0  0  0  0  0  0  0  0  0  0  0  0
  149.1679  131.4022  160.9676 H   0  0  0  0  0  0  0  0  0  0  0  0
  149.1025  130.4434  159.5153 H   0  0  0  0  0  0  0  0  0  0  0  0
  149.2612  132.8134  158.8496 H   0  0  0  0  0  0  0  0  0  0  0  0
  147.7312  132.1988  158.3754 H   0  0  0  0  0  0  0  0  0  0  0  0
  147.5802  132.2463  161.6738 H   0  0  0  0  0  0  0  0  0  0  0  0
  147.9054  133.8979  162.0677 H   0  0  0  0  0  0  0  0  0  0  0  0
  147.0262  135.7140  162.6107 H   0  0  0  0  0  0  0  0  0  0  0  0
  145.6096  136.7181  162.4100 H   0  0  0  0  0  0  0  0  0  0  0  0
  146.4507  136.1173  160.9866 H   0  0  0  0  0  0  0  0  0  0  0  0
  143.2636  134.3413  161.5030 H   0  0  0  0  0  0  0  0  0  0  0  0
  143.5864  135.8942  162.2459 H   0  0  0  0  0  0  0  0  0  0  0  0
  143.6238  134.4329  163.2300 H   0  0  0  0  0  0  0  0  0  0  0  0
  144.4567  136.2705  158.8130 H   0  0  0  0  0  0  0  0  0  0  0  0
  150.7223  137.1198  157.6176 H   0  0  0  0  0  0  0  0  0  0  0  0
  147.5073  139.1670  157.0591 H   0  0  0  0  0  0  0  0  0  0  0  0
  149.1619  139.4723  157.4652 H   0  0  0  0  0  0  0  0  0  0  0  0
  147.9140  136.8137  154.9427 H   0  0  0  0  0  0  0  0  0  0  0  0
  146.8011  138.1657  154.9853 H   0  0  0  0  0  0  0  0  0  0  0  0
  148.4581  137.2782  152.9569 H   0  0  0  0  0  0  0  0  0  0  0  0
  148.9078  140.1563  153.7554 H   0  0  0  0  0  0  0  0  0  0  0  0
  147.9298  140.6789  155.0969 H   0  0  0  0  0  0  0  0  0  0  0  0
  150.0618  141.9814  154.8379 H   0  0  0  0  0  0  0  0  0  0  0  0
  150.0049  141.2145  156.4043 H   0  0  0  0  0  0  0  0  0  0  0  0
  152.3753  138.6568  155.3991 H   0  0  0  0  0  0  0  0  0  0  0  0
  151.3844  139.1880  156.7373 H   0  0  0  0  0  0  0  0  0  0  0  0
  150.3881  137.1557  155.6021 H   0  0  0  0  0  0  0  0  0  0  0  0
  150.4372  137.9951  154.0866 H   0  0  0  0  0  0  0  0  0  0  0  0
  1  2  1  0  0  0  0
  1 30  1  0  0  0  0
  1 31  1  0  0  0  0
  1 32  1  0  0  0  0
  2  3  1  0  0  0  0
  3  4  1  0  0  0  0
  3 33  1  0  0  0  0
  3 34  1  0  0  0  0
  4  5  1  0  0  0  0
  4 35  1  0  0  0  0
  4 36  1  0  0  0  0
  5  6  1  0  0  0  0
  5 12  1  0  0  0  0
  6  7  1  0  0  0  0
  6 37  1  0  0  0  0
  6 38  1  0  0  0  0
  7  8  2  0  0  0  0
  7  9  1  0  0  0  0
  9 10  1  0  0  0  0
  9 11  1  0  0  0  0
 10 39  1  0  0  0  0
 10 40  1  0  0  0  0
 10 41  1  0  0  0  0
 11 42  1  0  0  0  0
 11 43  1  0  0  0  0
 11 44  1  0  0  0  0
 12 17  1  0  0  0  0
 12 13  2  0  0  0  0
 13 14  1  0  0  0  0
 14 15  2  0  0  0  0
 14 45  1  0  0  0  0
 15 16  1  0  0  0  0
 16 20  1  0  0  0  0
 16 17  2  0  0  0  0
 17 18  1  0  0  0  0
 18 19  2  0  0  0  0
 19 20  1  0  0  0  0
 19 46  1  0  0  0  0
 20 21  1  0  0  0  0
 21 22  1  0  0  0  0
 21 47  1  0  0  0  0
 21 48  1  0  0  0  0
 22 29  1  0  0  0  0
 22 23  1  0  0  0  0
 22 25  1  0  0  0  0
 23 24  1  0  0  0  0
 23 49  1  0  0  0  0
 23 50  1  0  0  0  0
 24 51  1  0  0  0  0
 25 26  1  0  0  0  0
 25 52  1  0  0  0  0
 25 53  1  0  0  0  0
 26 27  1  0  0  0  0
 26 54  1  0  0  0  0
 26 55  1  0  0  0  0
 27 28  1  0  0  0  0
 28 29  1  0  0  0  0
 28 56  1  0  0  0  0
 28 57  1  0  0  0  0
 29 58  1  0  0  0  0
 29 59  1  0  0  0  0
M  END
> <s_m_source_file>
AV-unprocessed.smi

> <i_m_source_file_index>
222

> <i_lp_mmshare_version>
43012

> <i_f3d_flags>
0

> <s_epik_input>
W0NIM11PW0NIMl1bQ0gyXU4oW0NIMl1DKD1PKU4oW0NIM10pW0NIM10pYyhuW2NIXW4xKWMoYzEyKW5bY0hdbjJbQ0gyXUMzKFtDSDJdW09IXSlbQ0gyXVtDSDJdT1tDSDJdW0NIMl0z

> <s_epik_cmdline>
J2VwaWtfcHl0aG9uJywgJy1waCcsICc3LjAnLCAnLXRuJywgJzgnLCAnLW1hJywgJzIwMCcsICctbWV0YWxfYmluZGluZycsICctaW1hZScsICc8aW5maWxlLm1hZT4nLCAnLW9tYWUnLCAnPG91dGZpbGUubWFlPic=

> <r_lp_tautomer_probability>
1

> <r_epik_Ionization_Penalty>
0.000796957

> <r_epik_Ionization_Penalty_Charging>
0

> <r_epik_Ionization_Penalty_Neutral>
0.000796957

> <r_epik_State_Penalty>
0.000428513

> <r_epik_Charging_Adjusted_Penalty>
0.000428513

> <i_epik_Tot_Q>
0

> <i_epik_Tot_abs_Q>
0

> <r_epik_Metal_State_Penalty>
-0

> <b_epik_Metal_Only>
0

> <s_lp_Force_Field>
OPLS_2005

> <r_lp_Energy>
34.6666

> <b_lp_Chiralities_Consistent>
1

> <s_lp_Variant>
AV-unprocessed.smi:222-1

> <Gold.Version>
5.8.1

> <Gold.Id.Protein>
6NUR|6NUR_protein|mol2

> <Gold.PLP.Fitness>
42.1857

> <Gold.PLP.PLP>
-35.9956

> <Gold.PLP.part.hbond>
-3.0000

> <Gold.PLP.part.metal>
0.0000

> <Gold.PLP.part.buried>
-6.0129

> <Gold.PLP.part.nonpolar>
-27.0781

> <Gold.PLP.part.repulsive>
0.1388

> <Gold.PLP.ligand.clash>
0.0000

> <Gold.PLP.ligand.torsion>
1.6642

> <Gold.PLP.Chemscore.Hbond>
2.9920

> <Gold.PLP.Chemscore.CHOScore>
0.0000

> <Gold.PLP.Chemscore.Metal>
0.0000

> <Gold.Chemscore.Hbonds>
donor molecule, donor type, donor heavy atom, donor atom, acceptor molecule, acceptor atom, score
      L1  H    24    51       P1  7948  1.00
      P1  H  6896  6909       L1    18  1.00
      P1  H  7989  7998       L1    27  1.00

> <Gold.PLP.Chemscore.Internal.Correction>
0.5425

> <Gold.Rescore>
     Score         DG    S(hbond)    S(metal)    S(lipo)     H(rot)  DE(clash)    DE(int)     intcor
      8.53     -14.00       2.89        0.00      66.63       3.49       0.08       5.39       ----

> <Gold.Chemscore.Fitness>
8.5285

> <Gold.Chemscore.DG>
-13.9991

> <Gold.Chemscore.ZeroCoef>
-5.4800

> <Gold.Chemscore.Hbond>
2.8916

> <Gold.Chemscore.Metal>
0.0000

> <Gold.Chemscore.Lipo>
66.6320

> <Gold.Chemscore.Internal_Hbond>
0.0000

> <Gold.Chemscore.DEClash>
0.0836

> <Gold.Chemscore.DEInternal>
5.3870

> <Gold.Chemscore.Rot>
3.4901

> <Gold.Chemscore.Internal.Correction>
   9.000000E+99

> <Gold.Chemscore.Hbonds>
donor molecule, donor type, donor heavy atom, donor atom, acceptor molecule, acceptor atom, score
      L1  H    24    51       P1  7948  0.95
      P1  H  6896  6909       L1    18  0.96
      P1  H  7989  7998       L1    27  0.43

> <Gold.Chemscore.Hbond.Weighted>
-9.6579

> <Gold.Chemscore.Metal.Weighted>
-0.0000

> <Gold.Chemscore.Lipo.Weighted>
-7.7959

> <Gold.Chemscore.Internal_Hbond.Weighted>
0.0000

> <Gold.Chemscore.DEClash.Weighted>
0.0836

> <Gold.Chemscore.DEInternal.Weighted>
5.3870

> <Gold.Chemscore.Rot.Weighted>
8.9347

> <Gold.Chemscore.Internal.Correction.Weighted>
   9.000000E+99

> <Gold.Protein.RotatedTorsions>
[ 6907 6896 6895 6894 ] final   43.27 input  -60.11 | X-H torsion
[ 7974 7965 7964 7962 ] final  -53.28 input  175.53 | X-H torsion
[ 8008 7997 7996 7995 ] final  145.24 input   59.86 | X-H torsion
[ 10167 10162 10161 10158 ] final   51.20 input  -65.29 | X-H torsion
[ 10718 10713 10712 10709 ] final -115.04 input   66.30 | X-H torsion
[ 10763 10752 10751 10750 ] final -105.73 input  -60.55 | X-H torsion
[ 11005 11000 10999 10996 ] final  118.52 input  -57.11 | X-H torsion

> <Gold.Protein.ActiveResidues>
 VAL166  LYS551  ARG553  GLY616  TRP617  ASP618  TYR619  PRO620  LYS621  CYS622 
 ASP623  PHE694  ASN695  SER759  ASP760  ASP761  ALA762  ILE779  LEU786  VAL792 
 PHE793  MET794  SER795  GLU796  ALA797  LYS798  CYS799  TRP800  GLU811  SER814 

> <Gold.Protein.RotatedAtoms>
  152.2182  134.8437  160.0488 H   0  0  0  0  0  0  0  0  0  0  0  0  # atno 6907 bound_to 6896
  151.9230  133.3585  159.3912 H   0  0  0  0  0  0  0  0  0  0  0  0  # atno 6908 bound_to 6896
  150.6993  134.4540  159.5393 H   0  0  0  0  0  0  0  0  0  0  0  0  # atno 6909 bound_to 6896
  145.8986  140.8012  142.9755 H   0  0  0  0  0  0  0  0  0  0  0  0  # atno 7974 bound_to 7965
  156.2888  140.2214  156.5184 H   0  0  0  0  0  0  0  0  0  0  0  0  # atno 8008 bound_to 7997
  154.7549  140.0477  157.0947 H   0  0  0  0  0  0  0  0  0  0  0  0  # atno 8009 bound_to 7997
  155.0063  140.3107  155.4850 H   0  0  0  0  0  0  0  0  0  0  0  0  # atno 8010 bound_to 7997
  140.2645  144.3336  150.6308 H   0  0  0  0  0  0  0  0  0  0  0  0  # atno 10167 bound_to 10162
  156.0869  130.6059  150.8854 H   0  0  0  0  0  0  0  0  0  0  0  0  # atno 10718 bound_to 10713
  154.7966  135.4738  154.0175 H   0  0  0  0  0  0  0  0  0  0  0  0  # atno 10763 bound_to 10752
  153.1713  135.6825  153.8611 H   0  0  0  0  0  0  0  0  0  0  0  0  # atno 10764 bound_to 10752
  153.8192  135.3206  155.3386 H   0  0  0  0  0  0  0  0  0  0  0  0  # atno 10765 bound_to 10752
  139.9113  134.9621  156.7516 H   0  0  0  0  0  0  0  0  0  0  0  0  # atno 11005 bound_to 11000
  144.6734  140.1642  143.7420 LP  0  0  0  0  0  0  0  0  0  0  0  0  # atno 17320 bound_to 7965
  145.8819  139.2327  143.1600 LP  0  0  0  0  0  0  0  0  0  0  0  0  # atno 17321 bound_to 7965
  140.5940  143.2167  151.7200 LP  0  0  0  0  0  0  0  0  0  0  0  0  # atno 17342 bound_to 10162
  139.5007  144.3896  152.0293 LP  0  0  0  0  0  0  0  0  0  0  0  0  # atno 17343 bound_to 10162
  157.6007  131.0941  150.8965 LP  0  0  0  0  0  0  0  0  0  0  0  0  # atno 17370 bound_to 10713
  156.9123  130.5285  149.5280 LP  0  0  0  0  0  0  0  0  0  0  0  0  # atno 17371 bound_to 10713
  140.6769  133.9509  155.7888 LP  0  0  0  0  0  0  0  0  0  0  0  0  # atno 17394 bound_to 11000
  141.0538  134.0446  157.3749 LP  0  0  0  0  0  0  0  0  0  0  0  0  # atno 17395 bound_to 11000

$$$$
