AV-unprocessed.smi:1740|AV-procd|sdf|7008|dock1
  -GOLD-   22720 8223D 1   1.00000     0.00000
 Structure written by MMmdl.
 52 54  0  0  0  0  0  0  0  0  2 V2000
  144.7615  135.7297  151.0485 N   0  0  0  0  0  0  0  0  0  0  0  0
  145.4805  135.8053  152.1705 C   0  0  0  0  0  0  0  0  0  0  0  0
  145.8616  136.8787  152.6338 O   0  0  0  0  0  0  0  0  0  0  0  0
  145.7988  134.4839  152.8781 C   0  0  0  0  0  0  0  0  0  0  0  0
  147.1453  134.4700  153.5060 N   0  3  2  0  0  0  0  0  0  0  0  0
  147.5427  133.1262  154.0058 C   0  0  0  0  0  0  0  0  0  0  0  0
  148.9949  133.1304  154.5161 C   0  0  0  0  0  0  0  0  0  0  0  0
  149.2234  134.2042  155.5972 C   0  0  2  0  0  0  0  0  0  0  0  0
  148.5561  133.8566  156.8514 N   0  0  0  0  0  0  0  0  0  0  0  0
  148.7036  134.5063  158.0148 C   0  0  0  0  0  0  0  0  0  0  0  0
  149.4384  135.4828  158.1591 O   0  0  0  0  0  0  0  0  0  0  0  0
  147.9399  133.9569  158.9739 N   0  0  0  0  0  0  0  0  0  0  0  0
  147.7474  134.3985  160.3140 C   0  0  0  0  0  0  0  0  0  0  0  0
  147.6951  135.7746  160.6469 C   0  0  0  0  0  0  0  0  0  0  0  0
  147.5690  136.1545  161.9941 C   0  0  0  0  0  0  0  0  0  0  0  0
  147.5159  135.1435  162.9677 C   0  0  0  0  0  0  0  0  0  0  0  0
  147.5791  133.8306  162.6695 N   0  0  0  0  0  0  0  0  0  0  0  0
  147.6861  133.4477  161.3733 C   0  0  0  0  0  0  0  0  0  0  0  0
  147.7339  132.0573  161.1196 N   0  0  0  0  0  0  0  0  0  0  0  0
  146.4997  131.2918  161.2707 C   0  0  0  0  0  0  0  0  0  0  0  0
  146.9016  129.9284  161.8438 C   0  0  0  0  0  0  0  0  0  0  0  0
  148.3816  129.8103  161.4931 C   0  0  0  0  0  0  0  0  0  0  0  0
  148.8561  131.2567  161.5979 C   0  0  0  0  0  0  0  0  0  0  0  0
  148.7340  135.5704  155.0869 C   0  0  0  0  0  0  0  0  0  0  0  0
  147.2894  135.5083  154.5581 C   0  0  0  0  0  0  0  0  0  0  0  0
  144.5208  136.5752  150.5503 H   0  0  0  0  0  0  0  0  0  0  0  0
  144.4527  134.8331  150.7013 H   0  0  0  0  0  0  0  0  0  0  0  0
  145.0349  134.3515  153.6455 H   0  0  0  0  0  0  0  0  0  0  0  0
  145.6984  133.6442  152.1882 H   0  0  0  0  0  0  0  0  0  0  0  0
  146.8642  132.8160  154.8018 H   0  0  0  0  0  0  0  0  0  0  0  0
  147.4488  132.3868  153.2100 H   0  0  0  0  0  0  0  0  0  0  0  0
  149.2620  132.1429  154.8943 H   0  0  0  0  0  0  0  0  0  0  0  0
  149.6644  133.3213  153.6763 H   0  0  0  0  0  0  0  0  0  0  0  0
  150.2946  134.2837  155.7920 H   0  0  0  0  0  0  0  0  0  0  0  0
  147.9234  133.0704  156.8292 H   0  0  0  0  0  0  0  0  0  0  0  0
  147.3338  133.2045  158.6818 H   0  0  0  0  0  0  0  0  0  0  0  0
  147.7732  136.5461  159.8967 H   0  0  0  0  0  0  0  0  0  0  0  0
  147.5274  137.1964  162.2750 H   0  0  0  0  0  0  0  0  0  0  0  0
  147.4274  135.3946  164.0143 H   0  0  0  0  0  0  0  0  0  0  0  0
  145.7778  131.7970  161.9141 H   0  0  0  0  0  0  0  0  0  0  0  0
  146.0443  131.1604  160.2889 H   0  0  0  0  0  0  0  0  0  0  0  0
  146.7834  129.9376  162.9282 H   0  0  0  0  0  0  0  0  0  0  0  0
  146.3022  129.1086  161.4473 H   0  0  0  0  0  0  0  0  0  0  0  0
  148.9260  129.1349  162.1535 H   0  0  0  0  0  0  0  0  0  0  0  0
  148.4957  129.4521  160.4690 H   0  0  0  0  0  0  0  0  0  0  0  0
  149.7530  131.4336  161.0039 H   0  0  0  0  0  0  0  0  0  0  0  0
  149.0824  131.4881  162.6394 H   0  0  0  0  0  0  0  0  0  0  0  0
  148.8138  136.3200  155.8754 H   0  0  0  0  0  0  0  0  0  0  0  0
  149.3911  135.9068  154.2837 H   0  0  0  0  0  0  0  0  0  0  0  0
  147.0192  136.4836  154.1515 H   0  0  0  0  0  0  0  0  0  0  0  0
  146.5932  135.3021  155.3726 H   0  0  0  0  0  0  0  0  0  0  0  0
  147.7962  134.7154  152.7732 H   0  0  0  0  0  0  0  0  0  0  0  0
  1  2  1  0  0  0  0
  1 26  1  0  0  0  0
  1 27  1  0  0  0  0
  2  3  2  0  0  0  0
  2  4  1  0  0  0  0
  4  5  1  0  0  0  0
  4 28  1  0  0  0  0
  4 29  1  0  0  0  0
  5 25  1  0  0  0  0
  5  6  1  0  0  0  0
  5 52  1  0  0  0  0
  6  7  1  0  0  0  0
  6 30  1  0  0  0  0
  6 31  1  0  0  0  0
  7  8  1  0  0  0  0
  7 32  1  0  0  0  0
  7 33  1  0  0  0  0
  8  9  1  0  0  0  0
  8 24  1  0  0  0  0
  8 34  1  0  0  0  0
  9 10  1  0  0  0  0
  9 35  1  0  0  0  0
 10 11  2  0  0  0  0
 10 12  1  0  0  0  0
 12 13  1  0  0  0  0
 12 36  1  0  0  0  0
 13 18  1  0  0  0  0
 13 14  2  0  0  0  0
 14 15  1  0  0  0  0
 14 37  1  0  0  0  0
 15 16  2  0  0  0  0
 15 38  1  0  0  0  0
 16 17  1  0  0  0  0
 16 39  1  0  0  0  0
 17 18  2  0  0  0  0
 18 19  1  0  0  0  0
 19 23  1  0  0  0  0
 19 20  1  0  0  0  0
 20 21  1  0  0  0  0
 20 40  1  0  0  0  0
 20 41  1  0  0  0  0
 21 22  1  0  0  0  0
 21 42  1  0  0  0  0
 21 43  1  0  0  0  0
 22 23  1  0  0  0  0
 22 44  1  0  0  0  0
 22 45  1  0  0  0  0
 23 46  1  0  0  0  0
 23 47  1  0  0  0  0
 24 25  1  0  0  0  0
 24 48  1  0  0  0  0
 24 49  1  0  0  0  0
 25 50  1  0  0  0  0
 25 51  1  0  0  0  0
M  CHG  1   5   1
M  END
> <s_m_source_file>
AV-unprocessed.smi

> <i_m_source_file_index>
1740

> <i_lp_mmshare_version>
43012

> <i_f3d_flags>
0

> <s_epik_input>
W05IMl1DKD1PKVtDSDJdTjFbQ0gyXVtDSDJdW0NIXShbQ0gyXVtDSDJdMSlbTkhdQyg9TylbTkhdYzJbY0hdW2NIXVtjSF1uYzJOM1tDSDJdW0NIMl1bQ0gyXVtDSDJdMw==

> <s_epik_cmdline>
J2VwaWtfcHl0aG9uJywgJy1waCcsICc3LjAnLCAnLXRuJywgJzgnLCAnLW1hJywgJzIwMCcsICctbWV0YWxfYmluZGluZycsICctaW1hZScsICc8aW5maWxlLm1hZT4nLCAnLW9tYWUnLCAnPG91dGZpbGUubWFlPic=

> <r_lp_tautomer_probability>
1

> <r_epik_Ionization_Penalty>
0.91661

> <r_epik_Ionization_Penalty_Charging>
0.838844

> <r_epik_Ionization_Penalty_Neutral>
0.0777664

> <r_epik_State_Penalty>
0.927046

> <r_epik_Charging_Adjusted_Penalty>
1.76589

> <i_epik_Tot_Q>
1

> <i_epik_Tot_abs_Q>
1

> <r_epik_Metal_State_Penalty>
0.950555

> <b_epik_Metal_Only>
0

> <s_lp_Force_Field>
OPLS_2005

> <r_lp_Energy>
41.6121

> <b_lp_Chiralities_Consistent>
1

> <s_lp_Variant>
AV-unprocessed.smi:1740-3

> <Gold.Version>
5.8.1

> <Gold.Id.Protein>
6NUR|6NUR_protein|mol2

> <Gold.PLP.Fitness>
42.7782

> <Gold.PLP.PLP>
-32.1062

> <Gold.PLP.part.hbond>
-3.0000

> <Gold.PLP.part.metal>
0.0000

> <Gold.PLP.part.buried>
-4.9612

> <Gold.PLP.part.nonpolar>
-25.9043

> <Gold.PLP.part.repulsive>
0.5610

> <Gold.PLP.ligand.clash>
0.0000

> <Gold.PLP.ligand.torsion>
0.8718

> <Gold.PLP.Chemscore.Hbond>
4.0000

> <Gold.PLP.Chemscore.CHOScore>
0.0000

> <Gold.PLP.Chemscore.Metal>
0.0000

> <Gold.Chemscore.Hbonds>
donor molecule, donor type, donor heavy atom, donor atom, acceptor molecule, acceptor atom, score
      L1  H     1    26       P1 10171  0.50
      L1  H     5    52       P1  7948  1.71
      P1  H  6896  6908       L1    11  0.73

> <Gold.PLP.Chemscore.Internal.Correction>
0.4156

> <Gold.Rescore>
     Score         DG    S(hbond)    S(metal)    S(lipo)     H(rot)  DE(clash)    DE(int)     intcor
     13.75     -17.05       2.90        0.00      64.19       2.19       0.34       2.96       ----

> <Gold.Chemscore.Fitness>
13.7479

> <Gold.Chemscore.DG>
-17.0465

> <Gold.Chemscore.ZeroCoef>
-5.4800

> <Gold.Chemscore.Hbond>
2.8959

> <Gold.Chemscore.Metal>
0.0000

> <Gold.Chemscore.Lipo>
64.1918

> <Gold.Chemscore.Internal_Hbond>
0.0000

> <Gold.Chemscore.DEClash>
0.3364

> <Gold.Chemscore.DEInternal>
2.9623

> <Gold.Chemscore.Rot>
2.1939

> <Gold.Chemscore.Internal.Correction>
   9.000000E+99

> <Gold.Chemscore.Hbonds>
donor molecule, donor type, donor heavy atom, donor atom, acceptor molecule, acceptor atom, score
      L1  H     1    26       P1 10171  0.50
      L1  H     5    52       P1  7948  0.70
      P1  H  6896  6908       L1    11  0.10

> <Gold.Chemscore.Hbond.Weighted>
-9.6724

> <Gold.Chemscore.Metal.Weighted>
-0.0000

> <Gold.Chemscore.Lipo.Weighted>
-7.5104

> <Gold.Chemscore.Internal_Hbond.Weighted>
0.0000

> <Gold.Chemscore.DEClash.Weighted>
0.3364

> <Gold.Chemscore.DEInternal.Weighted>
2.9623

> <Gold.Chemscore.Rot.Weighted>
5.6163

> <Gold.Chemscore.Internal.Correction.Weighted>
   9.000000E+99

> <Gold.Protein.RotatedTorsions>
[ 6907 6896 6895 6894 ] final  172.05 input  -60.11 | X-H torsion
[ 7974 7965 7964 7962 ] final -125.20 input  175.53 | X-H torsion
[ 8008 7997 7996 7995 ] final  -45.56 input   59.86 | X-H torsion
[ 10167 10162 10161 10158 ] final  168.88 input  -65.29 | X-H torsion
[ 10718 10713 10712 10709 ] final -136.62 input   66.30 | X-H torsion
[ 10763 10752 10751 10750 ] final   19.00 input  -60.55 | X-H torsion
[ 11005 11000 10999 10996 ] final   39.22 input  -57.11 | X-H torsion

> <Gold.Protein.ActiveResidues>
 VAL166  LYS551  ARG553  GLY616  TRP617  ASP618  TYR619  PRO620  LYS621  CYS622 
 ASP623  PHE694  ASN695  SER759  ASP760  ASP761  ALA762  ILE779  LEU786  VAL792 
 PHE793  MET794  SER795  GLU796  ALA797  LYS798  CYS799  TRP800  GLU811  SER814 

> <Gold.Protein.RotatedAtoms>
  151.7904  133.3358  159.3497 H   0  0  0  0  0  0  0  0  0  0  0  0  # atno 6907 bound_to 6896
  150.7394  134.5848  159.5966 H   0  0  0  0  0  0  0  0  0  0  0  0  # atno 6908 bound_to 6896
  152.3214  134.7377  160.0364 H   0  0  0  0  0  0  0  0  0  0  0  0  # atno 6909 bound_to 6896
  145.0001  140.7812  143.4501 H   0  0  0  0  0  0  0  0  0  0  0  0  # atno 7974 bound_to 7965
  154.4001  140.1393  156.3868 H   0  0  0  0  0  0  0  0  0  0  0  0  # atno 8008 bound_to 7997
  155.7952  140.3477  155.5351 H   0  0  0  0  0  0  0  0  0  0  0  0  # atno 8009 bound_to 7997
  155.8539  140.0946  157.1647 H   0  0  0  0  0  0  0  0  0  0  0  0  # atno 8010 bound_to 7997
  139.4978  144.3766  151.9667 H   0  0  0  0  0  0  0  0  0  0  0  0  # atno 10167 bound_to 10162
  156.2791  130.7310  151.1302 H   0  0  0  0  0  0  0  0  0  0  0  0  # atno 10718 bound_to 10713
  153.1200  135.6717  153.9352 H   0  0  0  0  0  0  0  0  0  0  0  0  # atno 10763 bound_to 10752
  153.8870  135.3051  155.3448 H   0  0  0  0  0  0  0  0  0  0  0  0  # atno 10764 bound_to 10752
  154.7613  135.4987  153.9548 H   0  0  0  0  0  0  0  0  0  0  0  0  # atno 10765 bound_to 10752
  140.2049  134.3826  155.8077 H   0  0  0  0  0  0  0  0  0  0  0  0  # atno 11005 bound_to 11000
  145.2165  139.2179  143.5115 LP  0  0  0  0  0  0  0  0  0  0  0  0  # atno 17320 bound_to 7965
  146.3450  140.2014  142.8589 LP  0  0  0  0  0  0  0  0  0  0  0  0  # atno 17321 bound_to 7965
  140.3202  144.3436  150.6011 LP  0  0  0  0  0  0  0  0  0  0  0  0  # atno 17342 bound_to 10162
  140.5728  143.2179  151.7568 LP  0  0  0  0  0  0  0  0  0  0  0  0  # atno 17343 bound_to 10162
  157.7309  131.0613  150.5706 LP  0  0  0  0  0  0  0  0  0  0  0  0  # atno 17370 bound_to 10713
  156.5810  130.4304  149.5977 LP  0  0  0  0  0  0  0  0  0  0  0  0  # atno 17371 bound_to 10713
  141.2227  133.7113  156.8320 LP  0  0  0  0  0  0  0  0  0  0  0  0  # atno 17394 bound_to 11000
  140.2014  134.8894  157.3173 LP  0  0  0  0  0  0  0  0  0  0  0  0  # atno 17395 bound_to 11000

$$$$
