AV-unprocessed.smi:1701|AV-procd|sdf|6840|dock7
  -GOLD-   22720 8 13D 1   1.00000     0.00000
 Structure written by MMmdl.
 54 56  0  0  0  0  0  0  0  0  4 V2000
  153.8375  141.9936  159.8161 C   0  0  0  0  0  0  0  0  0  0  0  0
  152.4336  142.6037  159.6898 C   0  0  0  0  0  0  0  0  0  0  0  0
  152.1000  142.9781  158.3155 N   0  0  0  0  0  0  0  0  0  0  0  0
  152.0022  144.4098  158.0210 C   0  0  0  0  0  0  0  0  0  0  0  0
  151.9077  145.2785  159.2852 C   0  0  0  0  0  0  0  0  0  0  0  0
  151.2611  142.0785  157.6167 C   0  0  0  0  0  0  0  0  0  0  0  0
  151.3820  140.6738  157.7442 C   0  0  0  0  0  0  0  0  0  0  0  0
  150.5144  139.8257  157.0266 C   0  0  0  0  0  0  0  0  0  0  0  0
  149.5217  140.3807  156.1939 C   0  0  0  0  0  0  0  0  0  0  0  0
  148.6876  139.4854  155.4720 N   0  0  0  0  0  0  0  0  0  0  0  0
  148.9394  138.2201  155.0543 C   0  0  0  0  0  0  0  0  0  0  0  0
  150.0491  137.7325  155.2606 O   0  0  0  0  0  0  0  0  0  0  0  0
  147.9711  137.5199  154.3887 N   0  5  0  0  0  0  0  0  0  0  0  0
  146.5883  137.9216  154.0679 C   0  0  1  0  0  0  0  0  0  0  0  0
  146.6094  139.1258  153.1054 C   0  0  0  0  0  0  0  0  0  0  0  0
  146.5777  138.5332  151.6809 C   0  0  0  0  0  0  0  0  0  0  0  0
  146.4630  137.0717  151.8580 N   0  3  2  0  0  0  0  0  0  0  0  0
  145.7527  136.3185  150.8006 C   0  0  0  0  0  0  0  0  0  0  0  0
  145.7899  134.8114  151.1257 C   0  0  0  0  0  0  0  0  0  0  0  0
  145.2544  134.5154  152.5416 C   0  0  0  0  0  0  0  0  0  0  0  0
  145.9834  135.3667  153.5988 C   0  0  0  0  0  0  0  0  0  0  0  0
  145.8972  136.8568  153.1999 C   0  0  1  0  0  0  0  0  0  0  0  0
  149.4480  141.7892  156.0870 C   0  0  0  0  0  0  0  0  0  0  0  0
  150.3006  142.5640  156.7916 N   0  3  0  0  0  0  0  0  0  0  0  0
  154.0431  141.7136  160.8492 H   0  0  0  0  0  0  0  0  0  0  0  0
  154.6086  142.6992  159.5056 H   0  0  0  0  0  0  0  0  0  0  0  0
  153.9381  141.0955  159.2059 H   0  0  0  0  0  0  0  0  0  0  0  0
  151.6967  141.8784  160.0368 H   0  0  0  0  0  0  0  0  0  0  0  0
  152.3369  143.4536  160.3634 H   0  0  0  0  0  0  0  0  0  0  0  0
  152.8507  144.7218  157.4108 H   0  0  0  0  0  0  0  0  0  0  0  0
  151.1161  144.5871  157.4105 H   0  0  0  0  0  0  0  0  0  0  0  0
  151.7990  146.3298  159.0193 H   0  0  0  0  0  0  0  0  0  0  0  0
  152.7929  145.1919  159.9148 H   0  0  0  0  0  0  0  0  0  0  0  0
  151.0420  145.0000  159.8867 H   0  0  0  0  0  0  0  0  0  0  0  0
  152.1413  140.2313  158.3706 H   0  0  0  0  0  0  0  0  0  0  0  0
  150.6125  138.7537  157.1187 H   0  0  0  0  0  0  0  0  0  0  0  0
  147.7963  139.8627  155.1855 H   0  0  0  0  0  0  0  0  0  0  0  0
  145.9972  138.1370  154.9589 H   0  0  0  0  0  0  0  0  0  0  0  0
  145.7160  139.7313  153.2621 H   0  0  0  0  0  0  0  0  0  0  0  0
  147.4665  139.7829  153.2602 H   0  0  0  0  0  0  0  0  0  0  0  0
  145.7235  138.9262  151.1272 H   0  0  0  0  0  0  0  0  0  0  0  0
  147.4812  138.7692  151.1176 H   0  0  0  0  0  0  0  0  0  0  0  0
  144.7212  136.6665  150.7283 H   0  0  0  0  0  0  0  0  0  0  0  0
  146.2264  136.5082  149.8370 H   0  0  0  0  0  0  0  0  0  0  0  0
  145.2132  134.2564  150.3854 H   0  0  0  0  0  0  0  0  0  0  0  0
  146.8166  134.4519  151.0486 H   0  0  0  0  0  0  0  0  0  0  0  0
  144.1852  134.7283  152.5773 H   0  0  0  0  0  0  0  0  0  0  0  0
  145.3666  133.4555  152.7715 H   0  0  0  0  0  0  0  0  0  0  0  0
  145.5364  135.2001  154.5802 H   0  0  0  0  0  0  0  0  0  0  0  0
  147.0212  135.0345  153.6658 H   0  0  0  0  0  0  0  0  0  0  0  0
  144.8387  137.1235  153.1552 H   0  0  0  0  0  0  0  0  0  0  0  0
  148.7550  142.3285  155.4587 H   0  0  0  0  0  0  0  0  0  0  0  0
  147.4087  136.7195  151.9071 H   0  0  0  0  0  0  0  0  0  0  0  0
  150.2175  143.5758  156.6923 H   0  0  0  0  0  0  0  0  0  0  0  0
  1  2  1  0  0  0  0
  1 25  1  0  0  0  0
  1 26  1  0  0  0  0
  1 27  1  0  0  0  0
  2  3  1  0  0  0  0
  2 28  1  0  0  0  0
  2 29  1  0  0  0  0
  3  4  1  0  0  0  0
  3  6  1  0  0  0  0
  4  5  1  0  0  0  0
  4 30  1  0  0  0  0
  4 31  1  0  0  0  0
  5 32  1  0  0  0  0
  5 33  1  0  0  0  0
  5 34  1  0  0  0  0
  6 24  1  0  0  0  0
  6  7  2  0  0  0  0
  7  8  1  0  0  0  0
  7 35  1  0  0  0  0
  8  9  2  0  0  0  0
  8 36  1  0  0  0  0
  9 10  1  0  0  0  0
  9 23  1  0  0  0  0
 10 11  1  0  0  0  0
 10 37  1  0  0  0  0
 11 12  2  0  0  0  0
 11 13  1  0  0  0  0
 13 14  1  0  0  0  0
 14 22  1  0  0  0  0
 14 15  1  0  0  0  0
 14 38  1  0  0  0  0
 15 16  1  0  0  0  0
 15 39  1  0  0  0  0
 15 40  1  0  0  0  0
 16 17  1  0  0  0  0
 16 41  1  0  0  0  0
 16 42  1  0  0  0  0
 17 22  1  0  0  0  0
 17 18  1  0  0  0  0
 17 53  1  0  0  0  0
 18 19  1  0  0  0  0
 18 43  1  0  0  0  0
 18 44  1  0  0  0  0
 19 20  1  0  0  0  0
 19 45  1  0  0  0  0
 19 46  1  0  0  0  0
 20 21  1  0  0  0  0
 20 47  1  0  0  0  0
 20 48  1  0  0  0  0
 21 22  1  0  0  0  0
 21 49  1  0  0  0  0
 21 50  1  0  0  0  0
 22 51  1  0  0  0  0
 23 24  2  0  0  0  0
 23 52  1  0  0  0  0
 24 54  1  0  0  0  0
M  CHG  1  13  -1
M  CHG  1  17   1
M  CHG  1  24   1
M  END
> <s_m_source_file>
AV-unprocessed.smi

> <i_m_source_file_index>
1701

> <i_lp_mmshare_version>
43012

> <i_f3d_flags>
0

> <s_epik_input>
W0NIM11bQ0gyXU4oW0NIMl1bQ0gzXSljMVtjSF1bY0hdYyhbY0hdbjEpW05IXUMoPU8pW05IXVtDQEhdKFtDSDJdW0NIMl0yKVtDQEBIXShOMjMpW0NIMl1bQ0gyXVtDSDJdW0NIMl0z

> <s_epik_cmdline>
J2VwaWtfcHl0aG9uJywgJy1waCcsICc3LjAnLCAnLXRuJywgJzgnLCAnLW1hJywgJzIwMCcsICctbWV0YWxfYmluZGluZycsICctaW1hZScsICc8aW5maWxlLm1hZT4nLCAnLW9tYWUnLCAnPG91dGZpbGUubWFlPic=

> <r_lp_tautomer_probability>
0.999994

> <r_epik_Ionization_Penalty>
7.37095

> <r_epik_Ionization_Penalty_Charging>
7.37095

> <r_epik_Ionization_Penalty_Neutral>
3.78969e-06

> <r_epik_State_Penalty>
6.83842

> <r_epik_Charging_Adjusted_Penalty>
14.2094

> <i_epik_Tot_Q>
1

> <i_epik_Tot_abs_Q>
3

> <r_epik_Metal_State_Penalty>
2.78552

> <b_epik_Metal_Only>
1

> <s_lp_Force_Field>
OPLS_2005

> <r_lp_Energy>
51.4286

> <b_lp_Chiralities_Consistent>
1

> <s_lp_Variant>
AV-unprocessed.smi:1701-20

> <Gold.Version>
5.8.1

> <Gold.Id.Protein>
6NUR|6NUR_protein|mol2

> <Gold.PLP.Fitness>
51.0694

> <Gold.PLP.PLP>
-41.7404

> <Gold.PLP.part.hbond>
-2.0000

> <Gold.PLP.part.metal>
0.0000

> <Gold.PLP.part.buried>
-3.8107

> <Gold.PLP.part.nonpolar>
-38.9741

> <Gold.PLP.part.repulsive>
1.0712

> <Gold.PLP.ligand.clash>
0.0000

> <Gold.PLP.ligand.torsion>
0.8184

> <Gold.PLP.Chemscore.Hbond>
3.3120

> <Gold.PLP.Chemscore.CHOScore>
0.0000

> <Gold.PLP.Chemscore.Metal>
0.0000

> <Gold.Chemscore.Hbonds>
donor molecule, donor type, donor heavy atom, donor atom, acceptor molecule, acceptor atom, score
      L1  H    17    53       P1  7948  2.00
      L1  H    24    54       P1  8028  1.28

> <Gold.PLP.Chemscore.Internal.Correction>
1.0299

> <Gold.Rescore>
     Score         DG    S(hbond)    S(metal)    S(lipo)     H(rot)  DE(clash)    DE(int)     intcor
     17.47     -20.46       1.64        0.00     109.19       1.28       0.80       2.19       ----

> <Gold.Chemscore.Fitness>
17.4667

> <Gold.Chemscore.DG>
-20.4580

> <Gold.Chemscore.ZeroCoef>
-5.4800

> <Gold.Chemscore.Hbond>
1.6436

> <Gold.Chemscore.Metal>
0.0000

> <Gold.Chemscore.Lipo>
109.1866

> <Gold.Chemscore.Internal_Hbond>
0.0000

> <Gold.Chemscore.DEClash>
0.8043

> <Gold.Chemscore.DEInternal>
2.1870

> <Gold.Chemscore.Rot>
1.2838

> <Gold.Chemscore.Internal.Correction>
   9.000000E+99

> <Gold.Chemscore.Hbonds>
donor molecule, donor type, donor heavy atom, donor atom, acceptor molecule, acceptor atom, score
      L1  H    17    53       P1  7948  0.99
      L1  H    24    54       P1  8028  0.60

> <Gold.Chemscore.Hbond.Weighted>
-5.4897

> <Gold.Chemscore.Metal.Weighted>
-0.0000

> <Gold.Chemscore.Lipo.Weighted>
-12.7748

> <Gold.Chemscore.Internal_Hbond.Weighted>
0.0000

> <Gold.Chemscore.DEClash.Weighted>
0.8043

> <Gold.Chemscore.DEInternal.Weighted>
2.1870

> <Gold.Chemscore.Rot.Weighted>
3.2865

> <Gold.Chemscore.Internal.Correction.Weighted>
   9.000000E+99

> <Gold.Protein.RotatedTorsions>
[ 6907 6896 6895 6894 ] final   68.05 input  -60.11 | X-H torsion
[ 7974 7965 7964 7962 ] final   18.99 input  175.53 | X-H torsion
[ 8008 7997 7996 7995 ] final  108.76 input   59.86 | X-H torsion
[ 10167 10162 10161 10158 ] final -120.12 input  -65.29 | X-H torsion
[ 10718 10713 10712 10709 ] final  -42.83 input   66.30 | X-H torsion
[ 10763 10752 10751 10750 ] final  -30.28 input  -60.55 | X-H torsion
[ 11005 11000 10999 10996 ] final   -7.30 input  -57.11 | X-H torsion

> <Gold.Protein.ActiveResidues>
 VAL166  LYS551  ARG553  GLY616  TRP617  ASP618  TYR619  PRO620  LYS621  CYS622 
 ASP623  PHE694  ASN695  SER759  ASP760  ASP761  ALA762  ILE779  LEU786  VAL792 
 PHE793  MET794  SER795  GLU796  ALA797  LYS798  CYS799  TRP800  GLU811  SER814 

> <Gold.Protein.RotatedAtoms>
  152.4594  134.5219  159.9784 H   0  0  0  0  0  0  0  0  0  0  0  0  # atno 6907 bound_to 6896
  151.5271  133.3450  159.2919 H   0  0  0  0  0  0  0  0  0  0  0  0  # atno 6908 bound_to 6896
  150.8551  134.7917  159.7101 H   0  0  0  0  0  0  0  0  0  0  0  0  # atno 6909 bound_to 6896
  146.2165  139.8378  142.8647 H   0  0  0  0  0  0  0  0  0  0  0  0  # atno 7974 bound_to 7965
  156.1927  140.3070  155.9366 H   0  0  0  0  0  0  0  0  0  0  0  0  # atno 8008 bound_to 7997
  155.3136  140.0452  157.3053 H   0  0  0  0  0  0  0  0  0  0  0  0  # atno 8009 bound_to 7997
  154.5472  140.2280  155.8553 H   0  0  0  0  0  0  0  0  0  0  0  0  # atno 8010 bound_to 7997
  140.0393  143.5170  152.2138 H   0  0  0  0  0  0  0  0  0  0  0  0  # atno 10167 bound_to 10162
  156.2554  130.4192  149.8602 H   0  0  0  0  0  0  0  0  0  0  0  0  # atno 10718 bound_to 10713
  153.7785  135.6907  153.4893 H   0  0  0  0  0  0  0  0  0  0  0  0  # atno 10763 bound_to 10752
  153.1827  135.4500  155.0048 H   0  0  0  0  0  0  0  0  0  0  0  0  # atno 10764 bound_to 10752
  154.8091  135.3369  154.7289 H   0  0  0  0  0  0  0  0  0  0  0  0  # atno 10765 bound_to 10752
  140.7113  133.8906  155.8753 H   0  0  0  0  0  0  0  0  0  0  0  0  # atno 11005 bound_to 11000
  145.2931  141.0173  143.3652 LP  0  0  0  0  0  0  0  0  0  0  0  0  # atno 17320 bound_to 7965
  144.9062  139.4586  143.6608 LP  0  0  0  0  0  0  0  0  0  0  0  0  # atno 17321 bound_to 7965
  139.6024  144.7586  151.3140 LP  0  0  0  0  0  0  0  0  0  0  0  0  # atno 17342 bound_to 10162
  140.7267  143.6982  150.7866 LP  0  0  0  0  0  0  0  0  0  0  0  0  # atno 17343 bound_to 10162
  156.6136  130.8597  151.3460 LP  0  0  0  0  0  0  0  0  0  0  0  0  # atno 17370 bound_to 10713
  157.7230  130.9585  150.1518 LP  0  0  0  0  0  0  0  0  0  0  0  0  # atno 17371 bound_to 10713
  141.0082  134.1057  157.4249 LP  0  0  0  0  0  0  0  0  0  0  0  0  # atno 17394 bound_to 11000
  139.8871  135.0087  156.6539 LP  0  0  0  0  0  0  0  0  0  0  0  0  # atno 17395 bound_to 11000

$$$$
