AV-unprocessed.smi:612|AV-procd|sdf|3062|dock1
  -GOLD-   2262023583D 1   1.00000     0.00000
 Structure written by MMmdl.
 50 52  0  0  0  0  0  0  0  0  2 V2000
  152.9888  142.0939  161.2046 C   0  0  0  0  0  0  0  0  0  0  0  0
  152.5028  142.6080  159.9215 N   0  0  0  0  0  0  0  0  0  0  0  0
  152.5920  143.9926  159.7003 C   0  0  0  0  0  0  0  0  0  0  0  0
  152.1688  144.5508  158.5577 C   0  0  0  0  0  0  0  0  0  0  0  0
  151.6101  143.6932  157.5404 C   0  0  0  0  0  0  0  0  0  0  0  0
  151.5213  142.3523  157.7296 C   0  0  0  0  0  0  0  0  0  0  0  0
  150.9851  141.4437  156.7994 N   0  0  0  0  0  0  0  0  0  0  0  0
  149.7381  140.9454  156.7075 C   0  0  0  0  0  0  0  0  0  0  0  0
  148.7935  141.2239  157.4453 O   0  0  0  0  0  0  0  0  0  0  0  0
  149.6397  140.0991  155.6715 N   0  0  0  0  0  0  0  0  0  0  0  0
  148.4268  139.4035  155.2476 C   0  0  2  0  0  0  0  0  0  0  0  0
  148.6366  137.8835  155.3015 C   0  0  0  0  0  0  0  0  0  0  0  0
  147.4060  137.1334  154.7632 C   0  0  0  0  0  0  0  0  0  0  0  0
  147.0639  137.5570  153.3761 N   0  3  1  0  0  0  0  0  0  0  0  0
  145.9379  136.7725  152.7899 C   0  0  0  0  0  0  0  0  0  0  0  0
  146.1059  135.2515  152.9211 C   0  0  0  0  0  0  0  0  0  0  0  0
  145.1796  134.6480  151.8606 C   0  0  0  0  0  0  0  0  0  0  0  0
  144.9722  135.7391  150.8017 C   0  0  0  0  0  0  0  0  0  0  0  0
  145.7846  136.9495  151.2717 C   0  0  0  0  0  0  0  0  0  0  0  0
  146.8411  139.0286  153.3068 C   0  0  0  0  0  0  0  0  0  0  0  0
  148.0620  139.8128  153.8143 C   0  0  0  0  0  0  0  0  0  0  0  0
  151.9844  141.7483  158.9948 C   0  0  0  0  0  0  0  0  0  0  0  0
  151.9144  140.5368  159.2175 O   0  0  0  0  0  0  0  0  0  0  0  0
  153.3919  142.8773  161.8475 H   0  0  0  0  0  0  0  0  0  0  0  0
  153.7828  141.3619  161.0494 H   0  0  0  0  0  0  0  0  0  0  0  0
  152.1801  141.6079  161.7523 H   0  0  0  0  0  0  0  0  0  0  0  0
  153.0208  144.5667  160.5088 H   0  0  0  0  0  0  0  0  0  0  0  0
  152.2439  145.6169  158.4016 H   0  0  0  0  0  0  0  0  0  0  0  0
  151.2573  144.1688  156.6402 H   0  0  0  0  0  0  0  0  0  0  0  0
  151.6332  141.1578  156.0798 H   0  0  0  0  0  0  0  0  0  0  0  0
  150.4700  139.9351  155.1209 H   0  0  0  0  0  0  0  0  0  0  0  0
  147.5898  139.6588  155.9001 H   0  0  0  0  0  0  0  0  0  0  0  0
  149.5148  137.6059  154.7162 H   0  0  0  0  0  0  0  0  0  0  0  0
  148.8375  137.5708  156.3270 H   0  0  0  0  0  0  0  0  0  0  0  0
  147.6218  136.0662  154.7963 H   0  0  0  0  0  0  0  0  0  0  0  0
  146.5487  137.3027  155.4168 H   0  0  0  0  0  0  0  0  0  0  0  0
  145.0058  137.0675  153.2757 H   0  0  0  0  0  0  0  0  0  0  0  0
  147.1369  134.9697  152.7012 H   0  0  0  0  0  0  0  0  0  0  0  0
  145.8657  134.8818  153.9185 H   0  0  0  0  0  0  0  0  0  0  0  0
  145.6037  133.7388  151.4330 H   0  0  0  0  0  0  0  0  0  0  0  0
  144.2206  134.3811  152.3068 H   0  0  0  0  0  0  0  0  0  0  0  0
  145.2849  135.4113  149.8096 H   0  0  0  0  0  0  0  0  0  0  0  0
  143.9139  135.9966  150.7409 H   0  0  0  0  0  0  0  0  0  0  0  0
  145.2987  137.8871  151.0003 H   0  0  0  0  0  0  0  0  0  0  0  0
  146.7656  136.9324  150.7937 H   0  0  0  0  0  0  0  0  0  0  0  0
  146.6454  139.3399  152.2814 H   0  0  0  0  0  0  0  0  0  0  0  0
  145.9576  139.2910  153.8911 H   0  0  0  0  0  0  0  0  0  0  0  0
  147.8541  140.8827  153.7738 H   0  0  0  0  0  0  0  0  0  0  0  0
  148.9082  139.6365  153.1482 H   0  0  0  0  0  0  0  0  0  0  0  0
  147.8748  137.3611  152.8066 H   0  0  0  0  0  0  0  0  0  0  0  0
  1  2  1  0  0  0  0
  1 24  1  0  0  0  0
  1 25  1  0  0  0  0
  1 26  1  0  0  0  0
  2 22  1  0  0  0  0
  2  3  1  0  0  0  0
  3  4  2  0  0  0  0
  3 27  1  0  0  0  0
  4  5  1  0  0  0  0
  4 28  1  0  0  0  0
  5  6  2  0  0  0  0
  5 29  1  0  0  0  0
  6  7  1  0  0  0  0
  6 22  1  0  0  0  0
  7  8  1  0  0  0  0
  7 30  1  0  0  0  0
  8  9  2  0  0  0  0
  8 10  1  0  0  0  0
 10 11  1  0  0  0  0
 10 31  1  0  0  0  0
 11 21  1  0  0  0  0
 11 12  1  0  0  0  0
 11 32  1  0  0  0  0
 12 13  1  0  0  0  0
 12 33  1  0  0  0  0
 12 34  1  0  0  0  0
 13 14  1  0  0  0  0
 13 35  1  0  0  0  0
 13 36  1  0  0  0  0
 14 15  1  0  0  0  0
 14 20  1  0  0  0  0
 14 50  1  0  0  0  0
 15 19  1  0  0  0  0
 15 16  1  0  0  0  0
 15 37  1  0  0  0  0
 16 17  1  0  0  0  0
 16 38  1  0  0  0  0
 16 39  1  0  0  0  0
 17 18  1  0  0  0  0
 17 40  1  0  0  0  0
 17 41  1  0  0  0  0
 18 19  1  0  0  0  0
 18 42  1  0  0  0  0
 18 43  1  0  0  0  0
 19 44  1  0  0  0  0
 19 45  1  0  0  0  0
 20 21  1  0  0  0  0
 20 46  1  0  0  0  0
 20 47  1  0  0  0  0
 21 48  1  0  0  0  0
 21 49  1  0  0  0  0
 22 23  2  0  0  0  0
M  CHG  1  14   1
M  END
> <s_m_source_file>
AV-unprocessed.smi

> <i_m_source_file_index>
612

> <i_lp_mmshare_version>
43012

> <i_f3d_flags>
0

> <s_epik_input>
W0NIM11uMVtjSF1bY0hdW2NIXWMoYzE9TylbTkhdQyg9TylbTkhdW0NIXTJbQ0gyXVtDSDJdTihbQ0gyXVtDSDJdMilbQ0hdM1tDSDJdW0NIMl1bQ0gyXVtDSDJdMw==

> <s_epik_cmdline>
J2VwaWtfcHl0aG9uJywgJy1waCcsICc3LjAnLCAnLXRuJywgJzgnLCAnLW1hJywgJzIwMCcsICctbWV0YWxfYmluZGluZycsICctaW1hZScsICc8aW5maWxlLm1hZT4nLCAnLW9tYWUnLCAnPG91dGZpbGUubWFlPic=

> <r_lp_tautomer_probability>
1

> <r_epik_Ionization_Penalty>
0.00200366

> <r_epik_Ionization_Penalty_Charging>
0.00198522

> <r_epik_Ionization_Penalty_Neutral>
1.84356e-05

> <r_epik_State_Penalty>
0.00135242

> <r_epik_Charging_Adjusted_Penalty>
0.00333764

> <i_epik_Tot_Q>
1

> <i_epik_Tot_abs_Q>
1

> <r_epik_Metal_State_Penalty>
-0

> <b_epik_Metal_Only>
0

> <s_lp_Force_Field>
OPLS_2005

> <r_lp_Energy>
50.284

> <b_lp_Chiralities_Consistent>
1

> <s_lp_Variant>
AV-unprocessed.smi:612-1

> <Gold.Version>
5.8.1

> <Gold.Id.Protein>
6NUR|6NUR_protein|mol2

> <Gold.PLP.Fitness>
44.2483

> <Gold.PLP.PLP>
-39.8724

> <Gold.PLP.part.hbond>
-1.0000

> <Gold.PLP.part.metal>
0.0000

> <Gold.PLP.part.buried>
-0.9593

> <Gold.PLP.part.nonpolar>
-37.7129

> <Gold.PLP.part.repulsive>
0.2428

> <Gold.PLP.ligand.clash>
0.0000

> <Gold.PLP.ligand.torsion>
0.8305

> <Gold.PLP.Chemscore.Hbond>
2.0000

> <Gold.PLP.Chemscore.CHOScore>
0.0000

> <Gold.PLP.Chemscore.Metal>
0.0000

> <Gold.Chemscore.Hbonds>
donor molecule, donor type, donor heavy atom, donor atom, acceptor molecule, acceptor atom, score
      L1  H    14    50       P1  7948  2.00

> <Gold.PLP.Chemscore.Internal.Correction>
0.0370

> <Gold.Rescore>
     Score         DG    S(hbond)    S(metal)    S(lipo)     H(rot)  DE(clash)    DE(int)     intcor
     16.57     -17.48       1.00        0.00     100.48       1.21       0.13       0.77       ----

> <Gold.Chemscore.Fitness>
16.5738

> <Gold.Chemscore.DG>
-17.4790

> <Gold.Chemscore.ZeroCoef>
-5.4800

> <Gold.Chemscore.Hbond>
0.9968

> <Gold.Chemscore.Metal>
0.0000

> <Gold.Chemscore.Lipo>
100.4775

> <Gold.Chemscore.Internal_Hbond>
0.0000

> <Gold.Chemscore.DEClash>
0.1330

> <Gold.Chemscore.DEInternal>
0.7722

> <Gold.Chemscore.Rot>
1.2056

> <Gold.Chemscore.Internal.Correction>
   9.000000E+99

> <Gold.Chemscore.Hbonds>
donor molecule, donor type, donor heavy atom, donor atom, acceptor molecule, acceptor atom, score
      L1  H    14    50       P1  7948  0.97

> <Gold.Chemscore.Hbond.Weighted>
-3.3294

> <Gold.Chemscore.Metal.Weighted>
-0.0000

> <Gold.Chemscore.Lipo.Weighted>
-11.7559

> <Gold.Chemscore.Internal_Hbond.Weighted>
0.0000

> <Gold.Chemscore.DEClash.Weighted>
0.1330

> <Gold.Chemscore.DEInternal.Weighted>
0.7722

> <Gold.Chemscore.Rot.Weighted>
3.0862

> <Gold.Chemscore.Internal.Correction.Weighted>
   9.000000E+99

> <Gold.Protein.RotatedTorsions>
[ 6907 6896 6895 6894 ] final  121.07 input  -60.11 | X-H torsion
[ 7974 7965 7964 7962 ] final  114.30 input  175.53 | X-H torsion
[ 8008 7997 7996 7995 ] final  130.80 input   59.86 | X-H torsion
[ 10167 10162 10161 10158 ] final   68.23 input  -65.29 | X-H torsion
[ 10718 10713 10712 10709 ] final -128.62 input   66.30 | X-H torsion
[ 10763 10752 10751 10750 ] final -174.12 input  -60.55 | X-H torsion
[ 11005 11000 10999 10996 ] final  -63.59 input  -57.11 | X-H torsion

> <Gold.Protein.ActiveResidues>
 VAL166  LYS551  ARG553  GLY616  TRP617  ASP618  TYR619  PRO620  LYS621  CYS622 
 ASP623  PHE694  ASN695  SER759  ASP760  ASP761  ALA762  ILE779  LEU786  VAL792 
 PHE793  MET794  SER795  GLU796  ALA797  LYS798  CYS799  TRP800  GLU811  SER814 

> <Gold.Protein.RotatedAtoms>
  152.4350  133.7344  159.6605 H   0  0  0  0  0  0  0  0  0  0  0  0  # atno 6907 bound_to 6896
  150.8233  133.8205  159.3135 H   0  0  0  0  0  0  0  0  0  0  0  0  # atno 6908 bound_to 6896
  151.5881  135.1057  160.0084 H   0  0  0  0  0  0  0  0  0  0  0  0  # atno 6909 bound_to 6896
  145.2062  139.2928  143.4292 H   0  0  0  0  0  0  0  0  0  0  0  0  # atno 7974 bound_to 7965
  156.2960  140.2587  156.2821 H   0  0  0  0  0  0  0  0  0  0  0  0  # atno 8008 bound_to 7997
  154.9592  140.0393  157.2200 H   0  0  0  0  0  0  0  0  0  0  0  0  # atno 8009 bound_to 7997
  154.7963  140.2820  155.5959 H   0  0  0  0  0  0  0  0  0  0  0  0  # atno 8010 bound_to 7997
  140.0809  144.5072  150.7163 H   0  0  0  0  0  0  0  0  0  0  0  0  # atno 10167 bound_to 10162
  156.1968  130.6831  151.0491 H   0  0  0  0  0  0  0  0  0  0  0  0  # atno 10718 bound_to 10713
  154.6000  135.2853  155.0545 H   0  0  0  0  0  0  0  0  0  0  0  0  # atno 10763 bound_to 10752
  154.1814  135.6456  153.5039 H   0  0  0  0  0  0  0  0  0  0  0  0  # atno 10764 bound_to 10752
  153.0153  135.5424  154.6715 H   0  0  0  0  0  0  0  0  0  0  0  0  # atno 10765 bound_to 10752
  141.1398  133.6654  156.5704 H   0  0  0  0  0  0  0  0  0  0  0  0  # atno 11005 bound_to 11000
  146.3407  140.2323  142.8593 LP  0  0  0  0  0  0  0  0  0  0  0  0  # atno 17320 bound_to 7965
  144.9900  140.8538  143.5345 LP  0  0  0  0  0  0  0  0  0  0  0  0  # atno 17321 bound_to 7965
  140.7078  143.2481  151.4673 LP  0  0  0  0  0  0  0  0  0  0  0  0  # atno 17342 bound_to 10162
  139.5780  144.1774  152.1930 LP  0  0  0  0  0  0  0  0  0  0  0  0  # atno 17343 bound_to 10162
  157.6962  131.0793  150.6961 LP  0  0  0  0  0  0  0  0  0  0  0  0  # atno 17370 bound_to 10713
  156.7018  130.4625  149.5571 LP  0  0  0  0  0  0  0  0  0  0  0  0  # atno 17371 bound_to 10713
  140.3917  134.7434  157.4726 LP  0  0  0  0  0  0  0  0  0  0  0  0  # atno 17394 bound_to 11000
  140.0561  134.6062  155.8803 LP  0  0  0  0  0  0  0  0  0  0  0  0  # atno 17395 bound_to 11000

$$$$
