AV-unprocessed.smi:2850|AV-procd|sdf|10966|dock2
  -GOLD-   2272015413D 1   1.00000     0.00000
 Structure written by MMmdl.
 45 46  0  0  0  0  0  0  0  0  2 V2000
  154.0774  143.2706  162.9170 C   0  0  0  0  0  0  0  0  0  0  0  0
  154.4045  142.0634  161.6028 S   0  0  0  0  0  0  0  0  0  0  0  0
  153.2263  142.3546  160.3185 C   0  0  0  0  0  0  0  0  0  0  0  0
  152.4217  143.5079  160.3330 C   0  0  0  0  0  0  0  0  0  0  0  0
  151.5130  143.6657  159.2723 C   0  0  0  0  0  0  0  0  0  0  0  0
  151.4796  142.6629  158.2823 C   0  0  0  0  0  0  0  0  0  0  0  0
  150.5843  142.8002  157.2116 N   0  0  0  0  0  0  0  0  0  0  0  0
  150.8139  142.1417  155.9311 C   0  0  0  0  0  0  0  0  0  0  0  0
  150.7559  140.6082  156.0380 C   0  0  1  0  0  0  0  0  0  0  0  0
  149.4106  140.1295  156.6209 C   0  0  0  0  0  0  0  0  0  0  0  0
  149.3334  138.6483  156.6535 N   0  3  2  0  0  0  0  0  0  0  0  0
  150.1097  138.0353  157.7656 C   0  0  0  0  0  0  0  0  0  0  0  0
  149.4117  136.8024  158.3786 C   0  0  0  0  0  0  0  0  0  0  0  0
  147.9690  137.1140  158.8104 C   0  0  0  0  0  0  0  0  0  0  0  0
  150.2207  136.2623  159.5672 C   0  0  0  0  0  0  0  0  0  0  0  0
  149.6204  138.0844  155.3097 C   0  0  0  0  0  0  0  0  0  0  0  0
  150.9342  138.6435  154.7309 C   0  0  0  0  0  0  0  0  0  0  0  0
  150.8915  140.0650  154.7284 O   0  0  0  0  0  0  0  0  0  0  0  0
  152.2883  141.5737  158.3374 N   0  0  0  0  0  0  0  0  0  0  0  0
  153.1556  141.4193  159.3439 N   0  0  0  0  0  0  0  0  0  0  0  0
  154.7851  143.1341  163.7346 H   0  0  0  0  0  0  0  0  0  0  0  0
  153.0687  143.1458  163.3108 H   0  0  0  0  0  0  0  0  0  0  0  0
  154.1823  144.2867  162.5364 H   0  0  0  0  0  0  0  0  0  0  0  0
  152.4969  144.2404  161.1231 H   0  0  0  0  0  0  0  0  0  0  0  0
  150.8658  144.5291  159.2224 H   0  0  0  0  0  0  0  0  0  0  0  0
  149.8089  143.4424  157.2919 H   0  0  0  0  0  0  0  0  0  0  0  0
  150.0818  142.4997  155.2061 H   0  0  0  0  0  0  0  0  0  0  0  0
  151.7894  142.4506  155.5544 H   0  0  0  0  0  0  0  0  0  0  0  0
  151.5731  140.2553  156.6690 H   0  0  0  0  0  0  0  0  0  0  0  0
  149.2486  140.5408  157.6179 H   0  0  0  0  0  0  0  0  0  0  0  0
  148.5924  140.5014  156.0023 H   0  0  0  0  0  0  0  0  0  0  0  0
  151.1099  137.7726  157.4204 H   0  0  0  0  0  0  0  0  0  0  0  0
  150.2526  138.7714  158.5582 H   0  0  0  0  0  0  0  0  0  0  0  0
  149.3738  136.0054  157.6365 H   0  0  0  0  0  0  0  0  0  0  0  0
  147.9412  137.9057  159.5599 H   0  0  0  0  0  0  0  0  0  0  0  0
  147.4905  136.2338  159.2410 H   0  0  0  0  0  0  0  0  0  0  0  0
  147.3583  137.4328  157.9656 H   0  0  0  0  0  0  0  0  0  0  0  0
  150.3007  137.0037  160.3629 H   0  0  0  0  0  0  0  0  0  0  0  0
  151.2319  135.9896  159.2638 H   0  0  0  0  0  0  0  0  0  0  0  0
  149.7544  135.3713  159.9885 H   0  0  0  0  0  0  0  0  0  0  0  0
  149.6438  136.9957  155.3317 H   0  0  0  0  0  0  0  0  0  0  0  0
  148.7971  138.3561  154.6476 H   0  0  0  0  0  0  0  0  0  0  0  0
  151.8012  138.2941  155.2928 H   0  0  0  0  0  0  0  0  0  0  0  0
  151.0665  138.2962  153.7061 H   0  0  0  0  0  0  0  0  0  0  0  0
  148.3688  138.4293  156.8589 H   0  0  0  0  0  0  0  0  0  0  0  0
  1  2  1  0  0  0  0
  1 21  1  0  0  0  0
  1 22  1  0  0  0  0
  1 23  1  0  0  0  0
  2  3  1  0  0  0  0
  3 20  1  0  0  0  0
  3  4  2  0  0  0  0
  4  5  1  0  0  0  0
  4 24  1  0  0  0  0
  5  6  2  0  0  0  0
  5 25  1  0  0  0  0
  6  7  1  0  0  0  0
  6 19  1  0  0  0  0
  7  8  1  0  0  0  0
  7 26  1  0  0  0  0
  8  9  1  0  0  0  0
  8 27  1  0  0  0  0
  8 28  1  0  0  0  0
  9 18  1  0  0  0  0
  9 10  1  0  0  0  0
  9 29  1  0  0  0  0
 10 11  1  0  0  0  0
 10 30  1  0  0  0  0
 10 31  1  0  0  0  0
 11 12  1  0  0  0  0
 11 16  1  0  0  0  0
 11 45  1  0  0  0  0
 12 13  1  0  0  0  0
 12 32  1  0  0  0  0
 12 33  1  0  0  0  0
 13 14  1  0  0  0  0
 13 15  1  0  0  0  0
 13 34  1  0  0  0  0
 14 35  1  0  0  0  0
 14 36  1  0  0  0  0
 14 37  1  0  0  0  0
 15 38  1  0  0  0  0
 15 39  1  0  0  0  0
 15 40  1  0  0  0  0
 16 17  1  0  0  0  0
 16 41  1  0  0  0  0
 16 42  1  0  0  0  0
 17 18  1  0  0  0  0
 17 43  1  0  0  0  0
 17 44  1  0  0  0  0
 19 20  2  0  0  0  0
M  CHG  1  11   1
M  END
> <s_m_source_file>
AV-unprocessed.smi

> <i_m_source_file_index>
2850

> <i_lp_mmshare_version>
43012

> <i_f3d_flags>
0

> <s_epik_input>
W0NIM11TYzFbY0hdW2NIXWMobm4xKVtOSF1bQ0gyXVtDQEBIXTJbQ0gyXU4oW0NIMl1bQ0gyXU8yKVtDSDJdW0NIXShbQ0gzXSlbQ0gzXQ==

> <s_epik_cmdline>
J2VwaWtfcHl0aG9uJywgJy1waCcsICc3LjAnLCAnLXRuJywgJzgnLCAnLW1hJywgJzIwMCcsICctbWV0YWxfYmluZGluZycsICctaW1hZScsICc8aW5maWxlLm1hZT4nLCAnLW9tYWUnLCAnPG91dGZpbGUubWFlPic=

> <r_lp_tautomer_probability>
0.999978

> <r_epik_Ionization_Penalty>
0.0874875

> <r_epik_Ionization_Penalty_Charging>
0.0831532

> <r_epik_Ionization_Penalty_Neutral>
0.00433433

> <r_epik_State_Penalty>
0.0738301

> <r_epik_Charging_Adjusted_Penalty>
0.156983

> <i_epik_Tot_Q>
1

> <i_epik_Tot_abs_Q>
1

> <r_epik_Metal_State_Penalty>
0.073888

> <b_epik_Metal_Only>
0

> <s_lp_Force_Field>
OPLS_2005

> <r_lp_Energy>
26.339

> <b_lp_Chiralities_Consistent>
1

> <s_lp_Variant>
AV-unprocessed.smi:2850-2

> <Gold.Version>
5.8.1

> <Gold.Id.Protein>
6NUR|6NUR_protein|mol2

> <Gold.PLP.Fitness>
39.1842

> <Gold.PLP.PLP>
-35.0629

> <Gold.PLP.part.hbond>
-2.0000

> <Gold.PLP.part.metal>
0.0000

> <Gold.PLP.part.buried>
-6.6117

> <Gold.PLP.part.nonpolar>
-25.9906

> <Gold.PLP.part.repulsive>
0.0989

> <Gold.PLP.ligand.clash>
0.0000

> <Gold.PLP.ligand.torsion>
0.6955

> <Gold.PLP.Chemscore.Hbond>
1.7977

> <Gold.PLP.Chemscore.CHOScore>
0.0000

> <Gold.PLP.Chemscore.Metal>
0.0000

> <Gold.Chemscore.Hbonds>
donor molecule, donor type, donor heavy atom, donor atom, acceptor molecule, acceptor atom, score
      L1  H     7    26       P1  8028  0.25
      P1  H  7989  7998       L1    18  1.00

> <Gold.PLP.Chemscore.Internal.Correction>
0.1194

> <Gold.Rescore>
     Score         DG    S(hbond)    S(metal)    S(lipo)     H(rot)  DE(clash)    DE(int)     intcor
     15.54     -17.45       1.61        0.00      91.40       1.60       0.45       1.46       ----

> <Gold.Chemscore.Fitness>
15.5427

> <Gold.Chemscore.DG>
-17.4529

> <Gold.Chemscore.ZeroCoef>
-5.4800

> <Gold.Chemscore.Hbond>
1.6096

> <Gold.Chemscore.Metal>
0.0000

> <Gold.Chemscore.Lipo>
91.3973

> <Gold.Chemscore.Internal_Hbond>
0.0000

> <Gold.Chemscore.DEClash>
0.4530

> <Gold.Chemscore.DEInternal>
1.4572

> <Gold.Chemscore.Rot>
1.6003

> <Gold.Chemscore.Internal.Correction>
   9.000000E+99

> <Gold.Chemscore.Hbonds>
donor molecule, donor type, donor heavy atom, donor atom, acceptor molecule, acceptor atom, score
      L1  H     7    26       P1  8028  0.23
      P1  H  7989  7998       L1    18  0.95

> <Gold.Chemscore.Hbond.Weighted>
-5.3762

> <Gold.Chemscore.Metal.Weighted>
-0.0000

> <Gold.Chemscore.Lipo.Weighted>
-10.6935

> <Gold.Chemscore.Internal_Hbond.Weighted>
0.0000

> <Gold.Chemscore.DEClash.Weighted>
0.4530

> <Gold.Chemscore.DEInternal.Weighted>
1.4572

> <Gold.Chemscore.Rot.Weighted>
4.0968

> <Gold.Chemscore.Internal.Correction.Weighted>
   9.000000E+99

> <Gold.Protein.RotatedTorsions>
[ 6907 6896 6895 6894 ] final  -43.64 input  -60.11 | X-H torsion
[ 7974 7965 7964 7962 ] final  147.58 input  175.53 | X-H torsion
[ 8008 7997 7996 7995 ] final   41.40 input   59.86 | X-H torsion
[ 10167 10162 10161 10158 ] final   11.70 input  -65.29 | X-H torsion
[ 10718 10713 10712 10709 ] final -104.43 input   66.30 | X-H torsion
[ 10763 10752 10751 10750 ] final   72.57 input  -60.55 | X-H torsion
[ 11005 11000 10999 10996 ] final   96.06 input  -57.11 | X-H torsion

> <Gold.Protein.ActiveResidues>
 VAL166  LYS551  ARG553  GLY616  TRP617  ASP618  TYR619  PRO620  LYS621  CYS622 
 ASP623  PHE694  ASN695  SER759  ASP760  ASP761  ALA762  ILE779  LEU786  VAL792 
 PHE793  MET794  SER795  GLU796  ALA797  LYS798  CYS799  TRP800  GLU811  SER814 

> <Gold.Protein.RotatedAtoms>
  150.9417  134.8825  159.7615 H   0  0  0  0  0  0  0  0  0  0  0  0  # atno 6907 bound_to 6896
  152.5083  134.3933  159.9401 H   0  0  0  0  0  0  0  0  0  0  0  0  # atno 6908 bound_to 6896
  151.3953  133.3735  159.2760 H   0  0  0  0  0  0  0  0  0  0  0  0  # atno 6909 bound_to 6896
  144.8581  139.6046  143.5943 H   0  0  0  0  0  0  0  0  0  0  0  0  # atno 7974 bound_to 7965
  155.2690  140.3364  155.4267 H   0  0  0  0  0  0  0  0  0  0  0  0  # atno 8008 bound_to 7997
  156.2141  140.1782  156.7671 H   0  0  0  0  0  0  0  0  0  0  0  0  # atno 8009 bound_to 7997
  154.5728  140.0667  156.8974 H   0  0  0  0  0  0  0  0  0  0  0  0  # atno 8010 bound_to 7997
  140.6115  143.8397  150.7071 H   0  0  0  0  0  0  0  0  0  0  0  0  # atno 10167 bound_to 10162
  156.0304  130.5515  150.7396 H   0  0  0  0  0  0  0  0  0  0  0  0  # atno 10718 bound_to 10713
  153.0467  135.5095  154.7763 H   0  0  0  0  0  0  0  0  0  0  0  0  # atno 10763 bound_to 10752
  154.6658  135.2945  154.9809 H   0  0  0  0  0  0  0  0  0  0  0  0  # atno 10764 bound_to 10752
  154.0645  135.6686  153.4868 H   0  0  0  0  0  0  0  0  0  0  0  0  # atno 10765 bound_to 10752
  139.8784  134.8931  156.4103 H   0  0  0  0  0  0  0  0  0  0  0  0  # atno 11005 bound_to 11000
  146.2839  139.6950  142.9210 LP  0  0  0  0  0  0  0  0  0  0  0  0  # atno 17320 bound_to 7965
  145.4367  141.0419  143.2880 LP  0  0  0  0  0  0  0  0  0  0  0  0  # atno 17321 bound_to 7965
  140.1967  143.3992  152.1823 LP  0  0  0  0  0  0  0  0  0  0  0  0  # atno 17342 bound_to 10162
  139.5365  144.7214  151.4876 LP  0  0  0  0  0  0  0  0  0  0  0  0  # atno 17343 bound_to 10162
  157.4968  131.0915  151.0362 LP  0  0  0  0  0  0  0  0  0  0  0  0  # atno 17370 bound_to 10713
  157.0754  130.5881  149.5410 LP  0  0  0  0  0  0  0  0  0  0  0  0  # atno 17371 bound_to 10713
  140.9205  133.7648  155.9901 LP  0  0  0  0  0  0  0  0  0  0  0  0  # atno 17394 bound_to 11000
  140.8445  134.3028  157.5300 LP  0  0  0  0  0  0  0  0  0  0  0  0  # atno 17395 bound_to 11000

$$$$
