#       Name:                AV-unprocessed.smi:2698
#       Creating user name   scv26
#       Creation time:       Fri Mar 27 14:45:40 2020


#       File generated by GOLD software.
#

@<TRIPOS>MOLECULE
AV-unprocessed.smi:2698
    40    40     1
SMALL
NO_CHARGES


@<TRIPOS>ATOM
      1 ****        -3.8578  -0.2489  -0.5648 C.3            1 S1                 0.0000
      2 ****        -2.3415  -0.0143  -0.6429 C.3            1 S1                 0.0000
      3 ****        -2.0148   1.0064  -1.7488 C.3            1 S1                 0.0000
      4 ****        -1.5929  -1.3575  -0.8077 C.3            1 S1                 0.0000
      5 ****        -0.0779  -1.2361  -0.6232 C.2            1 S1                 0.0000
      6 ****         0.6265  -0.8246  -1.5452 O.2            1 S1                 0.0000
      7 ****         0.4072  -1.5963   0.5757 N.am           1 S1                 0.0000
      8 ****         1.8084  -1.5403   0.9928 C.3            1 S1                 0.0000
      9 ****         2.1473  -0.1943   1.6693 C.3            1 S1                 0.0000
     10 ****         1.9982   1.0212   0.7875 C.2            1 S1                 0.0000
     11 ****         2.8360   1.5456  -0.1791 C.2            1 S1                 0.0000
     12 ****         2.2047   2.6557  -0.7162 N.pl3          1 S1                 0.0000
     13 ****         1.0369   2.7765  -0.0877 C.2            1 S1                 0.0000
     14 ****         0.8680   1.8242   0.8271 N.pl3          1 S1                 1.0000
     15 ****         2.1340  -2.7492   1.8734 C.2            1 S1                 0.0000
     16 ****         1.4685  -2.8856   2.9240 O.co2          1 S1                 0.0000
     17 ****         3.0458  -3.5120   1.4866 O.co2          1 S1                -1.0000
     18 ****         2.5564   3.2494  -1.4539 H              1 S1                 0.0000
     19 ****        -4.2363  -0.7003  -1.4824 H              1 S1                 0.0000
     20 ****        -4.3945   0.6872  -0.4082 H              1 S1                 0.0000
     21 ****        -4.1127  -0.9130   0.2617 H              1 S1                 0.0000
     22 ****        -2.0379   0.4262   0.3082 H              1 S1                 0.0000
     23 ****        -2.2581   0.6112  -2.7355 H              1 S1                 0.0000
     24 ****        -0.9610   1.2825  -1.7512 H              1 S1                 0.0000
     25 ****        -2.5830   1.9266  -1.6113 H              1 S1                 0.0000
     26 ****        -1.9732  -2.0835  -0.0871 H              1 S1                 0.0000
     27 ****        -1.7938  -1.7798  -1.7933 H              1 S1                 0.0000
     28 ****        -0.2444  -1.9461   1.2638 H              1 S1                 0.0000
     29 ****         2.4383  -1.6298   0.1049 H              1 S1                 0.0000
     30 ****         1.5413  -0.0549   2.5658 H              1 S1                 0.0000
     31 ****         3.1836  -0.2191   2.0088 H              1 S1                 0.0000
     32 ****         3.8042   1.2274  -0.5366 H              1 S1                 0.0000
     33 ****         0.3117   3.5489  -0.2985 H              1 S1                 0.0000
     34 ****         0.0626   1.6963   1.4232 H              1 S1                 0.0000
     35 ****         0.2094  -0.5687  -2.4173 LP             1 S1                 0.0000
     36 ****         1.6158  -0.7463  -1.4220 LP             1 S1                 0.0000
     37 ****         1.6497  -3.6569   3.5341 LP             1 S1                 0.0000
     38 ****         0.7554  -2.2233   3.1537 LP             1 S1                 0.0000
     39 ****         3.2956  -4.3106   2.0342 LP             1 S1                 0.0000
     40 ****         3.5254  -3.3236   0.6296 LP             1 S1                 0.0000
@<TRIPOS>BOND
    1    1    2 1     
    2    1   19 1     
    3    1   20 1     
    4    1   21 1     
    5    2    3 1     
    6    2    4 1     
    7    2   22 1     
    8    3   23 1     
    9    3   24 1     
   10    3   25 1     
   11    4    5 1     
   12    4   26 1     
   13    4   27 1     
   14    5    6 2     
   15    5    7 am    
   16    7    8 1     
   17    7   28 1     
   18    8    9 1     
   19    8   15 1     
   20    8   29 1     
   21    9   10 1     
   22    9   30 1     
   23    9   31 1     
   24   10   14 1     
   25   10   11 2     
   26   11   12 1     
   27   11   32 1     
   28   12   18 1     
   29   12   13 1     
   30   13   14 2     
   31   13   33 1     
   32   14   34 1     
   33   15   16 ar    
   34   15   17 ar    
   35    6   35 1     
   36    6   36 1     
   37   16   37 1     
   38   16   38 1     
   39   17   39 1     
   40   17   40 1     
@<TRIPOS>SUBSTRUCTURE
      1 S1             1
@<TRIPOS>SET
LONE_PAIRS      STATIC     ATOMS    <user>   **** ""
6 35 36 37 38 39 40
DONOR_HYDROGENS      STATIC     ATOMS    <user>   **** ""
3 28 18 34
ATOM$BLUE        STATIC     ATOMS    COLORGROUP SYSTEM
6 35 36 37 38 39 40
ATOM$RED        STATIC     ATOMS    COLORGROUP SYSTEM
3 28 18 34
