AV-unprocessed.smi:2079|AV-procd|sdf|8486|dock6
  -GOLD-   2272011193D 1   1.00000     0.00000
 Structure written by MMmdl.
 41 42  0  0  0  0  0  0  0  0  3 V2000
  153.5146  137.9092  160.7232 C   0  0  0  0  0  0  0  0  0  0  0  0
  152.6255  137.8351  159.5297 C   0  0  0  0  0  0  0  0  0  0  0  0
  152.4199  138.6729  158.4701 C   0  0  0  0  0  0  0  0  0  0  0  0
  151.4406  137.9873  157.7034 C   0  0  0  0  0  0  0  0  0  0  0  0
  150.9470  138.5447  156.4942 N   0  0  0  0  0  0  0  0  0  0  0  0
  151.6095  139.2506  155.5599 C   0  0  0  0  0  0  0  0  0  0  0  0
  152.8139  139.4963  155.6993 O   0  0  0  0  0  0  0  0  0  0  0  0
  150.8066  139.6143  154.5214 N   0  5  0  0  0  0  0  0  0  0  0  0
  149.4578  140.1607  154.6623 C   0  0  0  0  0  0  0  0  0  0  0  0
  149.5199  141.6639  155.0020 C   0  0  0  0  0  0  0  0  0  0  0  0
  148.1549  142.2291  155.2024 N   0  3  1  0  0  0  0  0  0  0  0  0
  147.3678  142.1893  153.9369 C   0  0  0  0  0  0  0  0  0  0  0  0
  146.0142  142.8968  154.0756 C   0  0  0  0  0  0  0  0  0  0  0  0
  145.2024  142.2671  155.2076 C   0  0  0  0  0  0  0  0  0  0  0  0
  146.0127  142.3278  156.5051 C   0  0  0  0  0  0  0  0  0  0  0  0
  147.3994  141.6592  156.3661 C   0  0  2  0  0  0  0  0  0  0  0  0
  148.1517  141.8205  157.7045 C   0  0  0  0  0  0  0  0  0  0  0  0
  151.0806  136.8345  158.2481 N   0  0  0  0  0  0  0  0  0  0  0  0
  151.8386  136.7310  159.4204 O   0  0  0  0  0  0  0  0  0  0  0  0
  153.8338  138.9352  160.9072 H   0  0  0  0  0  0  0  0  0  0  0  0
  154.4052  137.2980  160.5781 H   0  0  0  0  0  0  0  0  0  0  0  0
  152.9991  137.5517  161.6147 H   0  0  0  0  0  0  0  0  0  0  0  0
  152.8948  139.6226  158.2756 H   0  0  0  0  0  0  0  0  0  0  0  0
  149.9665  138.3909  156.3120 H   0  0  0  0  0  0  0  0  0  0  0  0
  148.8870  140.0342  153.7420 H   0  0  0  0  0  0  0  0  0  0  0  0
  148.8823  139.6435  155.4314 H   0  0  0  0  0  0  0  0  0  0  0  0
  150.1176  141.8024  155.9048 H   0  0  0  0  0  0  0  0  0  0  0  0
  150.0663  142.2054  154.2306 H   0  0  0  0  0  0  0  0  0  0  0  0
  147.9377  142.6676  153.1387 H   0  0  0  0  0  0  0  0  0  0  0  0
  147.2146  141.1509  153.6379 H   0  0  0  0  0  0  0  0  0  0  0  0
  146.1690  143.9586  154.2722 H   0  0  0  0  0  0  0  0  0  0  0  0
  145.4609  142.8303  153.1384 H   0  0  0  0  0  0  0  0  0  0  0  0
  144.2541  142.7915  155.3295 H   0  0  0  0  0  0  0  0  0  0  0  0
  144.9615  141.2312  154.9652 H   0  0  0  0  0  0  0  0  0  0  0  0
  146.1361  143.3712  156.7999 H   0  0  0  0  0  0  0  0  0  0  0  0
  145.4465  141.8500  157.3056 H   0  0  0  0  0  0  0  0  0  0  0  0
  147.2515  140.5943  156.1787 H   0  0  0  0  0  0  0  0  0  0  0  0
  147.5446  141.4612  158.5360 H   0  0  0  0  0  0  0  0  0  0  0  0
  148.3887  142.8666  157.9011 H   0  0  0  0  0  0  0  0  0  0  0  0
  149.0832  141.2572  157.7383 H   0  0  0  0  0  0  0  0  0  0  0  0
  148.2972  143.2065  155.4133 H   0  0  0  0  0  0  0  0  0  0  0  0
  1  2  1  0  0  0  0
  1 20  1  0  0  0  0
  1 21  1  0  0  0  0
  1 22  1  0  0  0  0
  2 19  1  0  0  0  0
  2  3  2  0  0  0  0
  3  4  1  0  0  0  0
  3 23  1  0  0  0  0
  4  5  1  0  0  0  0
  4 18  2  0  0  0  0
  5  6  1  0  0  0  0
  5 24  1  0  0  0  0
  6  7  2  0  0  0  0
  6  8  1  0  0  0  0
  8  9  1  0  0  0  0
  9 10  1  0  0  0  0
  9 25  1  0  0  0  0
  9 26  1  0  0  0  0
 10 11  1  0  0  0  0
 10 27  1  0  0  0  0
 10 28  1  0  0  0  0
 11 16  1  0  0  0  0
 11 12  1  0  0  0  0
 11 41  1  0  0  0  0
 12 13  1  0  0  0  0
 12 29  1  0  0  0  0
 12 30  1  0  0  0  0
 13 14  1  0  0  0  0
 13 31  1  0  0  0  0
 13 32  1  0  0  0  0
 14 15  1  0  0  0  0
 14 33  1  0  0  0  0
 14 34  1  0  0  0  0
 15 16  1  0  0  0  0
 15 35  1  0  0  0  0
 15 36  1  0  0  0  0
 16 17  1  0  0  0  0
 16 37  1  0  0  0  0
 17 38  1  0  0  0  0
 17 39  1  0  0  0  0
 17 40  1  0  0  0  0
 18 19  1  0  0  0  0
M  CHG  1   8  -1
M  CHG  1  11   1
M  END
> <s_m_source_file>
AV-unprocessed.smi

> <i_m_source_file_index>
2079

> <i_lp_mmshare_version>
43012

> <i_f3d_flags>
0

> <s_epik_input>
W0NIM11jMVtjSF1jKG5vMSlbTkhdQyg9TylbTkhdW0NIMl1bQ0gyXU4yW0NIMl1bQ0gyXVtDSDJdW0NIMl1bQ0BIXTJbQ0gzXQ==

> <s_epik_cmdline>
J2VwaWtfcHl0aG9uJywgJy1waCcsICc3LjAnLCAnLXRuJywgJzgnLCAnLW1hJywgJzIwMCcsICctbWV0YWxfYmluZGluZycsICctaW1hZScsICc8aW5maWxlLm1hZT4nLCAnLW9tYWUnLCAnPG91dGZpbGUubWFlPic=

> <r_epik_Ionization_Penalty>
6.7666

> <r_epik_Ionization_Penalty_Charging>
6.7666

> <r_epik_Ionization_Penalty_Neutral>
5.77131e-06

> <r_epik_State_Penalty>
6.79217

> <r_epik_Charging_Adjusted_Penalty>
13.5588

> <i_epik_Tot_Q>
0

> <i_epik_Tot_abs_Q>
2

> <r_epik_Metal_State_Penalty>
2.72569

> <b_epik_Metal_Only>
1

> <s_lp_Force_Field>
OPLS_2005

> <r_lp_Energy>
14.3166

> <b_lp_Chiralities_Consistent>
1

> <s_lp_Variant>
AV-unprocessed.smi:2079-12

> <Gold.Version>
5.8.1

> <Gold.Id.Protein>
6NUR|6NUR_protein|mol2

> <Gold.PLP.Fitness>
45.5598

> <Gold.PLP.PLP>
-32.0984

> <Gold.PLP.part.hbond>
-4.2715

> <Gold.PLP.part.metal>
0.0000

> <Gold.PLP.part.buried>
-6.2882

> <Gold.PLP.part.nonpolar>
-21.7001

> <Gold.PLP.part.repulsive>
0.2758

> <Gold.PLP.ligand.clash>
0.0000

> <Gold.PLP.ligand.torsion>
0.7919

> <Gold.PLP.Chemscore.Hbond>
5.0000

> <Gold.PLP.Chemscore.CHOScore>
0.0000

> <Gold.PLP.Chemscore.Metal>
0.0000

> <Gold.Chemscore.Hbonds>
donor molecule, donor type, donor heavy atom, donor atom, acceptor molecule, acceptor atom, score
      L1  H    11    41       P1  8028  2.00
      P1  H  6896  6907       L1    19  1.00
      P1  H  7989  7998       L1     8  1.00
      P1  H  7997  8010       L1     7  1.00

> <Gold.PLP.Chemscore.Internal.Correction>
0.0452

> <Gold.Rescore>
     Score         DG    S(hbond)    S(metal)    S(lipo)     H(rot)  DE(clash)    DE(int)     intcor
     16.25     -18.31       3.11        0.00      54.59       1.54       0.01       2.05       ----

> <Gold.Chemscore.Fitness>
16.2529

> <Gold.Chemscore.DG>
-18.3139

> <Gold.Chemscore.ZeroCoef>
-5.4800

> <Gold.Chemscore.Hbond>
3.1112

> <Gold.Chemscore.Metal>
0.0000

> <Gold.Chemscore.Lipo>
54.5925

> <Gold.Chemscore.Internal_Hbond>
0.0000

> <Gold.Chemscore.DEClash>
0.0073

> <Gold.Chemscore.DEInternal>
2.0537

> <Gold.Chemscore.Rot>
1.5409

> <Gold.Chemscore.Internal.Correction>
   9.000000E+99

> <Gold.Chemscore.Hbonds>
donor molecule, donor type, donor heavy atom, donor atom, acceptor molecule, acceptor atom, score
      L1  H    11    41       P1  8028  0.96
      P1  H  6896  6907       L1    19  0.65
      P1  H  7989  7998       L1     8  0.30
      P1  H  7997  8010       L1     7  1.00

> <Gold.Chemscore.Hbond.Weighted>
-10.3912

> <Gold.Chemscore.Metal.Weighted>
-0.0000

> <Gold.Chemscore.Lipo.Weighted>
-6.3873

> <Gold.Chemscore.Internal_Hbond.Weighted>
0.0000

> <Gold.Chemscore.DEClash.Weighted>
0.0073

> <Gold.Chemscore.DEInternal.Weighted>
2.0537

> <Gold.Chemscore.Rot.Weighted>
3.9446

> <Gold.Chemscore.Internal.Correction.Weighted>
   9.000000E+99

> <Gold.Protein.RotatedTorsions>
[ 6907 6896 6895 6894 ] final    7.16 input  -60.11 | X-H torsion
[ 7974 7965 7964 7962 ] final  154.04 input  175.53 | X-H torsion
[ 8008 7997 7996 7995 ] final   87.95 input   59.86 | X-H torsion
[ 10167 10162 10161 10158 ] final  171.39 input  -65.29 | X-H torsion
[ 10718 10713 10712 10709 ] final   77.03 input   66.30 | X-H torsion
[ 10763 10752 10751 10750 ] final   44.88 input  -60.55 | X-H torsion
[ 11005 11000 10999 10996 ] final  -47.09 input  -57.11 | X-H torsion

> <Gold.Protein.ActiveResidues>
 VAL166  LYS551  ARG553  GLY616  TRP617  ASP618  TYR619  PRO620  LYS621  CYS622 
 ASP623  PHE694  ASN695  SER759  ASP760  ASP761  ALA762  ILE779  LEU786  VAL792 
 PHE793  MET794  SER795  GLU796  ALA797  LYS798  CYS799  TRP800  GLU811  SER814 

> <Gold.Protein.RotatedAtoms>
  151.6854  135.0955  160.0223 H   0  0  0  0  0  0  0  0  0  0  0  0  # atno 6907 bound_to 6896
  152.3810  133.6542  159.6170 H   0  0  0  0  0  0  0  0  0  0  0  0  # atno 6908 bound_to 6896
  150.7747  133.9030  159.3388 H   0  0  0  0  0  0  0  0  0  0  0  0  # atno 6909 bound_to 6896
  144.8114  139.6881  143.6140 H   0  0  0  0  0  0  0  0  0  0  0  0  # atno 7974 bound_to 7965
  155.9818  140.3376  155.6670 H   0  0  0  0  0  0  0  0  0  0  0  0  # atno 8008 bound_to 7997
  155.6539  140.0708  157.2595 H   0  0  0  0  0  0  0  0  0  0  0  0  # atno 8009 bound_to 7997
  154.4194  140.1721  156.1691 H   0  0  0  0  0  0  0  0  0  0  0  0  # atno 8010 bound_to 7997
  139.5045  144.3490  151.9941 H   0  0  0  0  0  0  0  0  0  0  0  0  # atno 10167 bound_to 10162
  157.6696  130.9802  150.1583 H   0  0  0  0  0  0  0  0  0  0  0  0  # atno 10718 bound_to 10713
  152.9833  135.6057  154.3345 H   0  0  0  0  0  0  0  0  0  0  0  0  # atno 10763 bound_to 10752
  154.3046  135.2772  155.2596 H   0  0  0  0  0  0  0  0  0  0  0  0  # atno 10764 bound_to 10752
  154.4833  135.5911  153.6461 H   0  0  0  0  0  0  0  0  0  0  0  0  # atno 10765 bound_to 10752
  141.0619  133.6706  156.3248 H   0  0  0  0  0  0  0  0  0  0  0  0  # atno 11005 bound_to 11000
  146.2413  139.6008  142.9489 LP  0  0  0  0  0  0  0  0  0  0  0  0  # atno 17320 bound_to 7965
  145.5314  141.0427  143.2381 LP  0  0  0  0  0  0  0  0  0  0  0  0  # atno 17321 bound_to 7965
  140.2927  144.3735  150.6083 LP  0  0  0  0  0  0  0  0  0  0  0  0  # atno 17342 bound_to 10162
  140.5934  143.2167  151.7210 LP  0  0  0  0  0  0  0  0  0  0  0  0  # atno 17343 bound_to 10162
  156.2365  130.3687  149.8385 LP  0  0  0  0  0  0  0  0  0  0  0  0  # atno 17370 bound_to 10713
  156.6197  130.8621  151.3472 LP  0  0  0  0  0  0  0  0  0  0  0  0  # atno 17371 bound_to 10713
  140.5851  134.5707  157.5488 LP  0  0  0  0  0  0  0  0  0  0  0  0  # atno 17394 bound_to 11000
  139.9441  134.7734  156.0606 LP  0  0  0  0  0  0  0  0  0  0  0  0  # atno 17395 bound_to 11000

$$$$
