AV-unprocessed.smi:240|AV-procd|sdf|1839|dock6
  -GOLD-   2262020453D 1   1.00000     0.00000
 Structure written by MMmdl.
 55 59  0  0  0  0  0  0  0  0  1 V2000
  146.9225  133.1682  161.8566 O   0  0  0  0  0  0  0  0  0  0  0  0
  146.6146  134.5340  162.0439 C   0  0  1  0  0  0  0  0  0  0  0  0
  147.4808  135.1561  163.1379 C   0  0  0  0  0  0  0  0  0  0  0  0
  147.4092  136.6602  162.8615 C   0  0  0  0  0  0  0  0  0  0  0  0
  147.1452  136.8064  161.3538 C   0  0  0  0  0  0  0  0  0  0  0  0
  146.9451  135.3795  160.8049 C   0  0  2  0  0  0  0  0  0  0  0  0
  145.9643  135.2399  159.6002 C   0  0  1  0  0  0  0  0  0  0  0  0
  144.4824  135.5076  159.9700 C   0  0  0  0  0  0  0  0  0  0  0  0
  143.6500  135.3443  158.8277 O   0  0  0  0  0  0  0  0  0  0  0  0
  143.9789  136.2643  157.7960 C   0  0  0  0  0  0  0  0  0  0  0  0
  145.4169  135.9981  157.3335 C   0  0  0  0  0  0  0  0  0  0  0  0
  146.3379  136.0902  158.4606 N   0  0  0  0  0  0  0  0  0  0  0  0
  147.6195  136.0199  158.0351 C   0  0  0  0  0  0  0  0  0  0  0  0
  148.0569  134.8129  157.6003 N   0  0  0  0  0  0  0  0  0  0  0  0
  149.3085  134.6786  157.1513 C   0  0  0  0  0  0  0  0  0  0  0  0
  150.2669  135.6031  157.0603 N   0  0  0  0  0  0  0  0  0  0  0  0
  149.8342  136.8148  157.5135 C   0  0  0  0  0  0  0  0  0  0  0  0
  148.5352  137.1105  158.0143 C   0  0  0  0  0  0  0  0  0  0  0  0
  148.4606  138.4502  158.3755 N   0  0  0  0  0  0  0  0  0  0  0  0
  149.6446  138.9216  158.0945 C   0  0  0  0  0  0  0  0  0  0  0  0
  150.5367  138.0059  157.5835 N   0  0  0  0  0  0  0  0  0  0  0  0
  151.9120  138.2582  157.1780 C   0  0  0  0  0  0  0  0  0  0  0  0
  152.0590  139.2300  155.9791 C   0  0  2  0  0  0  0  0  0  0  0  0
  153.4193  139.2969  155.5924 O   0  0  0  0  0  0  0  0  0  0  0  0
  151.5462  140.6463  156.2518 C   0  0  0  0  0  0  0  0  0  0  0  0
  150.1722  140.6489  155.5970 C   0  0  0  0  0  0  0  0  0  0  0  0
  150.3946  139.8882  154.4238 O   0  0  0  0  0  0  0  0  0  0  0  0
  151.2057  138.7753  154.7771 C   0  0  0  0  0  0  0  0  0  0  0  0
  146.7795  132.9499  160.9482 H   0  0  0  0  0  0  0  0  0  0  0  0
  145.5685  134.6336  162.3301 H   0  0  0  0  0  0  0  0  0  0  0  0
  147.1446  134.8956  164.1420 H   0  0  0  0  0  0  0  0  0  0  0  0
  148.5139  134.8196  163.0355 H   0  0  0  0  0  0  0  0  0  0  0  0
  146.5807  137.0975  163.4203 H   0  0  0  0  0  0  0  0  0  0  0  0
  148.3197  137.1727  163.1732 H   0  0  0  0  0  0  0  0  0  0  0  0
  146.2717  137.4373  161.1957 H   0  0  0  0  0  0  0  0  0  0  0  0
  147.9809  137.2952  160.8519 H   0  0  0  0  0  0  0  0  0  0  0  0
  147.9314  135.0405  160.4832 H   0  0  0  0  0  0  0  0  0  0  0  0
  146.0137  134.2055  159.2604 H   0  0  0  0  0  0  0  0  0  0  0  0
  144.1332  134.8024  160.7225 H   0  0  0  0  0  0  0  0  0  0  0  0
  144.3371  136.5071  160.3800 H   0  0  0  0  0  0  0  0  0  0  0  0
  143.2856  136.1311  156.9656 H   0  0  0  0  0  0  0  0  0  0  0  0
  143.8628  137.2900  158.1500 H   0  0  0  0  0  0  0  0  0  0  0  0
  145.4832  135.0053  156.8858 H   0  0  0  0  0  0  0  0  0  0  0  0
  145.6947  136.7182  156.5622 H   0  0  0  0  0  0  0  0  0  0  0  0
  149.5804  133.6893  156.8140 H   0  0  0  0  0  0  0  0  0  0  0  0
  149.9009  139.9587  158.2557 H   0  0  0  0  0  0  0  0  0  0  0  0
  152.4508  138.6494  158.0421 H   0  0  0  0  0  0  0  0  0  0  0  0
  152.3757  137.2996  156.9410 H   0  0  0  0  0  0  0  0  0  0  0  0
  153.4941  138.9850  154.7035 H   0  0  0  0  0  0  0  0  0  0  0  0
  151.5056  140.9179  157.3052 H   0  0  0  0  0  0  0  0  0  0  0  0
  152.1711  141.3873  155.7509 H   0  0  0  0  0  0  0  0  0  0  0  0
  149.4333  140.1529  156.2283 H   0  0  0  0  0  0  0  0  0  0  0  0
  149.8159  141.6528  155.3657 H   0  0  0  0  0  0  0  0  0  0  0  0
  151.8002  138.4510  153.9220 H   0  0  0  0  0  0  0  0  0  0  0  0
  150.5495  137.9472  155.0494 H   0  0  0  0  0  0  0  0  0  0  0  0
  1  2  1  0  0  0  0
  1 29  1  0  0  0  0
  2  6  1  0  0  0  0
  2  3  1  0  0  0  0
  2 30  1  0  0  0  0
  3  4  1  0  0  0  0
  3 31  1  0  0  0  0
  3 32  1  0  0  0  0
  4  5  1  0  0  0  0
  4 33  1  0  0  0  0
  4 34  1  0  0  0  0
  5  6  1  0  0  0  0
  5 35  1  0  0  0  0
  5 36  1  0  0  0  0
  6  7  1  0  0  0  0
  6 37  1  0  0  0  0
  7 12  1  0  0  0  0
  7  8  1  0  0  0  0
  7 38  1  0  0  0  0
  8  9  1  0  0  0  0
  8 39  1  0  0  0  0
  8 40  1  0  0  0  0
  9 10  1  0  0  0  0
 10 11  1  0  0  0  0
 10 41  1  0  0  0  0
 10 42  1  0  0  0  0
 11 12  1  0  0  0  0
 11 43  1  0  0  0  0
 11 44  1  0  0  0  0
 12 13  1  0  0  0  0
 13 18  1  0  0  0  0
 13 14  2  0  0  0  0
 14 15  1  0  0  0  0
 15 16  2  0  0  0  0
 15 45  1  0  0  0  0
 16 17  1  0  0  0  0
 17 21  1  0  0  0  0
 17 18  2  0  0  0  0
 18 19  1  0  0  0  0
 19 20  2  0  0  0  0
 20 21  1  0  0  0  0
 20 46  1  0  0  0  0
 21 22  1  0  0  0  0
 22 23  1  0  0  0  0
 22 47  1  0  0  0  0
 22 48  1  0  0  0  0
 23 28  1  0  0  0  0
 23 24  1  0  0  0  0
 23 25  1  0  0  0  0
 24 49  1  0  0  0  0
 25 26  1  0  0  0  0
 25 50  1  0  0  0  0
 25 51  1  0  0  0  0
 26 27  1  0  0  0  0
 26 52  1  0  0  0  0
 26 53  1  0  0  0  0
 27 28  1  0  0  0  0
 28 54  1  0  0  0  0
 28 55  1  0  0  0  0
M  END
> <s_m_source_file>
AV-unprocessed.smi

> <i_m_source_file_index>
240

> <i_lp_mmshare_version>
43012

> <i_f3d_flags>
0

> <s_epik_input>
W09IXVtDQEBIXTFbQ0gyXVtDSDJdW0NIMl1bQ0BIXTFbQ0BASF0yW0NIMl1PW0NIMl1bQ0gyXU4yYyhuW2NIXW4zKWMoYzM0KW5bY0hdbjRbQ0gyXVtDQEBdNShbT0hdKVtDSDJdW0NIMl1PW0NIMl01

> <s_epik_cmdline>
J2VwaWtfcHl0aG9uJywgJy1waCcsICc3LjAnLCAnLXRuJywgJzgnLCAnLW1hJywgJzIwMCcsICctbWV0YWxfYmluZGluZycsICctaW1hZScsICc8aW5maWxlLm1hZT4nLCAnLW9tYWUnLCAnPG91dGZpbGUubWFlPic=

> <r_lp_tautomer_probability>
1

> <r_epik_Ionization_Penalty>
0.000130618

> <r_epik_Ionization_Penalty_Charging>
0

> <r_epik_Ionization_Penalty_Neutral>
0.000130618

> <r_epik_State_Penalty>
-0

> <r_epik_Charging_Adjusted_Penalty>
0

> <i_epik_Tot_Q>
0

> <i_epik_Tot_abs_Q>
0

> <r_epik_Metal_State_Penalty>
-0

> <b_epik_Metal_Only>
0

> <s_lp_Force_Field>
OPLS_2005

> <r_lp_Energy>
62.6221

> <b_lp_Chiralities_Consistent>
1

> <s_lp_Variant>
AV-unprocessed.smi:240-16

> <Gold.Version>
5.8.1

> <Gold.Id.Protein>
6NUR|6NUR_protein|mol2

> <Gold.PLP.Fitness>
38.8442

> <Gold.PLP.PLP>
-33.0724

> <Gold.PLP.part.hbond>
-2.2601

> <Gold.PLP.part.metal>
0.0000

> <Gold.PLP.part.buried>
-6.1265

> <Gold.PLP.part.nonpolar>
-25.6970

> <Gold.PLP.part.repulsive>
0.1072

> <Gold.PLP.ligand.clash>
0.0000

> <Gold.PLP.ligand.torsion>
0.2041

> <Gold.PLP.Chemscore.Hbond>
2.0000

> <Gold.PLP.Chemscore.CHOScore>
0.0000

> <Gold.PLP.Chemscore.Metal>
0.0000

> <Gold.Chemscore.Hbonds>
donor molecule, donor type, donor heavy atom, donor atom, acceptor molecule, acceptor atom, score
      P1  H  7989  7998       L1    27  1.00
      P1  H  7997  8009       L1    24  0.67

> <Gold.PLP.Chemscore.Internal.Correction>
0.1800

> <Gold.Rescore>
     Score         DG    S(hbond)    S(metal)    S(lipo)     H(rot)  DE(clash)    DE(int)     intcor
      9.74     -10.77       1.20        0.00      76.67       3.00       0.01       1.02       ----

> <Gold.Chemscore.Fitness>
9.7384

> <Gold.Chemscore.DG>
-10.7725

> <Gold.Chemscore.ZeroCoef>
-5.4800

> <Gold.Chemscore.Hbond>
1.2011

> <Gold.Chemscore.Metal>
0.0000

> <Gold.Chemscore.Lipo>
76.6731

> <Gold.Chemscore.Internal_Hbond>
0.0000

> <Gold.Chemscore.DEClash>
0.0149

> <Gold.Chemscore.DEInternal>
1.0192

> <Gold.Chemscore.Rot>
3.0039

> <Gold.Chemscore.Internal.Correction>
   9.000000E+99

> <Gold.Chemscore.Hbonds>
donor molecule, donor type, donor heavy atom, donor atom, acceptor molecule, acceptor atom, score
      P1  H  7989  7998       L1    27  0.11
      P1  H  7997  8009       L1    24  0.64

> <Gold.Chemscore.Hbond.Weighted>
-4.0116

> <Gold.Chemscore.Metal.Weighted>
-0.0000

> <Gold.Chemscore.Lipo.Weighted>
-8.9708

> <Gold.Chemscore.Internal_Hbond.Weighted>
0.0000

> <Gold.Chemscore.DEClash.Weighted>
0.0149

> <Gold.Chemscore.DEInternal.Weighted>
1.0192

> <Gold.Chemscore.Rot.Weighted>
7.6899

> <Gold.Chemscore.Internal.Correction.Weighted>
   9.000000E+99

> <Gold.Protein.RotatedTorsions>
[ 6907 6896 6895 6894 ] final -165.44 input  -60.11 | X-H torsion
[ 7974 7965 7964 7962 ] final -116.44 input  175.53 | X-H torsion
[ 8008 7997 7996 7995 ] final -157.25 input   59.86 | X-H torsion
[ 10167 10162 10161 10158 ] final  161.94 input  -65.29 | X-H torsion
[ 10718 10713 10712 10709 ] final   24.90 input   66.30 | X-H torsion
[ 10763 10752 10751 10750 ] final  104.71 input  -60.55 | X-H torsion
[ 11005 11000 10999 10996 ] final   42.42 input  -57.11 | X-H torsion

> <Gold.Protein.ActiveResidues>
 VAL166  LYS551  ARG553  GLY616  TRP617  ASP618  TYR619  PRO620  LYS621  CYS622 
 ASP623  PHE694  ASN695  SER759  ASP760  ASP761  ALA762  ILE779  LEU786  VAL792 
 PHE793  MET794  SER795  GLU796  ALA797  LYS798  CYS799  TRP800  GLU811  SER814 

> <Gold.Protein.RotatedAtoms>
  151.4276  133.3679  159.2764 H   0  0  0  0  0  0  0  0  0  0  0  0  # atno 6907 bound_to 6896
  150.9248  134.8666  159.7523 H   0  0  0  0  0  0  0  0  0  0  0  0  # atno 6908 bound_to 6896
  152.4999  134.4217  159.9535 H   0  0  0  0  0  0  0  0  0  0  0  0  # atno 6909 bound_to 6896
  145.0967  140.8526  143.3950 H   0  0  0  0  0  0  0  0  0  0  0  0  # atno 7974 bound_to 7965
  155.7296  140.0800  157.2295 H   0  0  0  0  0  0  0  0  0  0  0  0  # atno 8008 bound_to 7997
  154.4034  140.1598  156.2548 H   0  0  0  0  0  0  0  0  0  0  0  0  # atno 8009 bound_to 7997
  155.9121  140.3403  155.6110 H   0  0  0  0  0  0  0  0  0  0  0  0  # atno 8010 bound_to 7997
  139.4855  144.4487  151.8858 H   0  0  0  0  0  0  0  0  0  0  0  0  # atno 10167 bound_to 10162
  157.1861  130.6824  149.6131 H   0  0  0  0  0  0  0  0  0  0  0  0  # atno 10718 bound_to 10713
  153.3696  135.3934  155.1779 H   0  0  0  0  0  0  0  0  0  0  0  0  # atno 10763 bound_to 10752
  154.8692  135.3699  154.4995 H   0  0  0  0  0  0  0  0  0  0  0  0  # atno 10764 bound_to 10752
  153.5461  135.7083  153.5674 H   0  0  0  0  0  0  0  0  0  0  0  0  # atno 10765 bound_to 10752
  140.1741  134.4186  155.8239 H   0  0  0  0  0  0  0  0  0  0  0  0  # atno 11005 bound_to 11000
  145.1002  139.2828  143.5690 LP  0  0  0  0  0  0  0  0  0  0  0  0  # atno 17320 bound_to 7965
  146.3530  140.0567  142.8632 LP  0  0  0  0  0  0  0  0  0  0  0  0  # atno 17321 bound_to 7965
  140.3942  144.2576  150.5897 LP  0  0  0  0  0  0  0  0  0  0  0  0  # atno 17342 bound_to 10162
  140.5117  143.2289  151.8524 LP  0  0  0  0  0  0  0  0  0  0  0  0  # atno 17343 bound_to 10162
  155.9718  130.4630  150.6167 LP  0  0  0  0  0  0  0  0  0  0  0  0  # atno 17370 bound_to 10713
  157.3906  131.0795  151.1397 LP  0  0  0  0  0  0  0  0  0  0  0  0  # atno 17371 bound_to 10713
  141.2219  133.6969  156.7815 LP  0  0  0  0  0  0  0  0  0  0  0  0  # atno 17394 bound_to 11000
  140.2343  134.8662  157.3509 LP  0  0  0  0  0  0  0  0  0  0  0  0  # atno 17395 bound_to 11000

$$$$
