AV-unprocessed.smi:1460|AV-procd|sdf|5928|dock10
  -GOLD-   22720 6 13D 1   1.00000     0.00000
 Structure written by MMmdl.
 41 42  0  0  0  0  0  0  0  0  1 V2000
  147.6509  137.4179  155.8146 C   0  0  0  0  0  0  0  0  0  0  0  0
  148.1785  136.0384  155.3869 C   0  0  2  0  0  0  0  0  0  0  0  0
  149.7211  135.9537  155.3727 C   0  0  0  0  0  0  0  0  0  0  0  0
  150.3632  137.2548  155.3243 N   0  0  0  0  0  0  0  0  0  0  0  0
  151.1182  137.8001  154.3072 C   0  0  0  0  0  0  0  0  0  0  0  0
  151.5166  139.0402  154.7168 C   0  0  0  0  0  0  0  0  0  0  0  0
  150.9542  139.1630  156.0181 C   0  0  0  0  0  0  0  0  0  0  0  0
  150.2675  138.0915  156.3803 N   0  0  0  0  0  0  0  0  0  0  0  0
  147.6484  135.7142  154.0658 N   0  0  0  0  0  0  0  0  0  0  0  0
  146.3679  135.4217  153.7892 C   0  0  0  0  0  0  0  0  0  0  0  0
  145.4809  135.3959  154.6427 O   0  0  0  0  0  0  0  0  0  0  0  0
  146.0417  135.1075  152.3233 C   0  0  0  0  0  0  0  0  0  0  0  0
  144.5184  135.1779  152.0673 C   0  0  0  0  0  0  0  0  0  0  0  0
  144.1779  134.7399  150.6315 C   0  0  0  0  0  0  0  0  0  0  0  0
  144.6989  133.3797  150.4153 N   0  0  0  0  0  0  0  0  0  0  0  0
  143.9655  132.2396  150.3524 C   0  0  0  0  0  0  0  0  0  0  0  0
  142.6654  132.4097  150.0924 N   0  0  0  0  0  0  0  0  0  0  0  0
  144.4381  131.1134  150.4965 O   0  0  0  0  0  0  0  0  0  0  0  0
  146.1655  133.3560  150.4804 C   0  0  0  0  0  0  0  0  0  0  0  0
  146.6072  133.7290  151.9073 C   0  0  0  0  0  0  0  0  0  0  0  0
  147.9521  137.6637  156.8329 H   0  0  0  0  0  0  0  0  0  0  0  0
  146.5611  137.4463  155.7860 H   0  0  0  0  0  0  0  0  0  0  0  0
  148.0221  138.2054  155.1579 H   0  0  0  0  0  0  0  0  0  0  0  0
  147.7958  135.3092  156.1037 H   0  0  0  0  0  0  0  0  0  0  0  0
  150.0837  135.4283  156.2576 H   0  0  0  0  0  0  0  0  0  0  0  0
  150.0566  135.3762  154.5099 H   0  0  0  0  0  0  0  0  0  0  0  0
  151.3044  137.2673  153.3863 H   0  0  0  0  0  0  0  0  0  0  0  0
  152.1195  139.7504  154.1712 H   0  0  0  0  0  0  0  0  0  0  0  0
  151.0255  139.9923  156.7062 H   0  0  0  0  0  0  0  0  0  0  0  0
  148.3076  135.7111  153.3011 H   0  0  0  0  0  0  0  0  0  0  0  0
  146.5181  135.8618  151.6941 H   0  0  0  0  0  0  0  0  0  0  0  0
  143.9841  134.5387  152.7724 H   0  0  0  0  0  0  0  0  0  0  0  0
  144.1578  136.1933  152.2362 H   0  0  0  0  0  0  0  0  0  0  0  0
  143.1057  134.8355  150.4615 H   0  0  0  0  0  0  0  0  0  0  0  0
  144.6436  135.4186  149.9154 H   0  0  0  0  0  0  0  0  0  0  0  0
  142.0560  131.6078  150.0262 H   0  0  0  0  0  0  0  0  0  0  0  0
  142.3004  133.3414  149.9595 H   0  0  0  0  0  0  0  0  0  0  0  0
  146.5838  132.3876  150.2025 H   0  0  0  0  0  0  0  0  0  0  0  0
  146.5721  134.0691  149.7617 H   0  0  0  0  0  0  0  0  0  0  0  0
  147.6964  133.7390  151.9642 H   0  0  0  0  0  0  0  0  0  0  0  0
  146.2697  132.9539  152.5974 H   0  0  0  0  0  0  0  0  0  0  0  0
  1  2  1  0  0  0  0
  1 21  1  0  0  0  0
  1 22  1  0  0  0  0
  1 23  1  0  0  0  0
  2  3  1  0  0  0  0
  2  9  1  0  0  0  0
  2 24  1  0  0  0  0
  3  4  1  0  0  0  0
  3 25  1  0  0  0  0
  3 26  1  0  0  0  0
  4  8  1  0  0  0  0
  4  5  1  0  0  0  0
  5  6  2  0  0  0  0
  5 27  1  0  0  0  0
  6  7  1  0  0  0  0
  6 28  1  0  0  0  0
  7  8  2  0  0  0  0
  7 29  1  0  0  0  0
  9 10  1  0  0  0  0
  9 30  1  0  0  0  0
 10 11  2  0  0  0  0
 10 12  1  0  0  0  0
 12 20  1  0  0  0  0
 12 13  1  0  0  0  0
 12 31  1  0  0  0  0
 13 14  1  0  0  0  0
 13 32  1  0  0  0  0
 13 33  1  0  0  0  0
 14 15  1  0  0  0  0
 14 34  1  0  0  0  0
 14 35  1  0  0  0  0
 15 16  1  0  0  0  0
 15 19  1  0  0  0  0
 16 17  1  0  0  0  0
 16 18  2  0  0  0  0
 17 36  1  0  0  0  0
 17 37  1  0  0  0  0
 19 20  1  0  0  0  0
 19 38  1  0  0  0  0
 19 39  1  0  0  0  0
 20 40  1  0  0  0  0
 20 41  1  0  0  0  0
M  END
> <s_m_source_file>
AV-unprocessed.smi

> <i_m_source_file_index>
1460

> <i_lp_mmshare_version>
43012

> <i_f3d_flags>
0

> <s_epik_input>
bjFbY0hdW2NIXVtjSF1uMVtDSDJdW0NAQEhdKFtDSDNdKVtOSF1DKD1PKVtDSF0yW0NIMl1bQ0gyXU4oQyg9TylbTkgyXSlbQ0gyXVtDSDJdMg==

> <s_epik_cmdline>
J2VwaWtfcHl0aG9uJywgJy1waCcsICc3LjAnLCAnLXRuJywgJzgnLCAnLW1hJywgJzIwMCcsICctbWV0YWxfYmluZGluZycsICctaW1hZScsICc8aW5maWxlLm1hZT4nLCAnLW9tYWUnLCAnPG91dGZpbGUubWFlPic=

> <r_lp_tautomer_probability>
1

> <r_epik_Ionization_Penalty>
0.000387527

> <r_epik_Ionization_Penalty_Charging>
0

> <r_epik_Ionization_Penalty_Neutral>
0.000387527

> <r_epik_State_Penalty>
-0

> <r_epik_Charging_Adjusted_Penalty>
0

> <i_epik_Tot_Q>
0

> <i_epik_Tot_abs_Q>
0

> <r_epik_Metal_State_Penalty>
-0

> <b_epik_Metal_Only>
0

> <s_lp_Force_Field>
OPLS_2005

> <r_lp_Energy>
26.2675

> <b_lp_Chiralities_Consistent>
1

> <s_lp_Variant>
AV-unprocessed.smi:1460-1

> <Gold.Version>
5.8.1

> <Gold.Id.Protein>
6NUR|6NUR_protein|mol2

> <Gold.PLP.Fitness>
40.3295

> <Gold.PLP.PLP>
-30.4390

> <Gold.PLP.part.hbond>
-4.0000

> <Gold.PLP.part.metal>
0.0000

> <Gold.PLP.part.buried>
-2.7365

> <Gold.PLP.part.nonpolar>
-24.3676

> <Gold.PLP.part.repulsive>
0.2737

> <Gold.PLP.ligand.clash>
0.0000

> <Gold.PLP.ligand.torsion>
1.2015

> <Gold.PLP.Chemscore.Hbond>
3.0746

> <Gold.PLP.Chemscore.CHOScore>
1.0000

> <Gold.PLP.Chemscore.Metal>
0.0000

> <Gold.Chemscore.Hbonds>
donor molecule, donor type, donor heavy atom, donor atom, acceptor molecule, acceptor atom, score
      L1  H     9    30       P1  7948  1.00
      L1  H    17    36       P1 10952  1.00
      L1  H    17    37       P1 10186  1.00
      P1  H 10785 10796       L1    18  0.08
      L1  C     5    27       P1  7949  1.00

> <Gold.PLP.Chemscore.Internal.Correction>
0.0696

> <Gold.Rescore>
     Score         DG    S(hbond)    S(metal)    S(lipo)     H(rot)  DE(clash)    DE(int)     intcor
     14.07     -17.19       2.97        0.00      55.05       1.82       0.58       2.53       ----

> <Gold.Chemscore.Fitness>
14.0731

> <Gold.Chemscore.DG>
-17.1861

> <Gold.Chemscore.ZeroCoef>
-5.4800

> <Gold.Chemscore.Hbond>
2.9719

> <Gold.Chemscore.Metal>
0.0000

> <Gold.Chemscore.Lipo>
55.0487

> <Gold.Chemscore.Internal_Hbond>
0.0000

> <Gold.Chemscore.DEClash>
0.5815

> <Gold.Chemscore.DEInternal>
2.5316

> <Gold.Chemscore.Rot>
1.8206

> <Gold.Chemscore.Internal.Correction>
   9.000000E+99

> <Gold.Chemscore.Hbonds>
donor molecule, donor type, donor heavy atom, donor atom, acceptor molecule, acceptor atom, score
      L1  H     9    30       P1  7948  0.99
      L1  H    17    36       P1 10952  0.88
      L1  H    17    37       P1 10186  0.95
      P1  H 10785 10796       L1    18  0.01

> <Gold.Chemscore.Hbond.Weighted>
-9.9261

> <Gold.Chemscore.Metal.Weighted>
-0.0000

> <Gold.Chemscore.Lipo.Weighted>
-6.4407

> <Gold.Chemscore.Internal_Hbond.Weighted>
0.0000

> <Gold.Chemscore.DEClash.Weighted>
0.5815

> <Gold.Chemscore.DEInternal.Weighted>
2.5316

> <Gold.Chemscore.Rot.Weighted>
4.6607

> <Gold.Chemscore.Internal.Correction.Weighted>
   9.000000E+99

> <Gold.Protein.RotatedTorsions>
[ 6907 6896 6895 6894 ] final -137.33 input  -60.11 | X-H torsion
[ 7974 7965 7964 7962 ] final  -97.43 input  175.53 | X-H torsion
[ 8008 7997 7996 7995 ] final  -88.52 input   59.86 | X-H torsion
[ 10167 10162 10161 10158 ] final -115.58 input  -65.29 | X-H torsion
[ 10718 10713 10712 10709 ] final  108.35 input   66.30 | X-H torsion
[ 10763 10752 10751 10750 ] final    3.28 input  -60.55 | X-H torsion
[ 11005 11000 10999 10996 ] final  154.26 input  -57.11 | X-H torsion

> <Gold.Protein.ActiveResidues>
 VAL166  LYS551  ARG553  GLY616  TRP617  ASP618  TYR619  PRO620  LYS621  CYS622 
 ASP623  PHE694  ASN695  SER759  ASP760  ASP761  ALA762  ILE779  LEU786  VAL792 
 PHE793  MET794  SER795  GLU796  ALA797  LYS798  CYS799  TRP800  GLU811  SER814 

> <Gold.Protein.RotatedAtoms>
  151.0212  133.5875  159.2670 H   0  0  0  0  0  0  0  0  0  0  0  0  # atno 6907 bound_to 6896
  151.2991  135.0763  159.9242 H   0  0  0  0  0  0  0  0  0  0  0  0  # atno 6908 bound_to 6896
  152.5323  133.9897  159.7899 H   0  0  0  0  0  0  0  0  0  0  0  0  # atno 6909 bound_to 6896
  145.3339  140.9447  143.2646 H   0  0  0  0  0  0  0  0  0  0  0  0  # atno 7974 bound_to 7965
  154.6757  140.0552  157.0213 H   0  0  0  0  0  0  0  0  0  0  0  0  # atno 8008 bound_to 7997
  155.1024  140.3230  155.4525 H   0  0  0  0  0  0  0  0  0  0  0  0  # atno 8009 bound_to 7997
  156.2675  140.2029  156.6149 H   0  0  0  0  0  0  0  0  0  0  0  0  # atno 8010 bound_to 7997
  140.0885  143.4722  152.1884 H   0  0  0  0  0  0  0  0  0  0  0  0  # atno 10167 bound_to 10162
  157.6590  131.0892  150.6293 H   0  0  0  0  0  0  0  0  0  0  0  0  # atno 10718 bound_to 10713
  153.2852  135.6944  153.7346 H   0  0  0  0  0  0  0  0  0  0  0  0  # atno 10763 bound_to 10752
  153.6318  135.3409  155.3045 H   0  0  0  0  0  0  0  0  0  0  0  0  # atno 10764 bound_to 10752
  154.8507  135.4411  154.1918 H   0  0  0  0  0  0  0  0  0  0  0  0  # atno 10765 bound_to 10752
  140.1472  134.8699  157.2408 H   0  0  0  0  0  0  0  0  0  0  0  0  # atno 11005 bound_to 11000
  144.8843  139.4861  143.6708 LP  0  0  0  0  0  0  0  0  0  0  0  0  # atno 17320 bound_to 7965
  146.3035  139.7502  142.9074 LP  0  0  0  0  0  0  0  0  0  0  0  0  # atno 17321 bound_to 7965
  139.5738  144.7477  151.3819 LP  0  0  0  0  0  0  0  0  0  0  0  0  # atno 17342 bound_to 10162
  140.7041  143.7558  150.7452 LP  0  0  0  0  0  0  0  0  0  0  0  0  # atno 17343 bound_to 10162
  156.6597  130.4508  149.5692 LP  0  0  0  0  0  0  0  0  0  0  0  0  # atno 17370 bound_to 10713
  156.2076  130.6659  151.1235 LP  0  0  0  0  0  0  0  0  0  0  0  0  # atno 17371 bound_to 10713
  140.2648  134.3528  155.7393 LP  0  0  0  0  0  0  0  0  0  0  0  0  # atno 17394 bound_to 11000
  141.2194  133.7390  156.9135 LP  0  0  0  0  0  0  0  0  0  0  0  0  # atno 17395 bound_to 11000

$$$$
