AV-unprocessed.smi:3050|AV-procd|sdf|11632|dock3
  -GOLD-   2272017 23D 1   1.00000     0.00000
 Structure written by MMmdl.
 45 46  0  0  0  0  0  0  0  0  1 V2000
  146.6480  142.2433  154.6014 C   0  0  0  0  0  0  0  0  0  0  0  0
  147.9666  141.9738  153.8661 C   0  0  0  0  0  0  0  0  0  0  0  0
  148.3435  140.4807  153.8494 C   0  0  1  0  0  0  0  0  0  0  0  0
  148.7929  140.1267  155.1568 O   0  0  0  0  0  0  0  0  0  0  0  0
  149.9374  140.8219  155.6452 C   0  0  0  0  0  0  0  0  0  0  0  0
  151.0068  139.8265  156.0892 C   0  0  0  0  0  0  0  0  0  0  0  0
  151.9007  140.6277  157.0387 C   0  0  0  0  0  0  0  0  0  0  0  0
  151.0001  141.7099  157.6544 C   0  0  0  0  0  0  0  0  0  0  0  0
  149.6555  141.6251  156.9195 C   0  0  0  0  0  0  0  0  0  0  0  0
  147.1433  139.6084  153.4494 C   0  0  0  0  0  0  0  0  0  0  0  0
  146.1561  139.5330  154.1813 O   0  0  0  0  0  0  0  0  0  0  0  0
  147.2444  138.9583  152.2805 N   0  0  0  0  0  0  0  0  0  0  0  0
  146.1963  138.1357  151.6847 C   0  0  0  0  0  0  0  0  0  0  0  0
  145.8714  136.8919  152.5342 C   0  0  0  0  0  0  0  0  0  0  0  0
  145.5470  135.6849  151.6935 C   0  0  0  0  0  0  0  0  0  0  0  0
  144.4579  135.5126  150.7924 C   0  0  0  0  0  0  0  0  0  0  0  0
  144.4481  134.3199  150.2197 N   0  0  0  0  0  0  0  0  0  0  0  0
  145.5273  133.6927  150.7310 N   0  0  0  0  0  0  0  0  0  0  0  0
  145.8279  132.3388  150.3174 C   0  0  0  0  0  0  0  0  0  0  0  0
  146.2110  134.4926  151.6206 C   0  0  0  0  0  0  0  0  0  0  0  0
  146.4145  143.3080  154.6004 H   0  0  0  0  0  0  0  0  0  0  0  0
  146.7021  141.9155  155.6398 H   0  0  0  0  0  0  0  0  0  0  0  0
  145.8166  141.7208  154.1277 H   0  0  0  0  0  0  0  0  0  0  0  0
  147.8939  142.3524  152.8454 H   0  0  0  0  0  0  0  0  0  0  0  0
  148.7577  142.5482  154.3507 H   0  0  0  0  0  0  0  0  0  0  0  0
  149.1466  140.3416  153.1238 H   0  0  0  0  0  0  0  0  0  0  0  0
  150.3699  141.4723  154.8839 H   0  0  0  0  0  0  0  0  0  0  0  0
  150.5418  139.0039  156.6345 H   0  0  0  0  0  0  0  0  0  0  0  0
  151.5579  139.3993  155.2508 H   0  0  0  0  0  0  0  0  0  0  0  0
  152.3620  139.9927  157.7956 H   0  0  0  0  0  0  0  0  0  0  0  0
  152.7055  141.1007  156.4743 H   0  0  0  0  0  0  0  0  0  0  0  0
  150.8655  141.5566  158.7257 H   0  0  0  0  0  0  0  0  0  0  0  0
  151.4519  142.6936  157.5211 H   0  0  0  0  0  0  0  0  0  0  0  0
  149.2345  142.6090  156.7101 H   0  0  0  0  0  0  0  0  0  0  0  0
  148.9388  141.0854  157.5403 H   0  0  0  0  0  0  0  0  0  0  0  0
  148.0938  139.0724  151.7466 H   0  0  0  0  0  0  0  0  0  0  0  0
  145.3052  138.7577  151.5967 H   0  0  0  0  0  0  0  0  0  0  0  0
  146.4707  137.8454  150.6693 H   0  0  0  0  0  0  0  0  0  0  0  0
  146.7145  136.6841  153.1933 H   0  0  0  0  0  0  0  0  0  0  0  0
  145.0375  137.1247  153.1975 H   0  0  0  0  0  0  0  0  0  0  0  0
  143.6749  136.2140  150.5446 H   0  0  0  0  0  0  0  0  0  0  0  0
  146.6960  131.9654  150.8613 H   0  0  0  0  0  0  0  0  0  0  0  0
  146.0434  132.3192  149.2487 H   0  0  0  0  0  0  0  0  0  0  0  0
  144.9752  131.6909  150.5239 H   0  0  0  0  0  0  0  0  0  0  0  0
  147.1007  134.1506  152.1291 H   0  0  0  0  0  0  0  0  0  0  0  0
  1  2  1  0  0  0  0
  1 21  1  0  0  0  0
  1 22  1  0  0  0  0
  1 23  1  0  0  0  0
  2  3  1  0  0  0  0
  2 24  1  0  0  0  0
  2 25  1  0  0  0  0
  3  4  1  0  0  0  0
  3 10  1  0  0  0  0
  3 26  1  0  0  0  0
  4  5  1  0  0  0  0
  5  9  1  0  0  0  0
  5  6  1  0  0  0  0
  5 27  1  0  0  0  0
  6  7  1  0  0  0  0
  6 28  1  0  0  0  0
  6 29  1  0  0  0  0
  7  8  1  0  0  0  0
  7 30  1  0  0  0  0
  7 31  1  0  0  0  0
  8  9  1  0  0  0  0
  8 32  1  0  0  0  0
  8 33  1  0  0  0  0
  9 34  1  0  0  0  0
  9 35  1  0  0  0  0
 10 11  2  0  0  0  0
 10 12  1  0  0  0  0
 12 13  1  0  0  0  0
 12 36  1  0  0  0  0
 13 14  1  0  0  0  0
 13 37  1  0  0  0  0
 13 38  1  0  0  0  0
 14 15  1  0  0  0  0
 14 39  1  0  0  0  0
 14 40  1  0  0  0  0
 15 20  2  0  0  0  0
 15 16  1  0  0  0  0
 16 17  2  0  0  0  0
 16 41  1  0  0  0  0
 17 18  1  0  0  0  0
 18 19  1  0  0  0  0
 18 20  1  0  0  0  0
 19 42  1  0  0  0  0
 19 43  1  0  0  0  0
 19 44  1  0  0  0  0
 20 45  1  0  0  0  0
M  END
> <s_m_source_file>
AV-unprocessed.smi

> <i_m_source_file_index>
3050

> <i_lp_mmshare_version>
43012

> <i_f3d_flags>
0

> <s_epik_input>
W0NIMl0xW0NIMl1bQ0gyXVtDSDJdW0NIXTFPW0NAQEhdKFtDSDJdW0NIM10pQyg9TylbTkhdW0NIMl1bQ0gyXWMyW2NIXW5uKFtDSDNdKVtjSF0y

> <s_epik_cmdline>
J2VwaWtfcHl0aG9uJywgJy1waCcsICc3LjAnLCAnLXRuJywgJzgnLCAnLW1hJywgJzIwMCcsICctbWV0YWxfYmluZGluZycsICctaW1hZScsICc8aW5maWxlLm1hZT4nLCAnLW9tYWUnLCAnPG91dGZpbGUubWFlPic=

> <r_lp_tautomer_probability>
1

> <r_epik_Ionization_Penalty>
0.000440265

> <r_epik_Ionization_Penalty_Charging>
0

> <r_epik_Ionization_Penalty_Neutral>
0.000440265

> <r_epik_State_Penalty>
-0

> <r_epik_Charging_Adjusted_Penalty>
0

> <i_epik_Tot_Q>
0

> <i_epik_Tot_abs_Q>
0

> <r_epik_Metal_State_Penalty>
-0

> <b_epik_Metal_Only>
0

> <s_lp_Force_Field>
OPLS_2005

> <r_lp_Energy>
20.8184

> <b_lp_Chiralities_Consistent>
1

> <s_lp_Variant>
AV-unprocessed.smi:3050-2

> <Gold.Version>
5.8.1

> <Gold.Id.Protein>
6NUR|6NUR_protein|mol2

> <Gold.PLP.Fitness>
40.7859

> <Gold.PLP.PLP>
-35.9830

> <Gold.PLP.part.hbond>
-1.3252

> <Gold.PLP.part.metal>
0.0000

> <Gold.PLP.part.buried>
-1.1119

> <Gold.PLP.part.nonpolar>
-33.9799

> <Gold.PLP.part.repulsive>
0.8371

> <Gold.PLP.ligand.clash>
0.0000

> <Gold.PLP.ligand.torsion>
1.1780

> <Gold.PLP.Chemscore.Hbond>
1.0000

> <Gold.PLP.Chemscore.CHOScore>
1.3075

> <Gold.PLP.Chemscore.Metal>
0.0000

> <Gold.Chemscore.Hbonds>
donor molecule, donor type, donor heavy atom, donor atom, acceptor molecule, acceptor atom, score
      L1  H    12    36       P1  7957  1.00
      L1  C    16    41       P1 10171  1.00
      L1  C    20    45       P1  7948  0.23

> <Gold.PLP.Chemscore.Internal.Correction>
0.2365

> <Gold.Rescore>
     Score         DG    S(hbond)    S(metal)    S(lipo)     H(rot)  DE(clash)    DE(int)     intcor
     11.72     -14.40       0.99        0.00      88.07       1.83       0.10       2.58       ----

> <Gold.Chemscore.Fitness>
11.7167

> <Gold.Chemscore.DG>
-14.3955

> <Gold.Chemscore.ZeroCoef>
-5.4800

> <Gold.Chemscore.Hbond>
0.9858

> <Gold.Chemscore.Metal>
0.0000

> <Gold.Chemscore.Lipo>
88.0688

> <Gold.Chemscore.Internal_Hbond>
0.0000

> <Gold.Chemscore.DEClash>
0.0968

> <Gold.Chemscore.DEInternal>
2.5820

> <Gold.Chemscore.Rot>
1.8286

> <Gold.Chemscore.Internal.Correction>
   9.000000E+99

> <Gold.Chemscore.Hbonds>
donor molecule, donor type, donor heavy atom, donor atom, acceptor molecule, acceptor atom, score
      L1  H    12    36       P1  7957  0.93

> <Gold.Chemscore.Hbond.Weighted>
-3.2926

> <Gold.Chemscore.Metal.Weighted>
-0.0000

> <Gold.Chemscore.Lipo.Weighted>
-10.3040

> <Gold.Chemscore.Internal_Hbond.Weighted>
0.0000

> <Gold.Chemscore.DEClash.Weighted>
0.0968

> <Gold.Chemscore.DEInternal.Weighted>
2.5820

> <Gold.Chemscore.Rot.Weighted>
4.6811

> <Gold.Chemscore.Internal.Correction.Weighted>
   9.000000E+99

> <Gold.Protein.RotatedTorsions>
[ 6907 6896 6895 6894 ] final  -13.84 input  -60.11 | X-H torsion
[ 7974 7965 7964 7962 ] final  136.58 input  175.53 | X-H torsion
[ 8008 7997 7996 7995 ] final  144.47 input   59.86 | X-H torsion
[ 10167 10162 10161 10158 ] final   26.50 input  -65.29 | X-H torsion
[ 10718 10713 10712 10709 ] final  -83.41 input   66.30 | X-H torsion
[ 10763 10752 10751 10750 ] final -101.78 input  -60.55 | X-H torsion
[ 11005 11000 10999 10996 ] final  -70.01 input  -57.11 | X-H torsion

> <Gold.Protein.ActiveResidues>
 VAL166  LYS551  ARG553  GLY616  TRP617  ASP618  TYR619  PRO620  LYS621  CYS622 
 ASP623  PHE694  ASN695  SER759  ASP760  ASP761  ALA762  ILE779  LEU786  VAL792 
 PHE793  MET794  SER795  GLU796  ALA797  LYS798  CYS799  TRP800  GLU811  SER814 

> <Gold.Protein.RotatedAtoms>
  151.3486  135.0879  159.9395 H   0  0  0  0  0  0  0  0  0  0  0  0  # atno 6907 bound_to 6896
  152.5193  133.9375  159.7621 H   0  0  0  0  0  0  0  0  0  0  0  0  # atno 6908 bound_to 6896
  150.9746  133.6254  159.2762 H   0  0  0  0  0  0  0  0  0  0  0  0  # atno 6909 bound_to 6896
  144.9550  139.4774  143.5507 H   0  0  0  0  0  0  0  0  0  0  0  0  # atno 7974 bound_to 7965
  156.2907  140.2235  156.5058 H   0  0  0  0  0  0  0  0  0  0  0  0  # atno 8008 bound_to 7997
  154.7651  140.0470  157.1027 H   0  0  0  0  0  0  0  0  0  0  0  0  # atno 8009 bound_to 7997
  154.9943  140.3094  155.4896 H   0  0  0  0  0  0  0  0  0  0  0  0  # atno 8010 bound_to 7997
  140.5018  144.0303  150.6336 H   0  0  0  0  0  0  0  0  0  0  0  0  # atno 10167 bound_to 10162
  156.0019  130.4665  150.4253 H   0  0  0  0  0  0  0  0  0  0  0  0  # atno 10718 bound_to 10713
  154.7684  135.4885  153.9599 H   0  0  0  0  0  0  0  0  0  0  0  0  # atno 10763 bound_to 10752
  153.1336  135.6758  153.9146 H   0  0  0  0  0  0  0  0  0  0  0  0  # atno 10764 bound_to 10752
  153.8842  135.3128  155.3424 H   0  0  0  0  0  0  0  0  0  0  0  0  # atno 10765 bound_to 10752
  141.1565  133.6779  156.6687 H   0  0  0  0  0  0  0  0  0  0  0  0  # atno 11005 bound_to 11000
  146.3334  139.8662  142.8848 LP  0  0  0  0  0  0  0  0  0  0  0  0  # atno 17320 bound_to 7965
  145.2785  141.0131  143.3731 LP  0  0  0  0  0  0  0  0  0  0  0  0  # atno 17321 bound_to 7965
  140.3601  143.2913  152.0393 LP  0  0  0  0  0  0  0  0  0  0  0  0  # atno 17342 bound_to 10162
  139.4874  144.6309  151.7072 LP  0  0  0  0  0  0  0  0  0  0  0  0  # atno 17343 bound_to 10162
  157.2306  131.0503  151.2494 LP  0  0  0  0  0  0  0  0  0  0  0  0  # atno 17370 bound_to 10713
  157.3714  130.7183  149.6568 LP  0  0  0  0  0  0  0  0  0  0  0  0  # atno 17371 bound_to 10713
  140.3191  134.8022  157.4238 LP  0  0  0  0  0  0  0  0  0  0  0  0  # atno 17394 bound_to 11000
  140.1112  134.5343  155.8265 LP  0  0  0  0  0  0  0  0  0  0  0  0  # atno 17395 bound_to 11000

$$$$
