#       Name:                AV-unprocessed.smi:155
#       Creating user name   scv26
#       Creation time:       Thu Mar 26 18:54:07 2020


#       File generated by GOLD software.
#

@<TRIPOS>MOLECULE
AV-unprocessed.smi:155
    71    74     1
SMALL
NO_CHARGES


@<TRIPOS>ATOM
      1 ****        -6.0698   3.5969  -1.0229 C.3            1 S1                 0.0000
      2 ****        -5.6640   3.6641   0.4004 N.4            1 S1                 1.0000
      3 ****        -6.5201   4.5995   1.1629 C.3            1 S1                 0.0000
      4 ****        -4.2188   3.9490   0.5835 C.3            1 S1                 0.0000
      5 ****        -3.3448   2.6965   0.3619 C.3            1 S1                 0.0000
      6 ****        -1.9510   3.0414   0.0787 N.3            1 S1                 0.0000
      7 ****        -1.2403   3.5438   1.2644 C.3            1 S1                 0.0000
      8 ****        -0.6150   2.4541   2.1603 C.3            1 S1                 0.0000
      9 ****         0.8214   2.0917   1.7367 C.3            1 S1                 0.0000
     10 ****         0.8861   1.4138   0.4411 N.pl3          1 S1                 0.0000
     11 ****         1.9850   0.6667   0.1643 C.ar           1 S1                 0.0000
     12 ****         3.1692   0.9633   0.7636 N.ar           1 S1                 0.0000
     13 ****         4.2607   0.2396   0.4975 C.ar           1 S1                 0.0000
     14 ****         4.3894  -0.8079  -0.3189 N.ar           1 S1                 0.0000
     15 ****         3.2031  -1.1160  -0.9166 C.ar           1 S1                 0.0000
     16 ****         1.9645  -0.4385  -0.7333 C.ar           1 S1                 0.0000
     17 ****         0.9746  -1.0486  -1.4957 N.2            1 S1                 0.0000
     18 ****         1.5938  -2.0256  -2.0997 C.2            1 S1                 0.0000
     19 ****         2.9322  -2.1436  -1.8026 N.pl3          1 S1                 0.0000
     20 ****         3.8472  -3.1458  -2.3174 C.3            1 S1                 0.0000
     21 ****         3.6106  -4.5438  -1.7083 C.3            1 S1                 0.0000
     22 ****         4.4750  -5.4350  -2.3835 O.3            1 S1                 0.0000
     23 ****         3.8858  -4.6367  -0.1840 C.3            1 S1                 0.0000
     24 ****         3.6200  -6.0167   0.4240 C.3            1 S1                 0.0000
     25 ****         2.1222  -6.0191   0.6707 C.3            1 S1                 0.0000
     26 ****         1.7704  -4.5347   0.7883 C.3            1 S1                 0.0000
     27 ****         2.9856  -3.8280   0.5640 O.3            1 S1                 0.0000
     28 ****         0.2210   2.0363  -0.7025 C.3            1 S1                 0.0000
     29 ****        -1.3052   1.8996  -0.5768 C.3            1 S1                 0.0000
     30 ****        -5.9236   4.5586  -1.5165 H              1 S1                 0.0000
     31 ****        -7.1239   3.3307  -1.1073 H              1 S1                 0.0000
     32 ****        -5.5012   2.8458  -1.5699 H              1 S1                 0.0000
     33 ****        -6.3838   5.6250   0.8169 H              1 S1                 0.0000
     34 ****        -6.2841   4.5620   2.2269 H              1 S1                 0.0000
     35 ****        -7.5729   4.3379   1.0514 H              1 S1                 0.0000
     36 ****        -3.9268   4.7548  -0.0925 H              1 S1                 0.0000
     37 ****        -4.0519   4.3198   1.5951 H              1 S1                 0.0000
     38 ****        -3.4132   2.0161   1.2118 H              1 S1                 0.0000
     39 ****        -3.7301   2.1486  -0.4978 H              1 S1                 0.0000
     40 ****        -0.4546   4.2223   0.9309 H              1 S1                 0.0000
     41 ****        -1.9035   4.1663   1.8622 H              1 S1                 0.0000
     42 ****        -0.5623   2.8476   3.1757 H              1 S1                 0.0000
     43 ****        -1.2467   1.5674   2.2238 H              1 S1                 0.0000
     44 ****         1.4419   2.9884   1.7057 H              1 S1                 0.0000
     45 ****         1.2484   1.4410   2.5014 H              1 S1                 0.0000
     46 ****         5.1595   0.5434   1.0135 H              1 S1                 0.0000
     47 ****         1.0859  -2.6994  -2.7743 H              1 S1                 0.0000
     48 ****         3.7214  -3.1819  -3.4005 H              1 S1                 0.0000
     49 ****         4.8714  -2.8178  -2.1354 H              1 S1                 0.0000
     50 ****         2.5895  -4.8594  -1.9249 H              1 S1                 0.0000
     51 ****         5.3670  -5.1758  -2.2098 H              1 S1                 0.0000
     52 ****         4.9091  -4.3188   0.0196 H              1 S1                 0.0000
     53 ****         3.9501  -6.8482  -0.1991 H              1 S1                 0.0000
     54 ****         4.1424  -6.0948   1.3784 H              1 S1                 0.0000
     55 ****         1.5969  -6.4627  -0.1758 H              1 S1                 0.0000
     56 ****         1.8562  -6.5837   1.5646 H              1 S1                 0.0000
     57 ****         1.0333  -4.2492   0.0369 H              1 S1                 0.0000
     58 ****         1.3679  -4.2829   1.7696 H              1 S1                 0.0000
     59 ****         0.5236   3.0800  -0.7945 H              1 S1                 0.0000
     60 ****         0.5364   1.5640  -1.6325 H              1 S1                 0.0000
     61 ****        -1.5529   0.9648  -0.0704 H              1 S1                 0.0000
     62 ****        -1.7315   1.8209  -1.5776 H              1 S1                 0.0000
     63 ****        -5.8288   2.7499   0.7974 H              1 S1                 0.0000
     64 ****        -1.9179   3.8137  -0.5558 LP             1 S1                 0.0000
     65 ****         3.2235   1.7271   1.4068 LP             1 S1                 0.0000
     66 ****         5.2447  -1.3027  -0.4725 LP             1 S1                 0.0000
     67 ****         0.0094  -0.7964  -1.5653 LP             1 S1                 0.0000
     68 ****         4.2979  -5.3969  -3.3670 LP             1 S1                 0.0000
     69 ****         4.3240  -6.3668  -2.0535 LP             1 S1                 0.0000
     70 ****         2.7922  -2.9893   0.0548 LP             1 S1                 0.0000
     71 ****         3.4012  -3.5957   1.4434 LP             1 S1                 0.0000
@<TRIPOS>BOND
    1    1    2 1     
    2    1   30 1     
    3    1   31 1     
    4    1   32 1     
    5    2    3 1     
    6    2    4 1     
    7    2   63 1     
    8    3   33 1     
    9    3   34 1     
   10    3   35 1     
   11    4    5 1     
   12    4   36 1     
   13    4   37 1     
   14    5    6 1     
   15    5   38 1     
   16    5   39 1     
   17    6   29 1     
   18    6    7 1     
   19    7    8 1     
   20    7   40 1     
   21    7   41 1     
   22    8    9 1     
   23    8   42 1     
   24    8   43 1     
   25    9   10 1     
   26    9   44 1     
   27    9   45 1     
   28   10   11 1     
   29   10   28 1     
   30   11   16 ar    
   31   11   12 ar    
   32   12   13 ar    
   33   13   14 ar    
   34   13   46 1     
   35   14   15 ar    
   36   15   19 1     
   37   15   16 ar    
   38   16   17 1     
   39   17   18 2     
   40   18   19 1     
   41   18   47 1     
   42   19   20 1     
   43   20   21 1     
   44   20   48 1     
   45   20   49 1     
   46   21   22 1     
   47   21   23 1     
   48   21   50 1     
   49   22   51 1     
   50   23   27 1     
   51   23   24 1     
   52   23   52 1     
   53   24   25 1     
   54   24   53 1     
   55   24   54 1     
   56   25   26 1     
   57   25   55 1     
   58   25   56 1     
   59   26   27 1     
   60   26   57 1     
   61   26   58 1     
   62   28   29 1     
   63   28   59 1     
   64   28   60 1     
   65   29   61 1     
   66   29   62 1     
   67    6   64 1     
   68   12   65 1     
   69   14   66 1     
   70   17   67 1     
   71   22   68 1     
   72   22   69 1     
   73   27   70 1     
   74   27   71 1     
@<TRIPOS>SUBSTRUCTURE
      1 S1             1
@<TRIPOS>SET
LONE_PAIRS      STATIC     ATOMS    <user>   **** ""
8 64 65 66 67 68 69 70 71
DONOR_HYDROGENS      STATIC     ATOMS    <user>   **** ""
2 63 51
ATOM$BLUE        STATIC     ATOMS    COLORGROUP SYSTEM
8 64 65 66 67 68 69 70 71
ATOM$RED        STATIC     ATOMS    COLORGROUP SYSTEM
2 63 51
