#       Name:                AV-unprocessed.smi:1762
#       Creating user name   scv26
#       Creation time:       Fri Mar 27 08:35:38 2020


#       File generated by GOLD software.
#

@<TRIPOS>MOLECULE
AV-unprocessed.smi:1762
    58    59     1
SMALL
NO_CHARGES


@<TRIPOS>ATOM
      1 ****        -1.2343   2.5141  -2.9854 C.3            1 S1                 0.0000
      2 ****        -1.7475   1.7715  -1.7470 C.3            1 S1                 0.0000
      3 ****        -1.1211   2.3176  -0.4457 C.3            1 S1                 0.0000
      4 ****        -1.6908   1.6448   0.7578 N.4            1 S1                 1.0000
      5 ****        -1.1862   0.2478   1.0020 C.3            1 S1                 0.0000
      6 ****         0.3535   0.2392   1.1642 C.2            1 S1                 0.0000
      7 ****         0.8591   0.9633   2.0289 O.2            1 S1                 0.0000
      8 ****         0.9423  -0.5896   0.2584 N.pl3          1 S1                -1.0000
      9 ****         2.3854  -0.7950   0.1743 C.3            1 S1                 0.0000
     10 ****         2.6999  -1.9115  -0.8448 C.3            1 S1                 0.0000
     11 ****         4.1881  -2.2037  -1.0104 C.ar           1 S1                 0.0000
     12 ****         4.9342  -1.5781  -2.0354 C.ar           1 S1                 0.0000
     13 ****         6.3041  -1.8812  -2.1548 C.ar           1 S1                 0.0000
     14 ****         6.8778  -2.7974  -1.2528 C.ar           1 S1                 0.0000
     15 ****         6.0511  -3.3752  -0.2691 C.ar           1 S1                 0.0000
     16 ****         4.7363  -3.0935  -0.1468 N.ar           1 S1                 0.0000
     17 ****        -1.8863  -0.4923   2.1920 C.3            1 S1                 0.0000
     18 ****        -1.8138   0.2511   3.5420 C.3            1 S1                 0.0000
     19 ****        -1.4097  -1.9486   2.3613 C.3            1 S1                 0.0000
     20 ****        -3.1691   1.8145   0.7217 C.3            1 S1                 0.0000
     21 ****        -3.7627   1.2596  -0.5896 C.3            1 S1                 0.0000
     22 ****        -5.2771   1.4782  -0.6719 C.3            1 S1                 0.0000
     23 ****        -3.1614   1.9362  -1.6894 O.3            1 S1                 0.0000
     24 ****        -0.1528   2.4136  -3.0810 H              1 S1                 0.0000
     25 ****        -1.4695   3.5776  -2.9349 H              1 S1                 0.0000
     26 ****        -1.6860   2.1152  -3.8940 H              1 S1                 0.0000
     27 ****        -1.5131   0.7134  -1.8683 H              1 S1                 0.0000
     28 ****        -0.0347   2.2466  -0.4856 H              1 S1                 0.0000
     29 ****        -1.3333   3.3848  -0.3667 H              1 S1                 0.0000
     30 ****        -1.4443  -0.3320   0.1146 H              1 S1                 0.0000
     31 ****         2.8990   0.1178  -0.1300 H              1 S1                 0.0000
     32 ****         2.8084  -1.0690   1.1417 H              1 S1                 0.0000
     33 ****         2.1974  -2.8335  -0.5477 H              1 S1                 0.0000
     34 ****         2.2890  -1.6467  -1.8200 H              1 S1                 0.0000
     35 ****         4.4673  -0.8770  -2.7117 H              1 S1                 0.0000
     36 ****         6.9042  -1.4184  -2.9242 H              1 S1                 0.0000
     37 ****         7.9256  -3.0513  -1.3133 H              1 S1                 0.0000
     38 ****         6.4568  -4.0830   0.4386 H              1 S1                 0.0000
     39 ****        -2.9406  -0.5921   1.9378 H              1 S1                 0.0000
     40 ****        -0.7991   0.2737   3.9390 H              1 S1                 0.0000
     41 ****        -2.4374  -0.2430   4.2873 H              1 S1                 0.0000
     42 ****        -2.1614   1.2805   3.4622 H              1 S1                 0.0000
     43 ****        -0.3769  -2.0040   2.7068 H              1 S1                 0.0000
     44 ****        -1.4764  -2.4961   1.4206 H              1 S1                 0.0000
     45 ****        -2.0238  -2.4773   3.0909 H              1 S1                 0.0000
     46 ****        -3.6608   1.3869   1.5925 H              1 S1                 0.0000
     47 ****        -3.3829   2.8826   0.7827 H              1 S1                 0.0000
     48 ****        -3.5673   0.1894  -0.6711 H              1 S1                 0.0000
     49 ****        -5.7909   0.9774   0.1491 H              1 S1                 0.0000
     50 ****        -5.6775   1.0822  -1.6054 H              1 S1                 0.0000
     51 ****        -5.5268   2.5387  -0.6261 H              1 S1                 0.0000
     52 ****        -1.3640   2.1722   1.5550 H              1 S1                 0.0000
     53 ****         0.2760   1.5369   2.6042 LP             1 S1                 0.0000
     54 ****         1.8513   0.9755   2.1533 LP             1 S1                 0.0000
     55 ****         0.3554  -1.0837  -0.3830 LP             1 S1                 0.0000
     56 ****         4.1816  -3.5296   0.5619 LP             1 S1                 0.0000
     57 ****        -3.5572   1.5803  -2.5359 LP             1 S1                 0.0000
     58 ****        -3.3644   2.9122  -1.6111 LP             1 S1                 0.0000
@<TRIPOS>BOND
    1    1    2 1     
    2    1   24 1     
    3    1   25 1     
    4    1   26 1     
    5    2   23 1     
    6    2    3 1     
    7    2   27 1     
    8    3    4 1     
    9    3   28 1     
   10    3   29 1     
   11    4    5 1     
   12    4   20 1     
   13    4   52 1     
   14    5    6 1     
   15    5   17 1     
   16    5   30 1     
   17    6    7 2     
   18    6    8 1     
   19    8    9 1     
   20    9   10 1     
   21    9   31 1     
   22    9   32 1     
   23   10   11 1     
   24   10   33 1     
   25   10   34 1     
   26   11   16 ar    
   27   11   12 ar    
   28   12   13 ar    
   29   12   35 1     
   30   13   14 ar    
   31   13   36 1     
   32   14   15 ar    
   33   14   37 1     
   34   15   16 ar    
   35   15   38 1     
   36   17   18 1     
   37   17   19 1     
   38   17   39 1     
   39   18   40 1     
   40   18   41 1     
   41   18   42 1     
   42   19   43 1     
   43   19   44 1     
   44   19   45 1     
   45   20   21 1     
   46   20   46 1     
   47   20   47 1     
   48   21   22 1     
   49   21   23 1     
   50   21   48 1     
   51   22   49 1     
   52   22   50 1     
   53   22   51 1     
   54    7   53 1     
   55    7   54 1     
   56    8   55 1     
   57   16   56 1     
   58   23   57 1     
   59   23   58 1     
@<TRIPOS>SUBSTRUCTURE
      1 S1             1
@<TRIPOS>SET
LONE_PAIRS      STATIC     ATOMS    <user>   **** ""
6 53 54 55 56 57 58
DONOR_HYDROGENS      STATIC     ATOMS    <user>   **** ""
1 52
ATOM$BLUE        STATIC     ATOMS    COLORGROUP SYSTEM
6 53 54 55 56 57 58
ATOM$RED        STATIC     ATOMS    COLORGROUP SYSTEM
1 52
