#       Name:                AV-unprocessed.smi:3198
#       Creating user name   scv26
#       Creation time:       Fri Mar 27 18:06:18 2020


#       File generated by GOLD software.
#

@<TRIPOS>MOLECULE
AV-unprocessed.smi:3198
    42    43     1
SMALL
NO_CHARGES


@<TRIPOS>ATOM
      1 ****        -1.8188  -0.3278  -4.9904 C.3            1 S1                 0.0000
      2 ****        -2.1786   0.5077  -3.7799 C.ar           1 S1                 0.0000
      3 ****        -2.5288   1.8668  -3.9144 C.ar           1 S1                 0.0000
      4 ****        -2.8528   2.5901  -2.7512 C.ar           1 S1                 0.0000
      5 ****        -2.8114   1.9313  -1.5070 C.ar           1 S1                 0.0000
      6 ****        -2.4455   0.5691  -1.4701 C.ar           1 S1                 0.0000
      7 ****        -2.4052  -0.0808  -0.2277 N.pl3          1 S1                 0.0000
      8 ****        -1.8624  -1.4269  -0.0856 C.3            1 S1                 0.0000
      9 ****        -0.3275  -1.4471  -0.1162 C.3            1 S1                 0.0000
     10 ****         0.1681  -0.8385   1.0649 O.3            1 S1                 0.0000
     11 ****         1.5846  -0.8185   1.1179 C.3            1 S1                 0.0000
     12 ****         2.0239  -0.1415   2.4218 C.3            1 S1                 0.0000
     13 ****         3.5223   0.1456   2.4927 C.3            1 S1                 0.0000
     14 ****         3.8039   0.1924   3.9864 C.3            1 S1                 0.0000
     15 ****         2.5804  -0.4794   4.6172 C.3            1 S1                 0.0000
     16 ****         1.8425  -1.0130   3.5264 O.3            1 S1                 0.0000
     17 ****        -2.1377  -0.1292  -2.5893 N.ar           1 S1                 0.0000
     18 ****        -1.9782   0.2266  -5.9157 H              1 S1                 0.0000
     19 ****        -2.4309  -1.2295  -5.0256 H              1 S1                 0.0000
     20 ****        -0.7706  -0.6248  -4.9463 H              1 S1                 0.0000
     21 ****        -2.5503   2.3452  -4.8825 H              1 S1                 0.0000
     22 ****        -3.1281   3.6327  -2.8117 H              1 S1                 0.0000
     23 ****        -3.0552   2.4660  -0.6006 H              1 S1                 0.0000
     24 ****        -2.5860   0.4510   0.6113 H              1 S1                 0.0000
     25 ****        -2.2178  -1.8476   0.8552 H              1 S1                 0.0000
     26 ****        -2.2614  -2.0670  -0.8733 H              1 S1                 0.0000
     27 ****         0.0176  -2.4811  -0.1597 H              1 S1                 0.0000
     28 ****         0.0544  -0.9409  -1.0041 H              1 S1                 0.0000
     29 ****         1.9925  -1.8285   1.0529 H              1 S1                 0.0000
     30 ****         1.9654  -0.2533   0.2657 H              1 S1                 0.0000
     31 ****         1.4621   0.7802   2.5856 H              1 S1                 0.0000
     32 ****         4.0841  -0.6740   2.0421 H              1 S1                 0.0000
     33 ****         3.8003   1.0659   1.9784 H              1 S1                 0.0000
     34 ****         4.7275  -0.3350   4.2276 H              1 S1                 0.0000
     35 ****         3.9007   1.2192   4.3409 H              1 S1                 0.0000
     36 ****         2.8507  -1.2622   5.3262 H              1 S1                 0.0000
     37 ****         1.9670   0.2563   5.1395 H              1 S1                 0.0000
     38 ****        -0.1743  -1.3473   1.8547 LP             1 S1                 0.0000
     39 ****        -0.1667   0.1030   1.1042 LP             1 S1                 0.0000
     40 ****         2.1806  -1.9264   3.2997 LP             1 S1                 0.0000
     41 ****         0.8725  -1.0660   3.7637 LP             1 S1                 0.0000
     42 ****        -1.8856  -1.0954  -2.5354 LP             1 S1                 0.0000
@<TRIPOS>BOND
    1    1    2 1     
    2    1   18 1     
    3    1   19 1     
    4    1   20 1     
    5    2   17 ar    
    6    2    3 ar    
    7    3    4 ar    
    8    3   21 1     
    9    4    5 ar    
   10    4   22 1     
   11    5    6 ar    
   12    5   23 1     
   13    6    7 1     
   14    6   17 ar    
   15    7    8 1     
   16    7   24 1     
   17    8    9 1     
   18    8   25 1     
   19    8   26 1     
   20    9   10 1     
   21    9   27 1     
   22    9   28 1     
   23   10   11 1     
   24   11   12 1     
   25   11   29 1     
   26   11   30 1     
   27   12   16 1     
   28   12   13 1     
   29   12   31 1     
   30   13   14 1     
   31   13   32 1     
   32   13   33 1     
   33   14   15 1     
   34   14   34 1     
   35   14   35 1     
   36   15   16 1     
   37   15   36 1     
   38   15   37 1     
   39   10   38 1     
   40   10   39 1     
   41   16   40 1     
   42   16   41 1     
   43   17   42 1     
@<TRIPOS>SUBSTRUCTURE
      1 S1             1
@<TRIPOS>SET
LONE_PAIRS      STATIC     ATOMS    <user>   **** ""
5 38 39 40 41 42
DONOR_HYDROGENS      STATIC     ATOMS    <user>   **** ""
1 24
ATOM$BLUE        STATIC     ATOMS    COLORGROUP SYSTEM
5 38 39 40 41 42
ATOM$RED        STATIC     ATOMS    COLORGROUP SYSTEM
1 24
