AV-unprocessed.smi:2304|AV-procd|sdf|9245|dock1
  -GOLD-   2272012463D 1   1.00000     0.00000
 Structure written by MMmdl.
 37 38  0  0  0  0  0  0  0  0  1 V2000
  151.1242  138.9080  154.6902 C   0  0  0  0  0  0  0  0  0  0  0  0
  150.6625  140.2469  154.7198 O   0  0  0  0  0  0  0  0  0  0  0  0
  149.3601  140.3851  154.1750 C   0  0  0  0  0  0  0  0  0  0  0  0
  148.3912  140.8603  155.2708 C   0  0  1  0  0  0  0  0  0  0  0  0
  148.9872  141.9791  155.9971 N   0  0  0  0  0  0  0  0  0  0  0  0
  149.8030  141.8817  157.0575 C   0  0  0  0  0  0  0  0  0  0  0  0
  150.1640  140.8102  157.5451 O   0  0  0  0  0  0  0  0  0  0  0  0
  150.1624  143.0982  157.5039 N   0  0  0  0  0  0  0  0  0  0  0  0
  150.9781  143.4178  158.6219 C   0  0  0  0  0  0  0  0  0  0  0  0
  150.8672  144.7486  159.0841 C   0  0  0  0  0  0  0  0  0  0  0  0
  151.6315  145.1635  160.1917 C   0  0  0  0  0  0  0  0  0  0  0  0
  152.4884  144.2364  160.8111 C   0  0  0  0  0  0  0  0  0  0  0  0
  152.5400  142.9290  160.2891 C   0  0  0  0  0  0  0  0  0  0  0  0
  153.4399  141.8781  160.9048 C   0  0  0  0  0  0  0  0  0  0  0  0
  151.8080  142.5312  159.2263 N   0  0  0  0  0  0  0  0  0  0  0  0
  147.0391  141.2158  154.6815 C   0  0  0  0  0  0  0  0  0  0  0  0
  146.7715  142.5918  154.1210 C   0  0  0  0  0  0  0  0  0  0  0  0
  146.0961  142.1509  155.4004 C   0  0  0  0  0  0  0  0  0  0  0  0
  152.1306  138.8581  155.1058 H   0  0  0  0  0  0  0  0  0  0  0  0
  151.1618  138.5254  153.6694 H   0  0  0  0  0  0  0  0  0  0  0  0
  150.4821  138.2572  155.2850 H   0  0  0  0  0  0  0  0  0  0  0  0
  149.3665  141.0849  153.3375 H   0  0  0  0  0  0  0  0  0  0  0  0
  149.0331  139.4188  153.7876 H   0  0  0  0  0  0  0  0  0  0  0  0
  148.2261  140.0222  155.9506 H   0  0  0  0  0  0  0  0  0  0  0  0
  148.7532  142.9035  155.6668 H   0  0  0  0  0  0  0  0  0  0  0  0
  149.7972  143.8884  156.9940 H   0  0  0  0  0  0  0  0  0  0  0  0
  150.2033  145.4486  158.5977 H   0  0  0  0  0  0  0  0  0  0  0  0
  151.5605  146.1766  160.5592 H   0  0  0  0  0  0  0  0  0  0  0  0
  153.0878  144.5238  161.6626 H   0  0  0  0  0  0  0  0  0  0  0  0
  153.8885  142.2354  161.8321 H   0  0  0  0  0  0  0  0  0  0  0  0
  154.2425  141.6185  160.2142 H   0  0  0  0  0  0  0  0  0  0  0  0
  152.8726  140.9742  161.1292 H   0  0  0  0  0  0  0  0  0  0  0  0
  146.5661  140.3905  154.1521 H   0  0  0  0  0  0  0  0  0  0  0  0
  147.5639  143.3338  154.1999 H   0  0  0  0  0  0  0  0  0  0  0  0
  146.1576  142.6583  153.2253 H   0  0  0  0  0  0  0  0  0  0  0  0
  145.0331  141.9239  155.3560 H   0  0  0  0  0  0  0  0  0  0  0  0
  146.4386  142.6027  156.3293 H   0  0  0  0  0  0  0  0  0  0  0  0
  1  2  1  0  0  0  0
  1 19  1  0  0  0  0
  1 20  1  0  0  0  0
  1 21  1  0  0  0  0
  2  3  1  0  0  0  0
  3  4  1  0  0  0  0
  3 22  1  0  0  0  0
  3 23  1  0  0  0  0
  4  5  1  0  0  0  0
  4 16  1  0  0  0  0
  4 24  1  0  0  0  0
  5  6  1  0  0  0  0
  5 25  1  0  0  0  0
  6  7  2  0  0  0  0
  6  8  1  0  0  0  0
  8  9  1  0  0  0  0
  8 26  1  0  0  0  0
  9 15  1  0  0  0  0
  9 10  2  0  0  0  0
 10 11  1  0  0  0  0
 10 27  1  0  0  0  0
 11 12  2  0  0  0  0
 11 28  1  0  0  0  0
 12 13  1  0  0  0  0
 12 29  1  0  0  0  0
 13 14  1  0  0  0  0
 13 15  2  0  0  0  0
 14 30  1  0  0  0  0
 14 31  1  0  0  0  0
 14 32  1  0  0  0  0
 16 18  1  0  0  0  0
 16 17  1  0  0  0  0
 16 33  1  0  0  0  0
 17 18  1  0  0  0  0
 17 34  1  0  0  0  0
 17 35  1  0  0  0  0
 18 36  1  0  0  0  0
 18 37  1  0  0  0  0
M  END
> <s_m_source_file>
AV-unprocessed.smi

> <i_m_source_file_index>
2304

> <i_lp_mmshare_version>
43012

> <i_f3d_flags>
0

> <s_epik_input>
W0NIM11PW0NIMl1bQ0BASF0oW0NIXTFbQ0gyXVtDSDJdMSlbTkhdQyg9TylbTkhdYzJbY0hdW2NIXVtjSF1jKG4yKVtDSDNd

> <s_epik_cmdline>
J2VwaWtfcHl0aG9uJywgJy1waCcsICc3LjAnLCAnLXRuJywgJzgnLCAnLW1hJywgJzIwMCcsICctbWV0YWxfYmluZGluZycsICctaW1hZScsICc8aW5maWxlLm1hZT4nLCAnLW9tYWUnLCAnPG91dGZpbGUubWFlPic=

> <r_lp_tautomer_probability>
1

> <r_epik_Ionization_Penalty>
8.58396e-05

> <r_epik_Ionization_Penalty_Charging>
0

> <r_epik_Ionization_Penalty_Neutral>
8.58396e-05

> <r_epik_State_Penalty>
-0

> <r_epik_Charging_Adjusted_Penalty>
0

> <i_epik_Tot_Q>
0

> <i_epik_Tot_abs_Q>
0

> <r_epik_Metal_State_Penalty>
-0

> <b_epik_Metal_Only>
0

> <s_lp_Force_Field>
OPLS_2005

> <r_lp_Energy>
16.7335

> <b_lp_Chiralities_Consistent>
1

> <s_lp_Variant>
AV-unprocessed.smi:2304-2

> <Gold.Version>
5.8.1

> <Gold.Id.Protein>
6NUR|6NUR_protein|mol2

> <Gold.PLP.Fitness>
47.3493

> <Gold.PLP.PLP>
-39.9674

> <Gold.PLP.part.hbond>
-3.0000

> <Gold.PLP.part.metal>
0.0000

> <Gold.PLP.part.buried>
-5.7563

> <Gold.PLP.part.nonpolar>
-31.2811

> <Gold.PLP.part.repulsive>
0.1966

> <Gold.PLP.ligand.clash>
0.0000

> <Gold.PLP.ligand.torsion>
1.3958

> <Gold.PLP.Chemscore.Hbond>
3.0000

> <Gold.PLP.Chemscore.CHOScore>
0.0000

> <Gold.PLP.Chemscore.Metal>
0.0000

> <Gold.Chemscore.Hbonds>
donor molecule, donor type, donor heavy atom, donor atom, acceptor molecule, acceptor atom, score
      L1  H     5    25       P1  8028  1.00
      L1  H     8    26       P1  8028  1.00
      P1  H  7989  7998       L1     2  0.95

> <Gold.PLP.Chemscore.Internal.Correction>
1.1734

> <Gold.Rescore>
     Score         DG    S(hbond)    S(metal)    S(lipo)     H(rot)  DE(clash)    DE(int)     intcor
     16.99     -20.47       2.55        0.00      90.76       1.61       0.22       3.26       ----

> <Gold.Chemscore.Fitness>
16.9948

> <Gold.Chemscore.DG>
-20.4710

> <Gold.Chemscore.ZeroCoef>
-5.4800

> <Gold.Chemscore.Hbond>
2.5461

> <Gold.Chemscore.Metal>
0.0000

> <Gold.Chemscore.Lipo>
90.7643

> <Gold.Chemscore.Internal_Hbond>
0.0000

> <Gold.Chemscore.DEClash>
0.2196

> <Gold.Chemscore.DEInternal>
3.2566

> <Gold.Chemscore.Rot>
1.6142

> <Gold.Chemscore.Internal.Correction>
   9.000000E+99

> <Gold.Chemscore.Hbonds>
donor molecule, donor type, donor heavy atom, donor atom, acceptor molecule, acceptor atom, score
      L1  H     5    25       P1  8028  0.98
      L1  H     8    26       P1  8028  0.92
      P1  H  7989  7998       L1     2  0.07

> <Gold.Chemscore.Hbond.Weighted>
-8.5039

> <Gold.Chemscore.Metal.Weighted>
-0.0000

> <Gold.Chemscore.Lipo.Weighted>
-10.6194

> <Gold.Chemscore.Internal_Hbond.Weighted>
0.0000

> <Gold.Chemscore.DEClash.Weighted>
0.2196

> <Gold.Chemscore.DEInternal.Weighted>
3.2566

> <Gold.Chemscore.Rot.Weighted>
4.1323

> <Gold.Chemscore.Internal.Correction.Weighted>
   9.000000E+99

> <Gold.Protein.RotatedTorsions>
[ 6907 6896 6895 6894 ] final -141.37 input  -60.11 | X-H torsion
[ 7974 7965 7964 7962 ] final   11.73 input  175.53 | X-H torsion
[ 8008 7997 7996 7995 ] final  119.07 input   59.86 | X-H torsion
[ 10167 10162 10161 10158 ] final   60.44 input  -65.29 | X-H torsion
[ 10718 10713 10712 10709 ] final  -14.46 input   66.30 | X-H torsion
[ 10763 10752 10751 10750 ] final -163.24 input  -60.55 | X-H torsion
[ 11005 11000 10999 10996 ] final   95.43 input  -57.11 | X-H torsion

> <Gold.Protein.ActiveResidues>
 VAL166  LYS551  ARG553  GLY616  TRP617  ASP618  TYR619  PRO620  LYS621  CYS622 
 ASP623  PHE694  ASN695  SER759  ASP760  ASP761  ALA762  ILE779  LEU786  VAL792 
 PHE793  MET794  SER795  GLU796  ALA797  LYS798  CYS799  TRP800  GLU811  SER814 

> <Gold.Protein.RotatedAtoms>
  151.0729  133.5451  159.2625 H   0  0  0  0  0  0  0  0  0  0  0  0  # atno 6907 bound_to 6896
  151.2384  135.0579  159.9025 H   0  0  0  0  0  0  0  0  0  0  0  0  # atno 6908 bound_to 6896
  152.5414  134.0508  159.8163 H   0  0  0  0  0  0  0  0  0  0  0  0  # atno 6909 bound_to 6896
  146.2365  139.9441  142.8479 H   0  0  0  0  0  0  0  0  0  0  0  0  # atno 7974 bound_to 7965
  156.2578  140.2861  156.0935 H   0  0  0  0  0  0  0  0  0  0  0  0  # atno 8008 bound_to 7997
  155.1438  140.0396  157.2822 H   0  0  0  0  0  0  0  0  0  0  0  0  # atno 8009 bound_to 7997
  154.6511  140.2545  155.7220 H   0  0  0  0  0  0  0  0  0  0  0  0  # atno 8010 bound_to 7997
  140.1656  144.4327  150.6687 H   0  0  0  0  0  0  0  0  0  0  0  0  # atno 10167 bound_to 10162
  156.6156  130.4861  149.6184 H   0  0  0  0  0  0  0  0  0  0  0  0  # atno 10718 bound_to 10713
  154.7140  135.3012  154.9152 H   0  0  0  0  0  0  0  0  0  0  0  0  # atno 10763 bound_to 10752
  154.0045  135.6702  153.4765 H   0  0  0  0  0  0  0  0  0  0  0  0  # atno 10764 bound_to 10752
  153.0778  135.5025  154.8355 H   0  0  0  0  0  0  0  0  0  0  0  0  # atno 10765 bound_to 10752
  139.8789  134.8898  156.4010 H   0  0  0  0  0  0  0  0  0  0  0  0  # atno 11005 bound_to 11000
  145.1924  140.9818  143.4203 LP  0  0  0  0  0  0  0  0  0  0  0  0  # atno 17320 bound_to 7965
  144.9845  139.3750  143.6245 LP  0  0  0  0  0  0  0  0  0  0  0  0  # atno 17321 bound_to 7965
  140.6615  143.2253  151.5844 LP  0  0  0  0  0  0  0  0  0  0  0  0  # atno 17342 bound_to 10162
  139.5361  144.2777  152.1254 LP  0  0  0  0  0  0  0  0  0  0  0  0  # atno 17343 bound_to 10162
  156.2354  130.6819  151.1504 LP  0  0  0  0  0  0  0  0  0  0  0  0  # atno 17370 bound_to 10713
  157.7242  131.0661  150.6005 LP  0  0  0  0  0  0  0  0  0  0  0  0  # atno 17371 bound_to 10713
  140.9267  133.7607  155.9973 LP  0  0  0  0  0  0  0  0  0  0  0  0  # atno 17394 bound_to 11000
  140.8378  134.3103  157.5325 LP  0  0  0  0  0  0  0  0  0  0  0  0  # atno 17395 bound_to 11000

$$$$
