#       Name:                AV-unprocessed.smi:3322
#       Creating user name   scv26
#       Creation time:       Fri Mar 27 19:12:10 2020


#       File generated by GOLD software.
#

@<TRIPOS>MOLECULE
AV-unprocessed.smi:3322
    44    45     1
SMALL
NO_CHARGES


@<TRIPOS>ATOM
      1 ****        -0.7158   1.9929   0.2741 C.3            1 S1                 0.0000
      2 ****        -0.1813   0.5558   0.1592 C.3            1 S1                 0.0000
      3 ****         1.2909   0.5963   0.0766 N.3            1 S1                 0.0000
      4 ****         1.8961  -0.6891  -0.2604 C.3            1 S1                 0.0000
      5 ****         3.4125  -0.5265  -0.4584 C.3            1 S1                 0.0000
      6 ****         3.7363   0.2360  -1.6519 N.pl3          1 S1                 0.0000
      7 ****         3.8814  -0.2207  -2.9450 C.2            1 S1                 0.0000
      8 ****         4.1770   0.8591  -3.7269 C.2            1 S1                 0.0000
      9 ****         4.1910   1.9468  -2.8094 C.2            1 S1                 0.0000
     10 ****         3.9268   1.5709  -1.5686 N.2            1 S1                 0.0000
     11 ****        -0.7173  -0.3048   1.3288 C.2            1 S1                 0.0000
     12 ****        -0.0111  -0.4265   2.3317 O.2            1 S1                 0.0000
     13 ****        -1.9356  -0.8971   1.2414 N.am           1 S1                 0.0000
     14 ****        -2.4820  -1.7443   2.3078 C.3            1 S1                 0.0000
     15 ****        -3.7347  -1.0631   2.8851 C.3            1 S1                 0.0000
     16 ****        -4.6873  -0.8636   1.8448 O.3            1 S1                 0.0000
     17 ****        -4.1844  -0.0644   0.7780 C.3            1 S1                 0.0000
     18 ****        -2.9293  -0.7222   0.1750 C.3            1 S1                 0.0000
     19 ****        -1.8056   2.0209   0.2759 H              1 S1                 0.0000
     20 ****        -0.3787   2.6034  -0.5644 H              1 S1                 0.0000
     21 ****        -0.3722   2.4736   1.1912 H              1 S1                 0.0000
     22 ****        -0.5219   0.1382  -0.7869 H              1 S1                 0.0000
     23 ****         1.6026   1.2887  -0.5899 H              1 S1                 0.0000
     24 ****         1.7160  -1.4128   0.5344 H              1 S1                 0.0000
     25 ****         1.4461  -1.0911  -1.1692 H              1 S1                 0.0000
     26 ****         3.8705  -0.0516   0.4112 H              1 S1                 0.0000
     27 ****         3.8760  -1.5089  -0.5537 H              1 S1                 0.0000
     28 ****         3.7621  -1.2639  -3.1980 H              1 S1                 0.0000
     29 ****         4.3556   0.8707  -4.7918 H              1 S1                 0.0000
     30 ****         4.3834   2.9912  -3.0066 H              1 S1                 0.0000
     31 ****        -2.7420  -2.7203   1.8957 H              1 S1                 0.0000
     32 ****        -1.7690  -1.9394   3.1098 H              1 S1                 0.0000
     33 ****        -4.1820  -1.6873   3.6586 H              1 S1                 0.0000
     34 ****        -3.4806  -0.1090   3.3497 H              1 S1                 0.0000
     35 ****        -4.9595   0.0355   0.0181 H              1 S1                 0.0000
     36 ****        -3.9607   0.9403   1.1401 H              1 S1                 0.0000
     37 ****        -2.5913  -0.1162  -0.6615 H              1 S1                 0.0000
     38 ****        -3.1814  -1.6973  -0.2443 H              1 S1                 0.0000
     39 ****         1.5944   0.8417   0.9973 LP             1 S1                 0.0000
     40 ****         3.8788   2.1461  -0.7520 LP             1 S1                 0.0000
     41 ****         0.8805   0.0244   2.3731 LP             1 S1                 0.0000
     42 ****        -0.3298  -0.9761   3.1039 LP             1 S1                 0.0000
     43 ****        -5.4912  -0.4112   2.2308 LP             1 S1                 0.0000
     44 ****        -4.9509  -1.7559   1.4782 LP             1 S1                 0.0000
@<TRIPOS>BOND
    1    1    2 1     
    2    1   19 1     
    3    1   20 1     
    4    1   21 1     
    5    2    3 1     
    6    2   11 1     
    7    2   22 1     
    8    3    4 1     
    9    3   23 1     
   10    4    5 1     
   11    4   24 1     
   12    4   25 1     
   13    5    6 1     
   14    5   26 1     
   15    5   27 1     
   16    6   10 1     
   17    6    7 1     
   18    7    8 2     
   19    7   28 1     
   20    8    9 1     
   21    8   29 1     
   22    9   10 2     
   23    9   30 1     
   24   11   12 2     
   25   11   13 am    
   26   13   18 1     
   27   13   14 1     
   28   14   15 1     
   29   14   31 1     
   30   14   32 1     
   31   15   16 1     
   32   15   33 1     
   33   15   34 1     
   34   16   17 1     
   35   17   18 1     
   36   17   35 1     
   37   17   36 1     
   38   18   37 1     
   39   18   38 1     
   40    3   39 1     
   41   10   40 1     
   42   12   41 1     
   43   12   42 1     
   44   16   43 1     
   45   16   44 1     
@<TRIPOS>SUBSTRUCTURE
      1 S1             1
@<TRIPOS>SET
LONE_PAIRS      STATIC     ATOMS    <user>   **** ""
6 39 40 41 42 43 44
DONOR_HYDROGENS      STATIC     ATOMS    <user>   **** ""
1 23
ATOM$BLUE        STATIC     ATOMS    COLORGROUP SYSTEM
6 39 40 41 42 43 44
ATOM$RED        STATIC     ATOMS    COLORGROUP SYSTEM
1 23
