AV-unprocessed.smi:3259|AV-procd|sdf|12474|dock4
  -GOLD-   2272018373D 1   1.00000     0.00000
 Structure written by MMmdl.
 39 40  0  0  0  0  0  0  0  0  1 V2000
  152.2414  143.5016  161.7425 C   0  0  0  0  0  0  0  0  0  0  0  0
  151.6862  142.6350  160.7608 O   0  0  0  0  0  0  0  0  0  0  0  0
  152.1946  142.7425  159.4239 C   0  0  1  0  0  0  0  0  0  0  0  0
  153.7087  142.9881  159.4441 C   0  0  0  0  0  0  0  0  0  0  0  0
  151.6221  141.6147  158.5439 C   0  0  0  0  0  0  0  0  0  0  0  0
  150.3831  142.4888  158.3604 C   0  0  2  0  0  0  0  0  0  0  0  0
  149.8284  142.4014  157.0142 N   0  0  0  0  0  0  0  0  0  0  0  0
  149.7406  141.2683  156.3012 C   0  0  0  0  0  0  0  0  0  0  0  0
  150.1068  140.1724  156.7245 O   0  0  0  0  0  0  0  0  0  0  0  0
  149.1400  141.3871  154.8994 C   0  0  0  0  0  0  0  0  0  0  0  0
  147.8144  141.9790  154.9404 N   0  0  0  0  0  0  0  0  0  0  0  0
  146.9920  142.3153  153.8848 C   0  0  0  0  0  0  0  0  0  0  0  0
  145.8446  142.8348  154.4120 C   0  0  0  0  0  0  0  0  0  0  0  0
  146.0609  142.7748  155.8169 C   0  0  0  0  0  0  0  0  0  0  0  0
  147.2404  142.2634  156.1301 N   0  0  0  0  0  0  0  0  0  0  0  0
  151.2786  143.7269  158.6245 C   0  0  0  0  0  0  0  0  0  0  0  0
  150.6333  144.8643  159.4242 C   0  0  0  0  0  0  0  0  0  0  0  0
  151.9169  144.3938  157.3912 C   0  0  0  0  0  0  0  0  0  0  0  0
  151.8757  143.2044  162.7251 H   0  0  0  0  0  0  0  0  0  0  0  0
  151.9356  144.5356  161.5853 H   0  0  0  0  0  0  0  0  0  0  0  0
  153.3296  143.4581  161.7689 H   0  0  0  0  0  0  0  0  0  0  0  0
  154.1013  143.1845  158.4471 H   0  0  0  0  0  0  0  0  0  0  0  0
  154.2574  142.1245  159.8194 H   0  0  0  0  0  0  0  0  0  0  0  0
  153.9615  143.8443  160.0698 H   0  0  0  0  0  0  0  0  0  0  0  0
  152.1916  141.4639  157.6249 H   0  0  0  0  0  0  0  0  0  0  0  0
  151.4284  140.6653  159.0419 H   0  0  0  0  0  0  0  0  0  0  0  0
  149.6503  142.3172  159.1525 H   0  0  0  0  0  0  0  0  0  0  0  0
  149.5001  143.2588  156.5945 H   0  0  0  0  0  0  0  0  0  0  0  0
  149.7861  141.9941  154.2634 H   0  0  0  0  0  0  0  0  0  0  0  0
  149.0732  140.4004  154.4388 H   0  0  0  0  0  0  0  0  0  0  0  0
  147.2880  142.1570  152.8584 H   0  0  0  0  0  0  0  0  0  0  0  0
  144.9818  143.2007  153.8756 H   0  0  0  0  0  0  0  0  0  0  0  0
  145.4006  143.0856  156.6131 H   0  0  0  0  0  0  0  0  0  0  0  0
  149.9523  145.4523  158.8079 H   0  0  0  0  0  0  0  0  0  0  0  0
  151.3848  145.5441  159.8270 H   0  0  0  0  0  0  0  0  0  0  0  0
  150.0480  144.4920  160.2651 H   0  0  0  0  0  0  0  0  0  0  0  0
  151.1756  144.9234  156.7916 H   0  0  0  0  0  0  0  0  0  0  0  0
  152.3982  143.6700  156.7338 H   0  0  0  0  0  0  0  0  0  0  0  0
  152.6762  145.1217  157.6790 H   0  0  0  0  0  0  0  0  0  0  0  0
  1  2  1  0  0  0  0
  1 19  1  0  0  0  0
  1 20  1  0  0  0  0
  1 21  1  0  0  0  0
  2  3  1  0  0  0  0
  3 16  1  0  0  0  0
  3  4  1  0  0  0  0
  3  5  1  0  0  0  0
  4 22  1  0  0  0  0
  4 23  1  0  0  0  0
  4 24  1  0  0  0  0
  5  6  1  0  0  0  0
  5 25  1  0  0  0  0
  5 26  1  0  0  0  0
  6  7  1  0  0  0  0
  6 16  1  0  0  0  0
  6 27  1  0  0  0  0
  7  8  1  0  0  0  0
  7 28  1  0  0  0  0
  8  9  2  0  0  0  0
  8 10  1  0  0  0  0
 10 11  1  0  0  0  0
 10 29  1  0  0  0  0
 10 30  1  0  0  0  0
 11 15  1  0  0  0  0
 11 12  1  0  0  0  0
 12 13  2  0  0  0  0
 12 31  1  0  0  0  0
 13 14  1  0  0  0  0
 13 32  1  0  0  0  0
 14 15  2  0  0  0  0
 14 33  1  0  0  0  0
 16 17  1  0  0  0  0
 16 18  1  0  0  0  0
 17 34  1  0  0  0  0
 17 35  1  0  0  0  0
 17 36  1  0  0  0  0
 18 37  1  0  0  0  0
 18 38  1  0  0  0  0
 18 39  1  0  0  0  0
M  END
> <s_m_source_file>
AV-unprocessed.smi

> <i_m_source_file_index>
3259

> <i_lp_mmshare_version>
43012

> <i_f3d_flags>
0

> <s_epik_input>
W0NIM11PW0NAQF0xKFtDSDNdKVtDSDJdW0NASF0oQzEoW0NIM10pW0NIM10pW05IXUMoPU8pW0NIMl1uMltjSF1bY0hdW2NIXW4y

> <s_epik_cmdline>
J2VwaWtfcHl0aG9uJywgJy1waCcsICc3LjAnLCAnLXRuJywgJzgnLCAnLW1hJywgJzIwMCcsICctbWV0YWxfYmluZGluZycsICctaW1hZScsICc8aW5maWxlLm1hZT4nLCAnLW9tYWUnLCAnPG91dGZpbGUubWFlPic=

> <r_lp_tautomer_probability>
1

> <r_epik_Ionization_Penalty>
1.78399e-05

> <r_epik_Ionization_Penalty_Charging>
0

> <r_epik_Ionization_Penalty_Neutral>
1.78399e-05

> <r_epik_State_Penalty>
-0

> <r_epik_Charging_Adjusted_Penalty>
0

> <i_epik_Tot_Q>
0

> <i_epik_Tot_abs_Q>
0

> <r_epik_Metal_State_Penalty>
-0

> <b_epik_Metal_Only>
0

> <s_lp_Force_Field>
OPLS_2005

> <r_lp_Energy>
23.5096

> <b_lp_Chiralities_Consistent>
1

> <s_lp_Variant>
AV-unprocessed.smi:3259-3

> <Gold.Version>
5.8.1

> <Gold.Id.Protein>
6NUR|6NUR_protein|mol2

> <Gold.PLP.Fitness>
42.8093

> <Gold.PLP.PLP>
-40.6179

> <Gold.PLP.part.hbond>
-2.0000

> <Gold.PLP.part.metal>
0.0000

> <Gold.PLP.part.buried>
-5.7033

> <Gold.PLP.part.nonpolar>
-33.4269

> <Gold.PLP.part.repulsive>
1.1379

> <Gold.PLP.ligand.clash>
0.0000

> <Gold.PLP.ligand.torsion>
0.6463

> <Gold.PLP.Chemscore.Hbond>
1.0365

> <Gold.PLP.Chemscore.CHOScore>
0.0000

> <Gold.PLP.Chemscore.Metal>
0.0000

> <Gold.Chemscore.Hbonds>
donor molecule, donor type, donor heavy atom, donor atom, acceptor molecule, acceptor atom, score
      L1  H     7    28       P1  8028  1.00
      P1  H  6933  6945       L1     2  0.03

> <Gold.PLP.Chemscore.Internal.Correction>
0.3747

> <Gold.Rescore>
     Score         DG    S(hbond)    S(metal)    S(lipo)     H(rot)  DE(clash)    DE(int)     intcor
     13.75     -17.09       1.00        0.00     105.66       1.60       0.03       3.32       ----

> <Gold.Chemscore.Fitness>
13.7469

> <Gold.Chemscore.DG>
-17.0922

> <Gold.Chemscore.ZeroCoef>
-5.4800

> <Gold.Chemscore.Hbond>
0.9988

> <Gold.Chemscore.Metal>
0.0000

> <Gold.Chemscore.Lipo>
105.6607

> <Gold.Chemscore.Internal_Hbond>
0.0000

> <Gold.Chemscore.DEClash>
0.0293

> <Gold.Chemscore.DEInternal>
3.3160

> <Gold.Chemscore.Rot>
1.5962

> <Gold.Chemscore.Internal.Correction>
   9.000000E+99

> <Gold.Chemscore.Hbonds>
donor molecule, donor type, donor heavy atom, donor atom, acceptor molecule, acceptor atom, score
      L1  H     7    28       P1  8028  1.00

> <Gold.Chemscore.Hbond.Weighted>
-3.3361

> <Gold.Chemscore.Metal.Weighted>
-0.0000

> <Gold.Chemscore.Lipo.Weighted>
-12.3623

> <Gold.Chemscore.Internal_Hbond.Weighted>
0.0000

> <Gold.Chemscore.DEClash.Weighted>
0.0293

> <Gold.Chemscore.DEInternal.Weighted>
3.3160

> <Gold.Chemscore.Rot.Weighted>
4.0862

> <Gold.Chemscore.Internal.Correction.Weighted>
   9.000000E+99

> <Gold.Protein.RotatedTorsions>
[ 6907 6896 6895 6894 ] final -167.47 input  -60.11 | X-H torsion
[ 7974 7965 7964 7962 ] final  -68.44 input  175.53 | X-H torsion
[ 8008 7997 7996 7995 ] final  -93.76 input   59.86 | X-H torsion
[ 10167 10162 10161 10158 ] final   13.74 input  -65.29 | X-H torsion
[ 10718 10713 10712 10709 ] final -148.21 input   66.30 | X-H torsion
[ 10763 10752 10751 10750 ] final -114.40 input  -60.55 | X-H torsion
[ 11005 11000 10999 10996 ] final   16.66 input  -57.11 | X-H torsion

> <Gold.Protein.ActiveResidues>
 VAL166  LYS551  ARG553  GLY616  TRP617  ASP618  TYR619  PRO620  LYS621  CYS622 
 ASP623  PHE694  ASN695  SER759  ASP760  ASP761  ALA762  ILE779  LEU786  VAL792 
 PHE793  MET794  SER795  GLU796  ALA797  LYS798  CYS799  TRP800  GLU811  SER814 

> <Gold.Protein.RotatedAtoms>
  151.4601  133.3595  159.2807 H   0  0  0  0  0  0  0  0  0  0  0  0  # atno 6907 bound_to 6896
  150.9031  134.8446  159.7385 H   0  0  0  0  0  0  0  0  0  0  0  0  # atno 6908 bound_to 6896
  152.4891  134.4523  159.9630 H   0  0  0  0  0  0  0  0  0  0  0  0  # atno 6909 bound_to 6896
  145.7165  140.9057  143.0653 H   0  0  0  0  0  0  0  0  0  0  0  0  # atno 7974 bound_to 7965
  154.7397  140.0496  157.0800 H   0  0  0  0  0  0  0  0  0  0  0  0  # atno 8008 bound_to 7997
  155.0194  140.3145  155.4780 H   0  0  0  0  0  0  0  0  0  0  0  0  # atno 8009 bound_to 7997
  156.2861  140.2170  156.5312 H   0  0  0  0  0  0  0  0  0  0  0  0  # atno 8010 bound_to 7997
  140.5982  143.8657  150.6939 H   0  0  0  0  0  0  0  0  0  0  0  0  # atno 10167 bound_to 10162
  156.4174  130.8012  151.2233 H   0  0  0  0  0  0  0  0  0  0  0  0  # atno 10718 bound_to 10713
  154.8438  135.4419  154.1500 H   0  0  0  0  0  0  0  0  0  0  0  0  # atno 10763 bound_to 10752
  153.2663  135.6941  153.7532 H   0  0  0  0  0  0  0  0  0  0  0  0  # atno 10764 bound_to 10752
  153.6790  135.3406  155.3148 H   0  0  0  0  0  0  0  0  0  0  0  0  # atno 10765 bound_to 10752
  140.4446  134.1286  155.7694 H   0  0  0  0  0  0  0  0  0  0  0  0  # atno 11005 bound_to 11000
  144.6928  139.9144  143.7465 LP  0  0  0  0  0  0  0  0  0  0  0  0  # atno 17320 bound_to 7965
  146.0665  139.3656  143.0549 LP  0  0  0  0  0  0  0  0  0  0  0  0  # atno 17321 bound_to 7965
  140.2197  143.3818  152.1653 LP  0  0  0  0  0  0  0  0  0  0  0  0  # atno 17342 bound_to 10162
  139.5273  144.7117  151.5183 LP  0  0  0  0  0  0  0  0  0  0  0  0  # atno 17343 bound_to 10162
  157.7508  131.0239  150.3852 LP  0  0  0  0  0  0  0  0  0  0  0  0  # atno 17370 bound_to 10713
  156.4163  130.3944  149.6856 LP  0  0  0  0  0  0  0  0  0  0  0  0  # atno 17371 bound_to 10713
  141.1691  133.8645  157.1627 LP  0  0  0  0  0  0  0  0  0  0  0  0  # atno 17394 bound_to 11000
  140.0047  135.0013  157.0266 LP  0  0  0  0  0  0  0  0  0  0  0  0  # atno 17395 bound_to 11000

$$$$
