#       Name:                AV-unprocessed.smi:1829
#       Creating user name   scv26
#       Creation time:       Fri Mar 27 09:11:36 2020


#       File generated by GOLD software.
#

@<TRIPOS>MOLECULE
AV-unprocessed.smi:1829
    50    52     1
SMALL
NO_CHARGES


@<TRIPOS>ATOM
      1 ****        -4.2683  -0.1332   0.2646 C.3            1 S1                 0.0000
      2 ****        -3.6953  -0.9273   1.4485 C.3            1 S1                 0.0000
      3 ****        -4.2334  -0.4115   2.7928 C.3            1 S1                 0.0000
      4 ****        -2.1725  -0.9490   1.4179 C.ar           1 S1                 0.0000
      5 ****        -1.4871  -2.1636   1.2031 C.ar           1 S1                 0.0000
      6 ****        -0.0800  -2.1885   1.1556 C.ar           1 S1                 0.0000
      7 ****         0.6595  -0.9978   1.3253 C.ar           1 S1                 0.0000
      8 ****         2.1791  -0.9996   1.2269 C.3            1 S1                 0.0000
      9 ****         2.7620  -2.1196   1.8603 O.3            1 S1                 0.0000
     10 ****         2.6772  -0.9530  -0.2327 C.3            1 S1                 0.0000
     11 ****         2.3087   0.2978  -0.9168 N.pl3          1 S1                 0.0000
     12 ****         2.9179   1.5187  -0.8987 C.2            1 S1                 0.0000
     13 ****         4.1640   1.8931  -0.1660 C.3            1 S1                 0.0000
     14 ****         5.3093   1.8123  -0.9846 O.3            1 S1                 0.0000
     15 ****         2.1802   2.3503  -1.6865 N.pl3          1 S1                 1.0000
     16 ****         1.0881   1.6594  -2.2118 C.ar           1 S1                 0.0000
     17 ****         0.0638   2.0817  -3.0535 C.ar           1 S1                 0.0000
     18 ****        -0.9084   1.1204  -3.3992 C.ar           1 S1                 0.0000
     19 ****        -0.8374  -0.2017  -2.9152 C.ar           1 S1                 0.0000
     20 ****         0.2095  -0.6194  -2.0679 C.ar           1 S1                 0.0000
     21 ****         1.1653   0.3378  -1.7258 C.ar           1 S1                 0.0000
     22 ****        -0.0253   0.2149   1.5504 C.ar           1 S1                 0.0000
     23 ****        -1.4319   0.2402   1.5927 C.ar           1 S1                 0.0000
     24 ****        -3.9226  -0.5426  -0.6852 H              1 S1                 0.0000
     25 ****        -3.9728   0.9157   0.3027 H              1 S1                 0.0000
     26 ****        -5.3582  -0.1691   0.2604 H              1 S1                 0.0000
     27 ****        -4.0423  -1.9560   1.3417 H              1 S1                 0.0000
     28 ****        -3.8600  -1.0150   3.6207 H              1 S1                 0.0000
     29 ****        -5.3226  -0.4550   2.8208 H              1 S1                 0.0000
     30 ****        -3.9420   0.6230   2.9759 H              1 S1                 0.0000
     31 ****        -2.0377  -3.0827   1.0656 H              1 S1                 0.0000
     32 ****         0.4267  -3.1251   0.9746 H              1 S1                 0.0000
     33 ****         2.5548  -0.1244   1.7587 H              1 S1                 0.0000
     34 ****         2.4881  -2.9003   1.4039 H              1 S1                 0.0000
     35 ****         3.7661  -1.0134  -0.2557 H              1 S1                 0.0000
     36 ****         2.3172  -1.8066  -0.8073 H              1 S1                 0.0000
     37 ****         4.0680   2.9112   0.2123 H              1 S1                 0.0000
     38 ****         4.2971   1.2428   0.6984 H              1 S1                 0.0000
     39 ****         6.0653   2.0480  -0.4686 H              1 S1                 0.0000
     40 ****         0.0073   3.0943  -3.4253 H              1 S1                 0.0000
     41 ****        -1.7248   1.4028  -4.0482 H              1 S1                 0.0000
     42 ****        -1.6016  -0.9108  -3.1985 H              1 S1                 0.0000
     43 ****         0.2480  -1.6344  -1.7023 H              1 S1                 0.0000
     44 ****         0.5268   1.1352   1.6731 H              1 S1                 0.0000
     45 ****        -1.9397   1.1797   1.7536 H              1 S1                 0.0000
     46 ****         2.4124   3.3211  -1.8522 H              1 S1                 0.0000
     47 ****         2.4605  -2.1628   2.8128 LP             1 S1                 0.0000
     48 ****         3.7586  -2.0434   1.8294 LP             1 S1                 0.0000
     49 ****         5.2177   2.4425  -1.7556 LP             1 S1                 0.0000
     50 ****         5.4132   0.8787  -1.3277 LP             1 S1                 0.0000
@<TRIPOS>BOND
    1    1    2 1     
    2    1   24 1     
    3    1   25 1     
    4    1   26 1     
    5    2    3 1     
    6    2    4 1     
    7    2   27 1     
    8    3   28 1     
    9    3   29 1     
   10    3   30 1     
   11    4   23 ar    
   12    4    5 ar    
   13    5    6 ar    
   14    5   31 1     
   15    6    7 ar    
   16    6   32 1     
   17    7    8 1     
   18    7   22 ar    
   19    8    9 1     
   20    8   10 1     
   21    8   33 1     
   22    9   34 1     
   23   10   11 1     
   24   10   35 1     
   25   10   36 1     
   26   11   21 1     
   27   11   12 1     
   28   12   13 1     
   29   12   15 2     
   30   13   14 1     
   31   13   37 1     
   32   13   38 1     
   33   14   39 1     
   34   15   16 1     
   35   15   46 1     
   36   16   21 ar    
   37   16   17 ar    
   38   17   18 ar    
   39   17   40 1     
   40   18   19 ar    
   41   18   41 1     
   42   19   20 ar    
   43   19   42 1     
   44   20   21 ar    
   45   20   43 1     
   46   22   23 ar    
   47   22   44 1     
   48   23   45 1     
   49    9   47 1     
   50    9   48 1     
   51   14   49 1     
   52   14   50 1     
@<TRIPOS>SUBSTRUCTURE
      1 S1             1
@<TRIPOS>SET
LONE_PAIRS      STATIC     ATOMS    <user>   **** ""
4 47 48 49 50
DONOR_HYDROGENS      STATIC     ATOMS    <user>   **** ""
3 34 39 46
ATOM$BLUE        STATIC     ATOMS    COLORGROUP SYSTEM
4 47 48 49 50
ATOM$RED        STATIC     ATOMS    COLORGROUP SYSTEM
3 34 39 46
