AV-unprocessed.smi:2083|AV-procd|sdf|8500|dock8
  -GOLD-   2272011213D 1   1.00000     0.00000
 Structure written by MMmdl.
 44 45  0  0  0  0  0  0  0  0  3 V2000
  146.8655  136.2012  162.8145 C   0  0  0  0  0  0  0  0  0  0  0  0
  147.0429  136.3909  161.3469 C   0  0  0  0  0  0  0  0  0  0  0  0
  147.4543  135.5561  160.3470 C   0  0  0  0  0  0  0  0  0  0  0  0
  147.3828  136.3776  159.1887 C   0  0  0  0  0  0  0  0  0  0  0  0
  147.6980  136.0083  157.9377 N   0  5  0  0  0  0  0  0  0  0  0  0
  146.7674  135.4289  157.1462 C   0  0  0  0  0  0  0  0  0  0  0  0
  145.6831  134.9660  157.5083 O   0  0  0  0  0  0  0  0  0  0  0  0
  147.1162  135.3770  155.8528 N   0  0  0  0  0  0  0  0  0  0  0  0
  146.3168  134.7966  154.7778 C   0  0  0  0  0  0  0  0  0  0  0  0
  147.0085  133.5807  154.0997 C   0  0  2  0  0  0  0  0  0  0  0  0
  148.3780  134.0000  153.5192 C   0  0  0  0  0  0  0  0  0  0  0  0
  146.1882  132.9185  153.0327 N   0  3  2  0  0  0  0  0  0  0  0  0
  146.6826  131.5961  152.5494 C   0  0  0  0  0  0  0  0  0  0  0  0
  145.6928  130.9441  151.5691 C   0  0  0  0  0  0  0  0  0  0  0  0
  145.3717  131.8719  150.3920 C   0  0  0  0  0  0  0  0  0  0  0  0
  144.9033  133.2487  150.8900 C   0  0  1  0  0  0  0  0  0  0  0  0
  143.4771  133.2270  151.4678 C   0  0  0  0  0  0  0  0  0  0  0  0
  145.9270  133.8333  151.8830 C   0  0  0  0  0  0  0  0  0  0  0  0
  146.9815  137.6071  159.4645 N   0  0  0  0  0  0  0  0  0  0  0  0
  146.7560  137.6226  160.8460 O   0  0  0  0  0  0  0  0  0  0  0  0
  147.8300  136.0649  163.3037 H   0  0  0  0  0  0  0  0  0  0  0  0
  146.2545  135.3220  163.0181 H   0  0  0  0  0  0  0  0  0  0  0  0
  146.3759  137.0641  163.2667 H   0  0  0  0  0  0  0  0  0  0  0  0
  147.7545  134.5223  160.4291 H   0  0  0  0  0  0  0  0  0  0  0  0
  148.0099  135.7722  155.5982 H   0  0  0  0  0  0  0  0  0  0  0  0
  145.3503  134.5224  155.2032 H   0  0  0  0  0  0  0  0  0  0  0  0
  146.1287  135.5810  154.0439 H   0  0  0  0  0  0  0  0  0  0  0  0
  147.1823  132.8379  154.8797 H   0  0  0  0  0  0  0  0  0  0  0  0
  149.0302  134.4203  154.2849 H   0  0  0  0  0  0  0  0  0  0  0  0
  148.2580  134.7535  152.7402 H   0  0  0  0  0  0  0  0  0  0  0  0
  148.9239  133.1644  153.0848 H   0  0  0  0  0  0  0  0  0  0  0  0
  147.6596  131.7188  152.0793 H   0  0  0  0  0  0  0  0  0  0  0  0
  146.8038  130.8986  153.3772 H   0  0  0  0  0  0  0  0  0  0  0  0
  146.1059  130.0063  151.1964 H   0  0  0  0  0  0  0  0  0  0  0  0
  144.7750  130.6817  152.0959 H   0  0  0  0  0  0  0  0  0  0  0  0
  146.2669  131.9954  149.7806 H   0  0  0  0  0  0  0  0  0  0  0  0
  144.6191  131.4202  149.7447 H   0  0  0  0  0  0  0  0  0  0  0  0
  144.8733  133.9113  150.0241 H   0  0  0  0  0  0  0  0  0  0  0  0
  143.4086  132.6097  152.3637 H   0  0  0  0  0  0  0  0  0  0  0  0
  142.7654  132.8360  150.7403 H   0  0  0  0  0  0  0  0  0  0  0  0
  143.1505  134.2319  151.7371 H   0  0  0  0  0  0  0  0  0  0  0  0
  145.5698  134.8036  152.2236 H   0  0  0  0  0  0  0  0  0  0  0  0
  146.8688  134.0238  151.3654 H   0  0  0  0  0  0  0  0  0  0  0  0
  145.2935  132.7280  153.4602 H   0  0  0  0  0  0  0  0  0  0  0  0
  1  2  1  0  0  0  0
  1 21  1  0  0  0  0
  1 22  1  0  0  0  0
  1 23  1  0  0  0  0
  2 20  1  0  0  0  0
  2  3  2  0  0  0  0
  3  4  1  0  0  0  0
  3 24  1  0  0  0  0
  4  5  1  0  0  0  0
  4 19  2  0  0  0  0
  5  6  1  0  0  0  0
  6  7  2  0  0  0  0
  6  8  1  0  0  0  0
  8  9  1  0  0  0  0
  8 25  1  0  0  0  0
  9 10  1  0  0  0  0
  9 26  1  0  0  0  0
  9 27  1  0  0  0  0
 10 11  1  0  0  0  0
 10 12  1  0  0  0  0
 10 28  1  0  0  0  0
 11 29  1  0  0  0  0
 11 30  1  0  0  0  0
 11 31  1  0  0  0  0
 12 18  1  0  0  0  0
 12 13  1  0  0  0  0
 12 44  1  0  0  0  0
 13 14  1  0  0  0  0
 13 32  1  0  0  0  0
 13 33  1  0  0  0  0
 14 15  1  0  0  0  0
 14 34  1  0  0  0  0
 14 35  1  0  0  0  0
 15 16  1  0  0  0  0
 15 36  1  0  0  0  0
 15 37  1  0  0  0  0
 16 17  1  0  0  0  0
 16 18  1  0  0  0  0
 16 38  1  0  0  0  0
 17 39  1  0  0  0  0
 17 40  1  0  0  0  0
 17 41  1  0  0  0  0
 18 42  1  0  0  0  0
 18 43  1  0  0  0  0
 19 20  1  0  0  0  0
M  CHG  1   5  -1
M  CHG  1  12   1
M  END
> <s_m_source_file>
AV-unprocessed.smi

> <i_m_source_file_index>
2083

> <i_lp_mmshare_version>
43012

> <i_f3d_flags>
0

> <s_epik_input>
W0NIM11jMVtjSF1jKG5vMSlbTkhdQyg9TylbTkhdW0NIMl1bQ0BIXShbQ0gzXSlOMltDSDJdW0NIMl1bQ0gyXVtDQEBIXShbQ0gzXSlbQ0gyXTI=

> <s_epik_cmdline>
J2VwaWtfcHl0aG9uJywgJy1waCcsICc3LjAnLCAnLXRuJywgJzgnLCAnLW1hJywgJzIwMCcsICctbWV0YWxfYmluZGluZycsICctaW1hZScsICc8aW5maWxlLm1hZT4nLCAnLW9tYWUnLCAnPG91dGZpbGUubWFlPic=

> <r_epik_Ionization_Penalty>
6.22434

> <r_epik_Ionization_Penalty_Charging>
6.22425

> <r_epik_Ionization_Penalty_Neutral>
9.62407e-05

> <r_epik_State_Penalty>
6.22423

> <r_epik_Charging_Adjusted_Penalty>
12.4485

> <i_epik_Tot_Q>
0

> <i_epik_Tot_abs_Q>
2

> <r_epik_Metal_State_Penalty>
2.16764

> <b_epik_Metal_Only>
1

> <s_lp_Force_Field>
OPLS_2005

> <r_lp_Energy>
12.2094

> <b_lp_Chiralities_Consistent>
1

> <s_lp_Variant>
AV-unprocessed.smi:2083-11

> <Gold.Version>
5.8.1

> <Gold.Id.Protein>
6NUR|6NUR_protein|mol2

> <Gold.PLP.Fitness>
35.8280

> <Gold.PLP.PLP>
-32.1569

> <Gold.PLP.part.hbond>
-2.0597

> <Gold.PLP.part.metal>
0.0000

> <Gold.PLP.part.buried>
-5.3270

> <Gold.PLP.part.nonpolar>
-24.8567

> <Gold.PLP.part.repulsive>
0.0000

> <Gold.PLP.ligand.clash>
0.0000

> <Gold.PLP.ligand.torsion>
0.8496

> <Gold.PLP.Chemscore.Hbond>
1.7600

> <Gold.PLP.Chemscore.CHOScore>
0.0000

> <Gold.PLP.Chemscore.Metal>
0.0000

> <Gold.Chemscore.Hbonds>
donor molecule, donor type, donor heavy atom, donor atom, acceptor molecule, acceptor atom, score
      P1  H  6934  6947       L1    20  0.46

> <Gold.PLP.Chemscore.Internal.Correction>
0.0903

> <Gold.Rescore>
     Score         DG    S(hbond)    S(metal)    S(lipo)     H(rot)  DE(clash)    DE(int)     intcor
     14.62     -15.36       1.38        0.00      78.33       1.52       0.00       0.74       ----

> <Gold.Chemscore.Fitness>
14.6185

> <Gold.Chemscore.DG>
-15.3562

> <Gold.Chemscore.ZeroCoef>
-5.4800

> <Gold.Chemscore.Hbond>
1.3773

> <Gold.Chemscore.Metal>
0.0000

> <Gold.Chemscore.Lipo>
78.3303

> <Gold.Chemscore.Internal_Hbond>
0.0000

> <Gold.Chemscore.DEClash>
0.0000

> <Gold.Chemscore.DEInternal>
0.7377

> <Gold.Chemscore.Rot>
1.5190

> <Gold.Chemscore.Internal.Correction>
   9.000000E+99

> <Gold.Chemscore.Hbonds>
donor molecule, donor type, donor heavy atom, donor atom, acceptor molecule, acceptor atom, score
      P1  H  6934  6947       L1    20  0.03

> <Gold.Chemscore.Hbond.Weighted>
-4.6002

> <Gold.Chemscore.Metal.Weighted>
-0.0000

> <Gold.Chemscore.Lipo.Weighted>
-9.1646

> <Gold.Chemscore.Internal_Hbond.Weighted>
0.0000

> <Gold.Chemscore.DEClash.Weighted>
0.0000

> <Gold.Chemscore.DEInternal.Weighted>
0.7377

> <Gold.Chemscore.Rot.Weighted>
3.8886

> <Gold.Chemscore.Internal.Correction.Weighted>
   9.000000E+99

> <Gold.Protein.RotatedTorsions>
[ 6907 6896 6895 6894 ] final   53.76 input  -60.11 | X-H torsion
[ 7974 7965 7964 7962 ] final -119.25 input  175.53 | X-H torsion
[ 8008 7997 7996 7995 ] final  117.42 input   59.86 | X-H torsion
[ 10167 10162 10161 10158 ] final  -22.44 input  -65.29 | X-H torsion
[ 10718 10713 10712 10709 ] final   98.07 input   66.30 | X-H torsion
[ 10763 10752 10751 10750 ] final  101.91 input  -60.55 | X-H torsion
[ 11005 11000 10999 10996 ] final -146.60 input  -57.11 | X-H torsion

> <Gold.Protein.ActiveResidues>
 VAL166  LYS551  ARG553  GLY616  TRP617  ASP618  TYR619  PRO620  LYS621  CYS622 
 ASP623  PHE694  ASN695  SER759  ASP760  ASP761  ALA762  ILE779  LEU786  VAL792 
 PHE793  MET794  SER795  GLU796  ALA797  LYS798  CYS799  TRP800  GLU811  SER814 

> <Gold.Protein.RotatedAtoms>
  152.3370  134.7185  160.0273 H   0  0  0  0  0  0  0  0  0  0  0  0  # atno 6907 bound_to 6896
  151.7583  133.3326  159.3418 H   0  0  0  0  0  0  0  0  0  0  0  0  # atno 6908 bound_to 6896
  150.7456  134.6062  159.6106 H   0  0  0  0  0  0  0  0  0  0  0  0  # atno 6909 bound_to 6896
  145.0647  140.8315  143.4131 H   0  0  0  0  0  0  0  0  0  0  0  0  # atno 7974 bound_to 7965
  156.2493  140.2896  156.0676 H   0  0  0  0  0  0  0  0  0  0  0  0  # atno 8008 bound_to 7997
  155.1706  140.0401  157.2879 H   0  0  0  0  0  0  0  0  0  0  0  0  # atno 8009 bound_to 7997
  154.6328  140.2503  155.7420 H   0  0  0  0  0  0  0  0  0  0  0  0  # atno 8010 bound_to 7997
  140.7286  143.4535  151.0482 H   0  0  0  0  0  0  0  0  0  0  0  0  # atno 10167 bound_to 10162
  157.6902  131.0629  150.4740 H   0  0  0  0  0  0  0  0  0  0  0  0  # atno 10718 bound_to 10713
  153.3328  135.4028  155.1509 H   0  0  0  0  0  0  0  0  0  0  0  0  # atno 10763 bound_to 10752
  154.8626  135.3614  154.5449 H   0  0  0  0  0  0  0  0  0  0  0  0  # atno 10764 bound_to 10752
  153.5888  135.7074  153.5491 H   0  0  0  0  0  0  0  0  0  0  0  0  # atno 10765 bound_to 10752
  140.7804  134.3086  157.5047 H   0  0  0  0  0  0  0  0  0  0  0  0  # atno 11005 bound_to 11000
  145.1366  139.2598  143.5512 LP  0  0  0  0  0  0  0  0  0  0  0  0  # atno 17320 bound_to 7965
  146.3526  140.1031  142.8607 LP  0  0  0  0  0  0  0  0  0  0  0  0  # atno 17321 bound_to 7965
  139.8213  143.7816  152.3177 LP  0  0  0  0  0  0  0  0  0  0  0  0  # atno 17342 bound_to 10162
  139.7899  144.7414  150.9969 LP  0  0  0  0  0  0  0  0  0  0  0  0  # atno 17343 bound_to 10162
  156.5076  130.4132  149.6318 LP  0  0  0  0  0  0  0  0  0  0  0  0  # atno 17370 bound_to 10713
  156.3270  130.7311  151.2233 LP  0  0  0  0  0  0  0  0  0  0  0  0  # atno 17371 bound_to 10713
  139.8743  134.9314  156.3528 LP  0  0  0  0  0  0  0  0  0  0  0  0  # atno 17394 bound_to 11000
  140.9488  133.7465  156.0244 LP  0  0  0  0  0  0  0  0  0  0  0  0  # atno 17395 bound_to 11000

$$$$
