#       Name:                AV-unprocessed.smi:3234
#       Creating user name   scv26
#       Creation time:       Fri Mar 27 18:21:44 2020


#       File generated by GOLD software.
#

@<TRIPOS>MOLECULE
AV-unprocessed.smi:3234
    40    42     1
SMALL
NO_CHARGES


@<TRIPOS>ATOM
      1 ****        -0.1512   2.4098   0.9578 O.2            1 S1                 0.0000
      2 ****        -0.6875   1.3377   0.6550 C.2            1 S1                 0.0000
      3 ****        -2.0264   1.2511   0.5613 N.am           1 S1                 0.0000
      4 ****        -3.0037   2.2492   0.8195 C.ar           1 S1                 0.0000
      5 ****        -4.2223   2.1766   0.1095 C.ar           1 S1                 0.0000
      6 ****        -5.2263   3.1355   0.3540 C.ar           1 S1                 0.0000
      7 ****        -5.0218   4.1042   1.2722 N.pl3          1 S1                 1.0000
      8 ****        -3.8812   4.2025   1.9887 C.ar           1 S1                 0.0000
      9 ****        -2.8412   3.2727   1.7869 C.ar           1 S1                 0.0000
     10 ****        -0.0755   0.1594   0.3576 N.pl3          1 S1                -1.0000
     11 ****         1.3741  -0.0570   0.3709 C.3            1 S1                 0.0000
     12 ****         2.0020   0.3376  -0.9797 C.3            1 S1                 0.0000
     13 ****         2.9394  -0.8165  -1.3301 C.3            1 S1                 0.0000
     14 ****         2.2979  -1.9998  -0.7331 N.4            1 S1                 1.0000
     15 ****         3.1819  -3.1786  -0.6150 C.3            1 S1                 0.0000
     16 ****         3.2112  -4.0370  -1.8567 C.3            1 S1                 0.0000
     17 ****         2.4392  -4.4930  -0.6375 C.3            1 S1                 0.0000
     18 ****         1.7005  -1.5530   0.5410 C.3            1 S1                 0.0000
     19 ****        -2.3792   0.3773   0.1993 H              1 S1                 0.0000
     20 ****        -4.3854   1.3981  -0.6220 H              1 S1                 0.0000
     21 ****        -6.1804   3.1542  -0.1519 H              1 S1                 0.0000
     22 ****        -3.8370   5.0119   2.7025 H              1 S1                 0.0000
     23 ****        -1.9444   3.3496   2.3832 H              1 S1                 0.0000
     24 ****         1.8687   0.4924   1.1734 H              1 S1                 0.0000
     25 ****         1.2419   0.4228  -1.7587 H              1 S1                 0.0000
     26 ****         2.5242   1.2936  -0.9308 H              1 S1                 0.0000
     27 ****         3.0703  -0.9326  -2.4064 H              1 S1                 0.0000
     28 ****         3.9263  -0.6615  -0.8872 H              1 S1                 0.0000
     29 ****         4.0739  -3.0585  -0.0023 H              1 S1                 0.0000
     30 ****         2.6365  -3.7112  -2.7220 H              1 S1                 0.0000
     31 ****         4.1380  -4.5598  -2.0839 H              1 S1                 0.0000
     32 ****         2.8578  -5.3162  -0.0622 H              1 S1                 0.0000
     33 ****         1.3522  -4.4689  -0.6920 H              1 S1                 0.0000
     34 ****         2.4295  -1.6714   1.3445 H              1 S1                 0.0000
     35 ****         0.8348  -2.1663   0.7965 H              1 S1                 0.0000
     36 ****         1.5259  -2.2429  -1.3371 H              1 S1                 0.0000
     37 ****        -5.7621   4.7870   1.4359 H              1 S1                 0.0000
     38 ****        -0.7134   3.2178   1.1343 LP             1 S1                 0.0000
     39 ****         0.8447   2.4690   1.0261 LP             1 S1                 0.0000
     40 ****        -0.6574  -0.6158   0.1119 LP             1 S1                 0.0000
@<TRIPOS>BOND
    1    1    2 2     
    2    2    3 am    
    3    2   10 1     
    4    3    4 1     
    5    3   19 1     
    6    4    9 ar    
    7    4    5 ar    
    8    5    6 ar    
    9    5   20 1     
   10    6    7 ar    
   11    6   21 1     
   12    7    8 ar    
   13    7   37 1     
   14    8    9 ar    
   15    8   22 1     
   16    9   23 1     
   17   10   11 1     
   18   11   18 1     
   19   11   12 1     
   20   11   24 1     
   21   12   13 1     
   22   12   25 1     
   23   12   26 1     
   24   13   14 1     
   25   13   27 1     
   26   13   28 1     
   27   14   15 1     
   28   14   18 1     
   29   14   36 1     
   30   15   17 1     
   31   15   16 1     
   32   15   29 1     
   33   16   17 1     
   34   16   30 1     
   35   16   31 1     
   36   17   32 1     
   37   17   33 1     
   38   18   34 1     
   39   18   35 1     
   40    1   38 1     
   41    1   39 1     
   42   10   40 1     
@<TRIPOS>SUBSTRUCTURE
      1 S1             1
@<TRIPOS>SET
LONE_PAIRS      STATIC     ATOMS    <user>   **** ""
3 38 39 40
DONOR_HYDROGENS      STATIC     ATOMS    <user>   **** ""
3 19 37 36
ATOM$BLUE        STATIC     ATOMS    COLORGROUP SYSTEM
3 38 39 40
ATOM$RED        STATIC     ATOMS    COLORGROUP SYSTEM
3 19 37 36
