AV-unprocessed.smi:1224|AV-procd|sdf|5130|dock6
  -GOLD-   22720 4193D 1   1.00000     0.00000
 Structure written by MMmdl.
 45 47  0  0  0  0  0  0  0  0  3 V2000
  151.9134  144.3495  160.5982 C   0  0  0  0  0  0  0  0  0  0  0  0
  151.8580  143.2739  159.5265 C   0  0  0  0  0  0  0  0  0  0  0  0
  150.9627  143.4446  158.4464 C   0  0  0  0  0  0  0  0  0  0  0  0
  150.9342  142.4442  157.4822 C   0  0  0  0  0  0  0  0  0  0  0  0
  150.1734  142.3161  156.3181 N   0  3  0  0  0  0  0  0  0  0  0  0
  150.4964  141.1521  155.6895 C   0  0  0  0  0  0  0  0  0  0  0  0
  151.4573  140.5379  156.4328 N   0  0  0  0  0  0  0  0  0  0  0  0
  152.1504  139.2616  156.2100 C   0  0  0  0  0  0  0  0  0  0  0  0
  151.1863  138.0798  155.9821 C   0  0  2  0  0  0  0  0  0  0  0  0
  151.9327  136.8826  155.8760 O   0  0  0  0  0  0  0  0  0  0  0  0
  150.3599  138.2593  154.6981 C   0  0  0  0  0  0  0  0  0  0  0  0
  149.5768  137.0441  154.3860 N   0  3  0  0  0  0  0  0  0  0  0  0
  148.3362  136.8824  155.1722 C   0  0  0  0  0  0  0  0  0  0  0  0
  147.1096  136.9302  154.3198 C   0  0  0  0  0  0  0  0  0  0  0  0
  146.1857  135.9355  154.1192 C   0  0  0  0  0  0  0  0  0  0  0  0
  145.1235  136.3236  153.2508 C   0  0  0  0  0  0  0  0  0  0  0  0
  145.2508  137.6100  152.7990 C   0  0  0  0  0  0  0  0  0  0  0  0
  146.6831  138.3726  153.4333 S   0  0  0  0  0  0  0  0  0  0  0  0
  151.7576  141.3045  157.5637 C   0  0  0  0  0  0  0  0  0  0  0  0
  152.6445  141.1195  158.6214 C   0  0  0  0  0  0  0  0  0  0  0  0
  152.6871  142.1254  159.6135 C   0  0  0  0  0  0  0  0  0  0  0  0
  153.6427  141.9512  160.7817 C   0  0  0  0  0  0  0  0  0  0  0  0
  151.2454  145.1794  160.3653 H   0  0  0  0  0  0  0  0  0  0  0  0
  152.9228  144.7511  160.6876 H   0  0  0  0  0  0  0  0  0  0  0  0
  151.6151  143.9422  161.5644 H   0  0  0  0  0  0  0  0  0  0  0  0
  150.3268  144.3152  158.3749 H   0  0  0  0  0  0  0  0  0  0  0  0
  150.0689  140.7845  154.7675 H   0  0  0  0  0  0  0  0  0  0  0  0
  152.8310  139.3807  155.3659 H   0  0  0  0  0  0  0  0  0  0  0  0
  152.7745  139.0760  157.0857 H   0  0  0  0  0  0  0  0  0  0  0  0
  150.5167  137.9899  156.8384 H   0  0  0  0  0  0  0  0  0  0  0  0
  151.6807  136.3077  156.5831 H   0  0  0  0  0  0  0  0  0  0  0  0
  149.6669  139.0931  154.8187 H   0  0  0  0  0  0  0  0  0  0  0  0
  151.0176  138.5103  153.8649 H   0  0  0  0  0  0  0  0  0  0  0  0
  149.3334  137.0645  153.4055 H   0  0  0  0  0  0  0  0  0  0  0  0
  148.3827  135.9222  155.6865 H   0  0  0  0  0  0  0  0  0  0  0  0
  148.2929  137.6473  155.9484 H   0  0  0  0  0  0  0  0  0  0  0  0
  146.2325  134.9521  154.5636 H   0  0  0  0  0  0  0  0  0  0  0  0
  144.3152  135.6555  152.9919 H   0  0  0  0  0  0  0  0  0  0  0  0
  144.5941  138.1533  152.1353 H   0  0  0  0  0  0  0  0  0  0  0  0
  153.2744  140.2449  158.6882 H   0  0  0  0  0  0  0  0  0  0  0  0
  154.1874  141.0089  160.7155 H   0  0  0  0  0  0  0  0  0  0  0  0
  153.0981  141.9546  161.7261 H   0  0  0  0  0  0  0  0  0  0  0  0
  154.3751  142.7586  160.8007 H   0  0  0  0  0  0  0  0  0  0  0  0
  150.1642  136.2400  154.5537 H   0  0  0  0  0  0  0  0  0  0  0  0
  149.4814  142.9717  155.9773 H   0  0  0  0  0  0  0  0  0  0  0  0
  1  2  1  0  0  0  0
  1 23  1  0  0  0  0
  1 24  1  0  0  0  0
  1 25  1  0  0  0  0
  2 21  1  0  0  0  0
  2  3  2  0  0  0  0
  3  4  1  0  0  0  0
  3 26  1  0  0  0  0
  4 19  2  0  0  0  0
  4  5  1  0  0  0  0
  5  6  2  0  0  0  0
  5 45  1  0  0  0  0
  6  7  1  0  0  0  0
  6 27  1  0  0  0  0
  7  8  1  0  0  0  0
  7 19  1  0  0  0  0
  8  9  1  0  0  0  0
  8 28  1  0  0  0  0
  8 29  1  0  0  0  0
  9 10  1  0  0  0  0
  9 11  1  0  0  0  0
  9 30  1  0  0  0  0
 10 31  1  0  0  0  0
 11 12  1  0  0  0  0
 11 32  1  0  0  0  0
 11 33  1  0  0  0  0
 12 13  1  0  0  0  0
 12 34  1  0  0  0  0
 12 44  1  0  0  0  0
 13 14  1  0  0  0  0
 13 35  1  0  0  0  0
 13 36  1  0  0  0  0
 14 18  1  0  0  0  0
 14 15  2  0  0  0  0
 15 16  1  0  0  0  0
 15 37  1  0  0  0  0
 16 17  2  0  0  0  0
 16 38  1  0  0  0  0
 17 18  1  0  0  0  0
 17 39  1  0  0  0  0
 19 20  1  0  0  0  0
 20 21  2  0  0  0  0
 20 40  1  0  0  0  0
 21 22  1  0  0  0  0
 22 41  1  0  0  0  0
 22 42  1  0  0  0  0
 22 43  1  0  0  0  0
M  CHG  1   5   1
M  CHG  1  12   1
M  END
> <s_m_source_file>
AV-unprocessed.smi

> <i_m_source_file_index>
1224

> <i_lp_mmshare_version>
43012

> <i_f3d_flags>
0

> <s_epik_input>
W0NIM11jKFtjSF0xKWMoW0NIM10pW2NIXWMoYzEyKW4oW2NIXW4yKVtDSDJdW0NASF0oW09IXSlbQ0gyXVtOSF1bQ0gyXWMzW2NIXVtjSF1bY0hdczM=

> <s_epik_cmdline>
J2VwaWtfcHl0aG9uJywgJy1waCcsICc3LjAnLCAnLXRuJywgJzgnLCAnLW1hJywgJzIwMCcsICctbWV0YWxfYmluZGluZycsICctaW1hZScsICc8aW5maWxlLm1hZT4nLCAnLW9tYWUnLCAnPG91dGZpbGUubWFlPic=

> <r_epik_Ionization_Penalty>
1.2222

> <r_epik_Ionization_Penalty_Charging>
1.2222

> <r_epik_Ionization_Penalty_Neutral>
3.40394e-06

> <r_epik_State_Penalty>
1.23781

> <r_epik_Charging_Adjusted_Penalty>
2.46001

> <i_epik_Tot_Q>
2

> <i_epik_Tot_abs_Q>
2

> <r_epik_Metal_State_Penalty>
5.24642

> <b_epik_Metal_Only>
0

> <s_lp_Force_Field>
OPLS_2005

> <r_lp_Energy>
16.8702

> <b_lp_Chiralities_Consistent>
1

> <s_lp_Variant>
AV-unprocessed.smi:1224-3

> <Gold.Version>
5.8.1

> <Gold.Id.Protein>
6NUR|6NUR_protein|mol2

> <Gold.PLP.Fitness>
59.5473

> <Gold.PLP.PLP>
-39.6193

> <Gold.PLP.part.hbond>
-3.0000

> <Gold.PLP.part.metal>
0.0000

> <Gold.PLP.part.buried>
-5.0552

> <Gold.PLP.part.nonpolar>
-31.8818

> <Gold.PLP.part.repulsive>
0.1010

> <Gold.PLP.ligand.clash>
0.0000

> <Gold.PLP.ligand.torsion>
0.5610

> <Gold.PLP.Chemscore.Hbond>
5.0000

> <Gold.PLP.Chemscore.CHOScore>
1.9826

> <Gold.PLP.Chemscore.Metal>
0.0000

> <Gold.Chemscore.Hbonds>
donor molecule, donor type, donor heavy atom, donor atom, acceptor molecule, acceptor atom, score
      L1  H     5    45       P1  8028  2.00
      L1  H    12    34       P1  7948  2.00
      P1  H 10752 10765       L1    10  1.00
      L1  C    17    39       P1 10171  1.00
      L1  C    17    39       P1 10175  0.96

> <Gold.PLP.Chemscore.Internal.Correction>
0.1022

> <Gold.Rescore>
     Score         DG    S(hbond)    S(metal)    S(lipo)     H(rot)  DE(clash)    DE(int)     intcor
     20.40     -21.00       2.68        0.00     110.78       2.50       0.02       0.58       ----

> <Gold.Chemscore.Fitness>
20.4022

> <Gold.Chemscore.DG>
-20.9952

> <Gold.Chemscore.ZeroCoef>
-5.4800

> <Gold.Chemscore.Hbond>
2.6840

> <Gold.Chemscore.Metal>
0.0000

> <Gold.Chemscore.Lipo>
110.7831

> <Gold.Chemscore.Internal_Hbond>
0.0000

> <Gold.Chemscore.DEClash>
0.0174

> <Gold.Chemscore.DEInternal>
0.5756

> <Gold.Chemscore.Rot>
2.5042

> <Gold.Chemscore.Internal.Correction>
   9.000000E+99

> <Gold.Chemscore.Hbonds>
donor molecule, donor type, donor heavy atom, donor atom, acceptor molecule, acceptor atom, score
      L1  H     5    45       P1  8028  0.96
      L1  H    12    34       P1  7948  0.91
      P1  H 10752 10765       L1    10  0.23

> <Gold.Chemscore.Hbond.Weighted>
-8.9644

> <Gold.Chemscore.Metal.Weighted>
-0.0000

> <Gold.Chemscore.Lipo.Weighted>
-12.9616

> <Gold.Chemscore.Internal_Hbond.Weighted>
0.0000

> <Gold.Chemscore.DEClash.Weighted>
0.0174

> <Gold.Chemscore.DEInternal.Weighted>
0.5756

> <Gold.Chemscore.Rot.Weighted>
6.4108

> <Gold.Chemscore.Internal.Correction.Weighted>
   9.000000E+99

> <Gold.Protein.RotatedTorsions>
[ 6907 6896 6895 6894 ] final  -89.84 input  -60.11 | X-H torsion
[ 7974 7965 7964 7962 ] final -107.55 input  175.53 | X-H torsion
[ 8008 7997 7996 7995 ] final -132.30 input   59.86 | X-H torsion
[ 10167 10162 10161 10158 ] final   63.89 input  -65.29 | X-H torsion
[ 10718 10713 10712 10709 ] final   38.68 input   66.30 | X-H torsion
[ 10763 10752 10751 10750 ] final -173.38 input  -60.55 | X-H torsion
[ 11005 11000 10999 10996 ] final  132.19 input  -57.11 | X-H torsion

> <Gold.Protein.ActiveResidues>
 VAL166  LYS551  ARG553  GLY616  TRP617  ASP618  TYR619  PRO620  LYS621  CYS622 
 ASP623  PHE694  ASN695  SER759  ASP760  ASP761  ALA762  ILE779  LEU786  VAL792 
 PHE793  MET794  SER795  GLU796  ALA797  LYS798  CYS799  TRP800  GLU811  SER814 

> <Gold.Protein.RotatedAtoms>
  150.6877  134.2524  159.4515 H   0  0  0  0  0  0  0  0  0  0  0  0  # atno 6907 bound_to 6896
  152.0460  134.9680  160.0583 H   0  0  0  0  0  0  0  0  0  0  0  0  # atno 6908 bound_to 6896
  152.1163  133.4293  159.4691 H   0  0  0  0  0  0  0  0  0  0  0  0  # atno 6909 bound_to 6896
  145.2039  140.9068  143.3353 H   0  0  0  0  0  0  0  0  0  0  0  0  # atno 7974 bound_to 7965
  155.3266  140.0465  157.3041 H   0  0  0  0  0  0  0  0  0  0  0  0  # atno 8008 bound_to 7997
  154.5351  140.2269  155.8703 H   0  0  0  0  0  0  0  0  0  0  0  0  # atno 8009 bound_to 7997
  156.1827  140.3070  155.9185 H   0  0  0  0  0  0  0  0  0  0  0  0  # atno 8010 bound_to 7997
  140.1281  144.4669  150.6881 H   0  0  0  0  0  0  0  0  0  0  0  0  # atno 10167 bound_to 10162
  157.3617  130.7653  149.7052 H   0  0  0  0  0  0  0  0  0  0  0  0  # atno 10718 bound_to 10713
  154.6085  135.2862  155.0458 H   0  0  0  0  0  0  0  0  0  0  0  0  # atno 10763 bound_to 10752
  154.1697  135.6474  153.5010 H   0  0  0  0  0  0  0  0  0  0  0  0  # atno 10764 bound_to 10752
  153.0185  135.5398  154.6829 H   0  0  0  0  0  0  0  0  0  0  0  0  # atno 10765 bound_to 10752
  139.9775  134.9559  156.9547 H   0  0  0  0  0  0  0  0  0  0  0  0  # atno 11005 bound_to 11000
  144.9921  139.3680  143.6210 LP  0  0  0  0  0  0  0  0  0  0  0  0  # atno 17320 bound_to 7965
  146.3412  139.9107  142.8780 LP  0  0  0  0  0  0  0  0  0  0  0  0  # atno 17321 bound_to 7965
  140.6833  143.2337  151.5327 LP  0  0  0  0  0  0  0  0  0  0  0  0  # atno 17342 bound_to 10162
  139.5534  144.2338  152.1570 LP  0  0  0  0  0  0  0  0  0  0  0  0  # atno 17343 bound_to 10162
  155.9738  130.4112  150.3969 LP  0  0  0  0  0  0  0  0  0  0  0  0  # atno 17370 bound_to 10713
  157.2047  131.0446  151.2631 LP  0  0  0  0  0  0  0  0  0  0  0  0  # atno 17371 bound_to 10713
  140.5164  134.0951  155.7282 LP  0  0  0  0  0  0  0  0  0  0  0  0  # atno 17394 bound_to 11000
  141.1451  133.9070  157.2235 LP  0  0  0  0  0  0  0  0  0  0  0  0  # atno 17395 bound_to 11000

$$$$
