AV-unprocessed.smi:632|AV-procd|sdf|3128|dock2
  -GOLD-   22720 0 53D 1   1.00000     0.00000
 Structure written by MMmdl.
 41 42  0  0  0  0  0  0  0  0  2 V2000
  152.0379  129.8394  155.6690 C   0  0  0  0  0  0  0  0  0  0  0  0
  152.0133  130.9750  156.7107 C   0  0  0  0  0  0  0  0  0  0  0  0
  151.5579  130.3627  158.0536 C   0  0  0  0  0  0  0  0  0  0  0  0
  153.4273  131.5512  156.9189 C   0  0  0  0  0  0  0  0  0  0  0  0
  151.0757  132.0689  156.2554 C   0  0  0  0  0  0  0  0  0  0  0  0
  150.8507  133.1640  156.9920 N   0  0  0  0  0  0  0  0  0  0  0  0
  149.9593  134.0396  156.3910 N   0  0  0  0  0  0  0  0  0  0  0  0
  149.5204  133.6089  155.2013 C   0  0  0  0  0  0  0  0  0  0  0  0
  148.6492  134.3109  154.4577 N   0  5  0  0  0  0  0  0  0  0  0  0
  147.4702  133.7562  154.0951 C   0  0  0  0  0  0  0  0  0  0  0  0
  146.8082  132.9520  154.7552 O   0  0  0  0  0  0  0  0  0  0  0  0
  147.0315  134.1591  152.8936 N   0  0  0  0  0  0  0  0  0  0  0  0
  145.7947  133.7364  152.2416 C   0  0  2  0  0  0  0  0  0  0  0  0
  145.8188  132.2199  151.9572 C   0  0  0  0  0  0  0  0  0  0  0  0
  144.5586  131.7695  151.2009 C   0  0  0  0  0  0  0  0  0  0  0  0
  144.3759  132.5708  149.9006 C   0  0  1  0  0  0  0  0  0  0  0  0
  143.1740  132.1807  149.2703 O   0  0  0  0  0  0  0  0  0  0  0  0
  144.3409  134.0827  150.1828 C   0  0  0  0  0  0  0  0  0  0  0  0
  145.6018  134.5339  150.9376 C   0  0  0  0  0  0  0  0  0  0  0  0
  150.1764  132.0411  154.7380 S   0  0  0  0  0  0  0  0  0  0  0  0
  152.6951  129.0269  155.9808 H   0  0  0  0  0  0  0  0  0  0  0  0
  152.3964  130.1923  154.7015 H   0  0  0  0  0  0  0  0  0  0  0  0
  151.0430  129.4192  155.5173 H   0  0  0  0  0  0  0  0  0  0  0  0
  150.5638  129.9207  157.9781 H   0  0  0  0  0  0  0  0  0  0  0  0
  151.5317  131.1091  158.8482 H   0  0  0  0  0  0  0  0  0  0  0  0
  152.2360  129.5729  158.3788 H   0  0  0  0  0  0  0  0  0  0  0  0
  154.1229  130.7853  157.2635 H   0  0  0  0  0  0  0  0  0  0  0  0
  153.4233  132.3515  157.6598 H   0  0  0  0  0  0  0  0  0  0  0  0
  153.8314  131.9630  155.9936 H   0  0  0  0  0  0  0  0  0  0  0  0
  147.6083  134.8172  152.3905 H   0  0  0  0  0  0  0  0  0  0  0  0
  144.9524  133.9592  152.8994 H   0  0  0  0  0  0  0  0  0  0  0  0
  146.7029  131.9688  151.3692 H   0  0  0  0  0  0  0  0  0  0  0  0
  145.9014  131.6619  152.8906 H   0  0  0  0  0  0  0  0  0  0  0  0
  144.6230  130.7035  150.9797 H   0  0  0  0  0  0  0  0  0  0  0  0
  143.6873  131.9009  151.8443 H   0  0  0  0  0  0  0  0  0  0  0  0
  145.1991  132.3486  149.2204 H   0  0  0  0  0  0  0  0  0  0  0  0
  142.5579  132.8944  149.3335 H   0  0  0  0  0  0  0  0  0  0  0  0
  144.2525  134.6373  149.2478 H   0  0  0  0  0  0  0  0  0  0  0  0
  143.4586  134.3305  150.7749 H   0  0  0  0  0  0  0  0  0  0  0  0
  145.5349  135.5999  151.1584 H   0  0  0  0  0  0  0  0  0  0  0  0
  146.4729  134.4058  150.2934 H   0  0  0  0  0  0  0  0  0  0  0  0
  1  2  1  0  0  0  0
  1 21  1  0  0  0  0
  1 22  1  0  0  0  0
  1 23  1  0  0  0  0
  2  3  1  0  0  0  0
  2  4  1  0  0  0  0
  2  5  1  0  0  0  0
  3 24  1  0  0  0  0
  3 25  1  0  0  0  0
  3 26  1  0  0  0  0
  4 27  1  0  0  0  0
  4 28  1  0  0  0  0
  4 29  1  0  0  0  0
  5 20  1  0  0  0  0
  5  6  2  0  0  0  0
  6  7  1  0  0  0  0
  7  8  2  0  0  0  0
  8  9  1  0  0  0  0
  8 20  1  0  0  0  0
  9 10  1  0  0  0  0
 10 11  2  0  0  0  0
 10 12  1  0  0  0  0
 12 13  1  0  0  0  0
 12 30  1  0  0  0  0
 13 19  1  0  0  0  0
 13 14  1  0  0  0  0
 13 31  1  0  0  0  0
 14 15  1  0  0  0  0
 14 32  1  0  0  0  0
 14 33  1  0  0  0  0
 15 16  1  0  0  0  0
 15 34  1  0  0  0  0
 15 35  1  0  0  0  0
 16 17  1  0  0  0  0
 16 18  1  0  0  0  0
 16 36  1  0  0  0  0
 17 37  1  0  0  0  0
 18 19  1  0  0  0  0
 18 38  1  0  0  0  0
 18 39  1  0  0  0  0
 19 40  1  0  0  0  0
 19 41  1  0  0  0  0
M  CHG  1   9  -1
M  END
> <s_m_source_file>
AV-unprocessed.smi

> <i_m_source_file_index>
632

> <i_lp_mmshare_version>
43012

> <i_f3d_flags>
0

> <s_epik_input>
W0NIM11DKFtDSDNdKShbQ0gzXSljMW5uYyhzMSlbTkhdQyg9TylbTkhdW0NAQEhdMltDSDJdW0NIMl1bQ0BASF0oW09IXSlbQ0gyXVtDSDJdMg==

> <s_epik_cmdline>
J2VwaWtfcHl0aG9uJywgJy1waCcsICc3LjAnLCAnLXRuJywgJzgnLCAnLW1hJywgJzIwMCcsICctbWV0YWxfYmluZGluZycsICctaW1hZScsICc8aW5maWxlLm1hZT4nLCAnLW9tYWUnLCAnPG91dGZpbGUubWFlPic=

> <r_lp_tautomer_probability>
1

> <r_epik_Ionization_Penalty>
4.62389

> <r_epik_Ionization_Penalty_Charging>
4.45204

> <r_epik_Ionization_Penalty_Neutral>
0.171842

> <r_epik_State_Penalty>
4.45172

> <r_epik_Charging_Adjusted_Penalty>
8.90376

> <i_epik_Tot_Q>
-1

> <i_epik_Tot_abs_Q>
1

> <r_epik_Metal_State_Penalty>
0.795834

> <b_epik_Metal_Only>
1

> <s_lp_Force_Field>
OPLS_2005

> <r_lp_Energy>
0.241417

> <b_lp_Chiralities_Consistent>
1

> <s_lp_Variant>
AV-unprocessed.smi:632-3

> <Gold.Version>
5.8.1

> <Gold.Id.Protein>
6NUR|6NUR_protein|mol2

> <Gold.PLP.Fitness>
39.0958

> <Gold.PLP.PLP>
-31.4506

> <Gold.PLP.part.hbond>
-4.4171

> <Gold.PLP.part.metal>
0.0000

> <Gold.PLP.part.buried>
-5.8873

> <Gold.PLP.part.nonpolar>
-22.3334

> <Gold.PLP.part.repulsive>
0.1787

> <Gold.PLP.ligand.clash>
0.0000

> <Gold.PLP.ligand.torsion>
0.7792

> <Gold.PLP.Chemscore.Hbond>
3.0596

> <Gold.PLP.Chemscore.CHOScore>
0.0000

> <Gold.PLP.Chemscore.Metal>
0.0000

> <Gold.Chemscore.Hbonds>
donor molecule, donor type, donor heavy atom, donor atom, acceptor molecule, acceptor atom, score
      L1  H    12    30       P1  7948  1.00
      L1  H    17    37       P1 10186  0.62
      P1  H  6896  6909       L1     6  0.42
      P1  H 10785 10796       L1    17  0.81

> <Gold.PLP.Chemscore.Internal.Correction>
0.0248

> <Gold.Rescore>
     Score         DG    S(hbond)    S(metal)    S(lipo)     H(rot)  DE(clash)    DE(int)     intcor
     17.90     -18.71       2.94        0.00      65.93       1.67       0.00       0.82       ----

> <Gold.Chemscore.Fitness>
17.8958

> <Gold.Chemscore.DG>
-18.7128

> <Gold.Chemscore.ZeroCoef>
-5.4800

> <Gold.Chemscore.Hbond>
2.9351

> <Gold.Chemscore.Metal>
0.0000

> <Gold.Chemscore.Lipo>
65.9345

> <Gold.Chemscore.Internal_Hbond>
0.0000

> <Gold.Chemscore.DEClash>
0.0000

> <Gold.Chemscore.DEInternal>
0.8169

> <Gold.Chemscore.Rot>
1.6737

> <Gold.Chemscore.Internal.Correction>
   9.000000E+99

> <Gold.Chemscore.Hbonds>
donor molecule, donor type, donor heavy atom, donor atom, acceptor molecule, acceptor atom, score
      L1  H    12    30       P1  7948  0.88
      L1  H    17    37       P1 10186  0.63
      P1  H  6896  6909       L1     6  0.37
      P1  H 10785 10796       L1    17  0.65

> <Gold.Chemscore.Hbond.Weighted>
-9.8032

> <Gold.Chemscore.Metal.Weighted>
-0.0000

> <Gold.Chemscore.Lipo.Weighted>
-7.7143

> <Gold.Chemscore.Internal_Hbond.Weighted>
0.0000

> <Gold.Chemscore.DEClash.Weighted>
0.0000

> <Gold.Chemscore.DEInternal.Weighted>
0.8169

> <Gold.Chemscore.Rot.Weighted>
4.2848

> <Gold.Chemscore.Internal.Correction.Weighted>
   9.000000E+99

> <Gold.Protein.RotatedTorsions>
[ 6907 6896 6895 6894 ] final  -29.16 input  -60.11 | X-H torsion
[ 7974 7965 7964 7962 ] final -129.22 input  175.53 | X-H torsion
[ 8008 7997 7996 7995 ] final  -89.38 input   59.86 | X-H torsion
[ 10167 10162 10161 10158 ] final  126.19 input  -65.29 | X-H torsion
[ 10718 10713 10712 10709 ] final -131.46 input   66.30 | X-H torsion
[ 10763 10752 10751 10750 ] final -122.83 input  -60.55 | X-H torsion
[ 11005 11000 10999 10996 ] final  162.83 input  -57.11 | X-H torsion

> <Gold.Protein.ActiveResidues>
 VAL166  LYS551  ARG553  GLY616  TRP617  ASP618  TYR619  PRO620  LYS621  CYS622 
 ASP623  PHE694  ASN695  SER759  ASP760  ASP761  ALA762  ILE779  LEU786  VAL792 
 PHE793  MET794  SER795  GLU796  ALA797  LYS798  CYS799  TRP800  GLU811  SER814 

> <Gold.Protein.RotatedAtoms>
  151.1230  135.0089  159.8546 H   0  0  0  0  0  0  0  0  0  0  0  0  # atno 6907 bound_to 6896
  152.5448  134.1700  159.8603 H   0  0  0  0  0  0  0  0  0  0  0  0  # atno 6908 bound_to 6896
  151.1760  133.4709  159.2627 H   0  0  0  0  0  0  0  0  0  0  0  0  # atno 6909 bound_to 6896
  144.9593  140.7429  143.4739 H   0  0  0  0  0  0  0  0  0  0  0  0  # atno 7974 bound_to 7965
  154.6859  140.0542  157.0314 H   0  0  0  0  0  0  0  0  0  0  0  0  # atno 8008 bound_to 7997
  155.0885  140.3217  155.4562 H   0  0  0  0  0  0  0  0  0  0  0  0  # atno 8009 bound_to 7997
  156.2711  140.2052  156.6013 H   0  0  0  0  0  0  0  0  0  0  0  0  # atno 8010 bound_to 7997
  139.5644  144.6902  151.3951 H   0  0  0  0  0  0  0  0  0  0  0  0  # atno 10167 bound_to 10162
  156.2247  130.7000  151.0794 H   0  0  0  0  0  0  0  0  0  0  0  0  # atno 10718 bound_to 10713
  154.8697  135.4119  154.2844 H   0  0  0  0  0  0  0  0  0  0  0  0  # atno 10763 bound_to 10752
  153.3731  135.7008  153.6628 H   0  0  0  0  0  0  0  0  0  0  0  0  # atno 10764 bound_to 10752
  153.5481  135.3634  155.2719 H   0  0  0  0  0  0  0  0  0  0  0  0  # atno 10765 bound_to 10752
  140.2297  134.8133  157.3305 H   0  0  0  0  0  0  0  0  0  0  0  0  # atno 11005 bound_to 11000
  145.2724  139.1949  143.4834 LP  0  0  0  0  0  0  0  0  0  0  0  0  # atno 17320 bound_to 7965
  146.3348  140.2673  142.8604 LP  0  0  0  0  0  0  0  0  0  0  0  0  # atno 17321 bound_to 7965
  140.6927  143.7823  150.7279 LP  0  0  0  0  0  0  0  0  0  0  0  0  # atno 17342 bound_to 10162
  140.1310  143.4525  152.2254 LP  0  0  0  0  0  0  0  0  0  0  0  0  # atno 17343 bound_to 10162
  157.7104  131.0736  150.6519 LP  0  0  0  0  0  0  0  0  0  0  0  0  # atno 17370 bound_to 10713
  156.6584  130.4505  149.5696 LP  0  0  0  0  0  0  0  0  0  0  0  0  # atno 17371 bound_to 10713
  140.1763  134.4545  155.7800 LP  0  0  0  0  0  0  0  0  0  0  0  0  # atno 17394 bound_to 11000
  141.2218  133.6964  156.7793 LP  0  0  0  0  0  0  0  0  0  0  0  0  # atno 17395 bound_to 11000

$$$$
