AV-unprocessed.smi:98|AV-procd|sdf|863|dock5
  -GOLD-   2262017313D 1   1.00000     0.00000
 Structure written by MMmdl.
 56 59  0  0  0  0  0  0  0  0  1 V2000
  151.6565  135.7938  155.8552 O   0  0  0  0  0  0  0  0  0  0  0  0
  151.3612  136.9318  156.2219 C   0  0  0  0  0  0  0  0  0  0  0  0
  152.2067  138.1372  155.7802 C   0  0  0  0  0  0  0  0  0  0  0  0
  151.5306  139.4390  155.9742 N   0  0  0  0  0  0  0  0  0  0  0  0
  150.7504  139.9596  154.9117 C   0  0  0  0  0  0  0  0  0  0  0  0
  150.6499  139.3600  153.8403 O   0  0  0  0  0  0  0  0  0  0  0  0
  150.0801  141.2256  155.1841 C   0  0  0  0  0  0  0  0  0  0  0  0
  149.3047  141.7855  154.2402 F   0  0  0  0  0  0  0  0  0  0  0  0
  150.2222  141.8440  156.3743 C   0  0  0  0  0  0  0  0  0  0  0  0
  151.0050  141.3388  157.3935 N   0  0  0  0  0  0  0  0  0  0  0  0
  151.0700  142.0786  158.7096 C   0  0  2  0  0  0  0  0  0  0  0  0
  150.2098  143.3560  158.7418 C   0  0  0  0  0  0  0  0  0  0  0  0
  151.2252  144.4415  159.0598 C   0  0  0  0  0  0  0  0  0  0  0  0
  152.3726  143.6598  159.6901 C   0  0  0  0  0  0  0  0  0  0  0  0
  152.3926  142.4513  158.9468 O   0  0  0  0  0  0  0  0  0  0  0  0
  151.6560  140.0950  157.2225 C   0  0  0  0  0  0  0  0  0  0  0  0
  152.3094  139.5899  158.1367 O   0  0  0  0  0  0  0  0  0  0  0  0
  150.3224  137.2293  157.0239 N   0  0  0  0  0  0  0  0  0  0  0  0
  149.3692  136.3531  157.6105 C   0  0  0  0  0  0  0  0  0  0  0  0
  148.8286  136.7337  158.8574 C   0  0  0  0  0  0  0  0  0  0  0  0
  147.8678  135.9280  159.4977 C   0  0  0  0  0  0  0  0  0  0  0  0
  147.4310  134.7407  158.8789 C   0  0  0  0  0  0  0  0  0  0  0  0
  146.2115  133.7107  159.6896 S   0  0  0  0  0  0  0  0  0  0  0  0
  145.5037  132.9343  158.6595 O   0  0  0  0  0  0  0  0  0  0  0  0
  146.8637  133.0170  160.8115 O   0  0  0  0  0  0  0  0  0  0  0  0
  145.0864  134.8585  160.3561 N   0  0  0  0  0  0  0  0  0  0  0  0
  144.3394  135.7542  159.4558 C   0  0  0  0  0  0  0  0  0  0  0  0
  144.9487  137.1676  159.4499 C   0  0  0  0  0  0  0  0  0  0  0  0
  145.0437  137.6627  160.7779 O   0  0  0  0  0  0  0  0  0  0  0  0
  145.8991  136.8615  161.5802 C   0  0  0  0  0  0  0  0  0  0  0  0
  145.3353  135.4336  161.6895 C   0  0  0  0  0  0  0  0  0  0  0  0
  147.9564  134.3513  157.6317 C   0  0  0  0  0  0  0  0  0  0  0  0
  148.9165  135.1601  156.9940 C   0  0  0  0  0  0  0  0  0  0  0  0
  153.1578  138.1015  156.3137 H   0  0  0  0  0  0  0  0  0  0  0  0
  152.4874  138.0043  154.7339 H   0  0  0  0  0  0  0  0  0  0  0  0
  149.6993  142.7768  156.5272 H   0  0  0  0  0  0  0  0  0  0  0  0
  150.7571  141.3640  159.4723 H   0  0  0  0  0  0  0  0  0  0  0  0
  149.6797  143.5292  157.8048 H   0  0  0  0  0  0  0  0  0  0  0  0
  149.4748  143.2591  159.5414 H   0  0  0  0  0  0  0  0  0  0  0  0
  151.5636  144.9205  158.1407 H   0  0  0  0  0  0  0  0  0  0  0  0
  150.8290  145.2163  159.7163 H   0  0  0  0  0  0  0  0  0  0  0  0
  153.3252  144.1864  159.6300 H   0  0  0  0  0  0  0  0  0  0  0  0
  152.1639  143.4402  160.7383 H   0  0  0  0  0  0  0  0  0  0  0  0
  150.2513  138.1959  157.3068 H   0  0  0  0  0  0  0  0  0  0  0  0
  149.1545  137.6476  159.3330 H   0  0  0  0  0  0  0  0  0  0  0  0
  147.4652  136.2290  160.4536 H   0  0  0  0  0  0  0  0  0  0  0  0
  144.3068  135.3454  158.4462 H   0  0  0  0  0  0  0  0  0  0  0  0
  143.3073  135.8071  159.8033 H   0  0  0  0  0  0  0  0  0  0  0  0
  145.9317  137.1754  158.9795 H   0  0  0  0  0  0  0  0  0  0  0  0
  144.3190  137.8410  158.8684 H   0  0  0  0  0  0  0  0  0  0  0  0
  146.9065  136.8602  161.1640 H   0  0  0  0  0  0  0  0  0  0  0  0
  145.9706  137.3095  162.5713 H   0  0  0  0  0  0  0  0  0  0  0  0
  144.3906  135.4588  162.2335 H   0  0  0  0  0  0  0  0  0  0  0  0
  146.0078  134.7971  162.2638 H   0  0  0  0  0  0  0  0  0  0  0  0
  147.6174  133.4438  157.1542 H   0  0  0  0  0  0  0  0  0  0  0  0
  149.2805  134.8506  156.0267 H   0  0  0  0  0  0  0  0  0  0  0  0
  1  2  2  0  0  0  0
  2  3  1  0  0  0  0
  2 18  1  0  0  0  0
  3  4  1  0  0  0  0
  3 34  1  0  0  0  0
  3 35  1  0  0  0  0
  4 16  1  0  0  0  0
  4  5  1  0  0  0  0
  5  6  2  0  0  0  0
  5  7  1  0  0  0  0
  7  8  1  0  0  0  0
  7  9  2  0  0  0  0
  9 10  1  0  0  0  0
  9 36  1  0  0  0  0
 10 11  1  0  0  0  0
 10 16  1  0  0  0  0
 11 15  1  0  0  0  0
 11 12  1  0  0  0  0
 11 37  1  0  0  0  0
 12 13  1  0  0  0  0
 12 38  1  0  0  0  0
 12 39  1  0  0  0  0
 13 14  1  0  0  0  0
 13 40  1  0  0  0  0
 13 41  1  0  0  0  0
 14 15  1  0  0  0  0
 14 42  1  0  0  0  0
 14 43  1  0  0  0  0
 16 17  2  0  0  0  0
 18 19  1  0  0  0  0
 18 44  1  0  0  0  0
 19 33  1  0  0  0  0
 19 20  2  0  0  0  0
 20 21  1  0  0  0  0
 20 45  1  0  0  0  0
 21 22  2  0  0  0  0
 21 46  1  0  0  0  0
 22 23  1  0  0  0  0
 22 32  1  0  0  0  0
 23 24  2  0  0  0  0
 23 25  2  0  0  0  0
 23 26  1  0  0  0  0
 26 31  1  0  0  0  0
 26 27  1  0  0  0  0
 27 28  1  0  0  0  0
 27 47  1  0  0  0  0
 27 48  1  0  0  0  0
 28 29  1  0  0  0  0
 28 49  1  0  0  0  0
 28 50  1  0  0  0  0
 29 30  1  0  0  0  0
 30 31  1  0  0  0  0
 30 51  1  0  0  0  0
 30 52  1  0  0  0  0
 31 53  1  0  0  0  0
 31 54  1  0  0  0  0
 32 33  2  0  0  0  0
 32 55  1  0  0  0  0
 33 56  1  0  0  0  0
M  END
> <s_m_source_file>
AV-unprocessed.smi

> <i_m_source_file_index>
98

> <i_lp_mmshare_version>
43012

> <i_f3d_flags>
0

> <s_epik_input>
TzFbQ0gyXVtDSDJdW0NIMl1bQ0BIXTFuKGMyPU8pW2NIXWMoRiljKD1PKW4yW0NIMl1DKD1PKVtOSF1jM1tjSF1bY0hdYyhbY0hdW2NIXTMpUyg9TykoPU8pTjRbQ0gyXVtDSDJdT1tDSDJdW0NIMl00

> <s_epik_cmdline>
J2VwaWtfcHl0aG9uJywgJy1waCcsICc3LjAnLCAnLXRuJywgJzgnLCAnLW1hJywgJzIwMCcsICctbWV0YWxfYmluZGluZycsICctaW1hZScsICc8aW5maWxlLm1hZT4nLCAnLW9tYWUnLCAnPG91dGZpbGUubWFlPic=

> <r_lp_tautomer_probability>
1

> <r_epik_Ionization_Penalty>
1.9271e-06

> <r_epik_Ionization_Penalty_Charging>
3.88729e-08

> <r_epik_Ionization_Penalty_Neutral>
1.88823e-06

> <r_epik_State_Penalty>
-0

> <r_epik_Charging_Adjusted_Penalty>
3.88729e-08

> <i_epik_Tot_Q>
0

> <i_epik_Tot_abs_Q>
0

> <r_epik_Metal_State_Penalty>
-0

> <b_epik_Metal_Only>
0

> <s_epik_Chemistry_Notes>
This compound contains an acetal/aminal-like group ( X-CH(R)-Y where X, Y are N, S, or O) that may be acid/base labile, releasing an aldehyde.

> <s_lp_Force_Field>
OPLS_2005

> <r_lp_Energy>
27.1293

> <b_lp_Chiralities_Consistent>
1

> <s_lp_Variant>
AV-unprocessed.smi:98-1

> <Gold.Version>
5.8.1

> <Gold.Id.Protein>
6NUR|6NUR_protein|mol2

> <Gold.PLP.Fitness>
56.2748

> <Gold.PLP.PLP>
-50.8643

> <Gold.PLP.part.hbond>
-3.6511

> <Gold.PLP.part.metal>
0.0000

> <Gold.PLP.part.buried>
-3.5870

> <Gold.PLP.part.nonpolar>
-45.4726

> <Gold.PLP.part.repulsive>
0.5411

> <Gold.PLP.ligand.clash>
0.0000

> <Gold.PLP.ligand.torsion>
3.0011

> <Gold.PLP.Chemscore.Hbond>
1.4292

> <Gold.PLP.Chemscore.CHOScore>
1.0000

> <Gold.PLP.Chemscore.Metal>
0.0000

> <Gold.Chemscore.Hbonds>
donor molecule, donor type, donor heavy atom, donor atom, acceptor molecule, acceptor atom, score
      P1  H 10752 10764       L1     1  1.00
      L1  C     9    36       P1  8028  1.00

> <Gold.PLP.Chemscore.Internal.Correction>
4.1252

> <Gold.Rescore>
     Score         DG    S(hbond)    S(metal)    S(lipo)     H(rot)  DE(clash)    DE(int)     intcor
     12.73     -17.68       1.31        0.00     103.55       1.67       0.22       4.74       ----

> <Gold.Chemscore.Fitness>
12.7273

> <Gold.Chemscore.DG>
-17.6842

> <Gold.Chemscore.ZeroCoef>
-5.4800

> <Gold.Chemscore.Hbond>
1.3101

> <Gold.Chemscore.Metal>
0.0000

> <Gold.Chemscore.Lipo>
103.5474

> <Gold.Chemscore.Internal_Hbond>
0.0000

> <Gold.Chemscore.DEClash>
0.2165

> <Gold.Chemscore.DEInternal>
4.7403

> <Gold.Chemscore.Rot>
1.6744

> <Gold.Chemscore.Internal.Correction>
   9.000000E+99

> <Gold.Chemscore.Hbonds>
donor molecule, donor type, donor heavy atom, donor atom, acceptor molecule, acceptor atom, score
      P1  H 10752 10764       L1     1  0.98

> <Gold.Chemscore.Hbond.Weighted>
-4.3756

> <Gold.Chemscore.Metal.Weighted>
-0.0000

> <Gold.Chemscore.Lipo.Weighted>
-12.1150

> <Gold.Chemscore.Internal_Hbond.Weighted>
0.0000

> <Gold.Chemscore.DEClash.Weighted>
0.2165

> <Gold.Chemscore.DEInternal.Weighted>
4.7403

> <Gold.Chemscore.Rot.Weighted>
4.2865

> <Gold.Chemscore.Internal.Correction.Weighted>
   9.000000E+99

> <Gold.Protein.RotatedTorsions>
[ 6907 6896 6895 6894 ] final  -48.13 input  -60.11 | X-H torsion
[ 7974 7965 7964 7962 ] final -144.05 input  175.53 | X-H torsion
[ 8008 7997 7996 7995 ] final    8.47 input   59.86 | X-H torsion
[ 10167 10162 10161 10158 ] final   86.47 input  -65.29 | X-H torsion
[ 10718 10713 10712 10709 ] final  -70.18 input   66.30 | X-H torsion
[ 10763 10752 10751 10750 ] final  -42.18 input  -60.55 | X-H torsion
[ 11005 11000 10999 10996 ] final  137.04 input  -57.11 | X-H torsion

> <Gold.Protein.ActiveResidues>
 VAL166  LYS551  ARG553  GLY616  TRP617  ASP618  TYR619  PRO620  LYS621  CYS622 
 ASP623  PHE694  ASN695  SER759  ASP760  ASP761  ALA762  ILE779  LEU786  VAL792 
 PHE793  MET794  SER795  GLU796  ALA797  LYS798  CYS799  TRP800  GLU811  SER814 

> <Gold.Protein.RotatedAtoms>
  150.8937  134.8343  159.7310 H   0  0  0  0  0  0  0  0  0  0  0  0  # atno 6907 bound_to 6896
  152.4852  134.4609  159.9615 H   0  0  0  0  0  0  0  0  0  0  0  0  # atno 6908 bound_to 6896
  151.4669  133.3540  159.2853 H   0  0  0  0  0  0  0  0  0  0  0  0  # atno 6909 bound_to 6896
  144.8325  140.5758  143.5506 H   0  0  0  0  0  0  0  0  0  0  0  0  # atno 7974 bound_to 7965
  154.7673  140.2795  155.6166 H   0  0  0  0  0  0  0  0  0  0  0  0  # atno 8008 bound_to 7997
  156.2927  140.2648  156.2394 H   0  0  0  0  0  0  0  0  0  0  0  0  # atno 8009 bound_to 7997
  154.9944  140.0373  157.2323 H   0  0  0  0  0  0  0  0  0  0  0  0  # atno 8010 bound_to 7997
  139.8872  144.6406  150.8778 H   0  0  0  0  0  0  0  0  0  0  0  0  # atno 10167 bound_to 10162
  156.0420  130.4326  150.2257 H   0  0  0  0  0  0  0  0  0  0  0  0  # atno 10718 bound_to 10713
  153.9747  135.6724  153.4748 H   0  0  0  0  0  0  0  0  0  0  0  0  # atno 10763 bound_to 10752
  153.0776  135.4940  154.8433 H   0  0  0  0  0  0  0  0  0  0  0  0  # atno 10764 bound_to 10752
  154.7199  135.3115  154.9026 H   0  0  0  0  0  0  0  0  0  0  0  0  # atno 10765 bound_to 10752
  140.0087  134.9448  157.0230 H   0  0  0  0  0  0  0  0  0  0  0  0  # atno 11005 bound_to 11000
  145.4865  139.1491  143.3733 LP  0  0  0  0  0  0  0  0  0  0  0  0  # atno 17320 bound_to 7965
  146.2627  140.5002  142.8847 LP  0  0  0  0  0  0  0  0  0  0  0  0  # atno 17321 bound_to 7965
  140.7733  143.3538  151.1961 LP  0  0  0  0  0  0  0  0  0  0  0  0  # atno 17342 bound_to 10162
  139.7142  143.9327  152.2960 LP  0  0  0  0  0  0  0  0  0  0  0  0  # atno 17343 bound_to 10162
  157.0351  131.0018  151.3300 LP  0  0  0  0  0  0  0  0  0  0  0  0  # atno 17370 bound_to 10713
  157.5250  130.8022  149.7851 LP  0  0  0  0  0  0  0  0  0  0  0  0  # atno 17371 bound_to 10713
  140.4594  134.1500  155.7189 LP  0  0  0  0  0  0  0  0  0  0  0  0  # atno 17394 bound_to 11000
  141.1695  133.8636  157.1613 LP  0  0  0  0  0  0  0  0  0  0  0  0  # atno 17395 bound_to 11000

$$$$
