AV-unprocessed.smi:2568|AV-procd|sdf|10097|dock4
  -GOLD-   2272014113D 1   1.00000     0.00000
 Structure written by MMmdl.
 24 25  0  0  0  0  0  0  0  0  1 V2000
  152.4634  142.6249  160.5635 C   0  0  0  0  0  0  0  0  0  0  0  0
  151.7988  142.7466  159.2347 C   0  0  0  0  0  0  0  0  0  0  0  0
  151.1109  143.8375  158.9018 N   0  0  0  0  0  0  0  0  0  0  0  0
  150.6907  143.5334  157.6558 N   0  0  0  0  0  0  0  0  0  0  0  0
  151.1308  142.3178  157.3231 C   0  0  0  0  0  0  0  0  0  0  0  0
  150.8339  141.7052  155.9907 C   0  0  1  0  0  0  0  0  0  0  0  0
  151.3727  140.2661  155.8720 C   0  0  0  0  0  0  0  0  0  0  0  0
  150.9846  139.6858  154.5876 N   0  0  0  0  0  0  0  0  0  0  0  0
  149.5363  139.7477  154.3969 C   0  0  0  0  0  0  0  0  0  0  0  0
  149.0354  141.1944  154.5603 C   0  0  0  0  0  0  0  0  0  0  0  0
  149.4169  141.6915  155.8386 O   0  0  0  0  0  0  0  0  0  0  0  0
  151.8523  141.7591  158.2910 N   0  0  0  0  0  0  0  0  0  0  0  0
  150.1286  144.1575  157.0948 H   0  0  0  0  0  0  0  0  0  0  0  0
  152.4808  143.5854  161.0799 H   0  0  0  0  0  0  0  0  0  0  0  0
  153.4910  142.2813  160.4422 H   0  0  0  0  0  0  0  0  0  0  0  0
  151.9292  141.9072  161.1861 H   0  0  0  0  0  0  0  0  0  0  0  0
  151.2743  142.3358  155.2157 H   0  0  0  0  0  0  0  0  0  0  0  0
  152.4585  140.2612  155.9722 H   0  0  0  0  0  0  0  0  0  0  0  0
  150.9790  139.6560  156.6860 H   0  0  0  0  0  0  0  0  0  0  0  0
  151.2919  138.7192  154.5444 H   0  0  0  0  0  0  0  0  0  0  0  0
  149.2722  139.3677  153.4098 H   0  0  0  0  0  0  0  0  0  0  0  0
  149.0385  139.1048  155.1237 H   0  0  0  0  0  0  0  0  0  0  0  0
  149.4305  141.8370  153.7718 H   0  0  0  0  0  0  0  0  0  0  0  0
  147.9487  141.2255  154.4804 H   0  0  0  0  0  0  0  0  0  0  0  0
  1  2  1  0  0  0  0
  1 14  1  0  0  0  0
  1 15  1  0  0  0  0
  1 16  1  0  0  0  0
  2 12  1  0  0  0  0
  2  3  2  0  0  0  0
  3  4  1  0  0  0  0
  4 13  1  0  0  0  0
  4  5  1  0  0  0  0
  5  6  1  0  0  0  0
  5 12  2  0  0  0  0
  6 11  1  0  0  0  0
  6  7  1  0  0  0  0
  6 17  1  0  0  0  0
  7  8  1  0  0  0  0
  7 18  1  0  0  0  0
  7 19  1  0  0  0  0
  8  9  1  0  0  0  0
  8 20  1  0  0  0  0
  9 10  1  0  0  0  0
  9 21  1  0  0  0  0
  9 22  1  0  0  0  0
 10 11  1  0  0  0  0
 10 23  1  0  0  0  0
 10 24  1  0  0  0  0
M  END
> <s_m_source_file>
AV-unprocessed.smi

> <i_m_source_file_index>
2568

> <i_lp_mmshare_version>
43012

> <i_f3d_flags>
0

> <s_epik_input>
W0NIM11jMW5bbkhdYyhuMSlbQ0BASF0yW0NIMl1bTkhdW0NIMl1bQ0gyXU8y

> <s_epik_cmdline>
J2VwaWtfcHl0aG9uJywgJy1waCcsICc3LjAnLCAnLXRuJywgJzgnLCAnLW1hJywgJzIwMCcsICctbWV0YWxfYmluZGluZycsICctaW1hZScsICc8aW5maWxlLm1hZT4nLCAnLW9tYWUnLCAnPG91dGZpbGUubWFlPic=

> <r_lp_tautomer_probability>
0.948284

> <r_epik_Ionization_Penalty>
0.982563

> <r_epik_Ionization_Penalty_Charging>
0

> <r_epik_Ionization_Penalty_Neutral>
0.982563

> <r_epik_State_Penalty>
2.21233

> <r_epik_Charging_Adjusted_Penalty>
2.21233

> <i_epik_Tot_Q>
0

> <i_epik_Tot_abs_Q>
0

> <r_epik_Metal_State_Penalty>
2.51138

> <b_epik_Metal_Only>
0

> <s_lp_Force_Field>
OPLS_2005

> <r_lp_Energy>
12.795

> <b_lp_Chiralities_Consistent>
1

> <s_lp_Variant>
AV-unprocessed.smi:2568-10

> <Gold.Version>
5.8.1

> <Gold.Id.Protein>
6NUR|6NUR_protein|mol2

> <Gold.PLP.Fitness>
30.6558

> <Gold.PLP.PLP>
-24.7229

> <Gold.PLP.part.hbond>
-2.0000

> <Gold.PLP.part.metal>
0.0000

> <Gold.PLP.part.buried>
-4.8586

> <Gold.PLP.part.nonpolar>
-18.3108

> <Gold.PLP.part.repulsive>
0.5711

> <Gold.PLP.ligand.clash>
0.0000

> <Gold.PLP.ligand.torsion>
0.0340

> <Gold.PLP.Chemscore.Hbond>
2.0000

> <Gold.PLP.Chemscore.CHOScore>
0.0000

> <Gold.PLP.Chemscore.Metal>
0.0000

> <Gold.Chemscore.Hbonds>
donor molecule, donor type, donor heavy atom, donor atom, acceptor molecule, acceptor atom, score
      L1  H     4    13       P1  8028  1.00
      P1  H  7989  7998       L1     8  1.00

> <Gold.PLP.Chemscore.Internal.Correction>
0.0008

> <Gold.Rescore>
     Score         DG    S(hbond)    S(metal)    S(lipo)     H(rot)  DE(clash)    DE(int)     intcor
     11.24     -11.26       1.05        0.00      41.43       1.00       0.01       0.00       ----

> <Gold.Chemscore.Fitness>
11.2440

> <Gold.Chemscore.DG>
-11.2634

> <Gold.Chemscore.ZeroCoef>
-5.4800

> <Gold.Chemscore.Hbond>
1.0468

> <Gold.Chemscore.Metal>
0.0000

> <Gold.Chemscore.Lipo>
41.4289

> <Gold.Chemscore.Internal_Hbond>
0.0000

> <Gold.Chemscore.DEClash>
0.0149

> <Gold.Chemscore.DEInternal>
0.0046

> <Gold.Chemscore.Rot>
1.0000

> <Gold.Chemscore.Internal.Correction>
   9.000000E+99

> <Gold.Chemscore.Hbonds>
donor molecule, donor type, donor heavy atom, donor atom, acceptor molecule, acceptor atom, score
      L1  H     4    13       P1  8028  0.84
      P1  H  7989  7998       L1     8  0.15

> <Gold.Chemscore.Hbond.Weighted>
-3.4963

> <Gold.Chemscore.Metal.Weighted>
-0.0000

> <Gold.Chemscore.Lipo.Weighted>
-4.8472

> <Gold.Chemscore.Internal_Hbond.Weighted>
0.0000

> <Gold.Chemscore.DEClash.Weighted>
0.0149

> <Gold.Chemscore.DEInternal.Weighted>
0.0046

> <Gold.Chemscore.Rot.Weighted>
2.5600

> <Gold.Chemscore.Internal.Correction.Weighted>
   9.000000E+99

> <Gold.Protein.RotatedTorsions>
[ 6907 6896 6895 6894 ] final  130.34 input  -60.11 | X-H torsion
[ 7974 7965 7964 7962 ] final   58.00 input  175.53 | X-H torsion
[ 8008 7997 7996 7995 ] final   17.54 input   59.86 | X-H torsion
[ 10167 10162 10161 10158 ] final  155.96 input  -65.29 | X-H torsion
[ 10718 10713 10712 10709 ] final  -99.66 input   66.30 | X-H torsion
[ 10763 10752 10751 10750 ] final -155.75 input  -60.55 | X-H torsion
[ 11005 11000 10999 10996 ] final   16.70 input  -57.11 | X-H torsion

> <Gold.Protein.ActiveResidues>
 VAL166  LYS551  ARG553  GLY616  TRP617  ASP618  TYR619  PRO620  LYS621  CYS622 
 ASP623  PHE694  ASN695  SER759  ASP760  ASP761  ALA762  ILE779  LEU786  VAL792 
 PHE793  MET794  SER795  GLU796  ALA797  LYS798  CYS799  TRP800  GLU811  SER814 

> <Gold.Protein.RotatedAtoms>
  152.3535  133.6209  159.5962 H   0  0  0  0  0  0  0  0  0  0  0  0  # atno 6907 bound_to 6896
  150.7553  133.9536  159.3502 H   0  0  0  0  0  0  0  0  0  0  0  0  # atno 6908 bound_to 6896
  151.7385  135.0860  160.0363 H   0  0  0  0  0  0  0  0  0  0  0  0  # atno 6909 bound_to 6896
  145.9230  139.3744  143.0467 H   0  0  0  0  0  0  0  0  0  0  0  0  # atno 7974 bound_to 7965
  154.8929  140.2989  155.5360 H   0  0  0  0  0  0  0  0  0  0  0  0  # atno 8008 bound_to 7997
  156.3020  140.2421  156.3882 H   0  0  0  0  0  0  0  0  0  0  0  0  # atno 8009 bound_to 7997
  154.8599  140.0406  157.1647 H   0  0  0  0  0  0  0  0  0  0  0  0  # atno 8010 bound_to 7997
  139.4821  144.5052  151.8109 H   0  0  0  0  0  0  0  0  0  0  0  0  # atno 10167 bound_to 10162
  156.0140  130.5293  150.6703 H   0  0  0  0  0  0  0  0  0  0  0  0  # atno 10718 bound_to 10713
  154.7764  135.3161  154.8083 H   0  0  0  0  0  0  0  0  0  0  0  0  # atno 10763 bound_to 10752
  153.8805  135.6835  153.4771 H   0  0  0  0  0  0  0  0  0  0  0  0  # atno 10764 bound_to 10752
  153.1389  135.4748  154.9401 H   0  0  0  0  0  0  0  0  0  0  0  0  # atno 10765 bound_to 10752
  140.4442  134.1290  155.7694 H   0  0  0  0  0  0  0  0  0  0  0  0  # atno 11005 bound_to 11000
  145.8526  140.9520  143.0742 LP  0  0  0  0  0  0  0  0  0  0  0  0  # atno 17320 bound_to 7965
  144.6755  140.0426  143.7480 LP  0  0  0  0  0  0  0  0  0  0  0  0  # atno 17321 bound_to 7965
  140.4549  144.1804  150.5900 LP  0  0  0  0  0  0  0  0  0  0  0  0  # atno 17342 bound_to 10162
  140.4546  143.2473  151.9302 LP  0  0  0  0  0  0  0  0  0  0  0  0  # atno 17343 bound_to 10162
  157.4427  131.0863  151.0927 LP  0  0  0  0  0  0  0  0  0  0  0  0  # atno 17370 bound_to 10713
  157.1466  130.6166  149.5570 LP  0  0  0  0  0  0  0  0  0  0  0  0  # atno 17371 bound_to 10713
  141.1692  133.8642  157.1622 LP  0  0  0  0  0  0  0  0  0  0  0  0  # atno 17394 bound_to 11000
  140.0049  135.0012  157.0271 LP  0  0  0  0  0  0  0  0  0  0  0  0  # atno 17395 bound_to 11000

$$$$
