AV-unprocessed.smi:193|AV-procd|sdf|1502|dock10
  -GOLD-   2262019333D 1   1.00000     0.00000
 Structure written by MMmdl.
 62 66  0  0  0  0  0  0  0  0  2 V2000
  146.5053  128.6812  152.8831 C   0  0  0  0  0  0  0  0  0  0  0  0
  146.8937  130.1582  152.7162 C   0  0  2  0  0  0  0  0  0  0  0  0
  147.0268  130.8458  154.0887 C   0  0  0  0  0  0  0  0  0  0  0  0
  147.9971  131.9385  154.0564 N   0  0  0  0  0  0  0  0  0  0  0  0
  148.5376  132.1891  155.2670 C   0  0  0  0  0  0  0  0  0  0  0  0
  149.8838  132.3284  155.3347 N   0  0  0  0  0  0  0  0  0  0  0  0
  150.4685  132.5733  156.5120 C   0  0  0  0  0  0  0  0  0  0  0  0
  149.9018  132.7147  157.7129 N   0  0  0  0  0  0  0  0  0  0  0  0
  148.5464  132.5759  157.6434 C   0  0  0  0  0  0  0  0  0  0  0  0
  147.7877  132.3125  156.4695 C   0  0  0  0  0  0  0  0  0  0  0  0
  146.4359  132.2348  156.7816 N   0  0  0  0  0  0  0  0  0  0  0  0
  146.3975  132.4441  158.0698 C   0  0  0  0  0  0  0  0  0  0  0  0
  147.6189  132.6637  158.6668 N   0  0  0  0  0  0  0  0  0  0  0  0
  147.8650  132.9248  160.0771 C   0  0  0  0  0  0  0  0  0  0  0  0
  147.3995  134.3257  160.5461 C   0  0  0  0  0  0  0  0  0  0  0  0
  146.0009  134.4077  160.3314 O   0  0  0  0  0  0  0  0  0  0  0  0
  147.6715  134.5091  162.0530 C   0  0  0  0  0  0  0  0  0  0  0  0
  147.3817  135.9454  162.5251 C   0  0  0  0  0  0  0  0  0  0  0  0
  148.1287  136.8732  161.7481 O   0  0  0  0  0  0  0  0  0  0  0  0
  147.7715  136.8509  160.3717 C   0  0  0  0  0  0  0  0  0  0  0  0
  148.0815  135.4707  159.7656 C   0  0  0  0  0  0  0  0  0  0  0  0
  147.6783  133.1645  153.3310 C   0  0  0  0  0  0  0  0  0  0  0  0
  147.2896  132.9291  151.8636 C   0  0  0  0  0  0  0  0  0  0  0  0
  145.9304  132.3432  151.7755 N   0  3  1  0  0  0  0  0  0  0  0  0
  145.1383  132.9201  150.6637 C   0  0  1  0  0  0  0  0  0  0  0  0
  143.6566  132.6298  150.7486 C   0  0  0  0  0  0  0  0  0  0  0  0
  144.1694  134.0179  151.0654 C   0  0  1  0  0  0  0  0  0  0  0  0
  144.0673  134.5660  152.4772 C   0  0  0  0  0  0  0  0  0  0  0  0
  145.8927  130.8569  151.7657 C   0  0  0  0  0  0  0  0  0  0  0  0
  145.5380  128.5772  153.3754 H   0  0  0  0  0  0  0  0  0  0  0  0
  147.2422  128.1457  153.4828 H   0  0  0  0  0  0  0  0  0  0  0  0
  146.4443  128.1785  151.9173 H   0  0  0  0  0  0  0  0  0  0  0  0
  147.8778  130.1586  152.2446 H   0  0  0  0  0  0  0  0  0  0  0  0
  146.0573  131.2060  154.4357 H   0  0  0  0  0  0  0  0  0  0  0  0
  147.3625  130.1111  154.8233 H   0  0  0  0  0  0  0  0  0  0  0  0
  151.5442  132.6691  156.4893 H   0  0  0  0  0  0  0  0  0  0  0  0
  145.4705  132.4504  158.6248 H   0  0  0  0  0  0  0  0  0  0  0  0
  147.3710  132.1456  160.6595 H   0  0  0  0  0  0  0  0  0  0  0  0
  148.9337  132.8062  160.2609 H   0  0  0  0  0  0  0  0  0  0  0  0
  145.8454  134.9603  159.5806 H   0  0  0  0  0  0  0  0  0  0  0  0
  147.0866  133.7979  162.6381 H   0  0  0  0  0  0  0  0  0  0  0  0
  148.7187  134.2847  162.2603 H   0  0  0  0  0  0  0  0  0  0  0  0
  146.3168  136.1743  162.4623 H   0  0  0  0  0  0  0  0  0  0  0  0
  147.6657  136.0574  163.5715 H   0  0  0  0  0  0  0  0  0  0  0  0
  146.7167  137.1039  160.2541 H   0  0  0  0  0  0  0  0  0  0  0  0
  148.3393  137.6214  159.8499 H   0  0  0  0  0  0  0  0  0  0  0  0
  149.1618  135.3214  159.7810 H   0  0  0  0  0  0  0  0  0  0  0  0
  147.7853  135.4580  158.7161 H   0  0  0  0  0  0  0  0  0  0  0  0
  146.8822  133.7049  153.8442 H   0  0  0  0  0  0  0  0  0  0  0  0
  148.5557  133.8130  153.3560 H   0  0  0  0  0  0  0  0  0  0  0  0
  147.2880  133.9030  151.3719 H   0  0  0  0  0  0  0  0  0  0  0  0
  148.0266  132.3286  151.3289 H   0  0  0  0  0  0  0  0  0  0  0  0
  145.6311  132.9456  149.6933 H   0  0  0  0  0  0  0  0  0  0  0  0
  143.1146  132.5030  149.8135 H   0  0  0  0  0  0  0  0  0  0  0  0
  143.2942  132.0246  151.5779 H   0  0  0  0  0  0  0  0  0  0  0  0
  143.9902  134.7740  150.3032 H   0  0  0  0  0  0  0  0  0  0  0  0
  144.1250  133.7690  153.2191 H   0  0  0  0  0  0  0  0  0  0  0  0
  143.1154  135.0813  152.6068 H   0  0  0  0  0  0  0  0  0  0  0  0
  144.8722  135.2774  152.6632 H   0  0  0  0  0  0  0  0  0  0  0  0
  146.0706  130.5008  150.7498 H   0  0  0  0  0  0  0  0  0  0  0  0
  144.8760  130.5558  152.0213 H   0  0  0  0  0  0  0  0  0  0  0  0
  145.4622  132.6318  152.6226 H   0  0  0  0  0  0  0  0  0  0  0  0
  1  2  1  0  0  0  0
  1 30  1  0  0  0  0
  1 31  1  0  0  0  0
  1 32  1  0  0  0  0
  2 29  1  0  0  0  0
  2  3  1  0  0  0  0
  2 33  1  0  0  0  0
  3  4  1  0  0  0  0
  3 34  1  0  0  0  0
  3 35  1  0  0  0  0
  4  5  1  0  0  0  0
  4 22  1  0  0  0  0
  5 10  1  0  0  0  0
  5  6  2  0  0  0  0
  6  7  1  0  0  0  0
  7  8  2  0  0  0  0
  7 36  1  0  0  0  0
  8  9  1  0  0  0  0
  9 13  1  0  0  0  0
  9 10  2  0  0  0  0
 10 11  1  0  0  0  0
 11 12  2  0  0  0  0
 12 13  1  0  0  0  0
 12 37  1  0  0  0  0
 13 14  1  0  0  0  0
 14 15  1  0  0  0  0
 14 38  1  0  0  0  0
 14 39  1  0  0  0  0
 15 21  1  0  0  0  0
 15 16  1  0  0  0  0
 15 17  1  0  0  0  0
 16 40  1  0  0  0  0
 17 18  1  0  0  0  0
 17 41  1  0  0  0  0
 17 42  1  0  0  0  0
 18 19  1  0  0  0  0
 18 43  1  0  0  0  0
 18 44  1  0  0  0  0
 19 20  1  0  0  0  0
 20 21  1  0  0  0  0
 20 45  1  0  0  0  0
 20 46  1  0  0  0  0
 21 47  1  0  0  0  0
 21 48  1  0  0  0  0
 22 23  1  0  0  0  0
 22 49  1  0  0  0  0
 22 50  1  0  0  0  0
 23 24  1  0  0  0  0
 23 51  1  0  0  0  0
 23 52  1  0  0  0  0
 24 25  1  0  0  0  0
 24 29  1  0  0  0  0
 24 62  1  0  0  0  0
 25 27  1  0  0  0  0
 25 26  1  0  0  0  0
 25 53  1  0  0  0  0
 26 27  1  0  0  0  0
 26 54  1  0  0  0  0
 26 55  1  0  0  0  0
 27 28  1  0  0  0  0
 27 56  1  0  0  0  0
 28 57  1  0  0  0  0
 28 58  1  0  0  0  0
 28 59  1  0  0  0  0
 29 60  1  0  0  0  0
 29 61  1  0  0  0  0
M  CHG  1  24   1
M  END
> <s_m_source_file>
AV-unprocessed.smi

> <i_m_source_file_index>
193

> <i_lp_mmshare_version>
43012

> <i_f3d_flags>
0

> <s_epik_input>
W0NIM11bQ0BASF0xW0NIMl1bQ0BIXTFOKFtDSDJdMilbQ0gyXVtDSDJdTihbQ0gyXVtDQEhdMltDSDNdKWMobltjSF1uMyljKGMzNCluW2NIXW40W0NIMl1DNShbT0hdKVtDSDJdW0NIMl1PW0NIMl1bQ0gyXTU=

> <s_epik_cmdline>
J2VwaWtfcHl0aG9uJywgJy1waCcsICc3LjAnLCAnLXRuJywgJzgnLCAnLW1hJywgJzIwMCcsICctbWV0YWxfYmluZGluZycsICctaW1hZScsICc8aW5maWxlLm1hZT4nLCAnLW9tYWUnLCAnPG91dGZpbGUubWFlPic=

> <r_lp_tautomer_probability>
1

> <r_epik_Ionization_Penalty>
0.0540825

> <r_epik_Ionization_Penalty_Charging>
0.0538476

> <r_epik_Ionization_Penalty_Neutral>
0.000234891

> <r_epik_State_Penalty>
0.0200719

> <r_epik_Charging_Adjusted_Penalty>
0.0739194

> <i_epik_Tot_Q>
1

> <i_epik_Tot_abs_Q>
1

> <r_epik_Metal_State_Penalty>
0.0199414

> <b_epik_Metal_Only>
0

> <s_lp_Force_Field>
OPLS_2005

> <r_lp_Energy>
58.7768

> <b_lp_Chiralities_Consistent>
1

> <s_lp_Variant>
AV-unprocessed.smi:193-7

> <Gold.Version>
5.8.1

> <Gold.Id.Protein>
6NUR|6NUR_protein|mol2

> <Gold.PLP.Fitness>
46.8682

> <Gold.PLP.PLP>
-41.9423

> <Gold.PLP.part.hbond>
-1.9557

> <Gold.PLP.part.metal>
0.0000

> <Gold.PLP.part.buried>
-6.0820

> <Gold.PLP.part.nonpolar>
-34.1324

> <Gold.PLP.part.repulsive>
0.1121

> <Gold.PLP.ligand.clash>
0.0000

> <Gold.PLP.ligand.torsion>
1.3135

> <Gold.PLP.Chemscore.Hbond>
1.9913

> <Gold.PLP.Chemscore.CHOScore>
0.0000

> <Gold.PLP.Chemscore.Metal>
0.0000

> <Gold.Chemscore.Hbonds>
donor molecule, donor type, donor heavy atom, donor atom, acceptor molecule, acceptor atom, score
      P1  H  6896  6908       L1     8  0.99
      P1  H  6931  6943       L1    19  1.00

> <Gold.PLP.Chemscore.Internal.Correction>
1.5791

> <Gold.Rescore>
     Score         DG    S(hbond)    S(metal)    S(lipo)     H(rot)  DE(clash)    DE(int)     intcor
     16.36     -18.52       1.90        0.00     105.54       2.20       0.07       2.09       ----

> <Gold.Chemscore.Fitness>
16.3618

> <Gold.Chemscore.DG>
-18.5209

> <Gold.Chemscore.ZeroCoef>
-5.4800

> <Gold.Chemscore.Hbond>
1.8950

> <Gold.Chemscore.Metal>
0.0000

> <Gold.Chemscore.Lipo>
105.5403

> <Gold.Chemscore.Internal_Hbond>
0.0000

> <Gold.Chemscore.DEClash>
0.0656

> <Gold.Chemscore.DEInternal>
2.0936

> <Gold.Chemscore.Rot>
2.2018

> <Gold.Chemscore.Internal.Correction>
   9.000000E+99

> <Gold.Chemscore.Hbonds>
donor molecule, donor type, donor heavy atom, donor atom, acceptor molecule, acceptor atom, score
      P1  H  6896  6908       L1     8  0.89
      P1  H  6931  6943       L1    19  0.50

> <Gold.Chemscore.Hbond.Weighted>
-6.3293

> <Gold.Chemscore.Metal.Weighted>
-0.0000

> <Gold.Chemscore.Lipo.Weighted>
-12.3482

> <Gold.Chemscore.Internal_Hbond.Weighted>
0.0000

> <Gold.Chemscore.DEClash.Weighted>
0.0656

> <Gold.Chemscore.DEInternal.Weighted>
2.0936

> <Gold.Chemscore.Rot.Weighted>
5.6366

> <Gold.Chemscore.Internal.Correction.Weighted>
   9.000000E+99

> <Gold.Protein.RotatedTorsions>
[ 6907 6896 6895 6894 ] final  102.84 input  -60.11 | X-H torsion
[ 7974 7965 7964 7962 ] final   -3.43 input  175.53 | X-H torsion
[ 8008 7997 7996 7995 ] final  -10.20 input   59.86 | X-H torsion
[ 10167 10162 10161 10158 ] final  -34.15 input  -65.29 | X-H torsion
[ 10718 10713 10712 10709 ] final   59.28 input   66.30 | X-H torsion
[ 10763 10752 10751 10750 ] final  -88.40 input  -60.55 | X-H torsion
[ 11005 11000 10999 10996 ] final  131.93 input  -57.11 | X-H torsion

> <Gold.Protein.ActiveResidues>
 VAL166  LYS551  ARG553  GLY616  TRP617  ASP618  TYR619  PRO620  LYS621  CYS622 
 ASP623  PHE694  ASN695  SER759  ASP760  ASP761  ALA762  ILE779  LEU786  VAL792 
 PHE793  MET794  SER795  GLU796  ALA797  LYS798  CYS799  TRP800  GLU811  SER814 

> <Gold.Protein.RotatedAtoms>
  152.5313  133.9916  159.7852 H   0  0  0  0  0  0  0  0  0  0  0  0  # atno 6907 bound_to 6896
  151.0151  133.5921  159.2685 H   0  0  0  0  0  0  0  0  0  0  0  0  # atno 6908 bound_to 6896
  151.2981  135.0768  159.9282 H   0  0  0  0  0  0  0  0  0  0  0  0  # atno 6909 bound_to 6896
  146.2389  140.1719  142.8332 H   0  0  0  0  0  0  0  0  0  0  0  0  # atno 7974 bound_to 7965
  154.5576  140.2335  155.8385 H   0  0  0  0  0  0  0  0  0  0  0  0  # atno 8008 bound_to 7997
  156.2002  140.3054  155.9471 H   0  0  0  0  0  0  0  0  0  0  0  0  # atno 8009 bound_to 7997
  155.2949  140.0428  157.3016 H   0  0  0  0  0  0  0  0  0  0  0  0  # atno 8010 bound_to 7997
  140.7191  143.3568  151.2043 H   0  0  0  0  0  0  0  0  0  0  0  0  # atno 10167 bound_to 10162
  157.5663  130.8874  149.9193 H   0  0  0  0  0  0  0  0  0  0  0  0  # atno 10718 bound_to 10713
  154.6441  135.5378  153.7824 H   0  0  0  0  0  0  0  0  0  0  0  0  # atno 10763 bound_to 10752
  153.0350  135.6466  154.1115 H   0  0  0  0  0  0  0  0  0  0  0  0  # atno 10764 bound_to 10752
  154.1037  135.2931  155.3226 H   0  0  0  0  0  0  0  0  0  0  0  0  # atno 10765 bound_to 10752
  139.9760  134.9563  156.9509 H   0  0  0  0  0  0  0  0  0  0  0  0  # atno 11005 bound_to 11000
  145.0004  140.8627  143.5285 LP  0  0  0  0  0  0  0  0  0  0  0  0  # atno 17320 bound_to 7965
  145.1738  139.2389  143.5328 LP  0  0  0  0  0  0  0  0  0  0  0  0  # atno 17321 bound_to 7965
  139.7111  143.9374  152.2948 LP  0  0  0  0  0  0  0  0  0  0  0  0  # atno 17342 bound_to 10162
  139.9100  144.6862  150.8573 LP  0  0  0  0  0  0  0  0  0  0  0  0  # atno 17343 bound_to 10162
  156.0711  130.3685  150.0773 LP  0  0  0  0  0  0  0  0  0  0  0  0  # atno 17370 bound_to 10713
  156.8931  130.9595  151.3586 LP  0  0  0  0  0  0  0  0  0  0  0  0  # atno 17371 bound_to 10713
  140.5195  134.0922  155.7288 LP  0  0  0  0  0  0  0  0  0  0  0  0  # atno 17394 bound_to 11000
  141.1437  133.9094  157.2267 LP  0  0  0  0  0  0  0  0  0  0  0  0  # atno 17395 bound_to 11000

$$$$
