AV-unprocessed.smi:375|AV-procd|sdf|2453|dock5
  -GOLD-   2262022393D 1   1.00000     0.00000
 Structure written by MMmdl.
 36 38  0  0  0  0  0  0  0  0  1 V2000
  153.5392  140.6598  160.3904 C   0  0  0  0  0  0  0  0  0  0  0  0
  152.7689  141.4483  159.4367 N   0  0  0  0  0  0  0  0  0  0  0  0
  152.3816  141.0764  158.1942 C   0  0  0  0  0  0  0  0  0  0  0  0
  152.6229  139.9973  157.6535 O   0  0  0  0  0  0  0  0  0  0  0  0
  151.6989  142.1079  157.6410 N   0  0  0  0  0  0  0  0  0  0  0  0
  151.1391  142.1671  156.2903 C   0  0  0  0  0  0  0  0  0  0  0  0
  150.2597  140.9411  155.9621 C   0  0  2  0  0  0  0  0  0  0  0  0
  150.9296  140.1649  154.9896 O   0  0  0  0  0  0  0  0  0  0  0  0
  148.8474  141.3228  155.5306 C   0  0  0  0  0  0  0  0  0  0  0  0
  148.4862  141.2768  154.1656 C   0  0  0  0  0  0  0  0  0  0  0  0
  147.1906  141.6489  153.7583 C   0  0  0  0  0  0  0  0  0  0  0  0
  146.2478  142.0745  154.7125 C   0  0  0  0  0  0  0  0  0  0  0  0
  146.6017  142.1279  156.0740 C   0  0  0  0  0  0  0  0  0  0  0  0
  147.8962  141.7539  156.4842 C   0  0  0  0  0  0  0  0  0  0  0  0
  148.2215  141.8232  157.7975 F   0  0  0  0  0  0  0  0  0  0  0  0
  151.6550  143.1701  158.5553 C   0  0  0  0  0  0  0  0  0  0  0  0
  151.0817  144.4499  158.4599 C   0  0  0  0  0  0  0  0  0  0  0  0
  151.2234  145.3063  159.5770 C   0  0  0  0  0  0  0  0  0  0  0  0
  151.9166  144.8773  160.7388 C   0  0  0  0  0  0  0  0  0  0  0  0
  152.4835  143.5830  160.8083 C   0  0  0  0  0  0  0  0  0  0  0  0
  152.3289  142.7545  159.6838 C   0  0  0  0  0  0  0  0  0  0  0  0
  153.8363  139.6942  159.9795 H   0  0  0  0  0  0  0  0  0  0  0  0
  152.9502  140.4772  161.2895 H   0  0  0  0  0  0  0  0  0  0  0  0
  154.4446  141.1952  160.6777 H   0  0  0  0  0  0  0  0  0  0  0  0
  150.5567  143.0829  156.1751 H   0  0  0  0  0  0  0  0  0  0  0  0
  151.9587  142.2429  155.5746 H   0  0  0  0  0  0  0  0  0  0  0  0
  150.1934  140.3112  156.8494 H   0  0  0  0  0  0  0  0  0  0  0  0
  150.3788  139.4318  154.7610 H   0  0  0  0  0  0  0  0  0  0  0  0
  149.2054  140.9617  153.4238 H   0  0  0  0  0  0  0  0  0  0  0  0
  146.9219  141.6107  152.7130 H   0  0  0  0  0  0  0  0  0  0  0  0
  145.2549  142.3623  154.4001 H   0  0  0  0  0  0  0  0  0  0  0  0
  145.8799  142.4595  156.8057 H   0  0  0  0  0  0  0  0  0  0  0  0
  150.5564  144.7704  157.5724 H   0  0  0  0  0  0  0  0  0  0  0  0
  150.7992  146.2989  159.5446 H   0  0  0  0  0  0  0  0  0  0  0  0
  152.0131  145.5473  161.5804 H   0  0  0  0  0  0  0  0  0  0  0  0
  153.0136  143.2491  161.6881 H   0  0  0  0  0  0  0  0  0  0  0  0
  1  2  1  0  0  0  0
  1 22  1  0  0  0  0
  1 23  1  0  0  0  0
  1 24  1  0  0  0  0
  2 21  1  0  0  0  0
  2  3  1  0  0  0  0
  3  4  2  0  0  0  0
  3  5  1  0  0  0  0
  5  6  1  0  0  0  0
  5 16  1  0  0  0  0
  6  7  1  0  0  0  0
  6 25  1  0  0  0  0
  6 26  1  0  0  0  0
  7  8  1  0  0  0  0
  7  9  1  0  0  0  0
  7 27  1  0  0  0  0
  8 28  1  0  0  0  0
  9 14  1  0  0  0  0
  9 10  2  0  0  0  0
 10 11  1  0  0  0  0
 10 29  1  0  0  0  0
 11 12  2  0  0  0  0
 11 30  1  0  0  0  0
 12 13  1  0  0  0  0
 12 31  1  0  0  0  0
 13 14  2  0  0  0  0
 13 32  1  0  0  0  0
 14 15  1  0  0  0  0
 16 21  2  0  0  0  0
 16 17  1  0  0  0  0
 17 18  2  0  0  0  0
 17 33  1  0  0  0  0
 18 19  1  0  0  0  0
 18 34  1  0  0  0  0
 19 20  2  0  0  0  0
 19 35  1  0  0  0  0
 20 21  1  0  0  0  0
 20 36  1  0  0  0  0
M  END
> <s_m_source_file>
AV-unprocessed.smi

> <i_m_source_file_index>
375

> <i_lp_mmshare_version>
43012

> <i_f3d_flags>
0

> <s_epik_input>
W2NIXTFbY0hdW2NIXVtjSF1jKGMxMiluKFtDSDNdKWMoPU8pbjJbQ0gyXVtDQEhdKFtPSF0pYzNbY0hdW2NIXVtjSF1bY0hdYzNG

> <s_epik_cmdline>
J2VwaWtfcHl0aG9uJywgJy1waCcsICc3LjAnLCAnLXRuJywgJzgnLCAnLW1hJywgJzIwMCcsICctbWV0YWxfYmluZGluZycsICctaW1hZScsICc8aW5maWxlLm1hZT4nLCAnLW9tYWUnLCAnPG91dGZpbGUubWFlPic=

> <r_lp_tautomer_probability>
1

> <r_epik_Ionization_Penalty>
1.34619e-06

> <r_epik_Ionization_Penalty_Charging>
2.57375e-09

> <r_epik_Ionization_Penalty_Neutral>
1.34362e-06

> <r_epik_State_Penalty>
-0

> <r_epik_Charging_Adjusted_Penalty>
2.57375e-09

> <i_epik_Tot_Q>
0

> <i_epik_Tot_abs_Q>
0

> <r_epik_Metal_State_Penalty>
-0

> <b_epik_Metal_Only>
0

> <s_lp_Force_Field>
OPLS_2005

> <r_lp_Energy>
41.1048

> <b_lp_Chiralities_Consistent>
1

> <s_lp_Variant>
AV-unprocessed.smi:375-1

> <Gold.Version>
5.8.1

> <Gold.Id.Protein>
6NUR|6NUR_protein|mol2

> <Gold.PLP.Fitness>
52.3722

> <Gold.PLP.PLP>
-48.9360

> <Gold.PLP.part.hbond>
-2.0000

> <Gold.PLP.part.metal>
0.0000

> <Gold.PLP.part.buried>
-7.9810

> <Gold.PLP.part.nonpolar>
-38.5426

> <Gold.PLP.part.repulsive>
0.0000

> <Gold.PLP.ligand.clash>
0.0000

> <Gold.PLP.ligand.torsion>
1.2929

> <Gold.PLP.Chemscore.Hbond>
2.0000

> <Gold.PLP.Chemscore.CHOScore>
0.0000

> <Gold.PLP.Chemscore.Metal>
0.0000

> <Gold.Chemscore.Hbonds>
donor molecule, donor type, donor heavy atom, donor atom, acceptor molecule, acceptor atom, score
      P1  H  7989  7998       L1     8  1.00
      P1  H  7997  8009       L1     4  1.00

> <Gold.PLP.Chemscore.Internal.Correction>
0.0220

> <Gold.Rescore>
     Score         DG    S(hbond)    S(metal)    S(lipo)     H(rot)  DE(clash)    DE(int)     intcor
     20.11     -21.38       1.81        0.00     124.68       1.85       0.10       1.18       ----

> <Gold.Chemscore.Fitness>
20.1051

> <Gold.Chemscore.DG>
-21.3782

> <Gold.Chemscore.ZeroCoef>
-5.4800

> <Gold.Chemscore.Hbond>
1.8076

> <Gold.Chemscore.Metal>
0.0000

> <Gold.Chemscore.Lipo>
124.6817

> <Gold.Chemscore.Internal_Hbond>
0.0000

> <Gold.Chemscore.DEClash>
0.0978

> <Gold.Chemscore.DEInternal>
1.1752

> <Gold.Chemscore.Rot>
1.8465

> <Gold.Chemscore.Internal.Correction>
   9.000000E+99

> <Gold.Chemscore.Hbonds>
donor molecule, donor type, donor heavy atom, donor atom, acceptor molecule, acceptor atom, score
      P1  H  7989  7998       L1     8  0.74
      P1  H  7997  8009       L1     4  0.66

> <Gold.Chemscore.Hbond.Weighted>
-6.0374

> <Gold.Chemscore.Metal.Weighted>
-0.0000

> <Gold.Chemscore.Lipo.Weighted>
-14.5878

> <Gold.Chemscore.Internal_Hbond.Weighted>
0.0000

> <Gold.Chemscore.DEClash.Weighted>
0.0978

> <Gold.Chemscore.DEInternal.Weighted>
1.1752

> <Gold.Chemscore.Rot.Weighted>
4.7270

> <Gold.Chemscore.Internal.Correction.Weighted>
   9.000000E+99

> <Gold.Protein.RotatedTorsions>
[ 6907 6896 6895 6894 ] final   -1.79 input  -60.11 | X-H torsion
[ 7974 7965 7964 7962 ] final  -92.87 input  175.53 | X-H torsion
[ 8008 7997 7996 7995 ] final  169.67 input   59.86 | X-H torsion
[ 10167 10162 10161 10158 ] final -107.34 input  -65.29 | X-H torsion
[ 10718 10713 10712 10709 ] final  151.87 input   66.30 | X-H torsion
[ 10763 10752 10751 10750 ] final  103.14 input  -60.55 | X-H torsion
[ 11005 11000 10999 10996 ] final -148.77 input  -57.11 | X-H torsion

> <Gold.Protein.ActiveResidues>
 VAL166  LYS551  ARG553  GLY616  TRP617  ASP618  TYR619  PRO620  LYS621  CYS622 
 ASP623  PHE694  ASN695  SER759  ASP760  ASP761  ALA762  ILE779  LEU786  VAL792 
 PHE793  MET794  SER795  GLU796  ALA797  LYS798  CYS799  TRP800  GLU811  SER814 

> <Gold.Protein.RotatedAtoms>
  151.5403  135.1068  159.9924 H   0  0  0  0  0  0  0  0  0  0  0  0  # atno 6907 bound_to 6896
  152.4538  133.7678  159.6793 H   0  0  0  0  0  0  0  0  0  0  0  0  # atno 6908 bound_to 6896
  150.8475  133.7772  159.3062 H   0  0  0  0  0  0  0  0  0  0  0  0  # atno 6909 bound_to 6896
  145.3940  140.9531  143.2324 H   0  0  0  0  0  0  0  0  0  0  0  0  # atno 7974 bound_to 7965
  156.1436  140.1558  156.8882 H   0  0  0  0  0  0  0  0  0  0  0  0  # atno 8008 bound_to 7997
  154.5009  140.0825  156.7833 H   0  0  0  0  0  0  0  0  0  0  0  0  # atno 8009 bound_to 7997
  155.4032  140.3415  155.4260 H   0  0  0  0  0  0  0  0  0  0  0  0  # atno 8010 bound_to 7997
  140.1780  143.3989  152.1303 H   0  0  0  0  0  0  0  0  0  0  0  0  # atno 10167 bound_to 10162
  157.2651  131.0806  151.1639 H   0  0  0  0  0  0  0  0  0  0  0  0  # atno 10718 bound_to 10713
  153.3488  135.3986  155.1630 H   0  0  0  0  0  0  0  0  0  0  0  0  # atno 10763 bound_to 10752
  154.8658  135.3651  154.5249 H   0  0  0  0  0  0  0  0  0  0  0  0  # atno 10764 bound_to 10752
  153.5699  135.7079  153.5569 H   0  0  0  0  0  0  0  0  0  0  0  0  # atno 10765 bound_to 10752
  140.7578  134.3333  157.5109 H   0  0  0  0  0  0  0  0  0  0  0  0  # atno 11005 bound_to 11000
  144.8420  139.5457  143.6896 LP  0  0  0  0  0  0  0  0  0  0  0  0  # atno 17320 bound_to 7965
  146.2784  139.6812  142.9247 LP  0  0  0  0  0  0  0  0  0  0  0  0  # atno 17321 bound_to 7965
  139.5308  144.7157  151.5062 LP  0  0  0  0  0  0  0  0  0  0  0  0  # atno 17342 bound_to 10162
  140.6538  143.8641  150.6814 LP  0  0  0  0  0  0  0  0  0  0  0  0  # atno 17343 bound_to 10162
  157.3133  130.6900  149.6228 LP  0  0  0  0  0  0  0  0  0  0  0  0  # atno 17370 bound_to 10713
  155.9663  130.4357  150.5103 LP  0  0  0  0  0  0  0  0  0  0  0  0  # atno 17371 bound_to 10713
  139.8776  134.9183  156.3199 LP  0  0  0  0  0  0  0  0  0  0  0  0  # atno 17394 bound_to 11000
  140.9691  133.7339  156.0509 LP  0  0  0  0  0  0  0  0  0  0  0  0  # atno 17395 bound_to 11000

$$$$
