AV-unprocessed.smi:2116|AV-procd|sdf|8625|dock2
  -GOLD-   2272011373D 1   1.00000     0.00000
 Structure written by MMmdl.
 44 45  0  0  0  0  0  0  0  0  1 V2000
  144.4518  137.6492  153.4796 C   0  0  0  0  0  0  0  0  0  0  0  0
  145.5536  137.0403  152.8295 O   0  0  0  0  0  0  0  0  0  0  0  0
  146.1799  137.9048  151.8962 C   0  0  0  0  0  0  0  0  0  0  0  0
  146.7730  139.1033  152.6429 C   0  0  0  0  0  0  0  0  0  0  0  0
  147.8952  138.6619  153.4013 O   0  0  0  0  0  0  0  0  0  0  0  0
  148.5558  139.5771  154.1948 C   0  0  0  0  0  0  0  0  0  0  0  0
  149.7697  139.1932  154.7980 C   0  0  0  0  0  0  0  0  0  0  0  0
  150.4477  140.1230  155.6083 C   0  0  0  0  0  0  0  0  0  0  0  0
  149.9010  141.4099  155.7843 C   0  0  0  0  0  0  0  0  0  0  0  0
  150.5979  142.3193  156.6249 N   0  0  0  0  0  0  0  0  0  0  0  0
  151.4335  142.0534  157.6496 C   0  0  0  0  0  0  0  0  0  0  0  0
  151.7522  140.9097  157.9781 O   0  0  0  0  0  0  0  0  0  0  0  0
  151.9354  143.1579  158.2665 N   0  0  0  0  0  0  0  0  0  0  0  0
  151.5262  144.5461  157.9578 C   0  0  0  0  0  0  0  0  0  0  0  0
  151.4424  145.4899  159.1770 C   0  0  0  0  0  0  0  0  0  0  0  0
  150.7661  144.8812  160.4195 C   0  0  0  0  0  0  0  0  0  0  0  0
  151.7436  144.1042  161.3178 C   0  0  0  0  0  0  0  0  0  0  0  0
  152.2919  142.8069  160.7022 C   0  0  0  0  0  0  0  0  0  0  0  0
  152.9476  143.0057  159.3234 C   0  0  0  0  0  0  0  0  0  0  0  0
  148.6692  141.6955  155.1466 C   0  0  0  0  0  0  0  0  0  0  0  0
  148.0134  140.8075  154.3692 N   0  0  0  0  0  0  0  0  0  0  0  0
  144.0088  136.9460  154.1847 H   0  0  0  0  0  0  0  0  0  0  0  0
  143.6819  137.9373  152.7626 H   0  0  0  0  0  0  0  0  0  0  0  0
  144.7618  138.5344  154.0365 H   0  0  0  0  0  0  0  0  0  0  0  0
  146.9564  137.3817  151.3359 H   0  0  0  0  0  0  0  0  0  0  0  0
  145.4369  138.2551  151.1783 H   0  0  0  0  0  0  0  0  0  0  0  0
  147.0987  139.8513  151.9181 H   0  0  0  0  0  0  0  0  0  0  0  0
  146.0145  139.5608  153.2807 H   0  0  0  0  0  0  0  0  0  0  0  0
  150.1722  138.2030  154.6434 H   0  0  0  0  0  0  0  0  0  0  0  0
  151.3782  139.8501  156.0846 H   0  0  0  0  0  0  0  0  0  0  0  0
  150.3732  143.2937  156.4873 H   0  0  0  0  0  0  0  0  0  0  0  0
  152.2119  144.9592  157.2171 H   0  0  0  0  0  0  0  0  0  0  0  0
  150.5365  144.5714  157.5006 H   0  0  0  0  0  0  0  0  0  0  0  0
  152.4337  145.8608  159.4401 H   0  0  0  0  0  0  0  0  0  0  0  0
  150.8827  146.3751  158.8731 H   0  0  0  0  0  0  0  0  0  0  0  0
  150.3474  145.6952  161.0122 H   0  0  0  0  0  0  0  0  0  0  0  0
  149.9202  144.2555  160.1317 H   0  0  0  0  0  0  0  0  0  0  0  0
  152.5761  144.7544  161.5896 H   0  0  0  0  0  0  0  0  0  0  0  0
  151.2431  143.8582  162.2550 H   0  0  0  0  0  0  0  0  0  0  0  0
  153.0321  142.3916  161.3865 H   0  0  0  0  0  0  0  0  0  0  0  0
  151.4981  142.0618  160.6384 H   0  0  0  0  0  0  0  0  0  0  0  0
  153.5926  142.1525  159.1052 H   0  0  0  0  0  0  0  0  0  0  0  0
  153.6260  143.8593  159.3379 H   0  0  0  0  0  0  0  0  0  0  0  0
  148.1680  142.6430  155.2670 H   0  0  0  0  0  0  0  0  0  0  0  0
  1  2  1  0  0  0  0
  1 22  1  0  0  0  0
  1 23  1  0  0  0  0
  1 24  1  0  0  0  0
  2  3  1  0  0  0  0
  3  4  1  0  0  0  0
  3 25  1  0  0  0  0
  3 26  1  0  0  0  0
  4  5  1  0  0  0  0
  4 27  1  0  0  0  0
  4 28  1  0  0  0  0
  5  6  1  0  0  0  0
  6 21  1  0  0  0  0
  6  7  2  0  0  0  0
  7  8  1  0  0  0  0
  7 29  1  0  0  0  0
  8  9  2  0  0  0  0
  8 30  1  0  0  0  0
  9 10  1  0  0  0  0
  9 20  1  0  0  0  0
 10 11  1  0  0  0  0
 10 31  1  0  0  0  0
 11 12  2  0  0  0  0
 11 13  1  0  0  0  0
 13 19  1  0  0  0  0
 13 14  1  0  0  0  0
 14 15  1  0  0  0  0
 14 32  1  0  0  0  0
 14 33  1  0  0  0  0
 15 16  1  0  0  0  0
 15 34  1  0  0  0  0
 15 35  1  0  0  0  0
 16 17  1  0  0  0  0
 16 36  1  0  0  0  0
 16 37  1  0  0  0  0
 17 18  1  0  0  0  0
 17 38  1  0  0  0  0
 17 39  1  0  0  0  0
 18 19  1  0  0  0  0
 18 40  1  0  0  0  0
 18 41  1  0  0  0  0
 19 42  1  0  0  0  0
 19 43  1  0  0  0  0
 20 21  2  0  0  0  0
 20 44  1  0  0  0  0
M  END
> <s_m_source_file>
AV-unprocessed.smi

> <i_m_source_file_index>
2116

> <i_lp_mmshare_version>
43012

> <i_f3d_flags>
0

> <s_epik_input>
W0NIM11PW0NIMl1bQ0gyXU9jMVtjSF1bY0hdYyhbY0hdbjEpW05IXUMoPU8pTjJbQ0gyXVtDSDJdW0NIMl1bQ0gyXVtDSDJdW0NIMl0y

> <s_epik_cmdline>
J2VwaWtfcHl0aG9uJywgJy1waCcsICc3LjAnLCAnLXRuJywgJzgnLCAnLW1hJywgJzIwMCcsICctbWV0YWxfYmluZGluZycsICctaW1hZScsICc8aW5maWxlLm1hZT4nLCAnLW9tYWUnLCAnPG91dGZpbGUubWFlPic=

> <r_lp_tautomer_probability>
1

> <r_epik_Ionization_Penalty>
7.94695e-05

> <r_epik_Ionization_Penalty_Charging>
0

> <r_epik_Ionization_Penalty_Neutral>
7.94695e-05

> <r_epik_State_Penalty>
-0

> <r_epik_Charging_Adjusted_Penalty>
0

> <i_epik_Tot_Q>
0

> <i_epik_Tot_abs_Q>
0

> <r_epik_Metal_State_Penalty>
-0

> <b_epik_Metal_Only>
0

> <s_lp_Force_Field>
OPLS_2005

> <r_lp_Energy>
37.7732

> <b_lp_Chiralities_Consistent>
1

> <s_lp_Variant>
AV-unprocessed.smi:2116-1

> <Gold.Version>
5.8.1

> <Gold.Id.Protein>
6NUR|6NUR_protein|mol2

> <Gold.PLP.Fitness>
48.2897

> <Gold.PLP.PLP>
-44.2875

> <Gold.PLP.part.hbond>
-0.7588

> <Gold.PLP.part.metal>
0.0000

> <Gold.PLP.part.buried>
-2.6627

> <Gold.PLP.part.nonpolar>
-43.6318

> <Gold.PLP.part.repulsive>
2.2565

> <Gold.PLP.ligand.clash>
0.0000

> <Gold.PLP.ligand.torsion>
0.2736

> <Gold.PLP.Chemscore.Hbond>
0.4976

> <Gold.PLP.Chemscore.CHOScore>
1.0000

> <Gold.PLP.Chemscore.Metal>
0.0000

> <Gold.Chemscore.Hbonds>
donor molecule, donor type, donor heavy atom, donor atom, acceptor molecule, acceptor atom, score
      L1  H    10    31       P1  8028  0.49
      L1  C    20    44       P1  8028  1.00

> <Gold.PLP.Chemscore.Internal.Correction>
0.0564

> <Gold.Rescore>
     Score         DG    S(hbond)    S(metal)    S(lipo)     H(rot)  DE(clash)    DE(int)     intcor
     15.25     -17.00       0.68        0.00     113.00       1.55       0.18       1.57       ----

> <Gold.Chemscore.Fitness>
15.2506

> <Gold.Chemscore.DG>
-16.9994

> <Gold.Chemscore.ZeroCoef>
-5.4800

> <Gold.Chemscore.Hbond>
0.6800

> <Gold.Chemscore.Metal>
0.0000

> <Gold.Chemscore.Lipo>
112.9971

> <Gold.Chemscore.Internal_Hbond>
0.0000

> <Gold.Chemscore.DEClash>
0.1818

> <Gold.Chemscore.DEInternal>
1.5670

> <Gold.Chemscore.Rot>
1.5517

> <Gold.Chemscore.Internal.Correction>
   9.000000E+99

> <Gold.Chemscore.Hbonds>
donor molecule, donor type, donor heavy atom, donor atom, acceptor molecule, acceptor atom, score
      L1  H    10    31       P1  8028  0.48

> <Gold.Chemscore.Hbond.Weighted>
-2.2710

> <Gold.Chemscore.Metal.Weighted>
-0.0000

> <Gold.Chemscore.Lipo.Weighted>
-13.2207

> <Gold.Chemscore.Internal_Hbond.Weighted>
0.0000

> <Gold.Chemscore.DEClash.Weighted>
0.1818

> <Gold.Chemscore.DEInternal.Weighted>
1.5670

> <Gold.Chemscore.Rot.Weighted>
3.9723

> <Gold.Chemscore.Internal.Correction.Weighted>
   9.000000E+99

> <Gold.Protein.RotatedTorsions>
[ 6907 6896 6895 6894 ] final -137.65 input  -60.11 | X-H torsion
[ 7974 7965 7964 7962 ] final -137.59 input  175.53 | X-H torsion
[ 8008 7997 7996 7995 ] final  157.06 input   59.86 | X-H torsion
[ 10167 10162 10161 10158 ] final  167.93 input  -65.29 | X-H torsion
[ 10718 10713 10712 10709 ] final  -56.46 input   66.30 | X-H torsion
[ 10763 10752 10751 10750 ] final  176.65 input  -60.55 | X-H torsion
[ 11005 11000 10999 10996 ] final  101.18 input  -57.11 | X-H torsion

> <Gold.Protein.ActiveResidues>
 VAL166  LYS551  ARG553  GLY616  TRP617  ASP618  TYR619  PRO620  LYS621  CYS622 
 ASP623  PHE694  ASN695  SER759  ASP760  ASP761  ALA762  ILE779  LEU786  VAL792 
 PHE793  MET794  SER795  GLU796  ALA797  LYS798  CYS799  TRP800  GLU811  SER814 

> <Gold.Protein.RotatedAtoms>
  151.0251  133.5841  159.2666 H   0  0  0  0  0  0  0  0  0  0  0  0  # atno 6907 bound_to 6896
  151.2944  135.0750  159.9225 H   0  0  0  0  0  0  0  0  0  0  0  0  # atno 6908 bound_to 6896
  152.5332  133.9943  159.7919 H   0  0  0  0  0  0  0  0  0  0  0  0  # atno 6909 bound_to 6896
  144.8829  140.6533  143.5195 H   0  0  0  0  0  0  0  0  0  0  0  0  # atno 7974 bound_to 7965
  156.2386  140.1895  156.7050 H   0  0  0  0  0  0  0  0  0  0  0  0  # atno 8008 bound_to 7997
  154.6154  140.0616  156.9574 H   0  0  0  0  0  0  0  0  0  0  0  0  # atno 8009 bound_to 7997
  155.1948  140.3287  155.4355 H   0  0  0  0  0  0  0  0  0  0  0  0  # atno 8010 bound_to 7997
  139.4956  144.3869  151.9560 H   0  0  0  0  0  0  0  0  0  0  0  0  # atno 10167 bound_to 10162
  156.1287  130.4161  150.0307 H   0  0  0  0  0  0  0  0  0  0  0  0  # atno 10718 bound_to 10713
  154.4839  135.2776  155.1549 H   0  0  0  0  0  0  0  0  0  0  0  0  # atno 10763 bound_to 10752
  154.3248  135.6202  153.5528 H   0  0  0  0  0  0  0  0  0  0  0  0  # atno 10764 bound_to 10752
  152.9879  135.5751  154.5246 H   0  0  0  0  0  0  0  0  0  0  0  0  # atno 10765 bound_to 10752
  139.8772  134.9172  156.4867 H   0  0  0  0  0  0  0  0  0  0  0  0  # atno 11005 bound_to 11000
  145.3922  139.1614  143.4223 LP  0  0  0  0  0  0  0  0  0  0  0  0  # atno 17320 bound_to 7965
  146.3006  140.4012  142.8705 LP  0  0  0  0  0  0  0  0  0  0  0  0  # atno 17321 bound_to 7965
  140.3306  144.3321  150.5988 LP  0  0  0  0  0  0  0  0  0  0  0  0  # atno 17342 bound_to 10162
  140.5648  143.2187  151.7702 LP  0  0  0  0  0  0  0  0  0  0  0  0  # atno 17343 bound_to 10162
  156.8226  130.9364  151.3640 LP  0  0  0  0  0  0  0  0  0  0  0  0  # atno 17370 bound_to 10713
  157.6467  130.8850  149.9552 LP  0  0  0  0  0  0  0  0  0  0  0  0  # atno 17371 bound_to 10713
  140.8688  133.8004  155.9342 LP  0  0  0  0  0  0  0  0  0  0  0  0  # atno 17394 bound_to 11000
  140.8974  134.2420  157.5061 LP  0  0  0  0  0  0  0  0  0  0  0  0  # atno 17395 bound_to 11000

$$$$
