AV-unprocessed.smi:370|AV-procd|sdf|2439|dock2
  -GOLD-   2262022383D 1   1.00000     0.00000
 Structure written by MMmdl.
 42 43  0  0  0  0  0  0  0  0  3 V2000
  146.9657  136.2665  162.8661 C   0  0  0  0  0  0  0  0  0  0  0  0
  147.5528  135.9876  161.5248 C   0  0  0  0  0  0  0  0  0  0  0  0
  147.9228  134.8321  160.8974 C   0  0  0  0  0  0  0  0  0  0  0  0
  148.4019  135.2854  159.6381 C   0  0  0  0  0  0  0  0  0  0  0  0
  148.8955  134.5124  158.6586 N   0  5  0  0  0  0  0  0  0  0  0  0
  149.0141  134.9984  157.4025 C   0  0  0  0  0  0  0  0  0  0  0  0
  149.9604  135.6512  156.9565 O   0  0  0  0  0  0  0  0  0  0  0  0
  147.9629  134.7185  156.6185 N   0  0  0  0  0  0  0  0  0  0  0  0
  147.7862  135.1186  155.2227 C   0  0  0  0  0  0  0  0  0  0  0  0
  147.5802  133.9257  154.2386 C   0  0  0  0  0  0  0  0  0  0  0  0
  148.9741  133.3061  153.9529 C   0  0  0  0  0  0  0  0  0  0  0  0
  146.6977  132.8248  154.8771 C   0  0  0  0  0  0  0  0  0  0  0  0
  146.9513  134.4583  152.9737 N   0  3  0  0  0  0  0  0  0  0  0  0
  146.4100  133.4440  152.0237 C   0  0  0  0  0  0  0  0  0  0  0  0
  145.9436  134.1108  150.7173 C   0  0  0  0  0  0  0  0  0  0  0  0
  144.9824  135.1184  150.9957 O   0  0  0  0  0  0  0  0  0  0  0  0
  145.5222  136.1412  151.8196 C   0  0  0  0  0  0  0  0  0  0  0  0
  145.9397  135.5372  153.1689 C   0  0  0  0  0  0  0  0  0  0  0  0
  148.3434  136.6011  159.5181 N   0  0  0  0  0  0  0  0  0  0  0  0
  147.7935  137.0587  160.7216 O   0  0  0  0  0  0  0  0  0  0  0  0
  147.6319  135.9218  163.6569 H   0  0  0  0  0  0  0  0  0  0  0  0
  146.0099  135.7555  162.9817 H   0  0  0  0  0  0  0  0  0  0  0  0
  146.7973  137.3342  163.0082 H   0  0  0  0  0  0  0  0  0  0  0  0
  147.8582  133.8232  161.2764 H   0  0  0  0  0  0  0  0  0  0  0  0
  147.2164  134.1797  157.0329 H   0  0  0  0  0  0  0  0  0  0  0  0
  146.9711  135.8383  155.1691 H   0  0  0  0  0  0  0  0  0  0  0  0
  148.6799  135.6734  154.9356 H   0  0  0  0  0  0  0  0  0  0  0  0
  149.4854  133.0081  154.8685 H   0  0  0  0  0  0  0  0  0  0  0  0
  149.6265  134.0097  153.4343 H   0  0  0  0  0  0  0  0  0  0  0  0
  148.9073  132.3980  153.3534 H   0  0  0  0  0  0  0  0  0  0  0  0
  147.2043  132.3437  155.7142 H   0  0  0  0  0  0  0  0  0  0  0  0
  146.4541  132.0373  154.1642 H   0  0  0  0  0  0  0  0  0  0  0  0
  145.7615  133.2250  155.2667 H   0  0  0  0  0  0  0  0  0  0  0  0
  147.1634  132.7085  151.7473 H   0  0  0  0  0  0  0  0  0  0  0  0
  145.5816  132.9051  152.4850 H   0  0  0  0  0  0  0  0  0  0  0  0
  146.7898  134.5401  150.1783 H   0  0  0  0  0  0  0  0  0  0  0  0
  145.4935  133.3685  150.0579 H   0  0  0  0  0  0  0  0  0  0  0  0
  146.3680  136.6231  151.3265 H   0  0  0  0  0  0  0  0  0  0  0  0
  144.7619  136.9076  151.9706 H   0  0  0  0  0  0  0  0  0  0  0  0
  145.0537  135.1375  153.6637 H   0  0  0  0  0  0  0  0  0  0  0  0
  146.3185  136.3391  153.7985 H   0  0  0  0  0  0  0  0  0  0  0  0
  147.7163  134.8916  152.4767 H   0  0  0  0  0  0  0  0  0  0  0  0
  1  2  1  0  0  0  0
  1 21  1  0  0  0  0
  1 22  1  0  0  0  0
  1 23  1  0  0  0  0
  2 20  1  0  0  0  0
  2  3  2  0  0  0  0
  3  4  1  0  0  0  0
  3 24  1  0  0  0  0
  4  5  1  0  0  0  0
  4 19  2  0  0  0  0
  5  6  1  0  0  0  0
  6  7  2  0  0  0  0
  6  8  1  0  0  0  0
  8  9  1  0  0  0  0
  8 25  1  0  0  0  0
  9 10  1  0  0  0  0
  9 26  1  0  0  0  0
  9 27  1  0  0  0  0
 10 11  1  0  0  0  0
 10 12  1  0  0  0  0
 10 13  1  0  0  0  0
 11 28  1  0  0  0  0
 11 29  1  0  0  0  0
 11 30  1  0  0  0  0
 12 31  1  0  0  0  0
 12 32  1  0  0  0  0
 12 33  1  0  0  0  0
 13 18  1  0  0  0  0
 13 14  1  0  0  0  0
 13 42  1  0  0  0  0
 14 15  1  0  0  0  0
 14 34  1  0  0  0  0
 14 35  1  0  0  0  0
 15 16  1  0  0  0  0
 15 36  1  0  0  0  0
 15 37  1  0  0  0  0
 16 17  1  0  0  0  0
 17 18  1  0  0  0  0
 17 38  1  0  0  0  0
 17 39  1  0  0  0  0
 18 40  1  0  0  0  0
 18 41  1  0  0  0  0
 19 20  1  0  0  0  0
M  CHG  1   5  -1
M  CHG  1  13   1
M  END
> <s_m_source_file>
AV-unprocessed.smi

> <i_m_source_file_index>
370

> <i_lp_mmshare_version>
43012

> <i_f3d_flags>
0

> <s_epik_input>
W0NIM11jMVtjSF1jKG5vMSlbTkhdQyg9TylbTkhdW0NIMl1DKFtDSDNdKShbQ0gzXSlOMltDSDJdW0NIMl1PW0NIMl1bQ0gyXTI=

> <s_epik_cmdline>
J2VwaWtfcHl0aG9uJywgJy1waCcsICc3LjAnLCAnLXRuJywgJzgnLCAnLW1hJywgJzIwMCcsICctbWV0YWxfYmluZGluZycsICctaW1hZScsICc8aW5maWxlLm1hZT4nLCAnLW9tYWUnLCAnPG91dGZpbGUubWFlPic=

> <r_epik_Ionization_Penalty>
6.73014

> <r_epik_Ionization_Penalty_Charging>
6.73004

> <r_epik_Ionization_Penalty_Neutral>
9.76201e-05

> <r_epik_State_Penalty>
6.93052

> <r_epik_Charging_Adjusted_Penalty>
13.6606

> <i_epik_Tot_Q>
0

> <i_epik_Tot_abs_Q>
2

> <r_epik_Metal_State_Penalty>
2.86736

> <b_epik_Metal_Only>
1

> <s_lp_Force_Field>
OPLS_2005

> <r_lp_Energy>
13.9603

> <b_lp_Chiralities_Consistent>
1

> <s_lp_Variant>
AV-unprocessed.smi:370-4

> <Gold.Version>
5.8.1

> <Gold.Id.Protein>
6NUR|6NUR_protein|mol2

> <Gold.PLP.Fitness>
40.2761

> <Gold.PLP.PLP>
-26.2468

> <Gold.PLP.part.hbond>
-4.0000

> <Gold.PLP.part.metal>
0.0000

> <Gold.PLP.part.buried>
-4.3934

> <Gold.PLP.part.nonpolar>
-18.8671

> <Gold.PLP.part.repulsive>
0.2166

> <Gold.PLP.ligand.clash>
0.0000

> <Gold.PLP.ligand.torsion>
1.6119

> <Gold.PLP.Chemscore.Hbond>
5.6960

> <Gold.PLP.Chemscore.CHOScore>
0.0000

> <Gold.PLP.Chemscore.Metal>
0.0000

> <Gold.Chemscore.Hbonds>
donor molecule, donor type, donor heavy atom, donor atom, acceptor molecule, acceptor atom, score
      L1  H    13    42       P1  7948  2.00
      P1  H  6896  6908       L1     5  1.90
      P1  H  6931  6943       L1    20  0.76
      P1  H  6934  6947       L1    20  0.82

> <Gold.PLP.Chemscore.Internal.Correction>
0.1650

> <Gold.Rescore>
     Score         DG    S(hbond)    S(metal)    S(lipo)     H(rot)  DE(clash)    DE(int)     intcor
     15.48     -17.09       2.64        0.00      58.33       1.57       0.00       1.61       ----

> <Gold.Chemscore.Fitness>
15.4769

> <Gold.Chemscore.DG>
-17.0925

> <Gold.Chemscore.ZeroCoef>
-5.4800

> <Gold.Chemscore.Hbond>
2.6368

> <Gold.Chemscore.Metal>
0.0000

> <Gold.Chemscore.Lipo>
58.3320

> <Gold.Chemscore.Internal_Hbond>
0.0000

> <Gold.Chemscore.DEClash>
0.0015

> <Gold.Chemscore.DEInternal>
1.6141

> <Gold.Chemscore.Rot>
1.5701

> <Gold.Chemscore.Internal.Correction>
   9.000000E+99

> <Gold.Chemscore.Hbonds>
donor molecule, donor type, donor heavy atom, donor atom, acceptor molecule, acceptor atom, score
      L1  H    13    42       P1  7948  0.92
      P1  H  6896  6908       L1     5  0.16
      P1  H  6931  6943       L1    20  0.27
      P1  H  6934  6947       L1    20  0.75

> <Gold.Chemscore.Hbond.Weighted>
-8.8070

> <Gold.Chemscore.Metal.Weighted>
-0.0000

> <Gold.Chemscore.Lipo.Weighted>
-6.8248

> <Gold.Chemscore.Internal_Hbond.Weighted>
0.0000

> <Gold.Chemscore.DEClash.Weighted>
0.0015

> <Gold.Chemscore.DEInternal.Weighted>
1.6141

> <Gold.Chemscore.Rot.Weighted>
4.0194

> <Gold.Chemscore.Internal.Correction.Weighted>
   9.000000E+99

> <Gold.Protein.RotatedTorsions>
[ 6907 6896 6895 6894 ] final  144.77 input  -60.11 | X-H torsion
[ 7974 7965 7964 7962 ] final  -86.59 input  175.53 | X-H torsion
[ 8008 7997 7996 7995 ] final  120.93 input   59.86 | X-H torsion
[ 10167 10162 10161 10158 ] final  -91.53 input  -65.29 | X-H torsion
[ 10718 10713 10712 10709 ] final -145.09 input   66.30 | X-H torsion
[ 10763 10752 10751 10750 ] final   39.59 input  -60.55 | X-H torsion
[ 11005 11000 10999 10996 ] final -121.74 input  -57.11 | X-H torsion

> <Gold.Protein.ActiveResidues>
 VAL166  LYS551  ARG553  GLY616  TRP617  ASP618  TYR619  PRO620  LYS621  CYS622 
 ASP623  PHE694  ASN695  SER759  ASP760  ASP761  ALA762  ILE779  LEU786  VAL792 
 PHE793  MET794  SER795  GLU796  ALA797  LYS798  CYS799  TRP800  GLU811  SER814 

> <Gold.Protein.RotatedAtoms>
  152.1894  133.4762  159.4999 H   0  0  0  0  0  0  0  0  0  0  0  0  # atno 6907 bound_to 6896
  150.6948  134.1732  159.4229 H   0  0  0  0  0  0  0  0  0  0  0  0  # atno 6908 bound_to 6896
  151.9646  135.0106  160.0600 H   0  0  0  0  0  0  0  0  0  0  0  0  # atno 6909 bound_to 6896
  145.4779  140.9558  143.1880 H   0  0  0  0  0  0  0  0  0  0  0  0  # atno 7974 bound_to 7965
  156.2664  140.2820  156.1228 H   0  0  0  0  0  0  0  0  0  0  0  0  # atno 8008 bound_to 7997
  155.1138  140.0391  157.2749 H   0  0  0  0  0  0  0  0  0  0  0  0  # atno 8009 bound_to 7997
  154.6722  140.2590  155.7001 H   0  0  0  0  0  0  0  0  0  0  0  0  # atno 8010 bound_to 7997
  140.3440  143.2927  151.9803 H   0  0  0  0  0  0  0  0  0  0  0  0  # atno 10167 bound_to 10162
  156.3782  130.7823  151.2012 H   0  0  0  0  0  0  0  0  0  0  0  0  # atno 10718 bound_to 10713
  152.9962  135.6216  154.2490 H   0  0  0  0  0  0  0  0  0  0  0  0  # atno 10763 bound_to 10752
  154.2229  135.2795  155.2920 H   0  0  0  0  0  0  0  0  0  0  0  0  # atno 10764 bound_to 10752
  154.5513  135.5732  153.6983 H   0  0  0  0  0  0  0  0  0  0  0  0  # atno 10765 bound_to 10752
  141.0047  134.0351  157.3492 H   0  0  0  0  0  0  0  0  0  0  0  0  # atno 11005 bound_to 11000
  144.7906  139.6336  143.7115 LP  0  0  0  0  0  0  0  0  0  0  0  0  # atno 17320 bound_to 7965
  146.2358  139.5903  142.9524 LP  0  0  0  0  0  0  0  0  0  0  0  0  # atno 17321 bound_to 7965
  139.4836  144.6133  151.7394 LP  0  0  0  0  0  0  0  0  0  0  0  0  # atno 17342 bound_to 10162
  140.5282  144.0772  150.6044 LP  0  0  0  0  0  0  0  0  0  0  0  0  # atno 17343 bound_to 10162
  157.7490  131.0352  150.4352 LP  0  0  0  0  0  0  0  0  0  0  0  0  # atno 17370 bound_to 10713
  156.4591  130.4028  149.6587 LP  0  0  0  0  0  0  0  0  0  0  0  0  # atno 17371 bound_to 10713
  139.9057  135.0178  156.7475 LP  0  0  0  0  0  0  0  0  0  0  0  0  # atno 17394 bound_to 11000
  140.6831  133.9456  155.7922 LP  0  0  0  0  0  0  0  0  0  0  0  0  # atno 17395 bound_to 11000

$$$$
