AV-unprocessed.smi:2710|AV-procd|sdf|10465|dock2
  -GOLD-   2272014503D 1   1.00000     0.00000
 Structure written by MMmdl.
 53 54  0  0  0  0  0  0  0  0  2 V2000
  144.3450  132.1340  150.4565 C   0  0  0  0  0  0  0  0  0  0  0  0
  144.7009  132.8453  151.7707 C   0  0  0  0  0  0  0  0  0  0  0  0
  145.8312  133.8088  151.6236 N   0  3  1  0  0  0  0  0  0  0  0  0
  145.6609  134.7781  150.5043 C   0  0  0  0  0  0  0  0  0  0  0  0
  144.6074  135.8566  150.8269 C   0  0  0  0  0  0  0  0  0  0  0  0
  144.9313  136.5846  152.1440 C   0  0  1  0  0  0  0  0  0  0  0  0
  143.8365  137.4834  152.5010 N   0  0  0  0  0  0  0  0  0  0  0  0
  142.5924  137.1097  152.8338 C   0  0  0  0  0  0  0  0  0  0  0  0
  142.2198  135.9377  152.8764 O   0  0  0  0  0  0  0  0  0  0  0  0
  141.8295  138.1753  153.1305 N   0  0  0  0  0  0  0  0  0  0  0  0
  140.4624  138.1918  153.5142 C   0  0  0  0  0  0  0  0  0  0  0  0
  139.6663  139.3054  153.1787 C   0  0  0  0  0  0  0  0  0  0  0  0
  138.3592  139.3745  153.5070 N   0  0  0  0  0  0  0  0  0  0  0  0
  137.8302  138.3358  154.1666 C   0  0  0  0  0  0  0  0  0  0  0  0
  136.3310  138.4311  154.5036 C   0  0  0  0  0  0  0  0  0  0  0  0
  135.5130  137.2870  153.8553 C   0  0  0  0  0  0  0  0  0  0  0  0
  135.7640  139.7661  153.9809 C   0  0  0  0  0  0  0  0  0  0  0  0
  136.1275  138.3190  156.0292 C   0  0  0  0  0  0  0  0  0  0  0  0
  138.4875  137.2188  154.5054 N   0  0  0  0  0  0  0  0  0  0  0  0
  139.7975  137.1402  154.1886 C   0  0  0  0  0  0  0  0  0  0  0  0
  145.1684  135.5720  153.2787 C   0  0  0  0  0  0  0  0  0  0  0  0
  146.2264  134.5244  152.8749 C   0  0  1  0  0  0  0  0  0  0  0  0
  146.6004  133.5833  154.0340 C   0  0  0  0  0  0  0  0  0  0  0  0
  143.6121  131.3474  150.6365 H   0  0  0  0  0  0  0  0  0  0  0  0
  145.2233  131.6673  150.0096 H   0  0  0  0  0  0  0  0  0  0  0  0
  143.9086  132.8117  149.7236 H   0  0  0  0  0  0  0  0  0  0  0  0
  143.8197  133.3354  152.1838 H   0  0  0  0  0  0  0  0  0  0  0  0
  144.9694  132.0628  152.4773 H   0  0  0  0  0  0  0  0  0  0  0  0
  146.6216  135.2613  150.3217 H   0  0  0  0  0  0  0  0  0  0  0  0
  145.4129  134.2703  149.5737 H   0  0  0  0  0  0  0  0  0  0  0  0
  144.5622  136.5776  150.0096 H   0  0  0  0  0  0  0  0  0  0  0  0
  143.6171  135.4038  150.8821 H   0  0  0  0  0  0  0  0  0  0  0  0
  145.8559  137.1470  152.0007 H   0  0  0  0  0  0  0  0  0  0  0  0
  144.0441  138.4714  152.4993 H   0  0  0  0  0  0  0  0  0  0  0  0
  142.2937  139.0718  153.1375 H   0  0  0  0  0  0  0  0  0  0  0  0
  140.0791  140.1506  152.6472 H   0  0  0  0  0  0  0  0  0  0  0  0
  134.4561  137.3590  154.1145 H   0  0  0  0  0  0  0  0  0  0  0  0
  135.8594  136.3069  154.1862 H   0  0  0  0  0  0  0  0  0  0  0  0
  135.5754  137.3118  152.7665 H   0  0  0  0  0  0  0  0  0  0  0  0
  135.8960  139.8568  152.9022 H   0  0  0  0  0  0  0  0  0  0  0  0
  136.2568  140.6209  154.4455 H   0  0  0  0  0  0  0  0  0  0  0  0
  134.6977  139.8549  154.1916 H   0  0  0  0  0  0  0  0  0  0  0  0
  135.0699  138.3549  156.2930 H   0  0  0  0  0  0  0  0  0  0  0  0
  136.6183  139.1321  156.5647 H   0  0  0  0  0  0  0  0  0  0  0  0
  136.5310  137.3815  156.4138 H   0  0  0  0  0  0  0  0  0  0  0  0
  140.2908  136.2207  154.4627 H   0  0  0  0  0  0  0  0  0  0  0  0
  145.4976  136.1023  154.1735 H   0  0  0  0  0  0  0  0  0  0  0  0
  144.2337  135.0766  153.5453 H   0  0  0  0  0  0  0  0  0  0  0  0
  147.1424  135.0658  152.6318 H   0  0  0  0  0  0  0  0  0  0  0  0
  147.0903  134.1394  154.8338 H   0  0  0  0  0  0  0  0  0  0  0  0
  147.2916  132.8061  153.7068 H   0  0  0  0  0  0  0  0  0  0  0  0
  145.7275  133.1021  154.4749 H   0  0  0  0  0  0  0  0  0  0  0  0
  146.6289  133.2403  151.3773 H   0  0  0  0  0  0  0  0  0  0  0  0
  1  2  1  0  0  0  0
  1 24  1  0  0  0  0
  1 25  1  0  0  0  0
  1 26  1  0  0  0  0
  2  3  1  0  0  0  0
  2 27  1  0  0  0  0
  2 28  1  0  0  0  0
  3 22  1  0  0  0  0
  3  4  1  0  0  0  0
  3 53  1  0  0  0  0
  4  5  1  0  0  0  0
  4 29  1  0  0  0  0
  4 30  1  0  0  0  0
  5  6  1  0  0  0  0
  5 31  1  0  0  0  0
  5 32  1  0  0  0  0
  6  7  1  0  0  0  0
  6 21  1  0  0  0  0
  6 33  1  0  0  0  0
  7  8  1  0  0  0  0
  7 34  1  0  0  0  0
  8  9  2  0  0  0  0
  8 10  1  0  0  0  0
 10 11  1  0  0  0  0
 10 35  1  0  0  0  0
 11 20  1  0  0  0  0
 11 12  2  0  0  0  0
 12 13  1  0  0  0  0
 12 36  1  0  0  0  0
 13 14  2  0  0  0  0
 14 15  1  0  0  0  0
 14 19  1  0  0  0  0
 15 16  1  0  0  0  0
 15 17  1  0  0  0  0
 15 18  1  0  0  0  0
 16 37  1  0  0  0  0
 16 38  1  0  0  0  0
 16 39  1  0  0  0  0
 17 40  1  0  0  0  0
 17 41  1  0  0  0  0
 17 42  1  0  0  0  0
 18 43  1  0  0  0  0
 18 44  1  0  0  0  0
 18 45  1  0  0  0  0
 19 20  2  0  0  0  0
 20 46  1  0  0  0  0
 21 22  1  0  0  0  0
 21 47  1  0  0  0  0
 21 48  1  0  0  0  0
 22 23  1  0  0  0  0
 22 49  1  0  0  0  0
 23 50  1  0  0  0  0
 23 51  1  0  0  0  0
 23 52  1  0  0  0  0
M  CHG  1   3   1
M  END
> <s_m_source_file>
AV-unprocessed.smi

> <i_m_source_file_index>
2710

> <i_lp_mmshare_version>
43012

> <i_f3d_flags>
0

> <s_epik_input>
W0NIM11bQ0gyXU4xW0NIMl1bQ0gyXVtDQEhdKFtDSDJdW0NASF0xW0NIM10pW05IXUMoPU8pW05IXWMyW2NIXW5jKEMoW0NIM10pKFtDSDNdKVtDSDNdKW5bY0hdMg==

> <s_epik_cmdline>
J2VwaWtfcHl0aG9uJywgJy1waCcsICc3LjAnLCAnLXRuJywgJzgnLCAnLW1hJywgJzIwMCcsICctbWV0YWxfYmluZGluZycsICctaW1hZScsICc8aW5maWxlLm1hZT4nLCAnLW9tYWUnLCAnPG91dGZpbGUubWFlPic=

> <r_lp_tautomer_probability>
1

> <r_epik_Ionization_Penalty>
0.00396003

> <r_epik_Ionization_Penalty_Charging>
0.0039379

> <r_epik_Ionization_Penalty_Neutral>
2.21316e-05

> <r_epik_State_Penalty>
0.00281651

> <r_epik_Charging_Adjusted_Penalty>
0.00675441

> <i_epik_Tot_Q>
1

> <i_epik_Tot_abs_Q>
1

> <r_epik_Metal_State_Penalty>
-0

> <b_epik_Metal_Only>
0

> <s_lp_Force_Field>
OPLS_2005

> <r_lp_Energy>
21.9784

> <b_lp_Chiralities_Consistent>
1

> <s_lp_Variant>
AV-unprocessed.smi:2710-2

> <Gold.Version>
5.8.1

> <Gold.Id.Protein>
6NUR|6NUR_protein|mol2

> <Gold.PLP.Fitness>
41.0515

> <Gold.PLP.PLP>
-31.4866

> <Gold.PLP.part.hbond>
-3.0000

> <Gold.PLP.part.metal>
0.0000

> <Gold.PLP.part.buried>
-2.6011

> <Gold.PLP.part.nonpolar>
-26.2413

> <Gold.PLP.part.repulsive>
0.3513

> <Gold.PLP.ligand.clash>
0.0000

> <Gold.PLP.ligand.torsion>
0.2258

> <Gold.PLP.Chemscore.Hbond>
1.9825

> <Gold.PLP.Chemscore.CHOScore>
1.3412

> <Gold.PLP.Chemscore.Metal>
0.0000

> <Gold.Chemscore.Hbonds>
donor molecule, donor type, donor heavy atom, donor atom, acceptor molecule, acceptor atom, score
      L1  H     7    34       P1 10175  1.00
      L1  H    10    35       P1 10175  1.00
      L1  C    12    36       P1 10160  0.57

> <Gold.PLP.Chemscore.Internal.Correction>
0.0456

> <Gold.Rescore>
     Score         DG    S(hbond)    S(metal)    S(lipo)     H(rot)  DE(clash)    DE(int)     intcor
     14.04     -17.38       1.87        0.00      76.95       1.31       1.02       2.32       ----

> <Gold.Chemscore.Fitness>
14.0375

> <Gold.Chemscore.DG>
-17.3779

> <Gold.Chemscore.ZeroCoef>
-5.4800

> <Gold.Chemscore.Hbond>
1.8692

> <Gold.Chemscore.Metal>
0.0000

> <Gold.Chemscore.Lipo>
76.9544

> <Gold.Chemscore.Internal_Hbond>
0.0000

> <Gold.Chemscore.DEClash>
1.0191

> <Gold.Chemscore.DEInternal>
2.3213

> <Gold.Chemscore.Rot>
1.3081

> <Gold.Chemscore.Internal.Correction>
   9.000000E+99

> <Gold.Chemscore.Hbonds>
donor molecule, donor type, donor heavy atom, donor atom, acceptor molecule, acceptor atom, score
      L1  H     7    34       P1 10175  0.95
      L1  H    10    35       P1 10175  0.94

> <Gold.Chemscore.Hbond.Weighted>
-6.2431

> <Gold.Chemscore.Metal.Weighted>
-0.0000

> <Gold.Chemscore.Lipo.Weighted>
-9.0037

> <Gold.Chemscore.Internal_Hbond.Weighted>
0.0000

> <Gold.Chemscore.DEClash.Weighted>
1.0191

> <Gold.Chemscore.DEInternal.Weighted>
2.3213

> <Gold.Chemscore.Rot.Weighted>
3.3488

> <Gold.Chemscore.Internal.Correction.Weighted>
   9.000000E+99

> <Gold.Protein.RotatedTorsions>
[ 6907 6896 6895 6894 ] final  123.58 input  -60.11 | X-H torsion
[ 7974 7965 7964 7962 ] final    4.88 input  175.53 | X-H torsion
[ 8008 7997 7996 7995 ] final -143.01 input   59.86 | X-H torsion
[ 10167 10162 10161 10158 ] final -145.24 input  -65.29 | X-H torsion
[ 10718 10713 10712 10709 ] final   95.84 input   66.30 | X-H torsion
[ 10763 10752 10751 10750 ] final  156.06 input  -60.55 | X-H torsion
[ 11005 11000 10999 10996 ] final -128.77 input  -57.11 | X-H torsion

> <Gold.Protein.ActiveResidues>
 VAL166  LYS551  ARG553  GLY616  TRP617  ASP618  TYR619  PRO620  LYS621  CYS622 
 ASP623  PHE694  ASN695  SER759  ASP760  ASP761  ALA762  ILE779  LEU786  VAL792 
 PHE793  MET794  SER795  GLU796  ALA797  LYS798  CYS799  TRP800  GLU811  SER814 

> <Gold.Protein.RotatedAtoms>
  152.4150  133.7023  159.6430 H   0  0  0  0  0  0  0  0  0  0  0  0  # atno 6907 bound_to 6896
  150.8028  133.8556  159.3226 H   0  0  0  0  0  0  0  0  0  0  0  0  # atno 6908 bound_to 6896
  151.6289  135.1027  160.0169 H   0  0  0  0  0  0  0  0  0  0  0  0  # atno 6909 bound_to 6896
  146.2442  140.0468  142.8378 H   0  0  0  0  0  0  0  0  0  0  0  0  # atno 7974 bound_to 7965
  155.5037  140.0577  157.2935 H   0  0  0  0  0  0  0  0  0  0  0  0  # atno 8008 bound_to 7997
  154.4577  140.1981  156.0281 H   0  0  0  0  0  0  0  0  0  0  0  0  # atno 8009 bound_to 7997
  156.0832  140.3244  155.7724 H   0  0  0  0  0  0  0  0  0  0  0  0  # atno 8010 bound_to 7997
  139.7824  143.8081  152.2640 H   0  0  0  0  0  0  0  0  0  0  0  0  # atno 10167 bound_to 10162
  157.6934  131.0559  150.4400 H   0  0  0  0  0  0  0  0  0  0  0  0  # atno 10718 bound_to 10713
  154.1782  135.2801  155.3060 H   0  0  0  0  0  0  0  0  0  0  0  0  # atno 10763 bound_to 10752
  154.6023  135.5526  153.7390 H   0  0  0  0  0  0  0  0  0  0  0  0  # atno 10764 bound_to 10752
  153.0145  135.6395  154.1922 H   0  0  0  0  0  0  0  0  0  0  0  0  # atno 10765 bound_to 10752
  140.9488  134.1093  157.4081 H   0  0  0  0  0  0  0  0  0  0  0  0  # atno 11005 bound_to 11000
  145.1020  140.9351  143.4707 LP  0  0  0  0  0  0  0  0  0  0  0  0  # atno 17320 bound_to 7965
  145.0663  139.3066  143.5855 LP  0  0  0  0  0  0  0  0  0  0  0  0  # atno 17321 bound_to 7965
  139.8148  144.7321  150.9649 LP  0  0  0  0  0  0  0  0  0  0  0  0  # atno 17342 bound_to 10162
  140.7819  143.4215  151.0833 LP  0  0  0  0  0  0  0  0  0  0  0  0  # atno 17343 bound_to 10162
  156.4760  130.4063  149.6490 LP  0  0  0  0  0  0  0  0  0  0  0  0  # atno 17370 bound_to 10713
  156.3553  130.7453  151.2418 LP  0  0  0  0  0  0  0  0  0  0  0  0  # atno 17371 bound_to 10713
  139.8841  135.0059  156.6348 LP  0  0  0  0  0  0  0  0  0  0  0  0  # atno 17394 bound_to 11000
  140.7631  133.8801  155.8433 LP  0  0  0  0  0  0  0  0  0  0  0  0  # atno 17395 bound_to 11000

$$$$
