AV-unprocessed.smi:2792|AV-procd|sdf|10773|dock8
  -GOLD-   2272015213D 1   1.00000     0.00000
 Structure written by MMmdl.
 44 46  0  0  0  0  0  0  0  0  1 V2000
  144.8680  136.7930  155.5576 C   0  0  0  0  0  0  0  0  0  0  0  0
  145.3403  138.0420  154.7952 C   0  0  0  0  0  0  0  0  0  0  0  0
  146.2355  137.7723  153.5577 C   0  0  2  0  0  0  0  0  0  0  0  0
  145.5426  136.8676  152.5213 C   0  0  0  0  0  0  0  0  0  0  0  0
  147.3939  137.0914  154.0018 O   0  0  0  0  0  0  0  0  0  0  0  0
  146.6847  139.0869  152.8677 C   0  0  0  0  0  0  0  0  0  0  0  0
  147.4360  139.9909  153.7257 N   0  0  0  0  0  0  0  0  0  0  0  0
  147.0199  141.2161  154.1987 C   0  0  0  0  0  0  0  0  0  0  0  0
  147.8773  141.8417  154.9586 N   0  0  0  0  0  0  0  0  0  0  0  0
  148.9717  140.9876  155.0016 C   0  0  0  0  0  0  0  0  0  0  0  0
  150.2376  141.0429  155.6393 C   0  0  0  0  0  0  0  0  0  0  0  0
  150.5893  142.0992  156.4049 N   0  0  0  0  0  0  0  0  0  0  0  0
  151.6712  141.9756  157.3765 C   0  0  0  0  0  0  0  0  0  0  0  0
  151.8208  143.1561  158.3233 C   0  0  0  0  0  0  0  0  0  0  0  0
  152.0759  142.9455  159.6957 C   0  0  0  0  0  0  0  0  0  0  0  0
  152.2172  144.0431  160.5668 C   0  0  0  0  0  0  0  0  0  0  0  0
  152.1020  145.3558  160.0703 C   0  0  0  0  0  0  0  0  0  0  0  0
  151.8443  145.5703  158.7025 C   0  0  0  0  0  0  0  0  0  0  0  0
  151.7021  144.4727  157.8311 C   0  0  0  0  0  0  0  0  0  0  0  0
  151.0891  140.0012  155.4471 N   0  0  0  0  0  0  0  0  0  0  0  0
  150.7200  138.9661  154.6861 C   0  0  0  0  0  0  0  0  0  0  0  0
  149.5694  138.7759  154.0357 N   0  0  0  0  0  0  0  0  0  0  0  0
  148.7152  139.8225  154.2262 C   0  0  0  0  0  0  0  0  0  0  0  0
  144.3154  137.0791  156.4526 H   0  0  0  0  0  0  0  0  0  0  0  0
  145.7082  136.1754  155.8753 H   0  0  0  0  0  0  0  0  0  0  0  0
  144.2034  136.1771  154.9521 H   0  0  0  0  0  0  0  0  0  0  0  0
  144.4625  138.6108  154.4862 H   0  0  0  0  0  0  0  0  0  0  0  0
  145.8741  138.6775  155.5026 H   0  0  0  0  0  0  0  0  0  0  0  0
  144.6036  137.3065  152.1828 H   0  0  0  0  0  0  0  0  0  0  0  0
  145.3212  135.8787  152.9230 H   0  0  0  0  0  0  0  0  0  0  0  0
  146.1707  136.7194  151.6421 H   0  0  0  0  0  0  0  0  0  0  0  0
  147.9807  136.9849  153.2686 H   0  0  0  0  0  0  0  0  0  0  0  0
  147.2963  138.8668  151.9911 H   0  0  0  0  0  0  0  0  0  0  0  0
  145.8120  139.6266  152.4970 H   0  0  0  0  0  0  0  0  0  0  0  0
  146.0491  141.6296  153.9678 H   0  0  0  0  0  0  0  0  0  0  0  0
  150.0035  142.9156  156.5054 H   0  0  0  0  0  0  0  0  0  0  0  0
  151.5404  141.0548  157.9464 H   0  0  0  0  0  0  0  0  0  0  0  0
  152.6060  141.8627  156.8271 H   0  0  0  0  0  0  0  0  0  0  0  0
  152.1667  141.9415  160.0838 H   0  0  0  0  0  0  0  0  0  0  0  0
  152.4152  143.8777  161.6155 H   0  0  0  0  0  0  0  0  0  0  0  0
  152.2119  146.1977  160.7380 H   0  0  0  0  0  0  0  0  0  0  0  0
  151.7567  146.5767  158.3207 H   0  0  0  0  0  0  0  0  0  0  0  0
  151.5076  144.6452  156.7827 H   0  0  0  0  0  0  0  0  0  0  0  0
  151.4510  138.1778  154.5838 H   0  0  0  0  0  0  0  0  0  0  0  0
  1  2  1  0  0  0  0
  1 24  1  0  0  0  0
  1 25  1  0  0  0  0
  1 26  1  0  0  0  0
  2  3  1  0  0  0  0
  2 27  1  0  0  0  0
  2 28  1  0  0  0  0
  3  4  1  0  0  0  0
  3  5  1  0  0  0  0
  3  6  1  0  0  0  0
  4 29  1  0  0  0  0
  4 30  1  0  0  0  0
  4 31  1  0  0  0  0
  5 32  1  0  0  0  0
  6  7  1  0  0  0  0
  6 33  1  0  0  0  0
  6 34  1  0  0  0  0
  7 23  1  0  0  0  0
  7  8  1  0  0  0  0
  8  9  2  0  0  0  0
  8 35  1  0  0  0  0
  9 10  1  0  0  0  0
 10 23  2  0  0  0  0
 10 11  1  0  0  0  0
 11 12  1  0  0  0  0
 11 20  2  0  0  0  0
 12 13  1  0  0  0  0
 12 36  1  0  0  0  0
 13 14  1  0  0  0  0
 13 37  1  0  0  0  0
 13 38  1  0  0  0  0
 14 19  1  0  0  0  0
 14 15  2  0  0  0  0
 15 16  1  0  0  0  0
 15 39  1  0  0  0  0
 16 17  2  0  0  0  0
 16 40  1  0  0  0  0
 17 18  1  0  0  0  0
 17 41  1  0  0  0  0
 18 19  2  0  0  0  0
 18 42  1  0  0  0  0
 19 43  1  0  0  0  0
 20 21  1  0  0  0  0
 21 22  2  0  0  0  0
 21 44  1  0  0  0  0
 22 23  1  0  0  0  0
M  END
> <s_m_source_file>
AV-unprocessed.smi

> <i_m_source_file_index>
2792

> <i_lp_mmshare_version>
43012

> <i_f3d_flags>
0

> <s_epik_input>
W0NIM11bQ0gyXVtDQEBdKFtDSDNdKShbT0hdKVtDSDJdbihbY0hdbjEpYyhjMTIpbltjSF1uYzJbTkhdW0NIMl1jM1tjSF1bY0hdW2NIXVtjSF1bY0hdMw==

> <s_epik_cmdline>
J2VwaWtfcHl0aG9uJywgJy1waCcsICc3LjAnLCAnLXRuJywgJzgnLCAnLW1hJywgJzIwMCcsICctbWV0YWxfYmluZGluZycsICctaW1hZScsICc8aW5maWxlLm1hZT4nLCAnLW9tYWUnLCAnPG91dGZpbGUubWFlPic=

> <r_lp_tautomer_probability>
1

> <r_epik_Ionization_Penalty>
0.00163025

> <r_epik_Ionization_Penalty_Charging>
0

> <r_epik_Ionization_Penalty_Neutral>
0.00163025

> <r_epik_State_Penalty>
-0

> <r_epik_Charging_Adjusted_Penalty>
0

> <i_epik_Tot_Q>
0

> <i_epik_Tot_abs_Q>
0

> <r_epik_Metal_State_Penalty>
-0

> <b_epik_Metal_Only>
0

> <s_lp_Force_Field>
OPLS_2005

> <r_lp_Energy>
12.9035

> <b_lp_Chiralities_Consistent>
1

> <s_lp_Variant>
AV-unprocessed.smi:2792-2

> <Gold.Version>
5.8.1

> <Gold.Id.Protein>
6NUR|6NUR_protein|mol2

> <Gold.PLP.Fitness>
49.6494

> <Gold.PLP.PLP>
-46.0394

> <Gold.PLP.part.hbond>
-2.3420

> <Gold.PLP.part.metal>
0.0000

> <Gold.PLP.part.buried>
-3.8352

> <Gold.PLP.part.nonpolar>
-41.7339

> <Gold.PLP.part.repulsive>
2.4403

> <Gold.PLP.ligand.clash>
0.0000

> <Gold.PLP.ligand.torsion>
0.4550

> <Gold.PLP.Chemscore.Hbond>
1.4550

> <Gold.PLP.Chemscore.CHOScore>
0.0000

> <Gold.PLP.Chemscore.Metal>
0.0000

> <Gold.Chemscore.Hbonds>
donor molecule, donor type, donor heavy atom, donor atom, acceptor molecule, acceptor atom, score
      L1  H     5    32       P1  7948  1.00
      L1  H    12    36       P1  8028  0.37
      P1  H  7989  7998       L1    20  0.04

> <Gold.PLP.Chemscore.Internal.Correction>
0.1550

> <Gold.Rescore>
     Score         DG    S(hbond)    S(metal)    S(lipo)     H(rot)  DE(clash)    DE(int)     intcor
     13.17     -15.07       1.07        0.00     106.66       2.52       0.23       1.67       ----

> <Gold.Chemscore.Fitness>
13.1674

> <Gold.Chemscore.DG>
-15.0709

> <Gold.Chemscore.ZeroCoef>
-5.4800

> <Gold.Chemscore.Hbond>
1.0705

> <Gold.Chemscore.Metal>
0.0000

> <Gold.Chemscore.Lipo>
106.6614

> <Gold.Chemscore.Internal_Hbond>
0.0000

> <Gold.Chemscore.DEClash>
0.2308

> <Gold.Chemscore.DEInternal>
1.6727

> <Gold.Chemscore.Rot>
2.5250

> <Gold.Chemscore.Internal.Correction>
   9.000000E+99

> <Gold.Chemscore.Hbonds>
donor molecule, donor type, donor heavy atom, donor atom, acceptor molecule, acceptor atom, score
      L1  H     5    32       P1  7948  1.00
      L1  H    12    36       P1  8028  0.36

> <Gold.Chemscore.Hbond.Weighted>
-3.5755

> <Gold.Chemscore.Metal.Weighted>
-0.0000

> <Gold.Chemscore.Lipo.Weighted>
-12.4794

> <Gold.Chemscore.Internal_Hbond.Weighted>
0.0000

> <Gold.Chemscore.DEClash.Weighted>
0.2308

> <Gold.Chemscore.DEInternal.Weighted>
1.6727

> <Gold.Chemscore.Rot.Weighted>
6.4639

> <Gold.Chemscore.Internal.Correction.Weighted>
   9.000000E+99

> <Gold.Protein.RotatedTorsions>
[ 6907 6896 6895 6894 ] final  157.72 input  -60.11 | X-H torsion
[ 7974 7965 7964 7962 ] final  -28.27 input  175.53 | X-H torsion
[ 8008 7997 7996 7995 ] final  153.11 input   59.86 | X-H torsion
[ 10167 10162 10161 10158 ] final -151.91 input  -65.29 | X-H torsion
[ 10718 10713 10712 10709 ] final   95.24 input   66.30 | X-H torsion
[ 10763 10752 10751 10750 ] final -139.55 input  -60.55 | X-H torsion
[ 11005 11000 10999 10996 ] final  -98.97 input  -57.11 | X-H torsion

> <Gold.Protein.ActiveResidues>
 VAL166  LYS551  ARG553  GLY616  TRP617  ASP618  TYR619  PRO620  LYS621  CYS622 
 ASP623  PHE694  ASN695  SER759  ASP760  ASP761  ALA762  ILE779  LEU786  VAL792 
 PHE793  MET794  SER795  GLU796  ALA797  LYS798  CYS799  TRP800  GLU811  SER814 

> <Gold.Protein.RotatedAtoms>
  152.0109  133.3861  159.4219 H   0  0  0  0  0  0  0  0  0  0  0  0  # atno 6907 bound_to 6896
  150.6899  134.3731  159.5010 H   0  0  0  0  0  0  0  0  0  0  0  0  # atno 6908 bound_to 6896
  152.1492  134.9002  160.0600 H   0  0  0  0  0  0  0  0  0  0  0  0  # atno 6909 bound_to 6896
  146.1300  140.5261  142.8698 H   0  0  0  0  0  0  0  0  0  0  0  0  # atno 7974 bound_to 7965
  156.2597  140.2002  156.6438 H   0  0  0  0  0  0  0  0  0  0  0  0  # atno 8008 bound_to 7997
  154.6589  140.0563  157.0064 H   0  0  0  0  0  0  0  0  0  0  0  0  # atno 8009 bound_to 7997
  155.1306  140.3233  155.4478 H   0  0  0  0  0  0  0  0  0  0  0  0  # atno 8010 bound_to 7997
  139.7227  143.8932  152.2509 H   0  0  0  0  0  0  0  0  0  0  0  0  # atno 10167 bound_to 10162
  157.6940  131.0539  150.4308 H   0  0  0  0  0  0  0  0  0  0  0  0  # atno 10718 bound_to 10713
  154.8605  135.3579  154.5565 H   0  0  0  0  0  0  0  0  0  0  0  0  # atno 10763 bound_to 10752
  153.6182  135.7007  153.5325 H   0  0  0  0  0  0  0  0  0  0  0  0  # atno 10764 bound_to 10752
  153.3151  135.4167  155.1330 H   0  0  0  0  0  0  0  0  0  0  0  0  # atno 10765 bound_to 10752
  141.1326  133.8285  157.0909 H   0  0  0  0  0  0  0  0  0  0  0  0  # atno 11005 bound_to 11000
  144.7680  140.5575  143.6689 LP  0  0  0  0  0  0  0  0  0  0  0  0  # atno 17320 bound_to 7965
  145.5282  139.1475  143.3514 LP  0  0  0  0  0  0  0  0  0  0  0  0  # atno 17321 bound_to 7965
  139.8832  144.7006  150.8854 LP  0  0  0  0  0  0  0  0  0  0  0  0  # atno 17342 bound_to 10162
  140.7757  143.3644  151.1766 LP  0  0  0  0  0  0  0  0  0  0  0  0  # atno 17343 bound_to 10162
  156.4675  130.4045  149.6538 LP  0  0  0  0  0  0  0  0  0  0  0  0  # atno 17370 bound_to 10713
  156.3631  130.7491  151.2466 LP  0  0  0  0  0  0  0  0  0  0  0  0  # atno 17371 bound_to 10713
  140.0393  134.9862  157.0930 LP  0  0  0  0  0  0  0  0  0  0  0  0  # atno 17394 bound_to 11000
  140.4161  134.1930  155.7163 LP  0  0  0  0  0  0  0  0  0  0  0  0  # atno 17395 bound_to 11000

$$$$
