#       Name:                AV-unprocessed.smi:2095
#       Creating user name   scv26
#       Creation time:       Fri Mar 27 11:28:05 2020


#       File generated by GOLD software.
#

@<TRIPOS>MOLECULE
AV-unprocessed.smi:2095
    47    48     1
SMALL
NO_CHARGES


@<TRIPOS>ATOM
      1 ****        -1.9019  -0.3836  -3.8285 C.3            1 S1                 0.0000
      2 ****        -0.6011  -1.1224  -3.4682 C.3            1 S1                 0.0000
      3 ****        -0.8254  -2.6179  -3.1727 C.3            1 S1                 0.0000
      4 ****        -1.4933  -2.8256  -1.8049 C.3            1 S1                 0.0000
      5 ****        -0.7139  -2.1055  -0.6931 C.3            1 S1                 0.0000
      6 ****        -0.5618  -0.6607  -1.0074 N.4            1 S1                 1.0000
      7 ****        -0.0571   0.1471   0.1405 C.3            1 S1                 0.0000
      8 ****        -0.4742   1.6236  -0.0060 C.3            1 S1                 0.0000
      9 ****         1.4638  -0.0259   0.3866 C.3            1 S1                 0.0000
     10 ****         1.9111   0.6968   1.5711 N.am           1 S1                 0.0000
     11 ****         1.7290   0.2865   2.8356 C.2            1 S1                 0.0000
     12 ****         1.2169  -0.7928   3.1310 O.2            1 S1                 0.0000
     13 ****         2.1640   1.2558   3.9340 C.3            1 S1                 0.0000
     14 ****         1.1813   2.3105   4.0957 N.pl3          1 S1                 0.0000
     15 ****         0.0687   2.3669   4.8306 C.2            1 S1                 0.0000
     16 ****        -0.5689   3.5156   4.6637 N.2            1 S1                 0.0000
     17 ****         0.2326   4.1927   3.7596 N.2            1 S1                 0.0000
     18 ****         1.2726   3.4827   3.4186 N.2            1 S1                 0.0000
     19 ****         0.1477  -0.4489  -2.2998 C.3            1 S1                 0.0000
     20 ****        -2.6102  -0.3756  -3.0000 H              1 S1                 0.0000
     21 ****        -2.3945  -0.8524  -4.6809 H              1 S1                 0.0000
     22 ****        -1.7000   0.6536  -4.0979 H              1 S1                 0.0000
     23 ****         0.0412  -1.0585  -4.3475 H              1 S1                 0.0000
     24 ****        -1.4223  -3.0798  -3.9600 H              1 S1                 0.0000
     25 ****         0.1366  -3.1321  -3.1788 H              1 S1                 0.0000
     26 ****        -2.5195  -2.4580  -1.8316 H              1 S1                 0.0000
     27 ****        -1.5575  -3.8911  -1.5823 H              1 S1                 0.0000
     28 ****        -1.2456  -2.2306   0.2508 H              1 S1                 0.0000
     29 ****         0.2672  -2.5652  -0.5679 H              1 S1                 0.0000
     30 ****        -0.5821  -0.2154   1.0254 H              1 S1                 0.0000
     31 ****        -0.2787   2.1836   0.9091 H              1 S1                 0.0000
     32 ****        -1.5415   1.7108  -0.2117 H              1 S1                 0.0000
     33 ****         0.0629   2.1231  -0.8120 H              1 S1                 0.0000
     34 ****         1.7299  -1.0793   0.4842 H              1 S1                 0.0000
     35 ****         2.0353   0.3610  -0.4569 H              1 S1                 0.0000
     36 ****         2.3432   1.5977   1.4221 H              1 S1                 0.0000
     37 ****         2.2725   0.7267   4.8819 H              1 S1                 0.0000
     38 ****         3.1338   1.6942   3.6933 H              1 S1                 0.0000
     39 ****        -0.2755   1.5701   5.4734 H              1 S1                 0.0000
     40 ****         1.1538  -0.8653  -2.2351 H              1 S1                 0.0000
     41 ****         0.2636   0.6145  -2.5075 H              1 S1                 0.0000
     42 ****        -1.5038  -0.3289  -1.1583 H              1 S1                 0.0000
     43 ****         0.9118  -1.4153   2.4104 LP             1 S1                 0.0000
     44 ****         1.1059  -1.0472   4.0917 LP             1 S1                 0.0000
     45 ****        -1.4219   3.8202   5.0876 LP             1 S1                 0.0000
     46 ****         0.0386   5.1101   3.4121 LP             1 S1                 0.0000
     47 ****         1.9961   3.7503   2.7822 LP             1 S1                 0.0000
@<TRIPOS>BOND
    1    1    2 1     
    2    1   20 1     
    3    1   21 1     
    4    1   22 1     
    5    2   19 1     
    6    2    3 1     
    7    2   23 1     
    8    3    4 1     
    9    3   24 1     
   10    3   25 1     
   11    4    5 1     
   12    4   26 1     
   13    4   27 1     
   14    5    6 1     
   15    5   28 1     
   16    5   29 1     
   17    6    7 1     
   18    6   19 1     
   19    6   42 1     
   20    7    8 1     
   21    7    9 1     
   22    7   30 1     
   23    8   31 1     
   24    8   32 1     
   25    8   33 1     
   26    9   10 1     
   27    9   34 1     
   28    9   35 1     
   29   10   11 am    
   30   10   36 1     
   31   11   12 2     
   32   11   13 1     
   33   13   14 1     
   34   13   37 1     
   35   13   38 1     
   36   14   18 1     
   37   14   15 1     
   38   15   16 2     
   39   15   39 1     
   40   16   17 1     
   41   17   18 2     
   42   19   40 1     
   43   19   41 1     
   44   12   43 1     
   45   12   44 1     
   46   16   45 1     
   47   17   46 1     
   48   18   47 1     
@<TRIPOS>SUBSTRUCTURE
      1 S1             1
@<TRIPOS>SET
LONE_PAIRS      STATIC     ATOMS    <user>   **** ""
5 43 44 45 46 47
DONOR_HYDROGENS      STATIC     ATOMS    <user>   **** ""
2 42 36
ATOM$BLUE        STATIC     ATOMS    COLORGROUP SYSTEM
5 43 44 45 46 47
ATOM$RED        STATIC     ATOMS    COLORGROUP SYSTEM
2 42 36
