AV-unprocessed.smi:1944|AV-procd|sdf|7854|dock2
  -GOLD-   2272010 03D 1   1.00000     0.00000
 Structure written by MMmdl.
 46 47  0  0  0  0  0  0  0  0  2 V2000
  148.6747  131.4326  153.7247 C   0  0  0  0  0  0  0  0  0  0  0  0
  147.9815  132.4858  153.0637 O   0  0  0  0  0  0  0  0  0  0  0  0
  146.8688  132.1698  152.3075 C   0  0  0  0  0  0  0  0  0  0  0  0
  146.5501  130.8612  152.1442 N   0  0  0  0  0  0  0  0  0  0  0  0
  145.4626  130.5509  151.4091 C   0  0  0  0  0  0  0  0  0  0  0  0
  144.6370  131.5187  150.8083 C   0  0  0  0  0  0  0  0  0  0  0  0
  144.9655  132.8765  150.9757 C   0  0  0  0  0  0  0  0  0  0  0  0
  146.1132  133.2179  151.7314 C   0  0  0  0  0  0  0  0  0  0  0  0
  146.5185  134.5586  151.9777 N   0  0  0  0  0  0  0  0  0  0  0  0
  145.7443  135.6432  152.1507 C   0  0  0  0  0  0  0  0  0  0  0  0
  144.5152  135.6593  152.0822 O   0  0  0  0  0  0  0  0  0  0  0  0
  146.4820  136.7368  152.3897 N   0  0  0  0  0  0  0  0  0  0  0  0
  145.9384  138.0687  152.6297 C   0  0  0  0  0  0  0  0  0  0  0  0
  147.0081  139.0192  153.2030 C   0  0  0  0  0  0  0  0  0  0  0  0
  146.4335  140.2228  153.8629 N   0  3  1  0  0  0  0  0  0  0  0  0
  145.9603  139.9301  155.2430 C   0  0  0  0  0  0  0  0  0  0  0  0
  145.1739  141.1131  155.8296 C   0  0  0  0  0  0  0  0  0  0  0  0
  146.0088  142.3976  155.8018 C   0  0  0  0  0  0  0  0  0  0  0  0
  146.4996  142.6674  154.3730 C   0  0  0  0  0  0  0  0  0  0  0  0
  147.2671  141.4649  153.7826 C   0  0  1  0  0  0  0  0  0  0  0  0
  148.6735  141.3111  154.4014 C   0  0  0  0  0  0  0  0  0  0  0  0
  149.5253  131.8459  154.2663 H   0  0  0  0  0  0  0  0  0  0  0  0
  149.0605  130.7003  153.0140 H   0  0  0  0  0  0  0  0  0  0  0  0
  148.0357  130.9265  154.4497 H   0  0  0  0  0  0  0  0  0  0  0  0
  145.2397  129.4996  151.3025 H   0  0  0  0  0  0  0  0  0  0  0  0
  143.7686  131.2264  150.2365 H   0  0  0  0  0  0  0  0  0  0  0  0
  144.3257  133.6265  150.5372 H   0  0  0  0  0  0  0  0  0  0  0  0
  147.5156  134.7165  151.9623 H   0  0  0  0  0  0  0  0  0  0  0  0
  147.4864  136.6380  152.4222 H   0  0  0  0  0  0  0  0  0  0  0  0
  145.5218  138.4473  151.6961 H   0  0  0  0  0  0  0  0  0  0  0  0
  145.1069  137.9771  153.3291 H   0  0  0  0  0  0  0  0  0  0  0  0
  147.5840  138.4621  153.9434 H   0  0  0  0  0  0  0  0  0  0  0  0
  147.7241  139.3155  152.4363 H   0  0  0  0  0  0  0  0  0  0  0  0
  145.3119  139.0532  155.2298 H   0  0  0  0  0  0  0  0  0  0  0  0
  146.8059  139.6784  155.8840 H   0  0  0  0  0  0  0  0  0  0  0  0
  144.2560  141.2613  155.2589 H   0  0  0  0  0  0  0  0  0  0  0  0
  144.8695  140.8883  156.8523 H   0  0  0  0  0  0  0  0  0  0  0  0
  145.4153  143.2392  156.1601 H   0  0  0  0  0  0  0  0  0  0  0  0
  146.8569  142.3060  156.4811 H   0  0  0  0  0  0  0  0  0  0  0  0
  145.6391  142.8883  153.7396 H   0  0  0  0  0  0  0  0  0  0  0  0
  147.1232  143.5619  154.3544 H   0  0  0  0  0  0  0  0  0  0  0  0
  147.4118  141.7018  152.7297 H   0  0  0  0  0  0  0  0  0  0  0  0
  149.2227  142.2509  154.3427 H   0  0  0  0  0  0  0  0  0  0  0  0
  149.2709  140.5692  153.8719 H   0  0  0  0  0  0  0  0  0  0  0  0
  148.6375  141.0239  155.4519 H   0  0  0  0  0  0  0  0  0  0  0  0
  145.5941  140.4333  153.3421 H   0  0  0  0  0  0  0  0  0  0  0  0
  1  2  1  0  0  0  0
  1 22  1  0  0  0  0
  1 23  1  0  0  0  0
  1 24  1  0  0  0  0
  2  3  1  0  0  0  0
  3  8  1  0  0  0  0
  3  4  2  0  0  0  0
  4  5  1  0  0  0  0
  5  6  2  0  0  0  0
  5 25  1  0  0  0  0
  6  7  1  0  0  0  0
  6 26  1  0  0  0  0
  7  8  2  0  0  0  0
  7 27  1  0  0  0  0
  8  9  1  0  0  0  0
  9 10  1  0  0  0  0
  9 28  1  0  0  0  0
 10 11  2  0  0  0  0
 10 12  1  0  0  0  0
 12 13  1  0  0  0  0
 12 29  1  0  0  0  0
 13 14  1  0  0  0  0
 13 30  1  0  0  0  0
 13 31  1  0  0  0  0
 14 15  1  0  0  0  0
 14 32  1  0  0  0  0
 14 33  1  0  0  0  0
 15 20  1  0  0  0  0
 15 16  1  0  0  0  0
 15 46  1  0  0  0  0
 16 17  1  0  0  0  0
 16 34  1  0  0  0  0
 16 35  1  0  0  0  0
 17 18  1  0  0  0  0
 17 36  1  0  0  0  0
 17 37  1  0  0  0  0
 18 19  1  0  0  0  0
 18 38  1  0  0  0  0
 18 39  1  0  0  0  0
 19 20  1  0  0  0  0
 19 40  1  0  0  0  0
 19 41  1  0  0  0  0
 20 21  1  0  0  0  0
 20 42  1  0  0  0  0
 21 43  1  0  0  0  0
 21 44  1  0  0  0  0
 21 45  1  0  0  0  0
M  CHG  1  15   1
M  END
> <s_m_source_file>
AV-unprocessed.smi

> <i_m_source_file_index>
1944

> <i_lp_mmshare_version>
43012

> <i_f3d_flags>
0

> <s_epik_input>
W0NIM11PYzFuW2NIXVtjSF1bY0hdYzFbTkhdQyg9TylbTkhdW0NIMl1bQ0gyXU4yW0NIMl1bQ0gyXVtDSDJdW0NIMl1bQ0BIXTJbQ0gzXQ==

> <s_epik_cmdline>
J2VwaWtfcHl0aG9uJywgJy1waCcsICc3LjAnLCAnLXRuJywgJzgnLCAnLW1hJywgJzIwMCcsICctbWV0YWxfYmluZGluZycsICctaW1hZScsICc8aW5maWxlLm1hZT4nLCAnLW9tYWUnLCAnPG91dGZpbGUubWFlPic=

> <r_lp_tautomer_probability>
1

> <r_epik_Ionization_Penalty>
0.00219525

> <r_epik_Ionization_Penalty_Charging>
0.00211816

> <r_epik_Ionization_Penalty_Neutral>
7.7088e-05

> <r_epik_State_Penalty>
0.00145254

> <r_epik_Charging_Adjusted_Penalty>
0.0035707

> <i_epik_Tot_Q>
1

> <i_epik_Tot_abs_Q>
1

> <r_epik_Metal_State_Penalty>
-0

> <b_epik_Metal_Only>
0

> <s_lp_Force_Field>
OPLS_2005

> <r_lp_Energy>
22.8304

> <b_lp_Chiralities_Consistent>
1

> <s_lp_Variant>
AV-unprocessed.smi:1944-2

> <Gold.Version>
5.8.1

> <Gold.Id.Protein>
6NUR|6NUR_protein|mol2

> <Gold.PLP.Fitness>
47.7025

> <Gold.PLP.PLP>
-37.4424

> <Gold.PLP.part.hbond>
-3.0000

> <Gold.PLP.part.metal>
0.0000

> <Gold.PLP.part.buried>
-6.7297

> <Gold.PLP.part.nonpolar>
-29.2410

> <Gold.PLP.part.repulsive>
0.6252

> <Gold.PLP.ligand.clash>
0.0000

> <Gold.PLP.ligand.torsion>
0.7285

> <Gold.PLP.Chemscore.Hbond>
3.8723

> <Gold.PLP.Chemscore.CHOScore>
0.0000

> <Gold.PLP.Chemscore.Metal>
0.0000

> <Gold.Chemscore.Hbonds>
donor molecule, donor type, donor heavy atom, donor atom, acceptor molecule, acceptor atom, score
      L1  H     9    28       P1  7948  0.84
      L1  H    12    29       P1  7948  1.00
      L1  H    15    46       P1 10175  1.66

> <Gold.PLP.Chemscore.Internal.Correction>
0.1002

> <Gold.Rescore>
     Score         DG    S(hbond)    S(metal)    S(lipo)     H(rot)  DE(clash)    DE(int)     intcor
     17.13     -19.56       2.85        0.00      76.36       1.71       0.93       1.50       ----

> <Gold.Chemscore.Fitness>
17.1281

> <Gold.Chemscore.DG>
-19.5585

> <Gold.Chemscore.ZeroCoef>
-5.4800

> <Gold.Chemscore.Hbond>
2.8514

> <Gold.Chemscore.Metal>
0.0000

> <Gold.Chemscore.Lipo>
76.3616

> <Gold.Chemscore.Internal_Hbond>
0.0000

> <Gold.Chemscore.DEClash>
0.9333

> <Gold.Chemscore.DEInternal>
1.4971

> <Gold.Chemscore.Rot>
1.7107

> <Gold.Chemscore.Internal.Correction>
   9.000000E+99

> <Gold.Chemscore.Hbonds>
donor molecule, donor type, donor heavy atom, donor atom, acceptor molecule, acceptor atom, score
      L1  H     9    28       P1  7948  0.55
      L1  H    12    29       P1  7948  0.97
      L1  H    15    46       P1 10175  0.80

> <Gold.Chemscore.Hbond.Weighted>
-9.5236

> <Gold.Chemscore.Metal.Weighted>
-0.0000

> <Gold.Chemscore.Lipo.Weighted>
-8.9343

> <Gold.Chemscore.Internal_Hbond.Weighted>
0.0000

> <Gold.Chemscore.DEClash.Weighted>
0.9333

> <Gold.Chemscore.DEInternal.Weighted>
1.4971

> <Gold.Chemscore.Rot.Weighted>
4.3794

> <Gold.Chemscore.Internal.Correction.Weighted>
   9.000000E+99

> <Gold.Protein.RotatedTorsions>
[ 6907 6896 6895 6894 ] final  158.82 input  -60.11 | X-H torsion
[ 7974 7965 7964 7962 ] final  148.27 input  175.53 | X-H torsion
[ 8008 7997 7996 7995 ] final  -42.91 input   59.86 | X-H torsion
[ 10167 10162 10161 10158 ] final   93.29 input  -65.29 | X-H torsion
[ 10718 10713 10712 10709 ] final  -42.06 input   66.30 | X-H torsion
[ 10763 10752 10751 10750 ] final   85.46 input  -60.55 | X-H torsion
[ 11005 11000 10999 10996 ] final  -51.36 input  -57.11 | X-H torsion

> <Gold.Protein.ActiveResidues>
 VAL166  LYS551  ARG553  GLY616  TRP617  ASP618  TYR619  PRO620  LYS621  CYS622 
 ASP623  PHE694  ASN695  SER759  ASP760  ASP761  ALA762  ILE779  LEU786  VAL792 
 PHE793  MET794  SER795  GLU796  ALA797  LYS798  CYS799  TRP800  GLU811  SER814 

> <Gold.Protein.RotatedAtoms>
  151.9947  133.3803  159.4157 H   0  0  0  0  0  0  0  0  0  0  0  0  # atno 6907 bound_to 6896
  150.6917  134.3899  159.5081 H   0  0  0  0  0  0  0  0  0  0  0  0  # atno 6908 bound_to 6896
  152.1637  134.8891  160.0590 H   0  0  0  0  0  0  0  0  0  0  0  0  # atno 6909 bound_to 6896
  144.8526  139.6133  143.5967 H   0  0  0  0  0  0  0  0  0  0  0  0  # atno 7974 bound_to 7965
  154.3997  140.1461  156.3432 H   0  0  0  0  0  0  0  0  0  0  0  0  # atno 8008 bound_to 7997
  155.8337  140.3465  155.5567 H   0  0  0  0  0  0  0  0  0  0  0  0  # atno 8009 bound_to 7997
  155.8161  140.0891  157.1867 H   0  0  0  0  0  0  0  0  0  0  0  0  # atno 8010 bound_to 7997
  139.8194  144.6738  150.9538 H   0  0  0  0  0  0  0  0  0  0  0  0  # atno 10167 bound_to 10162
  156.2636  130.4199  149.8514 H   0  0  0  0  0  0  0  0  0  0  0  0  # atno 10718 bound_to 10713
  153.1477  135.4616  154.9591 H   0  0  0  0  0  0  0  0  0  0  0  0  # atno 10763 bound_to 10752
  154.7800  135.3185  154.8013 H   0  0  0  0  0  0  0  0  0  0  0  0  # atno 10764 bound_to 10752
  153.8524  135.6920  153.4845 H   0  0  0  0  0  0  0  0  0  0  0  0  # atno 10765 bound_to 10752
  141.0866  133.6641  156.3865 H   0  0  0  0  0  0  0  0  0  0  0  0  # atno 11005 bound_to 11000
  146.2797  139.6846  142.9237 LP  0  0  0  0  0  0  0  0  0  0  0  0  # atno 17320 bound_to 7965
  145.4469  141.0426  143.2826 LP  0  0  0  0  0  0  0  0  0  0  0  0  # atno 17321 bound_to 7965
  140.7814  143.4107  151.0998 LP  0  0  0  0  0  0  0  0  0  0  0  0  # atno 17342 bound_to 10162
  139.7768  143.8413  152.3131 LP  0  0  0  0  0  0  0  0  0  0  0  0  # atno 17343 bound_to 10162
  156.6021  130.8551  151.3434 LP  0  0  0  0  0  0  0  0  0  0  0  0  # atno 17370 bound_to 10713
  157.7259  130.9623  150.1635 LP  0  0  0  0  0  0  0  0  0  0  0  0  # atno 17371 bound_to 10713
  140.5348  134.6178  157.5361 LP  0  0  0  0  0  0  0  0  0  0  0  0  # atno 17394 bound_to 11000
  139.9686  134.7331  156.0088 LP  0  0  0  0  0  0  0  0  0  0  0  0  # atno 17395 bound_to 11000

$$$$
