AV-unprocessed.smi:1718|AV-procd|sdf|6928|dock5
  -GOLD-   22720 8133D 1   1.00000     0.00000
 Structure written by MMmdl.
 39 40  0  0  0  0  0  0  0  0  2 V2000
  154.4016  137.9042  162.7013 C   0  0  0  0  0  0  0  0  0  0  0  0
  155.3422  139.1160  162.6248 C   0  0  2  0  0  0  0  0  0  0  0  0
  155.7733  139.4071  163.9511 O   0  0  0  0  0  0  0  0  0  0  0  0
  156.9263  140.2369  164.0498 C   0  0  0  0  0  0  0  0  0  0  0  0
  156.8067  141.1407  165.2844 C   0  0  1  0  0  0  0  0  0  0  0  0
  155.6354  142.1313  165.2625 C   0  0  0  0  0  0  0  0  0  0  0  0
  155.1363  142.1461  166.7016 C   0  0  0  0  0  0  0  0  0  0  0  0
  156.1329  141.2666  167.4546 C   0  0  0  0  0  0  0  0  0  0  0  0
  156.6128  140.3737  166.4631 O   0  0  0  0  0  0  0  0  0  0  0  0
  154.6330  140.3373  162.0177 C   0  0  0  0  0  0  0  0  0  0  0  0
  154.7268  141.4290  162.5784 O   0  0  0  0  0  0  0  0  0  0  0  0
  153.9729  140.1051  160.8659 N   0  0  0  0  0  0  0  0  0  0  0  0
  153.2297  140.9849  160.0602 C   0  0  0  0  0  0  0  0  0  0  0  0
  152.8038  142.2218  160.4396 C   0  0  0  0  0  0  0  0  0  0  0  0
  152.0239  143.0830  159.5597 C   0  0  0  0  0  0  0  0  0  0  0  0
  151.6241  144.5049  159.9120 C   0  0  0  0  0  0  0  0  0  0  0  0
  150.3004  144.6572  159.8643 F   0  0  0  0  0  0  0  0  0  0  0  0
  152.0320  144.7981  161.1458 F   0  0  0  0  0  0  0  0  0  0  0  0
  152.1785  145.3788  159.0718 F   0  0  0  0  0  0  0  0  0  0  0  0
  151.7871  142.4997  158.3301 C   0  0  0  0  0  0  0  0  0  0  0  0
  152.1462  141.2753  157.8864 N   0  5  0  0  0  0  0  0  0  0  0  0
  152.8790  140.4802  158.7162 C   0  0  0  0  0  0  0  0  0  0  0  0
  153.2499  139.3577  158.3704 O   0  0  0  0  0  0  0  0  0  0  0  0
  154.0215  137.6350  161.7151 H   0  0  0  0  0  0  0  0  0  0  0  0
  153.5463  138.0989  163.3498 H   0  0  0  0  0  0  0  0  0  0  0  0
  154.9248  137.0352  163.1007 H   0  0  0  0  0  0  0  0  0  0  0  0
  156.2044  138.8414  162.0139 H   0  0  0  0  0  0  0  0  0  0  0  0
  157.8232  139.6210  164.1272 H   0  0  0  0  0  0  0  0  0  0  0  0
  157.0355  140.8598  163.1616 H   0  0  0  0  0  0  0  0  0  0  0  0
  157.7370  141.6979  165.4081 H   0  0  0  0  0  0  0  0  0  0  0  0
  155.9608  143.1174  164.9295 H   0  0  0  0  0  0  0  0  0  0  0  0
  154.8359  141.8062  164.5957 H   0  0  0  0  0  0  0  0  0  0  0  0
  155.0797  143.1516  167.1189 H   0  0  0  0  0  0  0  0  0  0  0  0
  154.1395  141.7064  166.7498 H   0  0  0  0  0  0  0  0  0  0  0  0
  156.9631  141.8618  167.8385 H   0  0  0  0  0  0  0  0  0  0  0  0
  155.6773  140.7339  168.2898 H   0  0  0  0  0  0  0  0  0  0  0  0
  154.0397  139.1670  160.4981 H   0  0  0  0  0  0  0  0  0  0  0  0
  153.0148  142.6055  161.4236 H   0  0  0  0  0  0  0  0  0  0  0  0
  151.2303  143.1117  157.5888 H   0  0  0  0  0  0  0  0  0  0  0  0
  1  2  1  0  0  0  0
  1 24  1  0  0  0  0
  1 25  1  0  0  0  0
  1 26  1  0  0  0  0
  2  3  1  0  0  0  0
  2 10  1  0  0  0  0
  2 27  1  0  0  0  0
  3  4  1  0  0  0  0
  4  5  1  0  0  0  0
  4 28  1  0  0  0  0
  4 29  1  0  0  0  0
  5  9  1  0  0  0  0
  5  6  1  0  0  0  0
  5 30  1  0  0  0  0
  6  7  1  0  0  0  0
  6 31  1  0  0  0  0
  6 32  1  0  0  0  0
  7  8  1  0  0  0  0
  7 33  1  0  0  0  0
  7 34  1  0  0  0  0
  8  9  1  0  0  0  0
  8 35  1  0  0  0  0
  8 36  1  0  0  0  0
 10 11  2  0  0  0  0
 10 12  1  0  0  0  0
 12 13  1  0  0  0  0
 12 37  1  0  0  0  0
 13 22  1  0  0  0  0
 13 14  2  0  0  0  0
 14 15  1  0  0  0  0
 14 38  1  0  0  0  0
 15 16  1  0  0  0  0
 15 20  2  0  0  0  0
 16 17  1  0  0  0  0
 16 18  1  0  0  0  0
 16 19  1  0  0  0  0
 20 21  1  0  0  0  0
 20 39  1  0  0  0  0
 21 22  1  0  0  0  0
 22 23  2  0  0  0  0
M  CHG  1  21  -1
M  END
> <s_m_source_file>
AV-unprocessed.smi

> <i_m_source_file_index>
1718

> <i_lp_mmshare_version>
43012

> <i_f3d_flags>
0

> <s_epik_input>
TzFbQ0gyXVtDSDJdW0NIMl1bQ0BIXTFbQ0gyXU9bQ0BASF0oW0NIM10pQyg9TylbTkhdYzJbY0hdYyhDKEYpKEYpRilbY0hdW25IXWMyPU8=

> <s_epik_cmdline>
J2VwaWtfcHl0aG9uJywgJy1waCcsICc3LjAnLCAnLXRuJywgJzgnLCAnLW1hJywgJzIwMCcsICctbWV0YWxfYmluZGluZycsICctaW1hZScsICc8aW5maWxlLm1hZT4nLCAnLW9tYWUnLCAnPG91dGZpbGUubWFlPic=

> <r_epik_Ionization_Penalty>
2.5466

> <r_epik_Ionization_Penalty_Charging>
0.0575837

> <r_epik_Ionization_Penalty_Neutral>
2.48901

> <r_epik_State_Penalty>
2.6532

> <r_epik_Charging_Adjusted_Penalty>
2.71078

> <i_epik_Tot_Q>
-1

> <i_epik_Tot_abs_Q>
1

> <r_epik_Metal_State_Penalty>
0.516196

> <b_epik_Metal_Only>
0

> <s_lp_Force_Field>
OPLS_2005

> <r_lp_Energy>
37.3461

> <b_lp_Chiralities_Consistent>
1

> <s_lp_Variant>
AV-unprocessed.smi:1718-7

> <Gold.Version>
5.8.1

> <Gold.Id.Protein>
6NUR|6NUR_protein|mol2

> <Gold.PLP.Fitness>
45.7660

> <Gold.PLP.PLP>
-44.6671

> <Gold.PLP.part.hbond>
-2.0000

> <Gold.PLP.part.metal>
0.0000

> <Gold.PLP.part.buried>
-4.8243

> <Gold.PLP.part.nonpolar>
-36.7157

> <Gold.PLP.part.repulsive>
0.0382

> <Gold.PLP.ligand.clash>
0.0000

> <Gold.PLP.ligand.torsion>
0.6850

> <Gold.PLP.Chemscore.Hbond>
0.7500

> <Gold.PLP.Chemscore.CHOScore>
0.0000

> <Gold.PLP.Chemscore.Metal>
0.0000

> <Gold.Chemscore.Hbonds>
donor molecule, donor type, donor heavy atom, donor atom, acceptor molecule, acceptor atom, score
      P1  H  7997  8010       L1    23  0.60

> <Gold.PLP.Chemscore.Internal.Correction>
0.2189

> <Gold.Rescore>
     Score         DG    S(hbond)    S(metal)    S(lipo)     H(rot)  DE(clash)    DE(int)     intcor
      9.87     -13.82       0.95        0.00      84.45       1.85       1.00       2.95       ----

> <Gold.Chemscore.Fitness>
9.8700

> <Gold.Chemscore.DG>
-13.8191

> <Gold.Chemscore.ZeroCoef>
-5.4800

> <Gold.Chemscore.Hbond>
0.9531

> <Gold.Chemscore.Metal>
0.0000

> <Gold.Chemscore.Lipo>
84.4454

> <Gold.Chemscore.Internal_Hbond>
0.0000

> <Gold.Chemscore.DEClash>
0.9967

> <Gold.Chemscore.DEInternal>
2.9525

> <Gold.Chemscore.Rot>
1.8455

> <Gold.Chemscore.Internal.Correction>
   9.000000E+99

> <Gold.Chemscore.Hbonds>
donor molecule, donor type, donor heavy atom, donor atom, acceptor molecule, acceptor atom, score
      P1  H  7997  8010       L1    23  0.06

> <Gold.Chemscore.Hbond.Weighted>
-3.1835

> <Gold.Chemscore.Metal.Weighted>
-0.0000

> <Gold.Chemscore.Lipo.Weighted>
-9.8801

> <Gold.Chemscore.Internal_Hbond.Weighted>
0.0000

> <Gold.Chemscore.DEClash.Weighted>
0.9967

> <Gold.Chemscore.DEInternal.Weighted>
2.9525

> <Gold.Chemscore.Rot.Weighted>
4.7245

> <Gold.Chemscore.Internal.Correction.Weighted>
   9.000000E+99

> <Gold.Protein.RotatedTorsions>
[ 6907 6896 6895 6894 ] final   34.43 input  -60.11 | X-H torsion
[ 7974 7965 7964 7962 ] final  116.83 input  175.53 | X-H torsion
[ 8008 7997 7996 7995 ] final   50.81 input   59.86 | X-H torsion
[ 10167 10162 10161 10158 ] final  -91.10 input  -65.29 | X-H torsion
[ 10718 10713 10712 10709 ] final -105.23 input   66.30 | X-H torsion
[ 10763 10752 10751 10750 ] final    1.56 input  -60.55 | X-H torsion
[ 11005 11000 10999 10996 ] final -158.35 input  -57.11 | X-H torsion

> <Gold.Protein.ActiveResidues>
 VAL166  LYS551  ARG553  GLY616  TRP617  ASP618  TYR619  PRO620  LYS621  CYS622 
 ASP623  PHE694  ASN695  SER759  ASP760  ASP761  ALA762  ILE779  LEU786  VAL792 
 PHE793  MET794  SER795  GLU796  ALA797  LYS798  CYS799  TRP800  GLU811  SER814 

> <Gold.Protein.RotatedAtoms>
  152.1023  134.9333  160.0568 H   0  0  0  0  0  0  0  0  0  0  0  0  # atno 6907 bound_to 6896
  152.0542  133.4028  159.4398 H   0  0  0  0  0  0  0  0  0  0  0  0  # atno 6908 bound_to 6896
  150.6840  134.3194  159.4823 H   0  0  0  0  0  0  0  0  0  0  0  0  # atno 6909 bound_to 6896
  145.1748  139.3082  143.4449 H   0  0  0  0  0  0  0  0  0  0  0  0  # atno 7974 bound_to 7965
  155.4249  140.3448  155.4274 H   0  0  0  0  0  0  0  0  0  0  0  0  # atno 8008 bound_to 7997
  156.1371  140.1531  156.9009 H   0  0  0  0  0  0  0  0  0  0  0  0  # atno 8009 bound_to 7997
  154.4940  140.0833  156.7637 H   0  0  0  0  0  0  0  0  0  0  0  0  # atno 8010 bound_to 7997
  140.3482  143.2905  151.9756 H   0  0  0  0  0  0  0  0  0  0  0  0  # atno 10167 bound_to 10162
  156.0337  130.5553  150.7509 H   0  0  0  0  0  0  0  0  0  0  0  0  # atno 10718 bound_to 10713
  153.3065  135.6959  153.7155 H   0  0  0  0  0  0  0  0  0  0  0  0  # atno 10763 bound_to 10752
  153.6048  135.3455  155.2959 H   0  0  0  0  0  0  0  0  0  0  0  0  # atno 10764 bound_to 10752
  154.8564  135.4349  154.2191 H   0  0  0  0  0  0  0  0  0  0  0  0  # atno 10765 bound_to 10752
  140.6546  134.4414  157.5235 H   0  0  0  0  0  0  0  0  0  0  0  0  # atno 11005 bound_to 11000
  146.3463  140.1906  142.8589 LP  0  0  0  0  0  0  0  0  0  0  0  0  # atno 17320 bound_to 7965
  145.0196  140.8783  143.5174 LP  0  0  0  0  0  0  0  0  0  0  0  0  # atno 17321 bound_to 7965
  139.4830  144.6098  151.7454 LP  0  0  0  0  0  0  0  0  0  0  0  0  # atno 17342 bound_to 10162
  140.5244  144.0829  150.6033 LP  0  0  0  0  0  0  0  0  0  0  0  0  # atno 17343 bound_to 10162
  157.5053  131.0921  151.0264 LP  0  0  0  0  0  0  0  0  0  0  0  0  # atno 17370 bound_to 10713
  157.0634  130.5834  149.5390 LP  0  0  0  0  0  0  0  0  0  0  0  0  # atno 17371 bound_to 10713
  139.9034  134.8504  156.1803 LP  0  0  0  0  0  0  0  0  0  0  0  0  # atno 17394 bound_to 11000
  141.0511  133.6888  156.1774 LP  0  0  0  0  0  0  0  0  0  0  0  0  # atno 17395 bound_to 11000

$$$$
