AV-unprocessed.smi:1578|AV-procd|sdf|6351|dock2
  -GOLD-   22720 6573D 1   1.00000     0.00000
 Structure written by MMmdl.
 44 45  0  0  0  0  0  0  0  0  1 V2000
  151.8131  138.5727  157.9724 C   0  0  0  0  0  0  0  0  0  0  0  0
  150.5715  139.2421  158.5756 C   0  0  1  0  0  0  0  0  0  0  0  0
  150.2288  140.5609  157.8458 C   0  0  0  0  0  0  0  0  0  0  0  0
  151.2424  141.6130  157.9460 N   0  0  0  0  0  0  0  0  0  0  0  0
  150.7257  142.9375  157.6135 C   0  0  0  0  0  0  0  0  0  0  0  0
  151.8266  144.0085  157.6955 C   0  0  0  0  0  0  0  0  0  0  0  0
  152.3999  144.0031  158.9992 O   0  0  0  0  0  0  0  0  0  0  0  0
  152.9436  142.7362  159.3569 C   0  0  0  0  0  0  0  0  0  0  0  0
  151.8475  141.6590  159.2712 C   0  0  0  0  0  0  0  0  0  0  0  0
  149.4362  138.3254  158.4892 N   0  0  0  0  0  0  0  0  0  0  0  0
  149.3386  137.1430  159.1168 C   0  0  0  0  0  0  0  0  0  0  0  0
  150.2688  136.6128  159.7246 O   0  0  0  0  0  0  0  0  0  0  0  0
  147.9684  136.4587  159.0665 C   0  0  0  0  0  0  0  0  0  0  0  0
  147.7417  135.6290  160.2616 N   0  0  0  0  0  0  0  0  0  0  0  0
  147.8548  134.2331  160.1102 C   0  0  0  0  0  0  0  0  0  0  0  0
  147.7109  133.3707  161.1348 C   0  0  0  0  0  0  0  0  0  0  0  0
  147.7893  131.8658  160.9299 C   0  0  0  0  0  0  0  0  0  0  0  0
  148.7142  131.3464  161.7360 F   0  0  0  0  0  0  0  0  0  0  0  0
  146.6229  131.2813  161.2044 F   0  0  0  0  0  0  0  0  0  0  0  0
  148.1208  131.5684  159.6729 F   0  0  0  0  0  0  0  0  0  0  0  0
  147.3958  133.9495  162.4263 C   0  0  0  0  0  0  0  0  0  0  0  0
  147.2749  135.2816  162.5869 C   0  0  0  0  0  0  0  0  0  0  0  0
  147.4526  136.2077  161.4668 C   0  0  0  0  0  0  0  0  0  0  0  0
  147.3492  137.4272  161.6034 O   0  0  0  0  0  0  0  0  0  0  0  0
  152.6811  139.2294  158.0371 H   0  0  0  0  0  0  0  0  0  0  0  0
  151.6611  138.3244  156.9213 H   0  0  0  0  0  0  0  0  0  0  0  0
  152.0578  137.6508  158.5010 H   0  0  0  0  0  0  0  0  0  0  0  0
  150.8049  139.4596  159.6186 H   0  0  0  0  0  0  0  0  0  0  0  0
  150.0167  140.3552  156.7957 H   0  0  0  0  0  0  0  0  0  0  0  0
  149.2956  140.9366  158.2680 H   0  0  0  0  0  0  0  0  0  0  0  0
  150.3064  142.9440  156.6088 H   0  0  0  0  0  0  0  0  0  0  0  0
  149.9122  143.1993  158.2917 H   0  0  0  0  0  0  0  0  0  0  0  0
  152.6003  143.8231  156.9483 H   0  0  0  0  0  0  0  0  0  0  0  0
  151.4123  144.9956  157.4910 H   0  0  0  0  0  0  0  0  0  0  0  0
  153.7772  142.4934  158.6960 H   0  0  0  0  0  0  0  0  0  0  0  0
  153.3430  142.7916  160.3695 H   0  0  0  0  0  0  0  0  0  0  0  0
  151.0813  141.8585  160.0220 H   0  0  0  0  0  0  0  0  0  0  0  0
  152.2796  140.6878  159.5153 H   0  0  0  0  0  0  0  0  0  0  0  0
  148.6181  138.6676  158.0063 H   0  0  0  0  0  0  0  0  0  0  0  0
  147.1741  137.2014  158.9672 H   0  0  0  0  0  0  0  0  0  0  0  0
  147.9182  135.8592  158.1568 H   0  0  0  0  0  0  0  0  0  0  0  0
  148.0733  133.9057  159.1040 H   0  0  0  0  0  0  0  0  0  0  0  0
  147.2604  133.3046  163.2820 H   0  0  0  0  0  0  0  0  0  0  0  0
  147.0437  135.6787  163.5645 H   0  0  0  0  0  0  0  0  0  0  0  0
  1  2  1  0  0  0  0
  1 25  1  0  0  0  0
  1 26  1  0  0  0  0
  1 27  1  0  0  0  0
  2  3  1  0  0  0  0
  2 10  1  0  0  0  0
  2 28  1  0  0  0  0
  3  4  1  0  0  0  0
  3 29  1  0  0  0  0
  3 30  1  0  0  0  0
  4  9  1  0  0  0  0
  4  5  1  0  0  0  0
  5  6  1  0  0  0  0
  5 31  1  0  0  0  0
  5 32  1  0  0  0  0
  6  7  1  0  0  0  0
  6 33  1  0  0  0  0
  6 34  1  0  0  0  0
  7  8  1  0  0  0  0
  8  9  1  0  0  0  0
  8 35  1  0  0  0  0
  8 36  1  0  0  0  0
  9 37  1  0  0  0  0
  9 38  1  0  0  0  0
 10 11  1  0  0  0  0
 10 39  1  0  0  0  0
 11 12  2  0  0  0  0
 11 13  1  0  0  0  0
 13 14  1  0  0  0  0
 13 40  1  0  0  0  0
 13 41  1  0  0  0  0
 14 23  1  0  0  0  0
 14 15  1  0  0  0  0
 15 16  2  0  0  0  0
 15 42  1  0  0  0  0
 16 17  1  0  0  0  0
 16 21  1  0  0  0  0
 17 18  1  0  0  0  0
 17 19  1  0  0  0  0
 17 20  1  0  0  0  0
 21 22  2  0  0  0  0
 21 43  1  0  0  0  0
 22 23  1  0  0  0  0
 22 44  1  0  0  0  0
 23 24  2  0  0  0  0
M  END
> <s_m_source_file>
AV-unprocessed.smi

> <i_m_source_file_index>
1578

> <i_lp_mmshare_version>
43012

> <i_f3d_flags>
0

> <s_epik_input>
W0NIMl0xW0NIMl1PW0NIMl1bQ0gyXU4xW0NIMl1bQ0BASF0oW0NIM10pW05IXUMoPU8pW0NIMl1uMltjSF1jKEMoRikoRilGKVtjSF1bY0hdYzI9Tw==

> <s_epik_cmdline>
J2VwaWtfcHl0aG9uJywgJy1waCcsICc3LjAnLCAnLXRuJywgJzgnLCAnLW1hJywgJzIwMCcsICctbWV0YWxfYmluZGluZycsICctaW1hZScsICc8aW5maWxlLm1hZT4nLCAnLW9tYWUnLCAnPG91dGZpbGUubWFlPic=

> <r_lp_tautomer_probability>
1

> <r_epik_Ionization_Penalty>
0.237382

> <r_epik_Ionization_Penalty_Charging>
1.80451e-08

> <r_epik_Ionization_Penalty_Neutral>
0.237382

> <r_epik_State_Penalty>
0.228245

> <r_epik_Charging_Adjusted_Penalty>
0.228245

> <i_epik_Tot_Q>
0

> <i_epik_Tot_abs_Q>
0

> <r_epik_Metal_State_Penalty>
0.228219

> <b_epik_Metal_Only>
0

> <s_lp_Force_Field>
OPLS_2005

> <r_lp_Energy>
36.9554

> <b_lp_Chiralities_Consistent>
1

> <s_lp_Variant>
AV-unprocessed.smi:1578-2

> <Gold.Version>
5.8.1

> <Gold.Id.Protein>
6NUR|6NUR_protein|mol2

> <Gold.PLP.Fitness>
49.1585

> <Gold.PLP.PLP>
-44.4088

> <Gold.PLP.part.hbond>
-3.0000

> <Gold.PLP.part.metal>
0.0000

> <Gold.PLP.part.buried>
-4.9231

> <Gold.PLP.part.nonpolar>
-36.6660

> <Gold.PLP.part.repulsive>
0.2059

> <Gold.PLP.ligand.clash>
1.3239

> <Gold.PLP.ligand.torsion>
0.8130

> <Gold.PLP.Chemscore.Hbond>
2.5200

> <Gold.PLP.Chemscore.CHOScore>
0.0000

> <Gold.PLP.Chemscore.Metal>
0.0000

> <Gold.Chemscore.Hbonds>
donor molecule, donor type, donor heavy atom, donor atom, acceptor molecule, acceptor atom, score
      P1  H  6896  6907       L1    12  1.00
      P1  H  6931  6943       L1    24  0.78
      P1  H  6934  6947       L1    24  0.83

> <Gold.PLP.Chemscore.Internal.Correction>
0.1395

> <Gold.Rescore>
     Score         DG    S(hbond)    S(metal)    S(lipo)     H(rot)  DE(clash)    DE(int)     intcor
     18.35     -19.52       2.65        0.00      90.18       2.09       0.00       1.17       ----

> <Gold.Chemscore.Fitness>
18.3525

> <Gold.Chemscore.DG>
-19.5245

> <Gold.Chemscore.ZeroCoef>
-5.4800

> <Gold.Chemscore.Hbond>
2.6497

> <Gold.Chemscore.Metal>
0.0000

> <Gold.Chemscore.Lipo>
90.1807

> <Gold.Chemscore.Internal_Hbond>
0.0000

> <Gold.Chemscore.DEClash>
0.0048

> <Gold.Chemscore.DEInternal>
1.1672

> <Gold.Chemscore.Rot>
2.0924

> <Gold.Chemscore.Internal.Correction>
   9.000000E+99

> <Gold.Chemscore.Hbonds>
donor molecule, donor type, donor heavy atom, donor atom, acceptor molecule, acceptor atom, score
      P1  H  6896  6907       L1    12  1.00
      P1  H  6931  6943       L1    24  0.66
      P1  H  6934  6947       L1    24  0.83

> <Gold.Chemscore.Hbond.Weighted>
-8.8500

> <Gold.Chemscore.Metal.Weighted>
-0.0000

> <Gold.Chemscore.Lipo.Weighted>
-10.5511

> <Gold.Chemscore.Internal_Hbond.Weighted>
0.0000

> <Gold.Chemscore.DEClash.Weighted>
0.0048

> <Gold.Chemscore.DEInternal.Weighted>
1.1672

> <Gold.Chemscore.Rot.Weighted>
5.3566

> <Gold.Chemscore.Internal.Correction.Weighted>
   9.000000E+99

> <Gold.Protein.RotatedTorsions>
[ 6907 6896 6895 6894 ] final  -28.97 input  -60.11 | X-H torsion
[ 7974 7965 7964 7962 ] final -159.47 input  175.53 | X-H torsion
[ 8008 7997 7996 7995 ] final   67.61 input   59.86 | X-H torsion
[ 10167 10162 10161 10158 ] final  -80.27 input  -65.29 | X-H torsion
[ 10718 10713 10712 10709 ] final  134.11 input   66.30 | X-H torsion
[ 10763 10752 10751 10750 ] final  171.88 input  -60.55 | X-H torsion
[ 11005 11000 10999 10996 ] final -157.73 input  -57.11 | X-H torsion

> <Gold.Protein.ActiveResidues>
 VAL166  LYS551  ARG553  GLY616  TRP617  ASP618  TYR619  PRO620  LYS621  CYS622 
 ASP623  PHE694  ASN695  SER759  ASP760  ASP761  ALA762  ILE779  LEU786  VAL792 
 PHE793  MET794  SER795  GLU796  ALA797  LYS798  CYS799  TRP800  GLU811  SER814 

> <Gold.Protein.RotatedAtoms>
  151.1257  135.0103  159.8558 H   0  0  0  0  0  0  0  0  0  0  0  0  # atno 6907 bound_to 6896
  152.5449  134.1670  159.8591 H   0  0  0  0  0  0  0  0  0  0  0  0  # atno 6908 bound_to 6896
  151.1732  133.4726  159.2627 H   0  0  0  0  0  0  0  0  0  0  0  0  # atno 6909 bound_to 6896
  144.7464  140.3681  143.6082 H   0  0  0  0  0  0  0  0  0  0  0  0  # atno 7974 bound_to 7965
  155.6956  140.3496  155.4911 H   0  0  0  0  0  0  0  0  0  0  0  0  # atno 8008 bound_to 7997
  155.9486  140.1115  157.1018 H   0  0  0  0  0  0  0  0  0  0  0  0  # atno 8009 bound_to 7997
  154.4117  140.1198  156.5008 H   0  0  0  0  0  0  0  0  0  0  0  0  # atno 8010 bound_to 7997
  140.4518  143.2481  151.8478 H   0  0  0  0  0  0  0  0  0  0  0  0  # atno 10167 bound_to 10162
  157.4706  131.1080  150.9808 H   0  0  0  0  0  0  0  0  0  0  0  0  # atno 10718 bound_to 10713
  154.4182  135.2757  155.1993 H   0  0  0  0  0  0  0  0  0  0  0  0  # atno 10763 bound_to 10752
  154.3950  135.6057  153.5868 H   0  0  0  0  0  0  0  0  0  0  0  0  # atno 10764 bound_to 10752
  152.9832  135.5912  154.4474 H   0  0  0  0  0  0  0  0  0  0  0  0  # atno 10765 bound_to 10752
  140.6614  134.4345  157.5234 H   0  0  0  0  0  0  0  0  0  0  0  0  # atno 11005 bound_to 11000
  145.7107  139.1684  143.2540 LP  0  0  0  0  0  0  0  0  0  0  0  0  # atno 17320 bound_to 7965
  146.1349  140.7136  142.9394 LP  0  0  0  0  0  0  0  0  0  0  0  0  # atno 17321 bound_to 7965
  139.4797  144.5111  151.8931 LP  0  0  0  0  0  0  0  0  0  0  0  0  # atno 17342 bound_to 10162
  140.4198  144.2258  150.5887 LP  0  0  0  0  0  0  0  0  0  0  0  0  # atno 17343 bound_to 10162
  157.0574  130.5811  149.5380 LP  0  0  0  0  0  0  0  0  0  0  0  0  # atno 17370 bound_to 10713
  156.0071  130.5159  150.7867 LP  0  0  0  0  0  0  0  0  0  0  0  0  # atno 17371 bound_to 10713
  139.9012  134.8552  156.1890 LP  0  0  0  0  0  0  0  0  0  0  0  0  # atno 17394 bound_to 11000
  141.0462  133.6912  156.1688 LP  0  0  0  0  0  0  0  0  0  0  0  0  # atno 17395 bound_to 11000

$$$$
