AV-unprocessed.smi:3058|AV-procd|sdf|11669|dock8
  -GOLD-   2272017 73D 1   1.00000     0.00000
 Structure written by MMmdl.
 38 40  0  0  0  0  0  0  0  0  1 V2000
  151.5543  140.7946  157.3497 O   0  0  0  0  0  0  0  0  0  0  0  0
  150.9347  141.8536  157.4534 C   0  0  0  0  0  0  0  0  0  0  0  0
  150.0950  142.3032  156.5078 N   0  0  0  0  0  0  0  0  0  0  0  0
  149.8041  141.6223  155.2521 C   0  0  0  0  0  0  0  0  0  0  0  0
  148.4894  140.8285  155.3284 C   0  0  0  0  0  0  0  0  0  0  0  0
  147.2748  141.7172  155.1460 C   0  0  0  0  0  0  0  0  0  0  0  0
  147.0155  142.3382  153.9068 C   0  0  0  0  0  0  0  0  0  0  0  0
  145.8734  143.1522  153.7819 C   0  0  0  0  0  0  0  0  0  0  0  0
  145.0378  143.3119  154.9054 C   0  0  0  0  0  0  0  0  0  0  0  0
  145.2760  142.7220  156.0967 N   0  0  0  0  0  0  0  0  0  0  0  0
  146.3730  141.9422  156.2078 C   0  0  0  0  0  0  0  0  0  0  0  0
  151.0914  142.7436  158.6987 C   0  0  2  0  0  0  0  0  0  0  0  0
  150.3273  144.0864  158.5909 C   0  0  0  0  0  0  0  0  0  0  0  0
  151.4209  145.1380  158.8618 C   0  0  1  0  0  0  0  0  0  0  0  0
  151.8602  145.0542  160.3364 C   0  0  0  0  0  0  0  0  0  0  0  0
  152.6703  143.7437  160.3757 C   0  0  0  0  0  0  0  0  0  0  0  0
  152.5458  143.2282  158.9293 C   0  0  2  0  0  0  0  0  0  0  0  0
  152.6207  144.5372  158.1434 C   0  0  0  0  0  0  0  0  0  0  0  0
  149.6232  143.1809  156.6711 H   0  0  0  0  0  0  0  0  0  0  0  0
  149.7697  142.3463  154.4360 H   0  0  0  0  0  0  0  0  0  0  0  0
  150.6327  140.9479  155.0338 H   0  0  0  0  0  0  0  0  0  0  0  0
  148.4800  140.0464  154.5679 H   0  0  0  0  0  0  0  0  0  0  0  0
  148.4063  140.3213  156.2905 H   0  0  0  0  0  0  0  0  0  0  0  0
  147.6783  142.1923  153.0663 H   0  0  0  0  0  0  0  0  0  0  0  0
  145.6433  143.6427  152.8477 H   0  0  0  0  0  0  0  0  0  0  0  0
  144.1541  143.9301  154.8451 H   0  0  0  0  0  0  0  0  0  0  0  0
  146.5336  141.4835  157.1723 H   0  0  0  0  0  0  0  0  0  0  0  0
  150.7444  142.1847  159.5698 H   0  0  0  0  0  0  0  0  0  0  0  0
  149.8962  144.2372  157.5996 H   0  0  0  0  0  0  0  0  0  0  0  0
  149.5117  144.1518  159.3120 H   0  0  0  0  0  0  0  0  0  0  0  0
  151.1490  146.1446  158.5426 H   0  0  0  0  0  0  0  0  0  0  0  0
  152.4906  145.9027  160.6053 H   0  0  0  0  0  0  0  0  0  0  0  0
  151.0100  145.0388  161.0192 H   0  0  0  0  0  0  0  0  0  0  0  0
  153.7128  143.9464  160.6247 H   0  0  0  0  0  0  0  0  0  0  0  0
  152.2853  143.0349  161.1098 H   0  0  0  0  0  0  0  0  0  0  0  0
  153.3089  142.4952  158.6640 H   0  0  0  0  0  0  0  0  0  0  0  0
  152.4703  144.4271  157.0692 H   0  0  0  0  0  0  0  0  0  0  0  0
  153.5464  145.0902  158.3128 H   0  0  0  0  0  0  0  0  0  0  0  0
  1  2  2  0  0  0  0
  2  3  1  0  0  0  0
  2 12  1  0  0  0  0
  3  4  1  0  0  0  0
  3 19  1  0  0  0  0
  4  5  1  0  0  0  0
  4 20  1  0  0  0  0
  4 21  1  0  0  0  0
  5  6  1  0  0  0  0
  5 22  1  0  0  0  0
  5 23  1  0  0  0  0
  6 11  1  0  0  0  0
  6  7  2  0  0  0  0
  7  8  1  0  0  0  0
  7 24  1  0  0  0  0
  8  9  2  0  0  0  0
  8 25  1  0  0  0  0
  9 10  1  0  0  0  0
  9 26  1  0  0  0  0
 10 11  2  0  0  0  0
 11 27  1  0  0  0  0
 12 17  1  0  0  0  0
 12 13  1  0  0  0  0
 12 28  1  0  0  0  0
 13 14  1  0  0  0  0
 13 29  1  0  0  0  0
 13 30  1  0  0  0  0
 14 18  1  0  0  0  0
 14 15  1  0  0  0  0
 14 31  1  0  0  0  0
 15 16  1  0  0  0  0
 15 32  1  0  0  0  0
 15 33  1  0  0  0  0
 16 17  1  0  0  0  0
 16 34  1  0  0  0  0
 16 35  1  0  0  0  0
 17 18  1  0  0  0  0
 17 36  1  0  0  0  0
 18 37  1  0  0  0  0
 18 38  1  0  0  0  0
M  END
> <s_m_source_file>
AV-unprocessed.smi

> <i_m_source_file_index>
3058

> <i_lp_mmshare_version>
43012

> <i_f3d_flags>
0

> <s_epik_input>
W0NIMl0xW0NIMl1bQ0BIXShbQ0gyXTIpW0NAQEhdKFtDSDJdW0NAQEhdMTIpQyg9TylbTkhdW0NIMl1bQ0gyXWMzW2NIXVtjSF1bY0hdbltjSF0z

> <s_epik_cmdline>
J2VwaWtfcHl0aG9uJywgJy1waCcsICc3LjAnLCAnLXRuJywgJzgnLCAnLW1hJywgJzIwMCcsICctbWV0YWxfYmluZGluZycsICctaW1hZScsICc8aW5maWxlLm1hZT4nLCAnLW9tYWUnLCAnPG91dGZpbGUubWFlPic=

> <r_epik_Ionization_Penalty>
0.0135821

> <r_epik_Ionization_Penalty_Charging>
0

> <r_epik_Ionization_Penalty_Neutral>
0.0135821

> <r_epik_State_Penalty>
0.0105782

> <r_epik_Charging_Adjusted_Penalty>
0.0105782

> <i_epik_Tot_Q>
0

> <i_epik_Tot_abs_Q>
0

> <r_epik_Metal_State_Penalty>
0.0103407

> <b_epik_Metal_Only>
0

> <s_lp_Force_Field>
OPLS_2005

> <r_lp_Energy>
46.4183

> <b_lp_Chiralities_Consistent>
1

> <s_lp_Variant>
AV-unprocessed.smi:3058-1

> <Gold.Version>
5.8.1

> <Gold.Id.Protein>
6NUR|6NUR_protein|mol2

> <Gold.PLP.Fitness>
46.9855

> <Gold.PLP.PLP>
-45.1484

> <Gold.PLP.part.hbond>
-1.0000

> <Gold.PLP.part.metal>
0.0000

> <Gold.PLP.part.buried>
-6.8529

> <Gold.PLP.part.nonpolar>
-38.2641

> <Gold.PLP.part.repulsive>
0.1851

> <Gold.PLP.ligand.clash>
0.0000

> <Gold.PLP.ligand.torsion>
0.3199

> <Gold.PLP.Chemscore.Hbond>
0.8160

> <Gold.PLP.Chemscore.CHOScore>
0.0000

> <Gold.PLP.Chemscore.Metal>
0.0000

> <Gold.Chemscore.Hbonds>
donor molecule, donor type, donor heavy atom, donor atom, acceptor molecule, acceptor atom, score
      L1  H     3    19       P1  8028  0.82

> <Gold.PLP.Chemscore.Internal.Correction>
0.0289

> <Gold.Rescore>
     Score         DG    S(hbond)    S(metal)    S(lipo)     H(rot)  DE(clash)    DE(int)     intcor
     18.65     -19.13       0.88        0.00     121.52       1.37       0.10       0.38       ----

> <Gold.Chemscore.Fitness>
18.6510

> <Gold.Chemscore.DG>
-19.1292

> <Gold.Chemscore.ZeroCoef>
-5.4800

> <Gold.Chemscore.Hbond>
0.8762

> <Gold.Chemscore.Metal>
0.0000

> <Gold.Chemscore.Lipo>
121.5208

> <Gold.Chemscore.Internal_Hbond>
0.0000

> <Gold.Chemscore.DEClash>
0.1028

> <Gold.Chemscore.DEInternal>
0.3754

> <Gold.Chemscore.Rot>
1.3653

> <Gold.Chemscore.Internal.Correction>
   9.000000E+99

> <Gold.Chemscore.Hbonds>
donor molecule, donor type, donor heavy atom, donor atom, acceptor molecule, acceptor atom, score
      L1  H     3    19       P1  8028  0.79

> <Gold.Chemscore.Hbond.Weighted>
-2.9264

> <Gold.Chemscore.Metal.Weighted>
-0.0000

> <Gold.Chemscore.Lipo.Weighted>
-14.2179

> <Gold.Chemscore.Internal_Hbond.Weighted>
0.0000

> <Gold.Chemscore.DEClash.Weighted>
0.1028

> <Gold.Chemscore.DEInternal.Weighted>
0.3754

> <Gold.Chemscore.Rot.Weighted>
3.4951

> <Gold.Chemscore.Internal.Correction.Weighted>
   9.000000E+99

> <Gold.Protein.RotatedTorsions>
[ 6907 6896 6895 6894 ] final   47.72 input  -60.11 | X-H torsion
[ 7974 7965 7964 7962 ] final   14.79 input  175.53 | X-H torsion
[ 8008 7997 7996 7995 ] final  164.11 input   59.86 | X-H torsion
[ 10167 10162 10161 10158 ] final  -51.48 input  -65.29 | X-H torsion
[ 10718 10713 10712 10709 ] final   25.91 input   66.30 | X-H torsion
[ 10763 10752 10751 10750 ] final   51.45 input  -60.55 | X-H torsion
[ 11005 11000 10999 10996 ] final -159.69 input  -57.11 | X-H torsion

> <Gold.Protein.ActiveResidues>
 VAL166  LYS551  ARG553  GLY616  TRP617  ASP618  TYR619  PRO620  LYS621  CYS622 
 ASP623  PHE694  ASN695  SER759  ASP760  ASP761  ALA762  ILE779  LEU786  VAL792 
 PHE793  MET794  SER795  GLU796  ALA797  LYS798  CYS799  TRP800  GLU811  SER814 

> <Gold.Protein.RotatedAtoms>
  152.2713  134.7929  160.0413 H   0  0  0  0  0  0  0  0  0  0  0  0  # atno 6907 bound_to 6896
  151.8541  133.3440  159.3691 H   0  0  0  0  0  0  0  0  0  0  0  0  # atno 6908 bound_to 6896
  150.7153  134.5198  159.5692 H   0  0  0  0  0  0  0  0  0  0  0  0  # atno 6909 bound_to 6896
  146.2296  139.8989  142.8542 H   0  0  0  0  0  0  0  0  0  0  0  0  # atno 7974 bound_to 7965
  156.1905  140.1705  156.8101 H   0  0  0  0  0  0  0  0  0  0  0  0  # atno 8008 bound_to 7997
  154.5466  140.0726  156.8630 H   0  0  0  0  0  0  0  0  0  0  0  0  # atno 8009 bound_to 7997
  155.3110  140.3367  155.4246 H   0  0  0  0  0  0  0  0  0  0  0  0  # atno 8010 bound_to 7997
  140.6586  143.2618  151.4510 H   0  0  0  0  0  0  0  0  0  0  0  0  # atno 10167 bound_to 10162
  157.1997  130.6884  149.6183 H   0  0  0  0  0  0  0  0  0  0  0  0  # atno 10718 bound_to 10713
  152.9785  135.5845  154.4418 H   0  0  0  0  0  0  0  0  0  0  0  0  # atno 10763 bound_to 10752
  154.4018  135.2769  155.2093 H   0  0  0  0  0  0  0  0  0  0  0  0  # atno 10764 bound_to 10752
  154.3921  135.6123  153.5903 H   0  0  0  0  0  0  0  0  0  0  0  0  # atno 10765 bound_to 10752
  140.6397  134.4564  157.5233 H   0  0  0  0  0  0  0  0  0  0  0  0  # atno 11005 bound_to 11000
  145.2343  140.9985  143.3972 LP  0  0  0  0  0  0  0  0  0  0  0  0  # atno 17320 bound_to 7965
  144.9504  139.4089  143.6405 LP  0  0  0  0  0  0  0  0  0  0  0  0  # atno 17321 bound_to 7965
  139.5814  144.1701  152.1973 LP  0  0  0  0  0  0  0  0  0  0  0  0  # atno 17342 bound_to 10162
  140.1028  144.5525  150.6977 LP  0  0  0  0  0  0  0  0  0  0  0  0  # atno 17343 bound_to 10162
  155.9702  130.4587  150.6009 LP  0  0  0  0  0  0  0  0  0  0  0  0  # atno 17370 bound_to 10713
  157.3780  131.0776  151.1501 LP  0  0  0  0  0  0  0  0  0  0  0  0  # atno 17371 bound_to 10713
  139.9085  134.8397  156.1617 LP  0  0  0  0  0  0  0  0  0  0  0  0  # atno 17394 bound_to 11000
  141.0615  133.6839  156.1962 LP  0  0  0  0  0  0  0  0  0  0  0  0  # atno 17395 bound_to 11000

$$$$
