AV-unprocessed.smi:252|AV-procd|sdf|1936|dock6
  -GOLD-   2262021 53D 1   1.00000     0.00000
 Structure written by MMmdl.
 56 59  0  0  0  0  0  0  0  0  1 V2000
  147.8664  127.0181  151.0432 C   0  0  0  0  0  0  0  0  0  0  0  0
  148.2128  128.3215  151.7799 C   0  0  0  0  0  0  0  0  0  0  0  0
  146.9835  129.1542  152.1579 C   0  0  0  0  0  0  0  0  0  0  0  0
  146.1146  128.6972  152.9012 O   0  0  0  0  0  0  0  0  0  0  0  0
  146.9264  130.3871  151.6317 N   0  0  0  0  0  0  0  0  0  0  0  0
  145.8500  131.3482  151.8491 C   0  0  2  0  0  0  0  0  0  0  0  0
  145.0880  131.6165  150.5363 C   0  0  0  0  0  0  0  0  0  0  0  0
  144.0284  132.7086  150.7446 C   0  0  0  0  0  0  0  0  0  0  0  0
  144.6578  133.9827  151.3296 C   0  0  0  0  0  0  0  0  0  0  0  0
  145.4007  133.6798  152.5541 N   0  0  0  0  0  0  0  0  0  0  0  0
  145.7416  134.7187  153.3583 C   0  0  0  0  0  0  0  0  0  0  0  0
  146.0132  134.4996  154.6730 N   0  0  0  0  0  0  0  0  0  0  0  0
  146.3321  135.5191  155.4757 C   0  0  0  0  0  0  0  0  0  0  0  0
  146.4369  136.8151  155.1770 N   0  0  0  0  0  0  0  0  0  0  0  0
  146.1781  137.0411  153.8572 C   0  0  0  0  0  0  0  0  0  0  0  0
  145.8256  136.0598  152.8877 C   0  0  0  0  0  0  0  0  0  0  0  0
  145.6446  136.6642  151.6490 N   0  0  0  0  0  0  0  0  0  0  0  0
  145.8655  137.9300  151.8759 C   0  0  0  0  0  0  0  0  0  0  0  0
  146.1982  138.2448  153.1740 N   0  0  0  0  0  0  0  0  0  0  0  0
  146.4926  139.5683  153.7028 C   0  0  0  0  0  0  0  0  0  0  0  0
  147.9683  139.7456  154.1478 C   0  0  1  0  0  0  0  0  0  0  0  0
  148.7750  138.9017  153.3431 O   0  0  0  0  0  0  0  0  0  0  0  0
  148.4857  141.1734  153.9892 C   0  0  0  0  0  0  0  0  0  0  0  0
  149.5360  141.2827  155.0838 C   0  0  0  0  0  0  0  0  0  0  0  0
  148.9325  140.5790  156.1542 O   0  0  0  0  0  0  0  0  0  0  0  0
  148.2832  139.4210  155.6361 C   0  0  1  0  0  0  0  0  0  0  0  0
  147.0857  139.1105  156.5477 C   0  0  0  0  0  0  0  0  0  0  0  0
  146.4357  132.6559  152.4125 C   0  0  0  0  0  0  0  0  0  0  0  0
  148.7734  126.4862  150.7552 H   0  0  0  0  0  0  0  0  0  0  0  0
  147.2962  127.2136  150.1343 H   0  0  0  0  0  0  0  0  0  0  0  0
  147.2793  126.3481  151.6726 H   0  0  0  0  0  0  0  0  0  0  0  0
  148.7721  128.0939  152.6879 H   0  0  0  0  0  0  0  0  0  0  0  0
  148.8683  128.9254  151.1506 H   0  0  0  0  0  0  0  0  0  0  0  0
  147.6845  130.6808  151.0329 H   0  0  0  0  0  0  0  0  0  0  0  0
  145.1530  130.9467  152.5875 H   0  0  0  0  0  0  0  0  0  0  0  0
  145.7857  131.9313  149.7589 H   0  0  0  0  0  0  0  0  0  0  0  0
  144.6122  130.7029  150.1780 H   0  0  0  0  0  0  0  0  0  0  0  0
  143.5329  132.9360  149.8005 H   0  0  0  0  0  0  0  0  0  0  0  0
  143.2551  132.3412  151.4205 H   0  0  0  0  0  0  0  0  0  0  0  0
  145.3327  134.4326  150.6000 H   0  0  0  0  0  0  0  0  0  0  0  0
  143.8728  134.7111  151.5369 H   0  0  0  0  0  0  0  0  0  0  0  0
  146.5293  135.2593  156.5053 H   0  0  0  0  0  0  0  0  0  0  0  0
  145.7939  138.6733  151.0953 H   0  0  0  0  0  0  0  0  0  0  0  0
  146.2382  140.2926  152.9284 H   0  0  0  0  0  0  0  0  0  0  0  0
  145.8175  139.7589  154.5379 H   0  0  0  0  0  0  0  0  0  0  0  0
  149.0796  139.3980  152.5989 H   0  0  0  0  0  0  0  0  0  0  0  0
  148.8759  141.3952  152.9948 H   0  0  0  0  0  0  0  0  0  0  0  0
  147.6880  141.8868  154.1991 H   0  0  0  0  0  0  0  0  0  0  0  0
  150.4645  140.7893  154.7920 H   0  0  0  0  0  0  0  0  0  0  0  0
  149.7599  142.3147  155.3546 H   0  0  0  0  0  0  0  0  0  0  0  0
  148.9890  138.5907  155.7029 H   0  0  0  0  0  0  0  0  0  0  0  0
  146.5497  138.2225  156.2125 H   0  0  0  0  0  0  0  0  0  0  0  0
  146.3823  139.9426  156.5838 H   0  0  0  0  0  0  0  0  0  0  0  0
  147.4191  138.9227  157.5685 H   0  0  0  0  0  0  0  0  0  0  0  0
  146.9244  132.4506  153.3645 H   0  0  0  0  0  0  0  0  0  0  0  0
  147.2080  133.0387  151.7435 H   0  0  0  0  0  0  0  0  0  0  0  0
  1  2  1  0  0  0  0
  1 29  1  0  0  0  0
  1 30  1  0  0  0  0
  1 31  1  0  0  0  0
  2  3  1  0  0  0  0
  2 32  1  0  0  0  0
  2 33  1  0  0  0  0
  3  4  2  0  0  0  0
  3  5  1  0  0  0  0
  5  6  1  0  0  0  0
  5 34  1  0  0  0  0
  6 28  1  0  0  0  0
  6  7  1  0  0  0  0
  6 35  1  0  0  0  0
  7  8  1  0  0  0  0
  7 36  1  0  0  0  0
  7 37  1  0  0  0  0
  8  9  1  0  0  0  0
  8 38  1  0  0  0  0
  8 39  1  0  0  0  0
  9 10  1  0  0  0  0
  9 40  1  0  0  0  0
  9 41  1  0  0  0  0
 10 11  1  0  0  0  0
 10 28  1  0  0  0  0
 11 16  1  0  0  0  0
 11 12  2  0  0  0  0
 12 13  1  0  0  0  0
 13 14  2  0  0  0  0
 13 42  1  0  0  0  0
 14 15  1  0  0  0  0
 15 19  1  0  0  0  0
 15 16  2  0  0  0  0
 16 17  1  0  0  0  0
 17 18  2  0  0  0  0
 18 19  1  0  0  0  0
 18 43  1  0  0  0  0
 19 20  1  0  0  0  0
 20 21  1  0  0  0  0
 20 44  1  0  0  0  0
 20 45  1  0  0  0  0
 21 26  1  0  0  0  0
 21 22  1  0  0  0  0
 21 23  1  0  0  0  0
 22 46  1  0  0  0  0
 23 24  1  0  0  0  0
 23 47  1  0  0  0  0
 23 48  1  0  0  0  0
 24 25  1  0  0  0  0
 24 49  1  0  0  0  0
 24 50  1  0  0  0  0
 25 26  1  0  0  0  0
 26 27  1  0  0  0  0
 26 51  1  0  0  0  0
 27 52  1  0  0  0  0
 27 53  1  0  0  0  0
 27 54  1  0  0  0  0
 28 55  1  0  0  0  0
 28 56  1  0  0  0  0
M  END
> <s_m_source_file>
AV-unprocessed.smi

> <i_m_source_file_index>
252

> <i_lp_mmshare_version>
43012

> <i_f3d_flags>
0

> <s_epik_input>
W0NIM11bQ0gyXUMoPU8pW05IXVtDQEBIXTFbQ0gyXVtDSDJdW0NIMl1OKFtDSDJdMSljKG5bY0hdbjIpYyhjMjMpbltjSF1uM1tDSDJdW0NAQF00KFtPSF0pW0NIMl1bQ0gyXU9bQ0BIXTRbQ0gzXQ==

> <s_epik_cmdline>
J2VwaWtfcHl0aG9uJywgJy1waCcsICc3LjAnLCAnLXRuJywgJzgnLCAnLW1hJywgJzIwMCcsICctbWV0YWxfYmluZGluZycsICctaW1hZScsICc8aW5maWxlLm1hZT4nLCAnLW9tYWUnLCAnPG91dGZpbGUubWFlPic=

> <r_lp_tautomer_probability>
1

> <r_epik_Ionization_Penalty>
0.00182575

> <r_epik_Ionization_Penalty_Charging>
0

> <r_epik_Ionization_Penalty_Neutral>
0.00182575

> <r_epik_State_Penalty>
0.00104524

> <r_epik_Charging_Adjusted_Penalty>
0.00104524

> <i_epik_Tot_Q>
0

> <i_epik_Tot_abs_Q>
0

> <r_epik_Metal_State_Penalty>
-0

> <b_epik_Metal_Only>
0

> <s_lp_Force_Field>
OPLS_2005

> <r_lp_Energy>
34.3477

> <b_lp_Chiralities_Consistent>
1

> <s_lp_Variant>
AV-unprocessed.smi:252-1

> <Gold.Version>
5.8.1

> <Gold.Id.Protein>
6NUR|6NUR_protein|mol2

> <Gold.PLP.Fitness>
46.5475

> <Gold.PLP.PLP>
-39.9595

> <Gold.PLP.part.hbond>
-3.0000

> <Gold.PLP.part.metal>
0.0000

> <Gold.PLP.part.buried>
-4.9397

> <Gold.PLP.part.nonpolar>
-33.5507

> <Gold.PLP.part.repulsive>
0.6018

> <Gold.PLP.ligand.clash>
0.0000

> <Gold.PLP.ligand.torsion>
0.9826

> <Gold.PLP.Chemscore.Hbond>
2.0000

> <Gold.PLP.Chemscore.CHOScore>
0.6917

> <Gold.PLP.Chemscore.Metal>
0.0000

> <Gold.Chemscore.Hbonds>
donor molecule, donor type, donor heavy atom, donor atom, acceptor molecule, acceptor atom, score
      L1  H     5    34       P1 10747  0.93
      L1  H    22    46       P1  7957  1.00
      L1  C    18    43       P1 10171  0.73

> <Gold.PLP.Chemscore.Internal.Correction>
0.4781

> <Gold.Rescore>
     Score         DG    S(hbond)    S(metal)    S(lipo)     H(rot)  DE(clash)    DE(int)     intcor
     10.91     -14.77       1.99        0.00      81.71       2.70       0.14       3.72       ----

> <Gold.Chemscore.Fitness>
10.9097

> <Gold.Chemscore.DG>
-14.7729

> <Gold.Chemscore.ZeroCoef>
-5.4800

> <Gold.Chemscore.Hbond>
1.9927

> <Gold.Chemscore.Metal>
0.0000

> <Gold.Chemscore.Lipo>
81.7085

> <Gold.Chemscore.Internal_Hbond>
0.0000

> <Gold.Chemscore.DEClash>
0.1431

> <Gold.Chemscore.DEInternal>
3.7202

> <Gold.Chemscore.Rot>
2.7041

> <Gold.Chemscore.Internal.Correction>
   9.000000E+99

> <Gold.Chemscore.Hbonds>
donor molecule, donor type, donor heavy atom, donor atom, acceptor molecule, acceptor atom, score
      L1  H     5    34       P1 10747  0.89
      L1  H    22    46       P1  7957  1.00

> <Gold.Chemscore.Hbond.Weighted>
-6.6555

> <Gold.Chemscore.Metal.Weighted>
-0.0000

> <Gold.Chemscore.Lipo.Weighted>
-9.5599

> <Gold.Chemscore.Internal_Hbond.Weighted>
0.0000

> <Gold.Chemscore.DEClash.Weighted>
0.1431

> <Gold.Chemscore.DEInternal.Weighted>
3.7202

> <Gold.Chemscore.Rot.Weighted>
6.9225

> <Gold.Chemscore.Internal.Correction.Weighted>
   9.000000E+99

> <Gold.Protein.RotatedTorsions>
[ 6907 6896 6895 6894 ] final   85.64 input  -60.11 | X-H torsion
[ 7974 7965 7964 7962 ] final    0.22 input  175.53 | X-H torsion
[ 8008 7997 7996 7995 ] final -167.13 input   59.86 | X-H torsion
[ 10167 10162 10161 10158 ] final -103.89 input  -65.29 | X-H torsion
[ 10718 10713 10712 10709 ] final -104.82 input   66.30 | X-H torsion
[ 10763 10752 10751 10750 ] final   52.18 input  -60.55 | X-H torsion
[ 11005 11000 10999 10996 ] final   54.60 input  -57.11 | X-H torsion

> <Gold.Protein.ActiveResidues>
 VAL166  LYS551  ARG553  GLY616  TRP617  ASP618  TYR619  PRO620  LYS621  CYS622 
 ASP623  PHE694  ASN695  SER759  ASP760  ASP761  ALA762  ILE779  LEU786  VAL792 
 PHE793  MET794  SER795  GLU796  ALA797  LYS798  CYS799  TRP800  GLU811  SER814 

> <Gold.Protein.RotatedAtoms>
  152.5379  134.2555  159.8914 H   0  0  0  0  0  0  0  0  0  0  0  0  # atno 6907 bound_to 6896
  151.2517  133.4340  159.2619 H   0  0  0  0  0  0  0  0  0  0  0  0  # atno 6908 bound_to 6896
  151.0533  134.9702  159.8279 H   0  0  0  0  0  0  0  0  0  0  0  0  # atno 6909 bound_to 6896
  146.2433  140.1170  142.8342 H   0  0  0  0  0  0  0  0  0  0  0  0  # atno 7974 bound_to 7965
  155.8735  140.0997  157.1534 H   0  0  0  0  0  0  0  0  0  0  0  0  # atno 8008 bound_to 7997
  154.3999  140.1342  156.4170 H   0  0  0  0  0  0  0  0  0  0  0  0  # atno 8009 bound_to 7997
  155.7724  140.3460  155.5256 H   0  0  0  0  0  0  0  0  0  0  0  0  # atno 8010 bound_to 7997
  140.2151  143.3717  152.1017 H   0  0  0  0  0  0  0  0  0  0  0  0  # atno 10167 bound_to 10162
  156.0320  130.5534  150.7451 H   0  0  0  0  0  0  0  0  0  0  0  0  # atno 10718 bound_to 10713
  152.9788  135.5821  154.4537 H   0  0  0  0  0  0  0  0  0  0  0  0  # atno 10763 bound_to 10752
  154.4122  135.2770  155.2031 H   0  0  0  0  0  0  0  0  0  0  0  0  # atno 10764 bound_to 10752
  154.3816  135.6145  153.5848 H   0  0  0  0  0  0  0  0  0  0  0  0  # atno 10765 bound_to 10752
  140.0673  134.5518  155.9085 H   0  0  0  0  0  0  0  0  0  0  0  0  # atno 11005 bound_to 11000
  145.0438  140.8966  143.5036 LP  0  0  0  0  0  0  0  0  0  0  0  0  # atno 17320 bound_to 7965
  145.1256  139.2665  143.5566 LP  0  0  0  0  0  0  0  0  0  0  0  0  # atno 17321 bound_to 7965
  139.5165  144.6978  151.5580 LP  0  0  0  0  0  0  0  0  0  0  0  0  # atno 17342 bound_to 10162
  140.6295  143.9103  150.6593 LP  0  0  0  0  0  0  0  0  0  0  0  0  # atno 17343 bound_to 10162
  157.5010  131.0918  151.0314 LP  0  0  0  0  0  0  0  0  0  0  0  0  # atno 17370 bound_to 10713
  157.0695  130.5858  149.5400 LP  0  0  0  0  0  0  0  0  0  0  0  0  # atno 17371 bound_to 10713
  141.1998  133.6609  156.5862 LP  0  0  0  0  0  0  0  0  0  0  0  0  # atno 17394 bound_to 11000
  140.3679  134.7631  157.4579 LP  0  0  0  0  0  0  0  0  0  0  0  0  # atno 17395 bound_to 11000

$$$$
