AV-unprocessed.smi:266|AV-procd|sdf|2036|dock1
  -GOLD-   2262021243D 1   1.00000     0.00000
 Structure written by MMmdl.
 52 55  0  0  0  0  0  0  0  0  1 V2000
  145.7850  134.8537  151.4965 C   0  0  0  0  0  0  0  0  0  0  0  0
  145.1083  133.5081  151.1904 C   0  0  1  0  0  0  0  0  0  0  0  0
  144.2765  133.6290  150.0445 O   0  0  0  0  0  0  0  0  0  0  0  0
  144.0575  132.3242  149.5419 C   0  0  0  0  0  0  0  0  0  0  0  0
  145.4463  131.7057  149.6180 C   0  0  0  0  0  0  0  0  0  0  0  0
  146.0389  132.2989  150.9023 C   0  0  1  0  0  0  0  0  0  0  0  0
  147.3663  132.7134  150.6271 O   0  0  0  0  0  0  0  0  0  0  0  0
  146.0655  131.3159  152.1024 C   0  0  0  0  0  0  0  0  0  0  0  0
  147.0584  131.6308  153.1202 N   0  0  0  0  0  0  0  0  0  0  0  0
  147.1213  132.7763  153.8803 C   0  0  0  0  0  0  0  0  0  0  0  0
  148.1129  132.8294  154.7259 N   0  0  0  0  0  0  0  0  0  0  0  0
  148.8038  131.6401  154.5217 C   0  0  0  0  0  0  0  0  0  0  0  0
  149.9732  131.0504  155.0874 C   0  0  0  0  0  0  0  0  0  0  0  0
  150.7487  131.6042  156.0520 N   0  0  0  0  0  0  0  0  0  0  0  0
  150.1487  132.7851  156.6596 C   0  0  0  0  0  0  0  0  0  0  0  0
  152.2045  131.5839  155.9110 C   0  0  0  0  0  0  0  0  0  0  0  0
  152.8982  130.4526  156.7083 C   0  0  1  0  0  0  0  0  0  0  0  0
  154.3659  130.2932  156.2618 C   0  0  0  0  0  0  0  0  0  0  0  0
  155.2206  131.3887  156.9151 C   0  0  0  0  0  0  0  0  0  0  0  0
  154.4057  131.7806  158.5098 S   0  0  0  0  0  0  0  0  0  0  0  0
  155.1865  131.2142  159.6198 O   0  0  0  0  0  0  0  0  0  0  0  0
  154.0113  133.1976  158.5064 O   0  0  0  0  0  0  0  0  0  0  0  0
  152.9280  130.7376  158.2199 C   0  0  0  0  0  0  0  0  0  0  0  0
  150.3409  129.8254  154.6330 N   0  0  0  0  0  0  0  0  0  0  0  0
  149.6342  129.2211  153.6742 C   0  0  0  0  0  0  0  0  0  0  0  0
  148.5393  129.6542  153.0472 N   0  0  0  0  0  0  0  0  0  0  0  0
  148.1510  130.8756  153.5123 C   0  0  0  0  0  0  0  0  0  0  0  0
  146.4373  134.7760  152.3667 H   0  0  0  0  0  0  0  0  0  0  0  0
  145.0397  135.6204  151.7085 H   0  0  0  0  0  0  0  0  0  0  0  0
  146.3830  135.2028  150.6541 H   0  0  0  0  0  0  0  0  0  0  0  0
  144.4463  133.2635  152.0229 H   0  0  0  0  0  0  0  0  0  0  0  0
  143.3532  131.7921  150.1834 H   0  0  0  0  0  0  0  0  0  0  0  0
  143.6584  132.3443  148.5275 H   0  0  0  0  0  0  0  0  0  0  0  0
  145.4133  130.6177  149.5931 H   0  0  0  0  0  0  0  0  0  0  0  0
  146.0149  132.0291  148.7440 H   0  0  0  0  0  0  0  0  0  0  0  0
  147.9302  131.9555  150.6530 H   0  0  0  0  0  0  0  0  0  0  0  0
  145.0860  131.2861  152.5821 H   0  0  0  0  0  0  0  0  0  0  0  0
  146.2602  130.3022  151.7492 H   0  0  0  0  0  0  0  0  0  0  0  0
  146.4001  133.5761  153.7917 H   0  0  0  0  0  0  0  0  0  0  0  0
  149.2490  132.5194  157.2156 H   0  0  0  0  0  0  0  0  0  0  0  0
  149.8797  133.5182  155.8980 H   0  0  0  0  0  0  0  0  0  0  0  0
  150.8390  133.2606  157.3567 H   0  0  0  0  0  0  0  0  0  0  0  0
  152.4615  131.5193  154.8541 H   0  0  0  0  0  0  0  0  0  0  0  0
  152.5931  132.5462  156.2453 H   0  0  0  0  0  0  0  0  0  0  0  0
  152.3787  129.5115  156.5298 H   0  0  0  0  0  0  0  0  0  0  0  0
  154.7268  129.3226  156.6046 H   0  0  0  0  0  0  0  0  0  0  0  0
  154.4684  130.2956  155.1760 H   0  0  0  0  0  0  0  0  0  0  0  0
  156.2507  131.0762  157.0857 H   0  0  0  0  0  0  0  0  0  0  0  0
  155.2271  132.2938  156.3075 H   0  0  0  0  0  0  0  0  0  0  0  0
  152.0341  131.2343  158.5977 H   0  0  0  0  0  0  0  0  0  0  0  0
  153.0626  129.8104  158.7775 H   0  0  0  0  0  0  0  0  0  0  0  0
  149.9979  128.2521  153.3656 H   0  0  0  0  0  0  0  0  0  0  0  0
  1  2  1  0  0  0  0
  1 28  1  0  0  0  0
  1 29  1  0  0  0  0
  1 30  1  0  0  0  0
  2  6  1  0  0  0  0
  2  3  1  0  0  0  0
  2 31  1  0  0  0  0
  3  4  1  0  0  0  0
  4  5  1  0  0  0  0
  4 32  1  0  0  0  0
  4 33  1  0  0  0  0
  5  6  1  0  0  0  0
  5 34  1  0  0  0  0
  5 35  1  0  0  0  0
  6  7  1  0  0  0  0
  6  8  1  0  0  0  0
  7 36  1  0  0  0  0
  8  9  1  0  0  0  0
  8 37  1  0  0  0  0
  8 38  1  0  0  0  0
  9 27  1  0  0  0  0
  9 10  1  0  0  0  0
 10 11  2  0  0  0  0
 10 39  1  0  0  0  0
 11 12  1  0  0  0  0
 12 27  2  0  0  0  0
 12 13  1  0  0  0  0
 13 14  1  0  0  0  0
 13 24  2  0  0  0  0
 14 15  1  0  0  0  0
 14 16  1  0  0  0  0
 15 40  1  0  0  0  0
 15 41  1  0  0  0  0
 15 42  1  0  0  0  0
 16 17  1  0  0  0  0
 16 43  1  0  0  0  0
 16 44  1  0  0  0  0
 17 23  1  0  0  0  0
 17 18  1  0  0  0  0
 17 45  1  0  0  0  0
 18 19  1  0  0  0  0
 18 46  1  0  0  0  0
 18 47  1  0  0  0  0
 19 20  1  0  0  0  0
 19 48  1  0  0  0  0
 19 49  1  0  0  0  0
 20 21  2  0  0  0  0
 20 22  2  0  0  0  0
 20 23  1  0  0  0  0
 23 50  1  0  0  0  0
 23 51  1  0  0  0  0
 24 25  1  0  0  0  0
 25 26  2  0  0  0  0
 25 52  1  0  0  0  0
 26 27  1  0  0  0  0
M  END
> <s_m_source_file>
AV-unprocessed.smi

> <i_m_source_file_index>
266

> <i_lp_mmshare_version>
43012

> <i_f3d_flags>
0

> <s_epik_input>
W0NIMl0xW0NIMl1PW0NAQEhdKFtDSDNdKVtDQEBdMShbT0hdKVtDSDJdbihbY0hdbjIpYyhjMjMpbltjSF1uYzNOKFtDSDNdKVtDSDJdW0NAQEhdKFtDSDJdNClbQ0gyXVtDSDJdUzQoPU8pPU8=

> <s_epik_cmdline>
J2VwaWtfcHl0aG9uJywgJy1waCcsICc3LjAnLCAnLXRuJywgJzgnLCAnLW1hJywgJzIwMCcsICctbWV0YWxfYmluZGluZycsICctaW1hZScsICc8aW5maWxlLm1hZT4nLCAnLW9tYWUnLCAnPG91dGZpbGUubWFlPic=

> <r_lp_tautomer_probability>
1

> <r_epik_Ionization_Penalty>
0.00155497

> <r_epik_Ionization_Penalty_Charging>
0

> <r_epik_Ionization_Penalty_Neutral>
0.00155497

> <r_epik_State_Penalty>
-0

> <r_epik_Charging_Adjusted_Penalty>
0

> <i_epik_Tot_Q>
0

> <i_epik_Tot_abs_Q>
0

> <r_epik_Metal_State_Penalty>
-0

> <b_epik_Metal_Only>
0

> <s_lp_Force_Field>
OPLS_2005

> <r_lp_Energy>
31.7584

> <b_lp_Chiralities_Consistent>
1

> <s_lp_Variant>
AV-unprocessed.smi:266-6

> <Gold.Version>
5.8.1

> <Gold.Id.Protein>
6NUR|6NUR_protein|mol2

> <Gold.PLP.Fitness>
42.7465

> <Gold.PLP.PLP>
-35.3588

> <Gold.PLP.part.hbond>
-2.0000

> <Gold.PLP.part.metal>
0.0000

> <Gold.PLP.part.buried>
-6.1754

> <Gold.PLP.part.nonpolar>
-28.0251

> <Gold.PLP.part.repulsive>
1.6388

> <Gold.PLP.ligand.clash>
0.0000

> <Gold.PLP.ligand.torsion>
1.0738

> <Gold.PLP.Chemscore.Hbond>
2.0000

> <Gold.PLP.Chemscore.CHOScore>
0.9315

> <Gold.PLP.Chemscore.Metal>
0.0000

> <Gold.Chemscore.Hbonds>
donor molecule, donor type, donor heavy atom, donor atom, acceptor molecule, acceptor atom, score
      L1  H     7    36       P1 10747  1.00
      P1  H  6896  6909       L1    22  1.00
      L1  C    25    52       P1 10737  0.60

> <Gold.PLP.Chemscore.Internal.Correction>
0.7408

> <Gold.Rescore>
     Score         DG    S(hbond)    S(metal)    S(lipo)     H(rot)  DE(clash)    DE(int)     intcor
     12.43     -15.28       1.96        0.00      81.40       2.45       0.21       2.64       ----

> <Gold.Chemscore.Fitness>
12.4305

> <Gold.Chemscore.DG>
-15.2775

> <Gold.Chemscore.ZeroCoef>
-5.4800

> <Gold.Chemscore.Hbond>
1.9574

> <Gold.Chemscore.Metal>
0.0000

> <Gold.Chemscore.Lipo>
81.4040

> <Gold.Chemscore.Internal_Hbond>
0.0000

> <Gold.Chemscore.DEClash>
0.2060

> <Gold.Chemscore.DEInternal>
2.6410

> <Gold.Chemscore.Rot>
2.4471

> <Gold.Chemscore.Internal.Correction>
   9.000000E+99

> <Gold.Chemscore.Hbonds>
donor molecule, donor type, donor heavy atom, donor atom, acceptor molecule, acceptor atom, score
      L1  H     7    36       P1 10747  0.96
      P1  H  6896  6909       L1    22  0.94

> <Gold.Chemscore.Hbond.Weighted>
-6.5378

> <Gold.Chemscore.Metal.Weighted>
-0.0000

> <Gold.Chemscore.Lipo.Weighted>
-9.5243

> <Gold.Chemscore.Internal_Hbond.Weighted>
0.0000

> <Gold.Chemscore.DEClash.Weighted>
0.2060

> <Gold.Chemscore.DEInternal.Weighted>
2.6410

> <Gold.Chemscore.Rot.Weighted>
6.2645

> <Gold.Chemscore.Internal.Correction.Weighted>
   9.000000E+99

> <Gold.Protein.RotatedTorsions>
[ 6907 6896 6895 6894 ] final -127.34 input  -60.11 | X-H torsion
[ 7974 7965 7964 7962 ] final -121.21 input  175.53 | X-H torsion
[ 8008 7997 7996 7995 ] final  -46.74 input   59.86 | X-H torsion
[ 10167 10162 10161 10158 ] final  -92.01 input  -65.29 | X-H torsion
[ 10718 10713 10712 10709 ] final   41.20 input   66.30 | X-H torsion
[ 10763 10752 10751 10750 ] final -177.57 input  -60.55 | X-H torsion
[ 11005 11000 10999 10996 ] final  127.53 input  -57.11 | X-H torsion

> <Gold.Protein.ActiveResidues>
 VAL166  LYS551  ARG553  GLY616  TRP617  ASP618  TYR619  PRO620  LYS621  CYS622 
 ASP623  PHE694  ASN695  SER759  ASP760  ASP761  ALA762  ILE779  LEU786  VAL792 
 PHE793  MET794  SER795  GLU796  ALA797  LYS798  CYS799  TRP800  GLU811  SER814 

> <Gold.Protein.RotatedAtoms>
  150.9063  133.7054  159.2865 H   0  0  0  0  0  0  0  0  0  0  0  0  # atno 6907 bound_to 6896
  151.4556  135.1032  159.9720 H   0  0  0  0  0  0  0  0  0  0  0  0  # atno 6908 bound_to 6896
  152.4905  133.8438  159.7222 H   0  0  0  0  0  0  0  0  0  0  0  0  # atno 6909 bound_to 6896
  145.0429  140.8158  143.4256 H   0  0  0  0  0  0  0  0  0  0  0  0  # atno 7974 bound_to 7965
  154.4010  140.1364  156.4061 H   0  0  0  0  0  0  0  0  0  0  0  0  # atno 8008 bound_to 7997
  155.7778  140.3482  155.5261 H   0  0  0  0  0  0  0  0  0  0  0  0  # atno 8009 bound_to 7997
  155.8703  140.0971  157.1545 H   0  0  0  0  0  0  0  0  0  0  0  0  # atno 8010 bound_to 7997
  140.3391  143.2952  151.9855 H   0  0  0  0  0  0  0  0  0  0  0  0  # atno 10167 bound_to 10162
  157.3909  130.7806  149.7268 H   0  0  0  0  0  0  0  0  0  0  0  0  # atno 10718 bound_to 10713
  154.5585  135.2818  155.0942 H   0  0  0  0  0  0  0  0  0  0  0  0  # atno 10763 bound_to 10752
  154.2360  135.6365  153.5195 H   0  0  0  0  0  0  0  0  0  0  0  0  # atno 10764 bound_to 10752
  153.0022  135.5548  154.6172 H   0  0  0  0  0  0  0  0  0  0  0  0  # atno 10765 bound_to 10752
  139.9512  134.9621  156.8868 H   0  0  0  0  0  0  0  0  0  0  0  0  # atno 11005 bound_to 11000
  145.1625  139.2450  143.5384 LP  0  0  0  0  0  0  0  0  0  0  0  0  # atno 17320 bound_to 7965
  146.3511  140.1356  142.8596 LP  0  0  0  0  0  0  0  0  0  0  0  0  # atno 17321 bound_to 7965
  139.4843  144.6172  151.7325 LP  0  0  0  0  0  0  0  0  0  0  0  0  # atno 17342 bound_to 10162
  140.5326  144.0707  150.6059 LP  0  0  0  0  0  0  0  0  0  0  0  0  # atno 17343 bound_to 10162
  155.9798  130.4036  150.3566 LP  0  0  0  0  0  0  0  0  0  0  0  0  # atno 17370 bound_to 10713
  157.1682  131.0362  151.2808 LP  0  0  0  0  0  0  0  0  0  0  0  0  # atno 17371 bound_to 10713
  140.5714  134.0439  155.7432 LP  0  0  0  0  0  0  0  0  0  0  0  0  # atno 17394 bound_to 11000
  141.1175  133.9516  157.2794 LP  0  0  0  0  0  0  0  0  0  0  0  0  # atno 17395 bound_to 11000

$$$$
