AV-unprocessed.smi:1637|AV-procd|sdf|6545|dock9
  -GOLD-   22720 7233D 1   1.00000     0.00000
 Structure written by MMmdl.
 38 39  0  0  0  0  0  0  0  0  1 V2000
  155.6109  140.0004  161.4677 C   0  0  0  0  0  0  0  0  0  0  0  0
  154.8049  141.1661  161.6007 O   0  0  0  0  0  0  0  0  0  0  0  0
  153.8502  141.4158  160.6362 C   0  0  0  0  0  0  0  0  0  0  0  0
  152.9765  142.5056  160.8187 C   0  0  0  0  0  0  0  0  0  0  0  0
  152.0014  142.7709  159.8379 C   0  0  0  0  0  0  0  0  0  0  0  0
  151.9270  141.9295  158.7013 C   0  0  0  0  0  0  0  0  0  0  0  0
  151.0047  142.0855  157.6297 N   0  0  0  0  0  0  0  0  0  0  0  0
  150.3317  141.1504  156.9371 C   0  0  0  0  0  0  0  0  0  0  0  0
  150.4241  139.9338  157.0961 O   0  0  0  0  0  0  0  0  0  0  0  0
  149.5312  141.7156  156.0219 N   0  0  0  0  0  0  0  0  0  0  0  0
  148.6691  141.0008  155.0789 C   0  0  1  0  0  0  0  0  0  0  0  0
  147.9908  142.0013  154.1162 C   0  0  0  0  0  0  0  0  0  0  0  0
  146.7002  141.4721  153.4704 C   0  0  0  0  0  0  0  0  0  0  0  0
  146.8859  140.2424  152.5690 C   0  0  0  0  0  0  0  0  0  0  0  0
  147.3498  138.9864  153.3264 C   0  0  0  0  0  0  0  0  0  0  0  0
  148.7801  138.9990  153.6077 N   0  0  0  0  0  0  0  0  0  0  0  0
  149.4482  139.8742  154.3743 C   0  0  0  0  0  0  0  0  0  0  0  0
  150.6685  139.7832  154.5072 O   0  0  0  0  0  0  0  0  0  0  0  0
  152.8510  140.8675  158.6134 C   0  0  0  0  0  0  0  0  0  0  0  0
  153.7886  140.6085  159.5489 N   0  0  0  0  0  0  0  0  0  0  0  0
  156.3073  139.9465  162.3041 H   0  0  0  0  0  0  0  0  0  0  0  0
  156.1985  140.0253  160.5489 H   0  0  0  0  0  0  0  0  0  0  0  0
  155.0063  139.0925  161.4821 H   0  0  0  0  0  0  0  0  0  0  0  0
  153.0554  143.1315  161.6954 H   0  0  0  0  0  0  0  0  0  0  0  0
  151.3465  143.6149  159.9818 H   0  0  0  0  0  0  0  0  0  0  0  0
  150.8442  143.0400  157.3427 H   0  0  0  0  0  0  0  0  0  0  0  0
  149.5259  142.7231  155.9542 H   0  0  0  0  0  0  0  0  0  0  0  0
  147.8926  140.5100  155.6690 H   0  0  0  0  0  0  0  0  0  0  0  0
  147.7294  142.9101  154.6600 H   0  0  0  0  0  0  0  0  0  0  0  0
  148.6947  142.3142  153.3436 H   0  0  0  0  0  0  0  0  0  0  0  0
  145.9708  141.2458  154.2493 H   0  0  0  0  0  0  0  0  0  0  0  0
  146.2592  142.2728  152.8758 H   0  0  0  0  0  0  0  0  0  0  0  0
  145.9263  140.0235  152.0992 H   0  0  0  0  0  0  0  0  0  0  0  0
  147.5725  140.4691  151.7523 H   0  0  0  0  0  0  0  0  0  0  0  0
  146.7811  138.8471  154.2468 H   0  0  0  0  0  0  0  0  0  0  0  0
  147.1550  138.1075  152.7115 H   0  0  0  0  0  0  0  0  0  0  0  0
  149.3246  138.2737  153.1636 H   0  0  0  0  0  0  0  0  0  0  0  0
  152.8402  140.2011  157.7632 H   0  0  0  0  0  0  0  0  0  0  0  0
  1  2  1  0  0  0  0
  1 21  1  0  0  0  0
  1 22  1  0  0  0  0
  1 23  1  0  0  0  0
  2  3  1  0  0  0  0
  3 20  1  0  0  0  0
  3  4  2  0  0  0  0
  4  5  1  0  0  0  0
  4 24  1  0  0  0  0
  5  6  2  0  0  0  0
  5 25  1  0  0  0  0
  6  7  1  0  0  0  0
  6 19  1  0  0  0  0
  7  8  1  0  0  0  0
  7 26  1  0  0  0  0
  8  9  2  0  0  0  0
  8 10  1  0  0  0  0
 10 11  1  0  0  0  0
 10 27  1  0  0  0  0
 11 17  1  0  0  0  0
 11 12  1  0  0  0  0
 11 28  1  0  0  0  0
 12 13  1  0  0  0  0
 12 29  1  0  0  0  0
 12 30  1  0  0  0  0
 13 14  1  0  0  0  0
 13 31  1  0  0  0  0
 13 32  1  0  0  0  0
 14 15  1  0  0  0  0
 14 33  1  0  0  0  0
 14 34  1  0  0  0  0
 15 16  1  0  0  0  0
 15 35  1  0  0  0  0
 15 36  1  0  0  0  0
 16 17  1  0  0  0  0
 16 37  1  0  0  0  0
 17 18  2  0  0  0  0
 19 20  2  0  0  0  0
 19 38  1  0  0  0  0
M  END
> <s_m_source_file>
AV-unprocessed.smi

> <i_m_source_file_index>
1637

> <i_lp_mmshare_version>
43012

> <i_f3d_flags>
0

> <s_epik_input>
W0NIM11PYzFbY0hdW2NIXWMoW2NIXW4xKVtOSF1DKD1PKVtOSF1bQ0BASF0yW0NIMl1bQ0gyXVtDSDJdW0NIMl1bTkhdQzI9Tw==

> <s_epik_cmdline>
J2VwaWtfcHl0aG9uJywgJy1waCcsICc3LjAnLCAnLXRuJywgJzgnLCAnLW1hJywgJzIwMCcsICctbWV0YWxfYmluZGluZycsICctaW1hZScsICc8aW5maWxlLm1hZT4nLCAnLW9tYWUnLCAnPG91dGZpbGUubWFlPic=

> <r_lp_tautomer_probability>
1

> <r_epik_Ionization_Penalty>
8.30847e-05

> <r_epik_Ionization_Penalty_Charging>
0

> <r_epik_Ionization_Penalty_Neutral>
8.30847e-05

> <r_epik_State_Penalty>
-0

> <r_epik_Charging_Adjusted_Penalty>
0

> <i_epik_Tot_Q>
0

> <i_epik_Tot_abs_Q>
0

> <r_epik_Metal_State_Penalty>
-0

> <b_epik_Metal_Only>
0

> <s_lp_Force_Field>
OPLS_2005

> <r_lp_Energy>
13.0177

> <b_lp_Chiralities_Consistent>
1

> <s_lp_Variant>
AV-unprocessed.smi:1637-2

> <Gold.Version>
5.8.1

> <Gold.Id.Protein>
6NUR|6NUR_protein|mol2

> <Gold.PLP.Fitness>
41.6101

> <Gold.PLP.PLP>
-36.8457

> <Gold.PLP.part.hbond>
-4.0871

> <Gold.PLP.part.metal>
0.0000

> <Gold.PLP.part.buried>
-2.1147

> <Gold.PLP.part.nonpolar>
-29.8329

> <Gold.PLP.part.repulsive>
0.2959

> <Gold.PLP.ligand.clash>
0.0000

> <Gold.PLP.ligand.torsion>
0.4088

> <Gold.PLP.Chemscore.Hbond>
1.8515

> <Gold.PLP.Chemscore.CHOScore>
0.0000

> <Gold.PLP.Chemscore.Metal>
0.0000

> <Gold.Chemscore.Hbonds>
donor molecule, donor type, donor heavy atom, donor atom, acceptor molecule, acceptor atom, score
      L1  H    10    27       P1  8028  0.78
      L1  H    16    37       P1  7948  0.03
      P1  H  7989  7998       L1    18  1.00

> <Gold.PLP.Chemscore.Internal.Correction>
0.0275

> <Gold.Rescore>
     Score         DG    S(hbond)    S(metal)    S(lipo)     H(rot)  DE(clash)    DE(int)     intcor
     12.11     -18.60       2.11        0.00      80.51       1.31       0.87       5.62       ----

> <Gold.Chemscore.Fitness>
12.1081

> <Gold.Chemscore.DG>
-18.6007

> <Gold.Chemscore.ZeroCoef>
-5.4800

> <Gold.Chemscore.Hbond>
2.1114

> <Gold.Chemscore.Metal>
0.0000

> <Gold.Chemscore.Lipo>
80.5078

> <Gold.Chemscore.Internal_Hbond>
0.0000

> <Gold.Chemscore.DEClash>
0.8731

> <Gold.Chemscore.DEInternal>
5.6195

> <Gold.Chemscore.Rot>
1.3090

> <Gold.Chemscore.Internal.Correction>
   9.000000E+99

> <Gold.Chemscore.Hbonds>
donor molecule, donor type, donor heavy atom, donor atom, acceptor molecule, acceptor atom, score
      L1  H    10    27       P1  8028  0.77
      L1  H    16    37       P1  7948  0.07
      P1  H  7989  7998       L1    18  0.91

> <Gold.Chemscore.Hbond.Weighted>
-7.0522

> <Gold.Chemscore.Metal.Weighted>
-0.0000

> <Gold.Chemscore.Lipo.Weighted>
-9.4194

> <Gold.Chemscore.Internal_Hbond.Weighted>
0.0000

> <Gold.Chemscore.DEClash.Weighted>
0.8731

> <Gold.Chemscore.DEInternal.Weighted>
5.6195

> <Gold.Chemscore.Rot.Weighted>
3.3509

> <Gold.Chemscore.Internal.Correction.Weighted>
   9.000000E+99

> <Gold.Protein.RotatedTorsions>
[ 6907 6896 6895 6894 ] final  157.49 input  -60.11 | X-H torsion
[ 7974 7965 7964 7962 ] final -148.40 input  175.53 | X-H torsion
[ 8008 7997 7996 7995 ] final -121.14 input   59.86 | X-H torsion
[ 10167 10162 10161 10158 ] final  -99.01 input  -65.29 | X-H torsion
[ 10718 10713 10712 10709 ] final  -62.70 input   66.30 | X-H torsion
[ 10763 10752 10751 10750 ] final  -26.00 input  -60.55 | X-H torsion
[ 11005 11000 10999 10996 ] final  143.59 input  -57.11 | X-H torsion

> <Gold.Protein.ActiveResidues>
 VAL166  LYS551  ARG553  GLY616  TRP617  ASP618  TYR619  PRO620  LYS621  CYS622 
 ASP623  PHE694  ASN695  SER759  ASP760  ASP761  ALA762  ILE779  LEU786  VAL792 
 PHE793  MET794  SER795  GLU796  ALA797  LYS798  CYS799  TRP800  GLU811  SER814 

> <Gold.Protein.RotatedAtoms>
  152.0143  133.3873  159.4231 H   0  0  0  0  0  0  0  0  0  0  0  0  # atno 6907 bound_to 6896
  150.6896  134.3696  159.4995 H   0  0  0  0  0  0  0  0  0  0  0  0  # atno 6908 bound_to 6896
  152.1461  134.9024  160.0601 H   0  0  0  0  0  0  0  0  0  0  0  0  # atno 6909 bound_to 6896
  144.8031  140.5201  143.5693 H   0  0  0  0  0  0  0  0  0  0  0  0  # atno 7974 bound_to 7965
  155.1431  140.0402  157.2803 H   0  0  0  0  0  0  0  0  0  0  0  0  # atno 8008 bound_to 7997
  154.6458  140.2557  155.7243 H   0  0  0  0  0  0  0  0  0  0  0  0  # atno 8009 bound_to 7997
  156.2554  140.2846  156.0871 H   0  0  0  0  0  0  0  0  0  0  0  0  # atno 8010 bound_to 7997
  140.2669  143.3370  152.0572 H   0  0  0  0  0  0  0  0  0  0  0  0  # atno 10167 bound_to 10162
  156.0838  130.4212  150.1172 H   0  0  0  0  0  0  0  0  0  0  0  0  # atno 10718 bound_to 10713
  153.7089  135.6952  153.5042 H   0  0  0  0  0  0  0  0  0  0  0  0  # atno 10763 bound_to 10752
  153.2287  135.4345  155.0570 H   0  0  0  0  0  0  0  0  0  0  0  0  # atno 10764 bound_to 10752
  154.8321  135.3478  154.6627 H   0  0  0  0  0  0  0  0  0  0  0  0  # atno 10765 bound_to 10752
  140.0566  134.9227  157.1111 H   0  0  0  0  0  0  0  0  0  0  0  0  # atno 11005 bound_to 11000
  145.5503  139.1476  143.3398 LP  0  0  0  0  0  0  0  0  0  0  0  0  # atno 17320 bound_to 7965
  146.2317  140.5641  142.8972 LP  0  0  0  0  0  0  0  0  0  0  0  0  # atno 17321 bound_to 7965
  139.5000  144.6682  151.6306 LP  0  0  0  0  0  0  0  0  0  0  0  0  # atno 17342 bound_to 10162
  140.5921  143.9761  150.6331 LP  0  0  0  0  0  0  0  0  0  0  0  0  # atno 17343 bound_to 10162
  156.9198  130.9679  151.3550 LP  0  0  0  0  0  0  0  0  0  0  0  0  # atno 17370 bound_to 10713
  157.5965  130.8481  149.8737 LP  0  0  0  0  0  0  0  0  0  0  0  0  # atno 17371 bound_to 10713
  140.3835  134.2262  155.7169 LP  0  0  0  0  0  0  0  0  0  0  0  0  # atno 17394 bound_to 11000
  141.1954  133.8105  157.0714 LP  0  0  0  0  0  0  0  0  0  0  0  0  # atno 17395 bound_to 11000

$$$$
