AV-unprocessed.smi:2973|AV-procd|sdf|11348|dock6
  -GOLD-   2272016263D 1   1.00000     0.00000
 Structure written by MMmdl.
 48 50  0  0  0  0  0  0  0  0  2 V2000
  149.6764  140.6007  154.4284 C   0  0  0  0  0  0  0  0  0  0  0  0
  150.4373  141.1546  155.6535 C   0  0  1  0  0  0  0  0  0  0  0  0
  149.4323  141.6757  156.7050 C   0  0  0  0  0  0  0  0  0  0  0  0
  150.1401  142.3094  157.9113 C   0  0  0  0  0  0  0  0  0  0  0  0
  151.1186  141.3236  158.5615 C   0  0  0  0  0  0  0  0  0  0  0  0
  152.1380  140.8007  157.5346 C   0  0  0  0  0  0  0  0  0  0  0  0
  151.4817  140.1686  156.2772 C   0  0  2  0  0  0  0  0  0  0  0  0
  152.5284  139.8673  155.3158 N   0  5  0  0  0  0  0  0  0  0  0  0
  152.5690  138.5313  155.1069 C   0  0  0  0  0  0  0  0  0  0  0  0
  153.3397  137.9268  154.3617 O   0  0  0  0  0  0  0  0  0  0  0  0
  151.6288  137.8999  155.8341 N   0  0  0  0  0  0  0  0  0  0  0  0
  151.4168  136.4467  155.8499 C   0  0  0  0  0  0  0  0  0  0  0  0
  150.0621  136.0285  155.2621 C   0  0  0  0  0  0  0  0  0  0  0  0
  149.2804  136.8664  154.8102 O   0  0  0  0  0  0  0  0  0  0  0  0
  149.8082  134.7115  155.2574 N   0  0  0  0  0  0  0  0  0  0  0  0
  148.5887  134.0956  154.7489 C   0  0  0  0  0  0  0  0  0  0  0  0
  148.8966  132.9377  153.7849 C   0  0  0  0  0  0  0  0  0  0  0  0
  147.6965  132.5666  152.9353 C   0  0  0  0  0  0  0  0  0  0  0  0
  147.1664  133.4807  151.9995 C   0  0  0  0  0  0  0  0  0  0  0  0
  146.0565  133.0838  151.2286 C   0  0  0  0  0  0  0  0  0  0  0  0
  145.5234  131.7944  151.4207 C   0  0  0  0  0  0  0  0  0  0  0  0
  146.1265  130.9559  152.3794 C   0  0  0  0  0  0  0  0  0  0  0  0
  147.1908  131.3266  153.1235 N   0  0  0  0  0  0  0  0  0  0  0  0
  150.9315  138.7736  156.5687 C   0  0  0  0  0  0  0  0  0  0  0  0
  150.0071  138.5226  157.3435 O   0  0  0  0  0  0  0  0  0  0  0  0
  149.0470  139.7503  154.6913 H   0  0  0  0  0  0  0  0  0  0  0  0
  150.3589  140.2802  153.6413 H   0  0  0  0  0  0  0  0  0  0  0  0
  149.0278  141.3638  153.9979 H   0  0  0  0  0  0  0  0  0  0  0  0
  150.9939  142.0239  155.2987 H   0  0  0  0  0  0  0  0  0  0  0  0
  148.7743  142.4164  156.2496 H   0  0  0  0  0  0  0  0  0  0  0  0
  148.7848  140.8667  157.0438 H   0  0  0  0  0  0  0  0  0  0  0  0
  150.6795  143.2015  157.5908 H   0  0  0  0  0  0  0  0  0  0  0  0
  149.4032  142.6396  158.6439 H   0  0  0  0  0  0  0  0  0  0  0  0
  151.6431  141.8131  159.3823 H   0  0  0  0  0  0  0  0  0  0  0  0
  150.5680  140.4948  159.0064 H   0  0  0  0  0  0  0  0  0  0  0  0
  152.7781  141.6308  157.2306 H   0  0  0  0  0  0  0  0  0  0  0  0
  152.7992  140.0818  158.0220 H   0  0  0  0  0  0  0  0  0  0  0  0
  152.2048  135.9418  155.2890 H   0  0  0  0  0  0  0  0  0  0  0  0
  151.5003  136.0766  156.8734 H   0  0  0  0  0  0  0  0  0  0  0  0
  150.5061  134.0939  155.6456 H   0  0  0  0  0  0  0  0  0  0  0  0
  148.0188  133.7254  155.6016 H   0  0  0  0  0  0  0  0  0  0  0  0
  147.9657  134.8474  154.2612 H   0  0  0  0  0  0  0  0  0  0  0  0
  149.7243  133.2033  153.1255 H   0  0  0  0  0  0  0  0  0  0  0  0
  149.2231  132.0614  154.3466 H   0  0  0  0  0  0  0  0  0  0  0  0
  147.5999  134.4621  151.8729 H   0  0  0  0  0  0  0  0  0  0  0  0
  145.6228  133.7557  150.5027 H   0  0  0  0  0  0  0  0  0  0  0  0
  144.6733  131.4556  150.8472 H   0  0  0  0  0  0  0  0  0  0  0  0
  145.7438  129.9608  152.5529 H   0  0  0  0  0  0  0  0  0  0  0  0
  1  2  1  0  0  0  0
  1 26  1  0  0  0  0
  1 27  1  0  0  0  0
  1 28  1  0  0  0  0
  2  7  1  0  0  0  0
  2  3  1  0  0  0  0
  2 29  1  0  0  0  0
  3  4  1  0  0  0  0
  3 30  1  0  0  0  0
  3 31  1  0  0  0  0
  4  5  1  0  0  0  0
  4 32  1  0  0  0  0
  4 33  1  0  0  0  0
  5  6  1  0  0  0  0
  5 34  1  0  0  0  0
  5 35  1  0  0  0  0
  6  7  1  0  0  0  0
  6 36  1  0  0  0  0
  6 37  1  0  0  0  0
  7 24  1  0  0  0  0
  7  8  1  0  0  0  0
  8  9  1  0  0  0  0
  9 10  2  0  0  0  0
  9 11  1  0  0  0  0
 11 12  1  0  0  0  0
 11 24  1  0  0  0  0
 12 13  1  0  0  0  0
 12 38  1  0  0  0  0
 12 39  1  0  0  0  0
 13 14  2  0  0  0  0
 13 15  1  0  0  0  0
 15 16  1  0  0  0  0
 15 40  1  0  0  0  0
 16 17  1  0  0  0  0
 16 41  1  0  0  0  0
 16 42  1  0  0  0  0
 17 18  1  0  0  0  0
 17 43  1  0  0  0  0
 17 44  1  0  0  0  0
 18 23  1  0  0  0  0
 18 19  2  0  0  0  0
 19 20  1  0  0  0  0
 19 45  1  0  0  0  0
 20 21  2  0  0  0  0
 20 46  1  0  0  0  0
 21 22  1  0  0  0  0
 21 47  1  0  0  0  0
 22 23  2  0  0  0  0
 22 48  1  0  0  0  0
 24 25  2  0  0  0  0
M  CHG  1   8  -1
M  END
> <s_m_source_file>
AV-unprocessed.smi

> <i_m_source_file_index>
2973

> <i_lp_mmshare_version>
43012

> <i_f3d_flags>
0

> <s_epik_input>
W0NIMl0xW0NIMl1bQ0gyXVtDSDJdW0NAQEhdKFtDSDNdKVtDQF0xMltOSF1DKD1PKU4oQzI9TylbQ0gyXUMoPU8pW05IXVtDSDJdW0NIMl1jM1tjSF1bY0hdW2NIXVtjSF1uMw==

> <s_epik_cmdline>
J2VwaWtfcHl0aG9uJywgJy1waCcsICc3LjAnLCAnLXRuJywgJzgnLCAnLW1hJywgJzIwMCcsICctbWV0YWxfYmluZGluZycsICctaW1hZScsICc8aW5maWxlLm1hZT4nLCAnLW9tYWUnLCAnPG91dGZpbGUubWFlPic=

> <r_lp_tautomer_probability>
1

> <r_epik_Ionization_Penalty>
6.04175

> <r_epik_Ionization_Penalty_Charging>
6.01728

> <r_epik_Ionization_Penalty_Neutral>
0.0244696

> <r_epik_State_Penalty>
6.03712

> <r_epik_Charging_Adjusted_Penalty>
12.0544

> <i_epik_Tot_Q>
-1

> <i_epik_Tot_abs_Q>
1

> <r_epik_Metal_State_Penalty>
2.01153

> <b_epik_Metal_Only>
1

> <s_lp_Force_Field>
OPLS_2005

> <r_lp_Energy>
9.40787

> <b_lp_Chiralities_Consistent>
1

> <s_lp_Variant>
AV-unprocessed.smi:2973-12

> <Gold.Version>
5.8.1

> <Gold.Id.Protein>
6NUR|6NUR_protein|mol2

> <Gold.PLP.Fitness>
46.7812

> <Gold.PLP.PLP>
-39.9501

> <Gold.PLP.part.hbond>
-3.0000

> <Gold.PLP.part.metal>
0.0000

> <Gold.PLP.part.buried>
-1.8523

> <Gold.PLP.part.nonpolar>
-34.8091

> <Gold.PLP.part.repulsive>
1.1900

> <Gold.PLP.ligand.clash>
0.0000

> <Gold.PLP.ligand.torsion>
0.1809

> <Gold.PLP.Chemscore.Hbond>
2.3871

> <Gold.PLP.Chemscore.CHOScore>
0.0000

> <Gold.PLP.Chemscore.Metal>
0.0000

> <Gold.Chemscore.Hbonds>
donor molecule, donor type, donor heavy atom, donor atom, acceptor molecule, acceptor atom, score
      P1  H  7989  7998       L1     8  0.30
      P1  H  7997  8010       L1     8  1.98
      P1  H 10752 10764       L1    10  0.09

> <Gold.PLP.Chemscore.Internal.Correction>
0.0315

> <Gold.Rescore>
     Score         DG    S(hbond)    S(metal)    S(lipo)     H(rot)  DE(clash)    DE(int)     intcor
     12.97     -14.48       0.83        0.00      92.95       1.81       1.31       0.20       ----

> <Gold.Chemscore.Fitness>
12.9713

> <Gold.Chemscore.DG>
-14.4810

> <Gold.Chemscore.ZeroCoef>
-5.4800

> <Gold.Chemscore.Hbond>
0.8255

> <Gold.Chemscore.Metal>
0.0000

> <Gold.Chemscore.Lipo>
92.9474

> <Gold.Chemscore.Internal_Hbond>
0.0000

> <Gold.Chemscore.DEClash>
1.3104

> <Gold.Chemscore.DEInternal>
0.1993

> <Gold.Chemscore.Rot>
1.8090

> <Gold.Chemscore.Internal.Correction>
   9.000000E+99

> <Gold.Chemscore.Hbonds>
donor molecule, donor type, donor heavy atom, donor atom, acceptor molecule, acceptor atom, score
      P1  H  7989  7998       L1     8  0.05
      P1  H  7997  8010       L1     8  0.22
      P1  H 10752 10764       L1    10  0.10

> <Gold.Chemscore.Hbond.Weighted>
-2.7572

> <Gold.Chemscore.Metal.Weighted>
-0.0000

> <Gold.Chemscore.Lipo.Weighted>
-10.8748

> <Gold.Chemscore.Internal_Hbond.Weighted>
0.0000

> <Gold.Chemscore.DEClash.Weighted>
1.3104

> <Gold.Chemscore.DEInternal.Weighted>
0.1993

> <Gold.Chemscore.Rot.Weighted>
4.6310

> <Gold.Chemscore.Internal.Correction.Weighted>
   9.000000E+99

> <Gold.Protein.RotatedTorsions>
[ 6907 6896 6895 6894 ] final  150.96 input  -60.11 | X-H torsion
[ 7974 7965 7964 7962 ] final   87.93 input  175.53 | X-H torsion
[ 8008 7997 7996 7995 ] final  104.56 input   59.86 | X-H torsion
[ 10167 10162 10161 10158 ] final  -83.67 input  -65.29 | X-H torsion
[ 10718 10713 10712 10709 ] final  145.93 input   66.30 | X-H torsion
[ 10763 10752 10751 10750 ] final -112.25 input  -60.55 | X-H torsion
[ 11005 11000 10999 10996 ] final  -25.56 input  -57.11 | X-H torsion

> <Gold.Protein.ActiveResidues>
 VAL166  LYS551  ARG553  GLY616  TRP617  ASP618  TYR619  PRO620  LYS621  CYS622 
 ASP623  PHE694  ASN695  SER759  ASP760  ASP761  ALA762  ILE779  LEU786  VAL792 
 PHE793  MET794  SER795  GLU796  ALA797  LYS798  CYS799  TRP800  GLU811  SER814 

> <Gold.Protein.RotatedAtoms>
  152.1072  133.4281  159.4613 H   0  0  0  0  0  0  0  0  0  0  0  0  # atno 6907 bound_to 6896
  150.6866  134.2691  159.4590 H   0  0  0  0  0  0  0  0  0  0  0  0  # atno 6908 bound_to 6896
  152.0556  134.9626  160.0625 H   0  0  0  0  0  0  0  0  0  0  0  0  # atno 6909 bound_to 6896
  145.5525  139.2296  143.2505 H   0  0  0  0  0  0  0  0  0  0  0  0  # atno 7974 bound_to 7965
  156.1583  140.3146  155.8763 H   0  0  0  0  0  0  0  0  0  0  0  0  # atno 8008 bound_to 7997
  155.3834  140.0489  157.3060 H   0  0  0  0  0  0  0  0  0  0  0  0  # atno 8009 bound_to 7997
  154.5122  140.2168  155.9145 H   0  0  0  0  0  0  0  0  0  0  0  0  # atno 8010 bound_to 7997
  140.4205  143.2586  151.8897 H   0  0  0  0  0  0  0  0  0  0  0  0  # atno 10167 bound_to 10162
  157.3394  131.0933  151.1095 H   0  0  0  0  0  0  0  0  0  0  0  0  # atno 10718 bound_to 10713
  154.8340  135.4497  154.1165 H   0  0  0  0  0  0  0  0  0  0  0  0  # atno 10763 bound_to 10752
  153.2413  135.6916  153.7786 H   0  0  0  0  0  0  0  0  0  0  0  0  # atno 10764 bound_to 10752
  153.7133  135.3353  155.3227 H   0  0  0  0  0  0  0  0  0  0  0  0  # atno 10765 bound_to 10752
  140.8948  133.7563  156.0468 H   0  0  0  0  0  0  0  0  0  0  0  0  # atno 11005 bound_to 11000
  146.1907  140.6348  142.9147 LP  0  0  0  0  0  0  0  0  0  0  0  0  # atno 17320 bound_to 7965
  144.7522  140.5220  143.6793 LP  0  0  0  0  0  0  0  0  0  0  0  0  # atno 17321 bound_to 7965
  139.4782  144.5442  151.8482 LP  0  0  0  0  0  0  0  0  0  0  0  0  # atno 17342 bound_to 10162
  140.4539  144.1817  150.5900 LP  0  0  0  0  0  0  0  0  0  0  0  0  # atno 17343 bound_to 10162
  157.2313  130.6526  149.5851 LP  0  0  0  0  0  0  0  0  0  0  0  0  # atno 17370 bound_to 10713
  155.9705  130.4598  150.6048 LP  0  0  0  0  0  0  0  0  0  0  0  0  # atno 17371 bound_to 10713
  140.8302  134.3187  157.5351 LP  0  0  0  0  0  0  0  0  0  0  0  0  # atno 17394 bound_to 11000
  139.8734  134.9359  156.3645 LP  0  0  0  0  0  0  0  0  0  0  0  0  # atno 17395 bound_to 11000

$$$$
