AV-unprocessed.smi:67|AV-procd|sdf|636|dock2
  -GOLD-   2262016533D 1   1.00000     0.00000
 Structure written by MMmdl.
 48 50  0  0  0  0  0  0  0  0  2 V2000
  147.5571  136.6777  153.9032 O   0  0  0  0  0  0  0  0  0  0  0  0
  146.3306  137.3770  153.8188 C   0  0  2  0  0  0  0  0  0  0  0  0
  146.2992  138.4496  154.9349 C   0  0  0  0  0  0  0  0  0  0  0  0
  147.6603  138.9369  155.2833 N   0  3  2  0  0  0  0  0  0  0  0  0
  147.6868  139.7584  156.5214 C   0  0  0  0  0  0  0  0  0  0  0  0
  149.1306  140.0562  156.9590 C   0  0  0  0  0  0  0  0  0  0  0  0
  149.9285  140.6996  155.8060 C   0  0  1  0  0  0  0  0  0  0  0  0
  151.2536  141.1117  156.1500 O   0  0  0  0  0  0  0  0  0  0  0  0
  151.5625  141.7955  157.3107 C   0  0  0  0  0  0  0  0  0  0  0  0
  151.0714  143.0723  157.6820 C   0  0  0  0  0  0  0  0  0  0  0  0
  151.4616  143.6626  158.8989 C   0  0  0  0  0  0  0  0  0  0  0  0
  152.3478  142.9925  159.7609 C   0  0  0  0  0  0  0  0  0  0  0  0
  152.8535  141.7249  159.4070 C   0  0  0  0  0  0  0  0  0  0  0  0
  153.8067  140.9875  160.3361 C   0  0  0  0  0  0  0  0  0  0  0  0
  153.4989  139.6912  160.3404 F   0  0  0  0  0  0  0  0  0  0  0  0
  155.0685  141.1282  159.9284 F   0  0  0  0  0  0  0  0  0  0  0  0
  153.7177  141.4539  161.5822 F   0  0  0  0  0  0  0  0  0  0  0  0
  152.4501  141.1378  158.1884 C   0  0  0  0  0  0  0  0  0  0  0  0
  149.8169  139.9071  154.4870 C   0  0  0  0  0  0  0  0  0  0  0  0
  148.3441  139.6183  154.1528 C   0  0  0  0  0  0  0  0  0  0  0  0
  145.1335  136.4200  153.8473 C   0  0  0  0  0  0  0  0  0  0  0  0
  144.0723  137.1830  153.0599 C   0  0  0  0  0  0  0  0  0  0  0  0
  144.8011  137.9079  152.0251 N   0  0  0  0  0  0  0  0  0  0  0  0
  146.2036  138.0210  152.4266 C   0  0  0  0  0  0  0  0  0  0  0  0
  148.0073  136.7533  153.0753 H   0  0  0  0  0  0  0  0  0  0  0  0
  145.6614  139.2851  154.6407 H   0  0  0  0  0  0  0  0  0  0  0  0
  145.8193  138.0264  155.8188 H   0  0  0  0  0  0  0  0  0  0  0  0
  147.1409  140.6882  156.3537 H   0  0  0  0  0  0  0  0  0  0  0  0
  147.1739  139.2295  157.3261 H   0  0  0  0  0  0  0  0  0  0  0  0
  149.1207  140.7278  157.8178 H   0  0  0  0  0  0  0  0  0  0  0  0
  149.5840  139.1324  157.3087 H   0  0  0  0  0  0  0  0  0  0  0  0
  149.4296  141.6497  155.6095 H   0  0  0  0  0  0  0  0  0  0  0  0
  150.3919  143.6324  157.0644 H   0  0  0  0  0  0  0  0  0  0  0  0
  151.0780  144.6344  159.1730 H   0  0  0  0  0  0  0  0  0  0  0  0
  152.6350  143.4554  160.6934 H   0  0  0  0  0  0  0  0  0  0  0  0
  152.8267  140.1621  157.9179 H   0  0  0  0  0  0  0  0  0  0  0  0
  150.2691  140.4796  153.6765 H   0  0  0  0  0  0  0  0  0  0  0  0
  150.3570  138.9646  154.5222 H   0  0  0  0  0  0  0  0  0  0  0  0
  148.2947  138.9963  153.2586 H   0  0  0  0  0  0  0  0  0  0  0  0
  147.8225  140.5477  153.9194 H   0  0  0  0  0  0  0  0  0  0  0  0
  145.3754  135.4974  153.3168 H   0  0  0  0  0  0  0  0  0  0  0  0
  144.8029  136.1441  154.8487 H   0  0  0  0  0  0  0  0  0  0  0  0
  143.3135  136.5251  152.6358 H   0  0  0  0  0  0  0  0  0  0  0  0
  143.5660  137.8909  153.7168 H   0  0  0  0  0  0  0  0  0  0  0  0
  144.3900  138.8240  151.8750 H   0  0  0  0  0  0  0  0  0  0  0  0
  146.5380  139.0587  152.4199 H   0  0  0  0  0  0  0  0  0  0  0  0
  146.8183  137.4851  151.7022 H   0  0  0  0  0  0  0  0  0  0  0  0
  148.1998  138.1071  155.4862 H   0  0  0  0  0  0  0  0  0  0  0  0
  1  2  1  0  0  0  0
  1 25  1  0  0  0  0
  2 24  1  0  0  0  0
  2  3  1  0  0  0  0
  2 21  1  0  0  0  0
  3  4  1  0  0  0  0
  3 26  1  0  0  0  0
  3 27  1  0  0  0  0
  4 20  1  0  0  0  0
  4  5  1  0  0  0  0
  4 48  1  0  0  0  0
  5  6  1  0  0  0  0
  5 28  1  0  0  0  0
  5 29  1  0  0  0  0
  6  7  1  0  0  0  0
  6 30  1  0  0  0  0
  6 31  1  0  0  0  0
  7  8  1  0  0  0  0
  7 19  1  0  0  0  0
  7 32  1  0  0  0  0
  8  9  1  0  0  0  0
  9 18  1  0  0  0  0
  9 10  2  0  0  0  0
 10 11  1  0  0  0  0
 10 33  1  0  0  0  0
 11 12  2  0  0  0  0
 11 34  1  0  0  0  0
 12 13  1  0  0  0  0
 12 35  1  0  0  0  0
 13 14  1  0  0  0  0
 13 18  2  0  0  0  0
 14 15  1  0  0  0  0
 14 16  1  0  0  0  0
 14 17  1  0  0  0  0
 18 36  1  0  0  0  0
 19 20  1  0  0  0  0
 19 37  1  0  0  0  0
 19 38  1  0  0  0  0
 20 39  1  0  0  0  0
 20 40  1  0  0  0  0
 21 22  1  0  0  0  0
 21 41  1  0  0  0  0
 21 42  1  0  0  0  0
 22 23  1  0  0  0  0
 22 43  1  0  0  0  0
 22 44  1  0  0  0  0
 23 24  1  0  0  0  0
 23 45  1  0  0  0  0
 24 46  1  0  0  0  0
 24 47  1  0  0  0  0
M  CHG  1   4   1
M  END
> <s_m_source_file>
AV-unprocessed.smi

> <i_m_source_file_index>
67

> <i_lp_mmshare_version>
43012

> <i_f3d_flags>
0

> <s_epik_input>
W0NIMl0xW05IXVtDSDJdW0NIMl1bQ0BAXTEoW09IXSlbQ0gyXU4yW0NIMl1bQ0gyXVtDSF0oW0NIMl1bQ0gyXTIpT2MzW2NIXVtjSF1bY0hdYyhDKEYpKEYpRilbY0hdMw==

> <s_epik_cmdline>
J2VwaWtfcHl0aG9uJywgJy1waCcsICc3LjAnLCAnLXRuJywgJzgnLCAnLW1hJywgJzIwMCcsICctbWV0YWxfYmluZGluZycsICctaW1hZScsICc8aW5maWxlLm1hZT4nLCAnLW9tYWUnLCAnPG91dGZpbGUubWFlPic=

> <r_epik_Ionization_Penalty>
2.37709

> <r_epik_Ionization_Penalty_Charging>
0.0305656

> <r_epik_Ionization_Penalty_Neutral>
2.34653

> <r_epik_State_Penalty>
2.56959

> <r_epik_Charging_Adjusted_Penalty>
2.60016

> <i_epik_Tot_Q>
1

> <i_epik_Tot_abs_Q>
1

> <r_epik_Metal_State_Penalty>
2.56925

> <b_epik_Metal_Only>
0

> <s_lp_Force_Field>
OPLS_2005

> <r_lp_Energy>
55.6007

> <b_lp_Chiralities_Consistent>
1

> <s_lp_Variant>
AV-unprocessed.smi:67-8

> <Gold.Version>
5.8.1

> <Gold.Id.Protein>
6NUR|6NUR_protein|mol2

> <Gold.PLP.Fitness>
45.8311

> <Gold.PLP.PLP>
-41.1229

> <Gold.PLP.part.hbond>
-2.6935

> <Gold.PLP.part.metal>
0.0000

> <Gold.PLP.part.buried>
-4.8801

> <Gold.PLP.part.nonpolar>
-33.2146

> <Gold.PLP.part.repulsive>
0.0327

> <Gold.PLP.ligand.clash>
0.0094

> <Gold.PLP.ligand.torsion>
1.4957

> <Gold.PLP.Chemscore.Hbond>
2.0000

> <Gold.PLP.Chemscore.CHOScore>
0.0000

> <Gold.PLP.Chemscore.Metal>
0.0000

> <Gold.Chemscore.Hbonds>
donor molecule, donor type, donor heavy atom, donor atom, acceptor molecule, acceptor atom, score
      L1  H     1    25       P1  7948  1.00
      L1  H    23    45       P1 10175  1.00

> <Gold.PLP.Chemscore.Internal.Correction>
1.7090

> <Gold.Rescore>
     Score         DG    S(hbond)    S(metal)    S(lipo)     H(rot)  DE(clash)    DE(int)     intcor
     17.10     -19.08       1.96        0.00     107.76       2.17       0.08       1.91       ----

> <Gold.Chemscore.Fitness>
17.0975

> <Gold.Chemscore.DG>
-19.0837

> <Gold.Chemscore.ZeroCoef>
-5.4800

> <Gold.Chemscore.Hbond>
1.9639

> <Gold.Chemscore.Metal>
0.0000

> <Gold.Chemscore.Lipo>
107.7632

> <Gold.Chemscore.Internal_Hbond>
0.0000

> <Gold.Chemscore.DEClash>
0.0753

> <Gold.Chemscore.DEInternal>
1.9109

> <Gold.Chemscore.Rot>
2.1734

> <Gold.Chemscore.Internal.Correction>
   9.000000E+99

> <Gold.Chemscore.Hbonds>
donor molecule, donor type, donor heavy atom, donor atom, acceptor molecule, acceptor atom, score
      L1  H     1    25       P1  7948  0.97
      L1  H    23    45       P1 10175  0.97

> <Gold.Chemscore.Hbond.Weighted>
-6.5594

> <Gold.Chemscore.Metal.Weighted>
-0.0000

> <Gold.Chemscore.Lipo.Weighted>
-12.6083

> <Gold.Chemscore.Internal_Hbond.Weighted>
0.0000

> <Gold.Chemscore.DEClash.Weighted>
0.0753

> <Gold.Chemscore.DEInternal.Weighted>
1.9109

> <Gold.Chemscore.Rot.Weighted>
5.5640

> <Gold.Chemscore.Internal.Correction.Weighted>
   9.000000E+99

> <Gold.Protein.RotatedTorsions>
[ 6907 6896 6895 6894 ] final   48.71 input  -60.11 | X-H torsion
[ 7974 7965 7964 7962 ] final  -54.80 input  175.53 | X-H torsion
[ 8008 7997 7996 7995 ] final   55.24 input   59.86 | X-H torsion
[ 10167 10162 10161 10158 ] final -126.17 input  -65.29 | X-H torsion
[ 10718 10713 10712 10709 ] final  114.06 input   66.30 | X-H torsion
[ 10763 10752 10751 10750 ] final  -42.39 input  -60.55 | X-H torsion
[ 11005 11000 10999 10996 ] final -117.56 input  -57.11 | X-H torsion

> <Gold.Protein.ActiveResidues>
 VAL166  LYS551  ARG553  GLY616  TRP617  ASP618  TYR619  PRO620  LYS621  CYS622 
 ASP623  PHE694  ASN695  SER759  ASP760  ASP761  ALA762  ILE779  LEU786  VAL792 
 PHE793  MET794  SER795  GLU796  ALA797  LYS798  CYS799  TRP800  GLU811  SER814 

> <Gold.Protein.RotatedAtoms>
  152.2826  134.7811  160.0393 H   0  0  0  0  0  0  0  0  0  0  0  0  # atno 6907 bound_to 6896
  151.8385  133.3414  159.3644 H   0  0  0  0  0  0  0  0  0  0  0  0  # atno 6908 bound_to 6896
  150.7196  134.5342  159.5760 H   0  0  0  0  0  0  0  0  0  0  0  0  # atno 6909 bound_to 6896
  145.8814  140.8141  142.9838 H   0  0  0  0  0  0  0  0  0  0  0  0  # atno 7974 bound_to 7965
  155.4979  140.3473  155.4366 H   0  0  0  0  0  0  0  0  0  0  0  0  # atno 8008 bound_to 7997
  156.0933  140.1416  156.9591 H   0  0  0  0  0  0  0  0  0  0  0  0  # atno 8009 bound_to 7997
  154.4648  140.0921  156.6968 H   0  0  0  0  0  0  0  0  0  0  0  0  # atno 8010 bound_to 7997
  139.9743  143.5811  152.2401 H   0  0  0  0  0  0  0  0  0  0  0  0  # atno 10167 bound_to 10162
  157.6302  131.0993  150.7132 H   0  0  0  0  0  0  0  0  0  0  0  0  # atno 10718 bound_to 10713
  153.9782  135.6720  153.4749 H   0  0  0  0  0  0  0  0  0  0  0  0  # atno 10763 bound_to 10752
  153.0761  135.4948  154.8403 H   0  0  0  0  0  0  0  0  0  0  0  0  # atno 10764 bound_to 10752
  154.7180  135.3111  154.9054 H   0  0  0  0  0  0  0  0  0  0  0  0  # atno 10765 bound_to 10752
  141.0347  133.9928  157.3090 H   0  0  0  0  0  0  0  0  0  0  0  0  # atno 11005 bound_to 11000
  144.6727  140.1390  143.7438 LP  0  0  0  0  0  0  0  0  0  0  0  0  # atno 17320 bound_to 7965
  145.9019  139.2435  143.1489 LP  0  0  0  0  0  0  0  0  0  0  0  0  # atno 17321 bound_to 7965
  139.6457  144.7658  151.2248 LP  0  0  0  0  0  0  0  0  0  0  0  0  # atno 17342 bound_to 10162
  140.7511  143.6243  150.8484 LP  0  0  0  0  0  0  0  0  0  0  0  0  # atno 17343 bound_to 10162
  156.7472  130.4757  149.5464 LP  0  0  0  0  0  0  0  0  0  0  0  0  # atno 17370 bound_to 10713
  156.1501  130.6304  151.0584 LP  0  0  0  0  0  0  0  0  0  0  0  0  # atno 17371 bound_to 10713
  139.9232  135.0201  156.8140 LP  0  0  0  0  0  0  0  0  0  0  0  0  # atno 17394 bound_to 11000
  140.6344  133.9876  155.7677 LP  0  0  0  0  0  0  0  0  0  0  0  0  # atno 17395 bound_to 11000

$$$$
