#       Name:                AV-unprocessed.smi:697
#       Creating user name   scv26
#       Creation time:       Fri Mar 27 00:37:26 2020


#       File generated by GOLD software.
#

@<TRIPOS>MOLECULE
AV-unprocessed.smi:697
    50    51     1
SMALL
NO_CHARGES


@<TRIPOS>ATOM
      1 ****        -3.8186  -3.3203   2.1171 C.3            1 S1                 0.0000
      2 ****        -3.2489  -2.7357   0.9530 O.3            1 S1                 0.0000
      3 ****        -2.9874  -1.3326   1.0125 C.3            1 S1                 0.0000
      4 ****        -4.3113  -0.5552   1.0813 C.3            1 S1                 0.0000
      5 ****        -1.8931  -0.9852   2.0388 C.3            1 S1                 0.0000
      6 ****        -1.3252  -0.0423   0.9808 C.3            1 S1                 0.0000
      7 ****         0.1328  -0.0033   0.9863 N.am           1 S1                 0.0000
      8 ****         0.8717   0.7997   0.2095 C.2            1 S1                 0.0000
      9 ****         0.3822   1.5990  -0.5883 O.2            1 S1                 0.0000
     10 ****         2.1834   0.6107   0.4401 N.am           1 S1                 0.0000
     11 ****         3.2961   1.2220  -0.1630 C.2            1 S1                 0.0000
     12 ****         3.2593   1.9423  -1.3185 C.2            1 S1                 0.0000
     13 ****         4.4518   2.5448  -1.9008 C.2            1 S1                 0.0000
     14 ****         4.4328   3.4349  -3.1308 C.3            1 S1                 0.0000
     15 ****         5.3231   4.4213  -3.0223 F              1 S1                 0.0000
     16 ****         4.7357   2.7197  -4.2131 F              1 S1                 0.0000
     17 ****         3.2275   3.9744  -3.3128 F              1 S1                 0.0000
     18 ****         5.5828   2.3045  -1.1453 C.2            1 S1                 0.0000
     19 ****         5.7104   1.5825  -0.0105 N.pl3          1 S1                -1.0000
     20 ****         4.5892   1.0209   0.5237 C.2            1 S1                 0.0000
     21 ****         4.6336   0.3536   1.5581 O.2            1 S1                 0.0000
     22 ****        -1.9505  -0.9636  -0.0981 C.3            1 S1                 0.0000
     23 ****        -1.0724  -2.1196  -0.6193 C.3            1 S1                 0.0000
     24 ****        -2.4929  -0.2572  -1.3444 C.3            1 S1                 0.0000
     25 ****        -3.8864  -4.3989   1.9770 H              1 S1                 0.0000
     26 ****        -4.8279  -2.9553   2.3039 H              1 S1                 0.0000
     27 ****        -3.2101  -3.1417   3.0037 H              1 S1                 0.0000
     28 ****        -4.1568   0.5197   0.9908 H              1 S1                 0.0000
     29 ****        -4.8256  -0.7104   2.0292 H              1 S1                 0.0000
     30 ****        -4.9892  -0.8556   0.2821 H              1 S1                 0.0000
     31 ****        -2.2512  -0.4870   2.9401 H              1 S1                 0.0000
     32 ****        -1.2347  -1.8220   2.2799 H              1 S1                 0.0000
     33 ****        -1.7930   0.9439   1.0252 H              1 S1                 0.0000
     34 ****         0.6087  -0.6291   1.6196 H              1 S1                 0.0000
     35 ****         2.4192  -0.0417   1.1737 H              1 S1                 0.0000
     36 ****         2.3371   2.0777  -1.8585 H              1 S1                 0.0000
     37 ****         6.5274   2.7651  -1.5056 H              1 S1                 0.0000
     38 ****        -0.2536  -1.7552  -1.2407 H              1 S1                 0.0000
     39 ****        -1.6508  -2.8160  -1.2274 H              1 S1                 0.0000
     40 ****        -0.6255  -2.6985   0.1889 H              1 S1                 0.0000
     41 ****        -1.6885   0.0391  -2.0183 H              1 S1                 0.0000
     42 ****        -3.0388   0.6520  -1.0939 H              1 S1                 0.0000
     43 ****        -3.1715  -0.9014  -1.9045 H              1 S1                 0.0000
     44 ****        -3.8779  -2.8964   0.1924 LP             1 S1                 0.0000
     45 ****        -2.3818  -3.1998   0.7722 LP             1 S1                 0.0000
     46 ****        -0.6112   1.6704  -0.6786 LP             1 S1                 0.0000
     47 ****         0.9778   2.1770  -1.1461 LP             1 S1                 0.0000
     48 ****         6.6025   1.4634   0.4254 LP             1 S1                 0.0000
     49 ****         3.7971  -0.0492   1.9296 LP             1 S1                 0.0000
     50 ****         5.5061   0.2147   2.0264 LP             1 S1                 0.0000
@<TRIPOS>BOND
    1    1    2 1     
    2    1   25 1     
    3    1   26 1     
    4    1   27 1     
    5    2    3 1     
    6    3   22 1     
    7    3    4 1     
    8    3    5 1     
    9    4   28 1     
   10    4   29 1     
   11    4   30 1     
   12    5    6 1     
   13    5   31 1     
   14    5   32 1     
   15    6    7 1     
   16    6   22 1     
   17    6   33 1     
   18    7    8 am    
   19    7   34 1     
   20    8    9 2     
   21    8   10 am    
   22   10   11 1     
   23   10   35 1     
   24   11   20 1     
   25   11   12 2     
   26   12   13 1     
   27   12   36 1     
   28   13   14 1     
   29   13   18 2     
   30   14   15 1     
   31   14   16 1     
   32   14   17 1     
   33   18   19 1     
   34   18   37 1     
   35   19   20 1     
   36   20   21 2     
   37   22   23 1     
   38   22   24 1     
   39   23   38 1     
   40   23   39 1     
   41   23   40 1     
   42   24   41 1     
   43   24   42 1     
   44   24   43 1     
   45    2   44 1     
   46    2   45 1     
   47    9   46 1     
   48    9   47 1     
   49   19   48 1     
   50   21   49 1     
   51   21   50 1     
@<TRIPOS>SUBSTRUCTURE
      1 S1             1
@<TRIPOS>SET
LONE_PAIRS      STATIC     ATOMS    <user>   **** ""
7 44 45 46 47 48 49 50
DONOR_HYDROGENS      STATIC     ATOMS    <user>   **** ""
2 34 35
ATOM$BLUE        STATIC     ATOMS    COLORGROUP SYSTEM
7 44 45 46 47 48 49 50
ATOM$RED        STATIC     ATOMS    COLORGROUP SYSTEM
2 34 35
