#       Name:                AV-unprocessed.smi:2772
#       Creating user name   scv26
#       Creation time:       Fri Mar 27 15:11:57 2020


#       File generated by GOLD software.
#

@<TRIPOS>MOLECULE
AV-unprocessed.smi:2772
    58    60     1
SMALL
NO_CHARGES


@<TRIPOS>ATOM
      1 ****        -7.5758   5.4193   0.1023 C.3            1 S1                 0.0000
      2 ****        -6.2959   4.6124   0.0423 C.ar           1 S1                 0.0000
      3 ****        -5.0917   5.1966  -0.4011 C.ar           1 S1                 0.0000
      4 ****        -3.9293   4.4025  -0.4314 C.ar           1 S1                 0.0000
      5 ****        -4.0117   3.0527  -0.0120 C.ar           1 S1                 0.0000
      6 ****        -2.9171   2.1465  -0.0188 N.am           1 S1                 0.0000
      7 ****        -1.6026   2.4255   0.0133 C.2            1 S1                 0.0000
      8 ****        -1.1176   3.5530   0.1017 O.2            1 S1                 0.0000
      9 ****        -0.8693   1.3042  -0.0423 N.am           1 S1                 0.0000
     10 ****         0.5899   1.2367  -0.0205 C.3            1 S1                 0.0000
     11 ****         1.0985   0.5068  -1.2772 C.3            1 S1                 0.0000
     12 ****         2.6183   0.2654  -1.2025 C.3            1 S1                 0.0000
     13 ****         2.9971  -0.5006   0.0192 N.4            1 S1                 1.0000
     14 ****         2.6007  -1.9500   0.0190 C.3            1 S1                 0.0000
     15 ****         3.1297  -2.6986   1.2660 C.3            1 S1                 0.0000
     16 ****         2.8373  -4.2073   1.2093 C.3            1 S1                 0.0000
     17 ****         3.4406  -4.7912   0.0151 N.3            1 S1                 0.0000
     18 ****         3.2147  -6.2298   0.0160 C.3            1 S1                 0.0000
     19 ****         2.8257  -4.2075  -1.1734 C.3            1 S1                 0.0000
     20 ****         3.1178  -2.6988  -1.2330 C.3            1 S1                 0.0000
     21 ****         2.5850   0.2718   1.2263 C.3            1 S1                 0.0000
     22 ****         1.0643   0.5195   1.2574 C.3            1 S1                 0.0000
     23 ****        -5.2718   2.5674   0.3973 C.ar           1 S1                 0.0000
     24 ****        -6.3903   3.3228   0.4320 N.ar           1 S1                 0.0000
     25 ****        -7.4102   6.4478  -0.2199 H              1 S1                 0.0000
     26 ****        -7.9626   5.4410   1.1217 H              1 S1                 0.0000
     27 ****        -8.3339   4.9781  -0.5452 H              1 S1                 0.0000
     28 ****        -5.0554   6.2294  -0.7152 H              1 S1                 0.0000
     29 ****        -3.0088   4.8386  -0.7873 H              1 S1                 0.0000
     30 ****        -3.1665   1.1684   0.0015 H              1 S1                 0.0000
     31 ****        -1.3616   0.4251  -0.1067 H              1 S1                 0.0000
     32 ****         1.0201   2.2400  -0.0218 H              1 S1                 0.0000
     33 ****         0.5771  -0.4429  -1.4011 H              1 S1                 0.0000
     34 ****         0.8658   1.0972  -2.1643 H              1 S1                 0.0000
     35 ****         2.9851  -0.2040  -2.1128 H              1 S1                 0.0000
     36 ****         3.1267   1.2302  -1.1682 H              1 S1                 0.0000
     37 ****         1.5130  -2.0213   0.0229 H              1 S1                 0.0000
     38 ****         4.2040  -2.5388   1.3698 H              1 S1                 0.0000
     39 ****         2.6655  -2.3185   2.1747 H              1 S1                 0.0000
     40 ****         3.2493  -4.6893   2.0971 H              1 S1                 0.0000
     41 ****         1.7609  -4.3869   1.2179 H              1 S1                 0.0000
     42 ****         3.6634  -6.6881  -0.8659 H              1 S1                 0.0000
     43 ****         2.1497  -6.4670   0.0203 H              1 S1                 0.0000
     44 ****         3.6706  -6.6882   0.8942 H              1 S1                 0.0000
     45 ****         3.2286  -4.6897  -2.0651 H              1 S1                 0.0000
     46 ****         1.7491  -4.3867  -1.1711 H              1 S1                 0.0000
     47 ****         2.6440  -2.3190  -2.1370 H              1 S1                 0.0000
     48 ****         4.1911  -2.5394  -1.3475 H              1 S1                 0.0000
     49 ****         2.9228  -0.1954   2.1488 H              1 S1                 0.0000
     50 ****         3.0978   1.2346   1.2029 H              1 S1                 0.0000
     51 ****         0.8103   1.1202   2.1316 H              1 S1                 0.0000
     52 ****         0.5363  -0.4269   1.3787 H              1 S1                 0.0000
     53 ****        -5.3876   1.5404   0.7121 H              1 S1                 0.0000
     54 ****         4.0073  -0.5096   0.0324 H              1 S1                 0.0000
     55 ****        -1.7164   4.3520   0.1562 LP             1 S1                 0.0000
     56 ****        -0.1246   3.6703   0.1189 LP             1 S1                 0.0000
     57 ****         4.4230  -4.6045   0.0105 LP             1 S1                 0.0000
     58 ****        -7.2619   2.9392   0.7369 LP             1 S1                 0.0000
@<TRIPOS>BOND
    1    1    2 1     
    2    1   25 1     
    3    1   26 1     
    4    1   27 1     
    5    2   24 ar    
    6    2    3 ar    
    7    3    4 ar    
    8    3   28 1     
    9    4    5 ar    
   10    4   29 1     
   11    5    6 1     
   12    5   23 ar    
   13    6    7 am    
   14    6   30 1     
   15    7    8 2     
   16    7    9 am    
   17    9   10 1     
   18    9   31 1     
   19   10   22 1     
   20   10   11 1     
   21   10   32 1     
   22   11   12 1     
   23   11   33 1     
   24   11   34 1     
   25   12   13 1     
   26   12   35 1     
   27   12   36 1     
   28   13   14 1     
   29   13   21 1     
   30   13   54 1     
   31   14   20 1     
   32   14   15 1     
   33   14   37 1     
   34   15   16 1     
   35   15   38 1     
   36   15   39 1     
   37   16   17 1     
   38   16   40 1     
   39   16   41 1     
   40   17   18 1     
   41   17   19 1     
   42   18   42 1     
   43   18   43 1     
   44   18   44 1     
   45   19   20 1     
   46   19   45 1     
   47   19   46 1     
   48   20   47 1     
   49   20   48 1     
   50   21   22 1     
   51   21   49 1     
   52   21   50 1     
   53   22   51 1     
   54   22   52 1     
   55   23   24 ar    
   56   23   53 1     
   57    8   55 1     
   58    8   56 1     
   59   17   57 1     
   60   24   58 1     
@<TRIPOS>SUBSTRUCTURE
      1 S1             1
@<TRIPOS>SET
LONE_PAIRS      STATIC     ATOMS    <user>   **** ""
4 55 56 57 58
DONOR_HYDROGENS      STATIC     ATOMS    <user>   **** ""
3 30 31 54
ATOM$BLUE        STATIC     ATOMS    COLORGROUP SYSTEM
4 55 56 57 58
ATOM$RED        STATIC     ATOMS    COLORGROUP SYSTEM
3 30 31 54
