AV-unprocessed.smi:1715|AV-procd|sdf|6910|dock6
  -GOLD-   22720 8113D 1   1.00000     0.00000
 Structure written by MMmdl.
 40 41  0  0  0  0  0  0  0  0  1 V2000
  150.8981  142.3891  157.4137 C   0  0  0  0  0  0  0  0  0  0  0  0
  150.9858  141.5899  156.1093 C   0  0  2  0  0  0  0  0  0  0  0  0
  149.5987  141.1655  155.5912 C   0  0  0  0  0  0  0  0  0  0  0  0
  149.6903  140.3428  154.3901 N   0  0  0  0  0  0  0  0  0  0  0  0
  148.3609  139.9624  153.9162 C   0  0  0  0  0  0  0  0  0  0  0  0
  147.7863  138.6820  154.5511 C   0  0  0  0  0  0  0  0  0  0  0  0
  147.4352  137.6980  153.5344 N   0  0  0  0  0  0  0  0  0  0  0  0
  146.2151  137.1698  153.3640 C   0  0  0  0  0  0  0  0  0  0  0  0
  145.2427  137.4627  154.0600 O   0  0  0  0  0  0  0  0  0  0  0  0
  146.2014  136.2908  152.3485 N   0  0  0  0  0  0  0  0  0  0  0  0
  145.0958  135.5408  151.8740 C   0  0  0  0  0  0  0  0  0  0  0  0
  144.2174  134.7855  152.6975 C   0  0  0  0  0  0  0  0  0  0  0  0
  143.2765  134.1876  151.9807 N   0  0  0  0  0  0  0  0  0  0  0  0
  143.5463  134.5538  150.7073 N   0  0  0  0  0  0  0  0  0  0  0  0
  144.6443  135.3778  150.5942 C   0  0  0  0  0  0  0  0  0  0  0  0
  150.5391  139.1877  154.6724 C   0  0  0  0  0  0  0  0  0  0  0  0
  151.9279  139.6053  155.1938 C   0  0  2  0  0  0  0  0  0  0  0  0
  152.7912  138.3979  155.5744 C   0  0  0  0  0  0  0  0  0  0  0  0
  151.7675  140.4230  156.3497 O   0  0  0  0  0  0  0  0  0  0  0  0
  142.9782  134.2365  149.9345 H   0  0  0  0  0  0  0  0  0  0  0  0
  150.3158  143.3006  157.2767 H   0  0  0  0  0  0  0  0  0  0  0  0
  151.8904  142.6777  157.7612 H   0  0  0  0  0  0  0  0  0  0  0  0
  150.4250  141.8050  158.2036 H   0  0  0  0  0  0  0  0  0  0  0  0
  151.4856  142.2020  155.3565 H   0  0  0  0  0  0  0  0  0  0  0  0
  149.0714  140.6171  156.3738 H   0  0  0  0  0  0  0  0  0  0  0  0
  149.0053  142.0565  155.3823 H   0  0  0  0  0  0  0  0  0  0  0  0
  147.6655  140.7894  154.0676 H   0  0  0  0  0  0  0  0  0  0  0  0
  148.4096  139.8069  152.8375 H   0  0  0  0  0  0  0  0  0  0  0  0
  148.4977  138.2532  155.2591 H   0  0  0  0  0  0  0  0  0  0  0  0
  146.8794  138.9012  155.1133 H   0  0  0  0  0  0  0  0  0  0  0  0
  148.1751  137.3990  152.9163 H   0  0  0  0  0  0  0  0  0  0  0  0
  147.0736  136.1427  151.8626 H   0  0  0  0  0  0  0  0  0  0  0  0
  144.2309  134.6541  153.7694 H   0  0  0  0  0  0  0  0  0  0  0  0
  144.9878  135.7566  149.6432 H   0  0  0  0  0  0  0  0  0  0  0  0
  150.0530  138.5443  155.4076 H   0  0  0  0  0  0  0  0  0  0  0  0
  150.6728  138.5887  153.7723 H   0  0  0  0  0  0  0  0  0  0  0  0
  152.4483  140.1793  154.4253 H   0  0  0  0  0  0  0  0  0  0  0  0
  152.9539  137.7449  154.7165 H   0  0  0  0  0  0  0  0  0  0  0  0
  152.3198  137.8076  156.3607 H   0  0  0  0  0  0  0  0  0  0  0  0
  153.7680  138.7176  155.9382 H   0  0  0  0  0  0  0  0  0  0  0  0
  1  2  1  0  0  0  0
  1 21  1  0  0  0  0
  1 22  1  0  0  0  0
  1 23  1  0  0  0  0
  2 19  1  0  0  0  0
  2  3  1  0  0  0  0
  2 24  1  0  0  0  0
  3  4  1  0  0  0  0
  3 25  1  0  0  0  0
  3 26  1  0  0  0  0
  4  5  1  0  0  0  0
  4 16  1  0  0  0  0
  5  6  1  0  0  0  0
  5 27  1  0  0  0  0
  5 28  1  0  0  0  0
  6  7  1  0  0  0  0
  6 29  1  0  0  0  0
  6 30  1  0  0  0  0
  7  8  1  0  0  0  0
  7 31  1  0  0  0  0
  8  9  2  0  0  0  0
  8 10  1  0  0  0  0
 10 11  1  0  0  0  0
 10 32  1  0  0  0  0
 11 15  2  0  0  0  0
 11 12  1  0  0  0  0
 12 13  2  0  0  0  0
 12 33  1  0  0  0  0
 13 14  1  0  0  0  0
 14 20  1  0  0  0  0
 14 15  1  0  0  0  0
 15 34  1  0  0  0  0
 16 17  1  0  0  0  0
 16 35  1  0  0  0  0
 16 36  1  0  0  0  0
 17 18  1  0  0  0  0
 17 19  1  0  0  0  0
 17 37  1  0  0  0  0
 18 38  1  0  0  0  0
 18 39  1  0  0  0  0
 18 40  1  0  0  0  0
M  END
> <s_m_source_file>
AV-unprocessed.smi

> <i_m_source_file_index>
1715

> <i_lp_mmshare_version>
43012

> <i_f3d_flags>
0

> <s_epik_input>
W0NIM11bQ0BASF0xW0NIMl1OKFtDSDJdW0NASF0oTzEpW0NIM10pW0NIMl1bQ0gyXVtOSF1DKD1PKVtOSF1jMltjSF1uW25IXVtjSF0y

> <s_epik_cmdline>
J2VwaWtfcHl0aG9uJywgJy1waCcsICc3LjAnLCAnLXRuJywgJzgnLCAnLW1hJywgJzIwMCcsICctbWV0YWxfYmluZGluZycsICctaW1hZScsICc8aW5maWxlLm1hZT4nLCAnLW9tYWUnLCAnPG91dGZpbGUubWFlPic=

> <r_lp_tautomer_probability>
0.5

> <r_epik_Ionization_Penalty>
0.242771

> <r_epik_Ionization_Penalty_Charging>
0

> <r_epik_Ionization_Penalty_Neutral>
0.242771

> <r_epik_State_Penalty>
0.233765

> <r_epik_Charging_Adjusted_Penalty>
0.233765

> <i_epik_Tot_Q>
0

> <i_epik_Tot_abs_Q>
0

> <r_epik_Metal_State_Penalty>
0.233764

> <b_epik_Metal_Only>
0

> <s_lp_Force_Field>
OPLS_2005

> <r_lp_Energy>
21.5882

> <b_lp_Chiralities_Consistent>
1

> <s_lp_Variant>
AV-unprocessed.smi:1715-2

> <Gold.Version>
5.8.1

> <Gold.Id.Protein>
6NUR|6NUR_protein|mol2

> <Gold.PLP.Fitness>
38.3487

> <Gold.PLP.PLP>
-29.6080

> <Gold.PLP.part.hbond>
-3.9466

> <Gold.PLP.part.metal>
0.0000

> <Gold.PLP.part.buried>
-2.7719

> <Gold.PLP.part.nonpolar>
-24.0107

> <Gold.PLP.part.repulsive>
0.4715

> <Gold.PLP.ligand.clash>
0.0000

> <Gold.PLP.ligand.torsion>
1.0949

> <Gold.PLP.Chemscore.Hbond>
2.6400

> <Gold.PLP.Chemscore.CHOScore>
1.0000

> <Gold.PLP.Chemscore.Metal>
0.0000

> <Gold.Chemscore.Hbonds>
donor molecule, donor type, donor heavy atom, donor atom, acceptor molecule, acceptor atom, score
      L1  H     7    31       P1  7948  1.00
      L1  H    10    32       P1  7948  1.00
      L1  H    14    20       P1 10186  0.62
      L1  C    15    34       P1  7921  1.00

> <Gold.PLP.Chemscore.Internal.Correction>
0.0106

> <Gold.Rescore>
     Score         DG    S(hbond)    S(metal)    S(lipo)     H(rot)  DE(clash)    DE(int)     intcor
     16.88     -18.15       2.66        0.00      67.98       1.63       0.24       1.03       ----

> <Gold.Chemscore.Fitness>
16.8822

> <Gold.Chemscore.DG>
-18.1519

> <Gold.Chemscore.ZeroCoef>
-5.4800

> <Gold.Chemscore.Hbond>
2.6610

> <Gold.Chemscore.Metal>
0.0000

> <Gold.Chemscore.Lipo>
67.9803

> <Gold.Chemscore.Internal_Hbond>
0.0000

> <Gold.Chemscore.DEClash>
0.2357

> <Gold.Chemscore.DEInternal>
1.0340

> <Gold.Chemscore.Rot>
1.6287

> <Gold.Chemscore.Internal.Correction>
   9.000000E+99

> <Gold.Chemscore.Hbonds>
donor molecule, donor type, donor heavy atom, donor atom, acceptor molecule, acceptor atom, score
      L1  H     7    31       P1  7948  0.98
      L1  H    10    32       P1  7948  0.95
      L1  H    14    20       P1 10186  0.60

> <Gold.Chemscore.Hbond.Weighted>
-8.8878

> <Gold.Chemscore.Metal.Weighted>
-0.0000

> <Gold.Chemscore.Lipo.Weighted>
-7.9537

> <Gold.Chemscore.Internal_Hbond.Weighted>
0.0000

> <Gold.Chemscore.DEClash.Weighted>
0.2357

> <Gold.Chemscore.DEInternal.Weighted>
1.0340

> <Gold.Chemscore.Rot.Weighted>
4.1695

> <Gold.Chemscore.Internal.Correction.Weighted>
   9.000000E+99

> <Gold.Protein.RotatedTorsions>
[ 6907 6896 6895 6894 ] final  -57.83 input  -60.11 | X-H torsion
[ 7974 7965 7964 7962 ] final   -8.83 input  175.53 | X-H torsion
[ 8008 7997 7996 7995 ] final   97.68 input   59.86 | X-H torsion
[ 10167 10162 10161 10158 ] final  -40.17 input  -65.29 | X-H torsion
[ 10718 10713 10712 10709 ] final  -87.25 input   66.30 | X-H torsion
[ 10763 10752 10751 10750 ] final   -6.07 input  -60.55 | X-H torsion
[ 11005 11000 10999 10996 ] final   73.20 input  -57.11 | X-H torsion

> <Gold.Protein.ActiveResidues>
 VAL166  LYS551  ARG553  GLY616  TRP617  ASP618  TYR619  PRO620  LYS621  CYS622 
 ASP623  PHE694  ASN695  SER759  ASP760  ASP761  ALA762  ILE779  LEU786  VAL792 
 PHE793  MET794  SER795  GLU796  ALA797  LYS798  CYS799  TRP800  GLU811  SER814 

> <Gold.Protein.RotatedAtoms>
  150.8055  134.7177  159.6639 H   0  0  0  0  0  0  0  0  0  0  0  0  # atno 6907 bound_to 6896
  152.4174  134.6013  160.0011 H   0  0  0  0  0  0  0  0  0  0  0  0  # atno 6908 bound_to 6896
  151.6239  133.3300  159.3130 H   0  0  0  0  0  0  0  0  0  0  0  0  # atno 6909 bound_to 6896
  146.2269  140.2527  142.8348 H   0  0  0  0  0  0  0  0  0  0  0  0  # atno 7974 bound_to 7965
  156.0927  140.3255  155.7837 H   0  0  0  0  0  0  0  0  0  0  0  0  # atno 8008 bound_to 7997
  155.4970  140.0566  157.2962 H   0  0  0  0  0  0  0  0  0  0  0  0  # atno 8009 bound_to 7997
  154.4647  140.1983  156.0165 H   0  0  0  0  0  0  0  0  0  0  0  0  # atno 8010 bound_to 7997
  140.7042  143.3170  151.2886 H   0  0  0  0  0  0  0  0  0  0  0  0  # atno 10167 bound_to 10162
  155.9986  130.4793  150.4838 H   0  0  0  0  0  0  0  0  0  0  0  0  # atno 10718 bound_to 10713
  153.4072  135.7006  153.6384 H   0  0  0  0  0  0  0  0  0  0  0  0  # atno 10763 bound_to 10752
  153.4893  135.3676  155.2484 H   0  0  0  0  0  0  0  0  0  0  0  0  # atno 10764 bound_to 10752
  154.8714  135.4085  154.3418 H   0  0  0  0  0  0  0  0  0  0  0  0  # atno 10765 bound_to 10752
  139.9452  134.7326  156.0998 H   0  0  0  0  0  0  0  0  0  0  0  0  # atno 11005 bound_to 11000
  144.9400  140.8067  143.5636 LP  0  0  0  0  0  0  0  0  0  0  0  0  # atno 17320 bound_to 7965
  145.2477  139.2045  143.4959 LP  0  0  0  0  0  0  0  0  0  0  0  0  # atno 17321 bound_to 7965
  139.6611  144.0187  152.2693 LP  0  0  0  0  0  0  0  0  0  0  0  0  # atno 17342 bound_to 10162
  139.9755  144.6465  150.7949 LP  0  0  0  0  0  0  0  0  0  0  0  0  # atno 17343 bound_to 10162
  157.2840  131.0613  151.2178 LP  0  0  0  0  0  0  0  0  0  0  0  0  # atno 17370 bound_to 10713
  157.3215  130.6939  149.6272 LP  0  0  0  0  0  0  0  0  0  0  0  0  # atno 17371 bound_to 10713
  141.1100  133.6646  156.2955 LP  0  0  0  0  0  0  0  0  0  0  0  0  # atno 17394 bound_to 11000
  140.5853  134.5705  157.5488 LP  0  0  0  0  0  0  0  0  0  0  0  0  # atno 17395 bound_to 11000

$$$$
