AV-unprocessed.smi:3252|AV-procd|sdf|12443|dock7
  -GOLD-   2272018333D 1   1.00000     0.00000
 Structure written by MMmdl.
 36 37  0  0  0  0  0  0  0  0  1 V2000
  146.0083  141.7788  153.9668 C   0  0  0  0  0  0  0  0  0  0  0  0
  147.3277  142.3217  154.5344 C   0  0  0  0  0  0  0  0  0  0  0  0
  148.2552  141.3024  155.0221 N   0  0  0  0  0  0  0  0  0  0  0  0
  148.7075  140.4030  153.9638 C   0  0  0  0  0  0  0  0  0  0  0  0
  149.7109  139.3619  154.4876 C   0  0  0  0  0  0  0  0  0  0  0  0
  150.8051  140.0269  155.1084 O   0  0  0  0  0  0  0  0  0  0  0  0
  150.4098  140.8636  156.1931 C   0  0  1  0  0  0  0  0  0  0  0  0
  151.6581  141.5245  156.8025 C   0  0  0  0  0  0  0  0  0  0  0  0
  151.3257  142.6511  157.6674 N   0  0  0  0  0  0  0  0  0  0  0  0
  151.8100  142.7342  158.9811 C   0  0  0  0  0  0  0  0  0  0  0  0
  151.4034  143.8240  159.7797 C   0  0  0  0  0  0  0  0  0  0  0  0
  151.8859  143.9180  161.0998 C   0  0  0  0  0  0  0  0  0  0  0  0
  152.7595  142.9204  161.5753 C   0  0  0  0  0  0  0  0  0  0  0  0
  153.2835  142.9717  162.9293 C   0  0  0  0  0  0  0  0  0  0  0  0
  153.7012  143.0129  164.0076 N   0  0  0  0  0  0  0  0  0  0  0  0
  153.1132  141.8715  160.7026 C   0  0  0  0  0  0  0  0  0  0  0  0
  152.6553  141.7782  159.4357 N   0  0  0  0  0  0  0  0  0  0  0  0
  149.4203  141.9147  155.6522 C   0  0  0  0  0  0  0  0  0  0  0  0
  145.3292  142.5976  153.7288 H   0  0  0  0  0  0  0  0  0  0  0  0
  145.5068  141.1321  154.6871 H   0  0  0  0  0  0  0  0  0  0  0  0
  146.1619  141.2101  153.0501 H   0  0  0  0  0  0  0  0  0  0  0  0
  147.8186  142.9431  153.7840 H   0  0  0  0  0  0  0  0  0  0  0  0
  147.0765  142.9906  155.3586 H   0  0  0  0  0  0  0  0  0  0  0  0
  147.8597  139.8794  153.5231 H   0  0  0  0  0  0  0  0  0  0  0  0
  149.1723  140.9791  153.1618 H   0  0  0  0  0  0  0  0  0  0  0  0
  149.2334  138.6877  155.2003 H   0  0  0  0  0  0  0  0  0  0  0  0
  150.0853  138.7491  153.6676 H   0  0  0  0  0  0  0  0  0  0  0  0
  149.9115  140.2609  156.9550 H   0  0  0  0  0  0  0  0  0  0  0  0
  152.2753  140.7899  157.3204 H   0  0  0  0  0  0  0  0  0  0  0  0
  152.2778  141.9217  155.9985 H   0  0  0  0  0  0  0  0  0  0  0  0
  150.5418  143.2308  157.4048 H   0  0  0  0  0  0  0  0  0  0  0  0
  150.7321  144.5763  159.3918 H   0  0  0  0  0  0  0  0  0  0  0  0
  151.5875  144.7431  161.7303 H   0  0  0  0  0  0  0  0  0  0  0  0
  153.7813  141.0851  161.0231 H   0  0  0  0  0  0  0  0  0  0  0  0
  149.9315  142.5589  154.9347 H   0  0  0  0  0  0  0  0  0  0  0  0
  149.0972  142.5578  156.4717 H   0  0  0  0  0  0  0  0  0  0  0  0
  1  2  1  0  0  0  0
  1 19  1  0  0  0  0
  1 20  1  0  0  0  0
  1 21  1  0  0  0  0
  2  3  1  0  0  0  0
  2 22  1  0  0  0  0
  2 23  1  0  0  0  0
  3 18  1  0  0  0  0
  3  4  1  0  0  0  0
  4  5  1  0  0  0  0
  4 24  1  0  0  0  0
  4 25  1  0  0  0  0
  5  6  1  0  0  0  0
  5 26  1  0  0  0  0
  5 27  1  0  0  0  0
  6  7  1  0  0  0  0
  7  8  1  0  0  0  0
  7 18  1  0  0  0  0
  7 28  1  0  0  0  0
  8  9  1  0  0  0  0
  8 29  1  0  0  0  0
  8 30  1  0  0  0  0
  9 10  1  0  0  0  0
  9 31  1  0  0  0  0
 10 17  1  0  0  0  0
 10 11  2  0  0  0  0
 11 12  1  0  0  0  0
 11 32  1  0  0  0  0
 12 13  2  0  0  0  0
 12 33  1  0  0  0  0
 13 14  1  0  0  0  0
 13 16  1  0  0  0  0
 14 15  3  0  0  0  0
 16 17  2  0  0  0  0
 16 34  1  0  0  0  0
 18 35  1  0  0  0  0
 18 36  1  0  0  0  0
M  END
> <s_m_source_file>
AV-unprocessed.smi

> <i_m_source_file_index>
3252

> <i_lp_mmshare_version>
43012

> <i_f3d_flags>
0

> <s_epik_input>
W0NIM11bQ0gyXU4xW0NIMl1bQ0gyXU9bQ0BIXShbQ0gyXTEpW0NIMl1bTkhdYzJbY0hdW2NIXWMoQyNOKVtjSF1uMg==

> <s_epik_cmdline>
J2VwaWtfcHl0aG9uJywgJy1waCcsICc3LjAnLCAnLXRuJywgJzgnLCAnLW1hJywgJzIwMCcsICctbWV0YWxfYmluZGluZycsICctaW1hZScsICc8aW5maWxlLm1hZT4nLCAnLW9tYWUnLCAnPG91dGZpbGUubWFlPic=

> <r_epik_Ionization_Penalty>
0.797836

> <r_epik_Ionization_Penalty_Charging>
0

> <r_epik_Ionization_Penalty_Neutral>
0.797836

> <r_epik_State_Penalty>
0.828842

> <r_epik_Charging_Adjusted_Penalty>
0.828842

> <i_epik_Tot_Q>
0

> <i_epik_Tot_abs_Q>
0

> <r_epik_Metal_State_Penalty>
0.828842

> <b_epik_Metal_Only>
0

> <s_lp_Force_Field>
OPLS_2005

> <r_lp_Energy>
23.221

> <b_lp_Chiralities_Consistent>
1

> <s_lp_Variant>
AV-unprocessed.smi:3252-5

> <Gold.Version>
5.8.1

> <Gold.Id.Protein>
6NUR|6NUR_protein|mol2

> <Gold.PLP.Fitness>
38.8329

> <Gold.PLP.PLP>
-36.2657

> <Gold.PLP.part.hbond>
-1.4435

> <Gold.PLP.part.metal>
0.0000

> <Gold.PLP.part.buried>
0.8712

> <Gold.PLP.part.nonpolar>
-35.2101

> <Gold.PLP.part.repulsive>
0.2851

> <Gold.PLP.ligand.clash>
0.0000

> <Gold.PLP.ligand.torsion>
0.1469

> <Gold.PLP.Chemscore.Hbond>
0.9500

> <Gold.PLP.Chemscore.CHOScore>
0.0000

> <Gold.PLP.Chemscore.Metal>
0.0000

> <Gold.Chemscore.Hbonds>
donor molecule, donor type, donor heavy atom, donor atom, acceptor molecule, acceptor atom, score
      P1  H  7989  7998       L1     6  1.00

> <Gold.PLP.Chemscore.Internal.Correction>
0.0109

> <Gold.Rescore>
     Score         DG    S(hbond)    S(metal)    S(lipo)     H(rot)  DE(clash)    DE(int)     intcor
     12.19     -14.69       0.79        0.00      87.40       1.43       2.38       0.12       ----

> <Gold.Chemscore.Fitness>
12.1885

> <Gold.Chemscore.DG>
-14.6867

> <Gold.Chemscore.ZeroCoef>
-5.4800

> <Gold.Chemscore.Hbond>
0.7933

> <Gold.Chemscore.Metal>
0.0000

> <Gold.Chemscore.Lipo>
87.3990

> <Gold.Chemscore.Internal_Hbond>
0.0000

> <Gold.Chemscore.DEClash>
2.3776

> <Gold.Chemscore.DEInternal>
0.1205

> <Gold.Chemscore.Rot>
1.4331

> <Gold.Chemscore.Internal.Correction>
   9.000000E+99

> <Gold.Chemscore.Hbonds>
donor molecule, donor type, donor heavy atom, donor atom, acceptor molecule, acceptor atom, score
      P1  H  7989  7998       L1     6  0.24

> <Gold.Chemscore.Hbond.Weighted>
-2.6498

> <Gold.Chemscore.Metal.Weighted>
-0.0000

> <Gold.Chemscore.Lipo.Weighted>
-10.2257

> <Gold.Chemscore.Internal_Hbond.Weighted>
0.0000

> <Gold.Chemscore.DEClash.Weighted>
2.3776

> <Gold.Chemscore.DEInternal.Weighted>
0.1205

> <Gold.Chemscore.Rot.Weighted>
3.6688

> <Gold.Chemscore.Internal.Correction.Weighted>
   9.000000E+99

> <Gold.Protein.RotatedTorsions>
[ 6907 6896 6895 6894 ] final   70.37 input  -60.11 | X-H torsion
[ 7974 7965 7964 7962 ] final -112.91 input  175.53 | X-H torsion
[ 8008 7997 7996 7995 ] final   28.99 input   59.86 | X-H torsion
[ 10167 10162 10161 10158 ] final -141.79 input  -65.29 | X-H torsion
[ 10718 10713 10712 10709 ] final  -40.47 input   66.30 | X-H torsion
[ 10763 10752 10751 10750 ] final  162.70 input  -60.55 | X-H torsion
[ 11005 11000 10999 10996 ] final   25.66 input  -57.11 | X-H torsion

> <Gold.Protein.ActiveResidues>
 VAL166  LYS551  ARG553  GLY616  TRP617  ASP618  TYR619  PRO620  LYS621  CYS622 
 ASP623  PHE694  ASN695  SER759  ASP760  ASP761  ALA762  ILE779  LEU786  VAL792 
 PHE793  MET794  SER795  GLU796  ALA797  LYS798  CYS799  TRP800  GLU811  SER814 

> <Gold.Protein.RotatedAtoms>
  152.4745  134.4879  159.9685 H   0  0  0  0  0  0  0  0  0  0  0  0  # atno 6907 bound_to 6896
  151.4898  133.3521  159.2859 H   0  0  0  0  0  0  0  0  0  0  0  0  # atno 6908 bound_to 6896
  150.8775  134.8187  159.7261 H   0  0  0  0  0  0  0  0  0  0  0  0  # atno 6909 bound_to 6896
  145.1384  140.8764  143.3717 H   0  0  0  0  0  0  0  0  0  0  0  0  # atno 7974 bound_to 7965
  155.0674  140.3196  155.4641 H   0  0  0  0  0  0  0  0  0  0  0  0  # atno 8008 bound_to 7997
  156.2799  140.2118  156.5747 H   0  0  0  0  0  0  0  0  0  0  0  0  # atno 8009 bound_to 7997
  154.7082  140.0500  157.0512 H   0  0  0  0  0  0  0  0  0  0  0  0  # atno 8010 bound_to 7997
  139.8150  143.7650  152.2665 H   0  0  0  0  0  0  0  0  0  0  0  0  # atno 10167 bound_to 10162
  156.2810  130.4217  149.8337 H   0  0  0  0  0  0  0  0  0  0  0  0  # atno 10718 bound_to 10713
  154.2824  135.2763  155.2691 H   0  0  0  0  0  0  0  0  0  0  0  0  # atno 10763 bound_to 10752
  154.5207  135.5757  153.6682 H   0  0  0  0  0  0  0  0  0  0  0  0  # atno 10764 bound_to 10752
  152.9927  135.6203  154.2984 H   0  0  0  0  0  0  0  0  0  0  0  0  # atno 10765 bound_to 10752
  140.3454  134.2287  155.7685 H   0  0  0  0  0  0  0  0  0  0  0  0  # atno 11005 bound_to 11000
  145.0559  139.3144  143.5905 LP  0  0  0  0  0  0  0  0  0  0  0  0  # atno 17320 bound_to 7965
  146.3507  139.9984  142.8678 LP  0  0  0  0  0  0  0  0  0  0  0  0  # atno 17321 bound_to 7965
  139.7811  144.7444  151.0087 LP  0  0  0  0  0  0  0  0  0  0  0  0  # atno 17342 bound_to 10162
  140.7816  143.4541  151.0371 LP  0  0  0  0  0  0  0  0  0  0  0  0  # atno 17343 bound_to 10162
  156.5784  130.8455  151.3376 LP  0  0  0  0  0  0  0  0  0  0  0  0  # atno 17370 bound_to 10713
  157.7314  130.9700  150.1879 LP  0  0  0  0  0  0  0  0  0  0  0  0  # atno 17371 bound_to 10713
  141.2027  133.7931  157.0378 LP  0  0  0  0  0  0  0  0  0  0  0  0  # atno 17394 bound_to 11000
  140.0746  134.9683  157.1525 LP  0  0  0  0  0  0  0  0  0  0  0  0  # atno 17395 bound_to 11000

$$$$
