#       Name:                AV-unprocessed.smi:434
#       Creating user name   scv26
#       Creation time:       Thu Mar 26 22:52:04 2020


#       File generated by GOLD software.
#

@<TRIPOS>MOLECULE
AV-unprocessed.smi:434
    46    48     1
SMALL
NO_CHARGES


@<TRIPOS>ATOM
      1 ****        -1.8069   1.1800   2.7335 C.3            1 S1                 0.0000
      2 ****        -2.4559   1.4215   1.4076 C.2            1 S1                 0.0000
      3 ****        -3.7800   1.4733   1.2630 N.2            1 S1                 0.0000
      4 ****        -3.9275   1.7184  -0.0887 C.ar           1 S1                 0.0000
      5 ****        -5.0936   1.8805  -0.8707 C.ar           1 S1                 0.0000
      6 ****        -4.9955   2.1270  -2.2559 C.ar           1 S1                 0.0000
      7 ****        -3.7332   2.2133  -2.8781 C.ar           1 S1                 0.0000
      8 ****        -2.5587   2.0545  -2.1176 C.ar           1 S1                 0.0000
      9 ****        -2.6618   1.8094  -0.7351 C.ar           1 S1                 0.0000
     10 ****        -1.7292   1.6057   0.2779 N.pl3          1 S1                 0.0000
     11 ****        -0.2790   1.5987   0.1362 C.3            1 S1                 0.0000
     12 ****         0.2920   0.1835  -0.0861 C.3            1 S1                 0.0000
     13 ****        -0.2301  -0.3407  -1.2914 O.3            1 S1                 0.0000
     14 ****         1.8258   0.1917  -0.1816 C.3            1 S1                 0.0000
     15 ****         2.3150  -1.1038   0.1238 O.3            1 S1                 0.0000
     16 ****         3.7287  -1.1814   0.0717 C.3            1 S1                 0.0000
     17 ****         4.0884  -2.5910   0.3988 C.2            1 S1                 0.0000
     18 ****         4.3385  -3.2513   1.5702 C.2            1 S1                 0.0000
     19 ****         4.6233  -4.5996   1.2175 C.2            1 S1                 0.0000
     20 ****         4.5243  -4.6615  -0.1434 C.2            1 S1                 0.0000
     21 ****         4.1981  -3.4446  -0.6582 O.3            1 S1                 0.0000
     22 ****        -2.5602   0.9904   3.4988 H              1 S1                 0.0000
     23 ****        -1.2264   2.0528   3.0331 H              1 S1                 0.0000
     24 ****        -1.1463   0.3149   2.6832 H              1 S1                 0.0000
     25 ****        -6.0653   1.8148  -0.4040 H              1 S1                 0.0000
     26 ****        -5.8935   2.2496  -2.8437 H              1 S1                 0.0000
     27 ****        -3.6671   2.4006  -3.9400 H              1 S1                 0.0000
     28 ****        -1.5907   2.1173  -2.5922 H              1 S1                 0.0000
     29 ****        -0.0068   2.2517  -0.6942 H              1 S1                 0.0000
     30 ****         0.1599   2.0484   1.0271 H              1 S1                 0.0000
     31 ****        -0.0157  -0.4604   0.7384 H              1 S1                 0.0000
     32 ****        -1.1717  -0.3771  -1.2189 H              1 S1                 0.0000
     33 ****         2.1594   0.5234  -1.1667 H              1 S1                 0.0000
     34 ****         2.2358   0.8902   0.5498 H              1 S1                 0.0000
     35 ****         4.0938  -0.9138  -0.9211 H              1 S1                 0.0000
     36 ****         4.1788  -0.4979   0.7931 H              1 S1                 0.0000
     37 ****         4.3175  -2.8176   2.5590 H              1 S1                 0.0000
     38 ****         4.8684  -5.4202   1.8755 H              1 S1                 0.0000
     39 ****         4.6473  -5.4513  -0.8696 H              1 S1                 0.0000
     40 ****        -4.4894   1.3625   1.9590 LP             1 S1                 0.0000
     41 ****         0.1324  -1.2600  -1.4446 LP             1 S1                 0.0000
     42 ****         0.0269   0.2506  -2.0559 LP             1 S1                 0.0000
     43 ****         1.9346  -1.7528  -0.5350 LP             1 S1                 0.0000
     44 ****         2.0149  -1.3499   1.0454 LP             1 S1                 0.0000
     45 ****         4.9138  -3.1309  -1.2822 LP             1 S1                 0.0000
     46 ****         3.3286  -3.4995  -1.1490 LP             1 S1                 0.0000
@<TRIPOS>BOND
    1    1    2 1     
    2    1   22 1     
    3    1   23 1     
    4    1   24 1     
    5    2   10 1     
    6    2    3 2     
    7    3    4 1     
    8    4    9 ar    
    9    4    5 ar    
   10    5    6 ar    
   11    5   25 1     
   12    6    7 ar    
   13    6   26 1     
   14    7    8 ar    
   15    7   27 1     
   16    8    9 ar    
   17    8   28 1     
   18    9   10 1     
   19   10   11 1     
   20   11   12 1     
   21   11   29 1     
   22   11   30 1     
   23   12   13 1     
   24   12   14 1     
   25   12   31 1     
   26   13   32 1     
   27   14   15 1     
   28   14   33 1     
   29   14   34 1     
   30   15   16 1     
   31   16   17 1     
   32   16   35 1     
   33   16   36 1     
   34   17   21 1     
   35   17   18 2     
   36   18   19 1     
   37   18   37 1     
   38   19   20 2     
   39   19   38 1     
   40   20   21 1     
   41   20   39 1     
   42    3   40 1     
   43   13   41 1     
   44   13   42 1     
   45   15   43 1     
   46   15   44 1     
   47   21   45 1     
   48   21   46 1     
@<TRIPOS>SUBSTRUCTURE
      1 S1             1
@<TRIPOS>SET
LONE_PAIRS      STATIC     ATOMS    <user>   **** ""
7 40 41 42 43 44 45 46
DONOR_HYDROGENS      STATIC     ATOMS    <user>   **** ""
1 32
ATOM$BLUE        STATIC     ATOMS    COLORGROUP SYSTEM
7 40 41 42 43 44 45 46
ATOM$RED        STATIC     ATOMS    COLORGROUP SYSTEM
1 32
