AV-unprocessed.smi:38|AV-procd|sdf|341|dock10
  -GOLD-   2262016183D 1   1.00000     0.00000
 Structure written by MMmdl.
 28 29  0  0  0  0  0  0  0  0  1 V2000
  139.4543  136.7758  154.4033 O   0  0  0  0  0  0  0  0  0  0  0  0
  140.6522  136.7647  154.1268 C   0  0  0  0  0  0  0  0  0  0  0  0
  141.4987  135.8157  154.7079 N   0  0  0  0  0  0  0  0  0  0  0  0
  142.8705  135.7005  154.4751 C   0  0  0  0  0  0  0  0  0  0  0  0
  143.5133  134.8115  155.0319 O   0  0  0  0  0  0  0  0  0  0  0  0
  143.4527  136.6294  153.5840 N   0  0  0  0  0  0  0  0  0  0  0  0
  144.9345  136.5587  153.2938 C   0  0  1  0  0  0  0  0  0  0  0  0
  145.1991  136.6083  151.7885 C   0  0  0  0  0  0  0  0  0  0  0  0
  146.4449  137.4673  151.7339 C   0  0  1  0  0  0  0  0  0  0  0  0
  146.5652  138.1029  150.4776 O   0  0  0  0  0  0  0  0  0  0  0  0
  146.1952  138.4614  152.8712 C   0  0  2  0  0  0  0  0  0  0  0  0
  147.4821  139.0829  153.4348 C   0  0  0  0  0  0  0  0  0  0  0  0
  147.7228  140.3337  152.8267 O   0  0  0  0  0  0  0  0  0  0  0  0
  145.5647  137.6634  153.8733 O   0  0  0  0  0  0  0  0  0  0  0  0
  142.6479  137.5831  152.9749 C   0  0  0  0  0  0  0  0  0  0  0  0
  141.3174  137.6816  153.2058 C   0  0  0  0  0  0  0  0  0  0  0  0
  140.6025  138.6300  152.5771 F   0  0  0  0  0  0  0  0  0  0  0  0
  141.0813  135.1557  155.3478 H   0  0  0  0  0  0  0  0  0  0  0  0
  145.3346  135.6652  153.7754 H   0  0  0  0  0  0  0  0  0  0  0  0
  147.3284  136.8601  151.9375 H   0  0  0  0  0  0  0  0  0  0  0  0
  145.5009  139.2333  152.5337 H   0  0  0  0  0  0  0  0  0  0  0  0
  145.3295  135.6083  151.3740 H   0  0  0  0  0  0  0  0  0  0  0  0
  144.3657  137.0993  151.2821 H   0  0  0  0  0  0  0  0  0  0  0  0
  145.6994  138.2354  150.1224 H   0  0  0  0  0  0  0  0  0  0  0  0
  147.4303  139.1898  154.5188 H   0  0  0  0  0  0  0  0  0  0  0  0
  148.3361  138.4427  153.2120 H   0  0  0  0  0  0  0  0  0  0  0  0
  148.4635  140.2482  152.2462 H   0  0  0  0  0  0  0  0  0  0  0  0
  143.0886  138.2812  152.2796 H   0  0  0  0  0  0  0  0  0  0  0  0
  1  2  2  0  0  0  0
  2 16  1  0  0  0  0
  2  3  1  0  0  0  0
  3 18  1  0  0  0  0
  3  4  1  0  0  0  0
  4  5  2  0  0  0  0
  4  6  1  0  0  0  0
  6  7  1  0  0  0  0
  6 15  1  0  0  0  0
  7 19  1  0  0  0  0
  7 14  1  0  0  0  0
  7  8  1  0  0  0  0
  8  9  1  0  0  0  0
  8 22  1  0  0  0  0
  8 23  1  0  0  0  0
  9 20  1  0  0  0  0
  9 10  1  0  0  0  0
  9 11  1  0  0  0  0
 10 24  1  0  0  0  0
 11 21  1  0  0  0  0
 11 12  1  0  0  0  0
 11 14  1  0  0  0  0
 12 13  1  0  0  0  0
 12 25  1  0  0  0  0
 12 26  1  0  0  0  0
 13 27  1  0  0  0  0
 15 16  2  0  0  0  0
 15 28  1  0  0  0  0
 16 17  1  0  0  0  0
M  END
> <s_m_source_file>
AV-unprocessed.smi

> <i_m_source_file_index>
38

> <i_lp_mmshare_version>
43012

> <i_f3d_flags>
0

> <s_epik_input>
Tz1jMVtuSF1jKD1PKW4oW2NIXWMxRilbQ0BIXTJbQ0gyXVtDQEhdKFtPSF0pW0NASF0oTzIpW0NIMl1bT0hd

> <s_epik_cmdline>
J2VwaWtfcHl0aG9uJywgJy1waCcsICc3LjAnLCAnLXRuJywgJzgnLCAnLW1hJywgJzIwMCcsICctbWV0YWxfYmluZGluZycsICctaW1hZScsICc8aW5maWxlLm1hZT4nLCAnLW9tYWUnLCAnPG91dGZpbGUubWFlPic=

> <r_lp_tautomer_probability>
0.999537

> <r_epik_Ionization_Penalty>
0.0357432

> <r_epik_Ionization_Penalty_Charging>
0.0357431

> <r_epik_Ionization_Penalty_Neutral>
1.19946e-07

> <r_epik_State_Penalty>
0.0298169

> <r_epik_Charging_Adjusted_Penalty>
0.06556

> <i_epik_Tot_Q>
0

> <i_epik_Tot_abs_Q>
0

> <r_epik_Metal_State_Penalty>
2.348

> <b_epik_Metal_Only>
0

> <s_epik_Chemistry_Notes>
This compound contains an acetal/aminal-like group ( X-CH(R)-Y where X, Y are N, S, or O) that may be acid/base labile, releasing an aldehyde.

> <s_lp_Force_Field>
OPLS_2005

> <r_lp_Energy>
27.15

> <b_lp_Chiralities_Consistent>
1

> <s_lp_Variant>
AV-unprocessed.smi:38-7

> <Gold.Version>
5.8.1

> <Gold.Id.Protein>
6NUR|6NUR_protein|mol2

> <Gold.PLP.Fitness>
36.2965

> <Gold.PLP.PLP>
-20.2421

> <Gold.PLP.part.hbond>
-4.0216

> <Gold.PLP.part.metal>
0.0000

> <Gold.PLP.part.buried>
3.5322

> <Gold.PLP.part.nonpolar>
-19.1295

> <Gold.PLP.part.repulsive>
0.3611

> <Gold.PLP.ligand.clash>
0.0000

> <Gold.PLP.ligand.torsion>
0.6708

> <Gold.PLP.Chemscore.Hbond>
3.8960

> <Gold.PLP.Chemscore.CHOScore>
1.8995

> <Gold.PLP.Chemscore.Metal>
0.0000

> <Gold.Chemscore.Hbonds>
donor molecule, donor type, donor heavy atom, donor atom, acceptor molecule, acceptor atom, score
      L1  H     3    18       P1 11000  1.00
      L1  H    10    24       P1 10171  1.00
      L1  H    13    27       P1  7957  1.00
      P1  H  7954  7966       L1    10  0.90
      L1  C    15    28       P1 10171  0.88
      L1  C    15    28       P1 10175  1.00

> <Gold.PLP.Chemscore.Internal.Correction>
0.0097

> <Gold.Rescore>
     Score         DG    S(hbond)    S(metal)    S(lipo)     H(rot)  DE(clash)    DE(int)     intcor
     11.06     -14.31       3.65        0.00      35.16       2.91       2.63       0.61       ----

> <Gold.Chemscore.Fitness>
11.0625

> <Gold.Chemscore.DG>
-14.3092

> <Gold.Chemscore.ZeroCoef>
-5.4800

> <Gold.Chemscore.Hbond>
3.6454

> <Gold.Chemscore.Metal>
0.0000

> <Gold.Chemscore.Lipo>
35.1606

> <Gold.Chemscore.Internal_Hbond>
0.0000

> <Gold.Chemscore.DEClash>
2.6347

> <Gold.Chemscore.DEInternal>
0.6121

> <Gold.Chemscore.Rot>
2.9141

> <Gold.Chemscore.Internal.Correction>
   9.000000E+99

> <Gold.Chemscore.Hbonds>
donor molecule, donor type, donor heavy atom, donor atom, acceptor molecule, acceptor atom, score
      L1  H     3    18       P1 11000  0.35
      L1  H    10    24       P1 10171  1.00
      L1  H    13    27       P1  7957  0.97
      P1  H  7954  7966       L1    10  0.66

> <Gold.Chemscore.Hbond.Weighted>
-12.1755

> <Gold.Chemscore.Metal.Weighted>
-0.0000

> <Gold.Chemscore.Lipo.Weighted>
-4.1138

> <Gold.Chemscore.Internal_Hbond.Weighted>
0.0000

> <Gold.Chemscore.DEClash.Weighted>
2.6347

> <Gold.Chemscore.DEInternal.Weighted>
0.6121

> <Gold.Chemscore.Rot.Weighted>
7.4601

> <Gold.Chemscore.Internal.Correction.Weighted>
   9.000000E+99

> <Gold.Protein.RotatedTorsions>
[ 6907 6896 6895 6894 ] final  132.02 input  -60.11 | X-H torsion
[ 7974 7965 7964 7962 ] final  155.51 input  175.53 | X-H torsion
[ 8008 7997 7996 7995 ] final  -57.69 input   59.86 | X-H torsion
[ 10167 10162 10161 10158 ] final -173.24 input  -65.29 | X-H torsion
[ 10718 10713 10712 10709 ] final  135.14 input   66.30 | X-H torsion
[ 10763 10752 10751 10750 ] final   80.19 input  -60.55 | X-H torsion
[ 11005 11000 10999 10996 ] final -178.57 input  -57.11 | X-H torsion

> <Gold.Protein.ActiveResidues>
 VAL166  LYS551  ARG553  GLY616  TRP617  ASP618  TYR619  PRO620  LYS621  CYS622 
 ASP623  PHE694  ASN695  SER759  ASP760  ASP761  ALA762  ILE779  LEU786  VAL792 
 PHE793  MET794  SER795  GLU796  ALA797  LYS798  CYS799  TRP800  GLU811  SER814 

> <Gold.Protein.RotatedAtoms>
  152.3367  133.6020  159.5847 H   0  0  0  0  0  0  0  0  0  0  0  0  # atno 6907 bound_to 6896
  150.7454  133.9785  159.3577 H   0  0  0  0  0  0  0  0  0  0  0  0  # atno 6908 bound_to 6896
  151.7653  135.0800  160.0403 H   0  0  0  0  0  0  0  0  0  0  0  0  # atno 6909 bound_to 6896
  144.8020  139.7078  143.6178 H   0  0  0  0  0  0  0  0  0  0  0  0  # atno 7974 bound_to 7965
  154.4278  140.1101  156.5838 H   0  0  0  0  0  0  0  0  0  0  0  0  # atno 8008 bound_to 7997
  155.6085  140.3494  155.4596 H   0  0  0  0  0  0  0  0  0  0  0  0  # atno 8009 bound_to 7997
  156.0118  140.1221  157.0435 H   0  0  0  0  0  0  0  0  0  0  0  0  # atno 8010 bound_to 7997
  139.5699  144.1666  152.1369 H   0  0  0  0  0  0  0  0  0  0  0  0  # atno 10167 bound_to 10162
  157.4601  131.1073  150.9930 H   0  0  0  0  0  0  0  0  0  0  0  0  # atno 10718 bound_to 10713
  153.1013  135.4812  154.8872 H   0  0  0  0  0  0  0  0  0  0  0  0  # atno 10763 bound_to 10752
  154.7382  135.3076  154.8777 H   0  0  0  0  0  0  0  0  0  0  0  0  # atno 10764 bound_to 10752
  153.9393  135.6836  153.4798 H   0  0  0  0  0  0  0  0  0  0  0  0  # atno 10765 bound_to 10752
  140.4283  134.6542  157.4699 H   0  0  0  0  0  0  0  0  0  0  0  0  # atno 11005 bound_to 11000
  146.2304  139.5802  142.9559 LP  0  0  0  0  0  0  0  0  0  0  0  0  # atno 17320 bound_to 7965
  145.5529  141.0411  143.2268 LP  0  0  0  0  0  0  0  0  0  0  0  0  # atno 17321 bound_to 7965
  140.1197  144.5384  150.6871 LP  0  0  0  0  0  0  0  0  0  0  0  0  # atno 17342 bound_to 10162
  140.6983  143.2418  151.4936 LP  0  0  0  0  0  0  0  0  0  0  0  0  # atno 17343 bound_to 10162
  157.0730  130.5872  149.5406 LP  0  0  0  0  0  0  0  0  0  0  0  0  # atno 17370 bound_to 10713
  156.0025  130.5106  150.7713 LP  0  0  0  0  0  0  0  0  0  0  0  0  # atno 17371 bound_to 10713
  140.0152  134.6631  155.9321 LP  0  0  0  0  0  0  0  0  0  0  0  0  # atno 17394 bound_to 11000
  141.1756  133.6540  156.4815 LP  0  0  0  0  0  0  0  0  0  0  0  0  # atno 17395 bound_to 11000

$$$$
