AV-unprocessed.smi:817|AV-procd|sdf|3831|dock7
  -GOLD-   22720 1273D 1   1.00000     0.00000
 Structure written by MMmdl.
 48 49  0  0  0  0  0  0  0  0  2 V2000
  151.1469  139.0162  154.2322 C   0  0  0  0  0  0  0  0  0  0  0  0
  149.6795  139.4136  154.4458 C   0  0  1  0  0  0  0  0  0  0  0  0
  149.5347  140.9349  154.6337 C   0  0  0  0  0  0  0  0  0  0  0  0
  148.0646  141.3519  154.7850 C   0  0  0  0  0  0  0  0  0  0  0  0
  147.2173  140.8281  153.6113 C   0  0  0  0  0  0  0  0  0  0  0  0
  147.2815  139.2771  153.4662 C   0  0  2  0  0  0  0  0  0  0  0  0
  146.4759  138.8300  152.2077 C   0  0  0  0  0  0  0  0  0  0  0  0
  146.7525  137.4491  151.8065 N   0  0  0  0  0  0  0  0  0  0  0  0
  145.8712  136.4462  151.6528 C   0  0  0  0  0  0  0  0  0  0  0  0
  144.6741  136.6165  151.8701 O   0  0  0  0  0  0  0  0  0  0  0  0
  146.4276  135.2789  151.2726 N   0  0  0  0  0  0  0  0  0  0  0  0
  145.7952  134.0313  151.0204 C   0  0  0  0  0  0  0  0  0  0  0  0
  144.3984  133.8112  151.0999 C   0  0  0  0  0  0  0  0  0  0  0  0
  143.8953  132.5282  150.8102 C   0  0  0  0  0  0  0  0  0  0  0  0
  144.8030  131.5158  150.4435 C   0  0  0  0  0  0  0  0  0  0  0  0
  146.1346  131.7149  150.3499 N   0  0  0  0  0  0  0  0  0  0  0  0
  146.6096  132.9471  150.6299 C   0  0  0  0  0  0  0  0  0  0  0  0
  146.7344  138.6082  154.7062 N   0  3  0  0  0  0  0  0  0  0  0  0
  145.3428  138.9733  155.0828 C   0  0  0  0  0  0  0  0  0  0  0  0
  146.9185  137.1345  154.7849 C   0  0  0  0  0  0  0  0  0  0  0  0
  148.7914  138.9311  153.2770 C   0  0  0  0  0  0  0  0  0  0  0  0
  151.5517  139.4659  153.3250 H   0  0  0  0  0  0  0  0  0  0  0  0
  151.2521  137.9346  154.1431 H   0  0  0  0  0  0  0  0  0  0  0  0
  151.7677  139.3387  155.0687 H   0  0  0  0  0  0  0  0  0  0  0  0
  149.3465  138.9265  155.3626 H   0  0  0  0  0  0  0  0  0  0  0  0
  150.1006  141.2606  155.5072 H   0  0  0  0  0  0  0  0  0  0  0  0
  149.9679  141.4532  153.7769 H   0  0  0  0  0  0  0  0  0  0  0  0
  147.6695  140.9833  155.7321 H   0  0  0  0  0  0  0  0  0  0  0  0
  147.9970  142.4391  154.8319 H   0  0  0  0  0  0  0  0  0  0  0  0
  146.1920  141.1859  153.6938 H   0  0  0  0  0  0  0  0  0  0  0  0
  147.5960  141.2998  152.7038 H   0  0  0  0  0  0  0  0  0  0  0  0
  145.4048  138.9152  152.3908 H   0  0  0  0  0  0  0  0  0  0  0  0
  146.7077  139.4720  151.3578 H   0  0  0  0  0  0  0  0  0  0  0  0
  147.7223  137.2242  151.6356 H   0  0  0  0  0  0  0  0  0  0  0  0
  147.4347  135.2710  151.2081 H   0  0  0  0  0  0  0  0  0  0  0  0
  143.7052  134.5951  151.3618 H   0  0  0  0  0  0  0  0  0  0  0  0
  142.8358  132.3262  150.8634 H   0  0  0  0  0  0  0  0  0  0  0  0
  144.4492  130.5214  150.2141 H   0  0  0  0  0  0  0  0  0  0  0  0
  147.6793  133.0696  150.5425 H   0  0  0  0  0  0  0  0  0  0  0  0
  144.6172  138.6287  154.3465 H   0  0  0  0  0  0  0  0  0  0  0  0
  145.2130  140.0440  155.2271 H   0  0  0  0  0  0  0  0  0  0  0  0
  145.0789  138.5118  156.0350 H   0  0  0  0  0  0  0  0  0  0  0  0
  146.3783  136.6127  153.9957 H   0  0  0  0  0  0  0  0  0  0  0  0
  146.5427  136.7579  155.7367 H   0  0  0  0  0  0  0  0  0  0  0  0
  147.9659  136.8418  154.7444 H   0  0  0  0  0  0  0  0  0  0  0  0
  149.1646  139.4045  152.3680 H   0  0  0  0  0  0  0  0  0  0  0  0
  148.9347  137.8653  153.1022 H   0  0  0  0  0  0  0  0  0  0  0  0
  147.3034  138.9739  155.4568 H   0  0  0  0  0  0  0  0  0  0  0  0
  1  2  1  0  0  0  0
  1 22  1  0  0  0  0
  1 23  1  0  0  0  0
  1 24  1  0  0  0  0
  2 21  1  0  0  0  0
  2  3  1  0  0  0  0
  2 25  1  0  0  0  0
  3  4  1  0  0  0  0
  3 26  1  0  0  0  0
  3 27  1  0  0  0  0
  4  5  1  0  0  0  0
  4 28  1  0  0  0  0
  4 29  1  0  0  0  0
  5  6  1  0  0  0  0
  5 30  1  0  0  0  0
  5 31  1  0  0  0  0
  6  7  1  0  0  0  0
  6 18  1  0  0  0  0
  6 21  1  0  0  0  0
  7  8  1  0  0  0  0
  7 32  1  0  0  0  0
  7 33  1  0  0  0  0
  8  9  1  0  0  0  0
  8 34  1  0  0  0  0
  9 10  2  0  0  0  0
  9 11  1  0  0  0  0
 11 12  1  0  0  0  0
 11 35  1  0  0  0  0
 12 17  1  0  0  0  0
 12 13  2  0  0  0  0
 13 14  1  0  0  0  0
 13 36  1  0  0  0  0
 14 15  2  0  0  0  0
 14 37  1  0  0  0  0
 15 16  1  0  0  0  0
 15 38  1  0  0  0  0
 16 17  2  0  0  0  0
 17 39  1  0  0  0  0
 18 19  1  0  0  0  0
 18 20  1  0  0  0  0
 18 48  1  0  0  0  0
 19 40  1  0  0  0  0
 19 41  1  0  0  0  0
 19 42  1  0  0  0  0
 20 43  1  0  0  0  0
 20 44  1  0  0  0  0
 20 45  1  0  0  0  0
 21 46  1  0  0  0  0
 21 47  1  0  0  0  0
M  CHG  1  18   1
M  END
> <s_m_source_file>
AV-unprocessed.smi

> <i_m_source_file_index>
817

> <i_lp_mmshare_version>
43012

> <i_f3d_flags>
0

> <s_epik_input>
W0NIM11bQ0BASF0oW0NIMl0xKVtDSDJdW0NIMl1bQ0gyXVtDQF0xKE4oW0NIM10pW0NIM10pW0NIMl1bTkhdQyg9TylbTkhdYzJbY0hdW2NIXVtjSF1uW2NIXTI=

> <s_epik_cmdline>
J2VwaWtfcHl0aG9uJywgJy1waCcsICc3LjAnLCAnLXRuJywgJzgnLCAnLW1hJywgJzIwMCcsICctbWV0YWxfYmluZGluZycsICctaW1hZScsICc8aW5maWxlLm1hZT4nLCAnLW9tYWUnLCAnPG91dGZpbGUubWFlPic=

> <r_lp_tautomer_probability>
1

> <r_epik_Ionization_Penalty>
0.00584939

> <r_epik_Ionization_Penalty_Charging>
0.00160539

> <r_epik_Ionization_Penalty_Neutral>
0.004244

> <r_epik_State_Penalty>
-0

> <r_epik_Charging_Adjusted_Penalty>
0.00160539

> <i_epik_Tot_Q>
1

> <i_epik_Tot_abs_Q>
1

> <r_epik_Metal_State_Penalty>
-0

> <b_epik_Metal_Only>
0

> <s_lp_Force_Field>
OPLS_2005

> <r_lp_Energy>
44.0482

> <b_lp_Chiralities_Consistent>
1

> <s_lp_Variant>
AV-unprocessed.smi:817-4

> <Gold.Version>
5.8.1

> <Gold.Id.Protein>
6NUR|6NUR_protein|mol2

> <Gold.PLP.Fitness>
41.4949

> <Gold.PLP.PLP>
-34.2196

> <Gold.PLP.part.hbond>
-2.0000

> <Gold.PLP.part.metal>
0.0000

> <Gold.PLP.part.buried>
-0.1205

> <Gold.PLP.part.nonpolar>
-34.0102

> <Gold.PLP.part.repulsive>
1.4264

> <Gold.PLP.ligand.clash>
0.0167

> <Gold.PLP.ligand.torsion>
0.1778

> <Gold.PLP.Chemscore.Hbond>
1.8800

> <Gold.PLP.Chemscore.CHOScore>
0.6290

> <Gold.PLP.Chemscore.Metal>
0.0000

> <Gold.Chemscore.Hbonds>
donor molecule, donor type, donor heavy atom, donor atom, acceptor molecule, acceptor atom, score
      L1  H     8    34       P1  7948  1.00
      L1  H    11    35       P1  7948  0.83
      L1  C    17    39       P1 10747  0.64

> <Gold.PLP.Chemscore.Internal.Correction>
0.1207

> <Gold.Rescore>
     Score         DG    S(hbond)    S(metal)    S(lipo)     H(rot)  DE(clash)    DE(int)     intcor
     16.43     -18.08       1.93        0.00      84.03       1.44       0.11       1.53       ----

> <Gold.Chemscore.Fitness>
16.4348

> <Gold.Chemscore.DG>
-18.0755

> <Gold.Chemscore.ZeroCoef>
-5.4800

> <Gold.Chemscore.Hbond>
1.9318

> <Gold.Chemscore.Metal>
0.0000

> <Gold.Chemscore.Lipo>
84.0251

> <Gold.Chemscore.Internal_Hbond>
0.0000

> <Gold.Chemscore.DEClash>
0.1097

> <Gold.Chemscore.DEInternal>
1.5309

> <Gold.Chemscore.Rot>
1.4405

> <Gold.Chemscore.Internal.Correction>
   9.000000E+99

> <Gold.Chemscore.Hbonds>
donor molecule, donor type, donor heavy atom, donor atom, acceptor molecule, acceptor atom, score
      L1  H     8    34       P1  7948  0.91
      L1  H    11    35       P1  7948  0.50

> <Gold.Chemscore.Hbond.Weighted>
-6.4523

> <Gold.Chemscore.Metal.Weighted>
-0.0000

> <Gold.Chemscore.Lipo.Weighted>
-9.8309

> <Gold.Chemscore.Internal_Hbond.Weighted>
0.0000

> <Gold.Chemscore.DEClash.Weighted>
0.1097

> <Gold.Chemscore.DEInternal.Weighted>
1.5309

> <Gold.Chemscore.Rot.Weighted>
3.6878

> <Gold.Chemscore.Internal.Correction.Weighted>
   9.000000E+99

> <Gold.Protein.RotatedTorsions>
[ 6907 6896 6895 6894 ] final  -90.21 input  -60.11 | X-H torsion
[ 7974 7965 7964 7962 ] final  -53.46 input  175.53 | X-H torsion
[ 8008 7997 7996 7995 ] final  -76.76 input   59.86 | X-H torsion
[ 10167 10162 10161 10158 ] final  140.46 input  -65.29 | X-H torsion
[ 10718 10713 10712 10709 ] final  -19.78 input   66.30 | X-H torsion
[ 10763 10752 10751 10750 ] final  144.43 input  -60.55 | X-H torsion
[ 11005 11000 10999 10996 ] final  134.67 input  -57.11 | X-H torsion

> <Gold.Protein.ActiveResidues>
 VAL166  LYS551  ARG553  GLY616  TRP617  ASP618  TYR619  PRO620  LYS621  CYS622 
 ASP623  PHE694  ASN695  SER759  ASP760  ASP761  ALA762  ILE779  LEU786  VAL792 
 PHE793  MET794  SER795  GLU796  ALA797  LYS798  CYS799  TRP800  GLU811  SER814 

> <Gold.Protein.RotatedAtoms>
  150.6880  134.2467  159.4494 H   0  0  0  0  0  0  0  0  0  0  0  0  # atno 6907 bound_to 6896
  152.0408  134.9710  160.0583 H   0  0  0  0  0  0  0  0  0  0  0  0  # atno 6908 bound_to 6896
  152.1213  133.4320  159.4713 H   0  0  0  0  0  0  0  0  0  0  0  0  # atno 6909 bound_to 6896
  145.8966  140.8028  142.9764 H   0  0  0  0  0  0  0  0  0  0  0  0  # atno 7974 bound_to 7965
  154.5534  140.0721  156.8705 H   0  0  0  0  0  0  0  0  0  0  0  0  # atno 8008 bound_to 7997
  155.2948  140.3380  155.4232 H   0  0  0  0  0  0  0  0  0  0  0  0  # atno 8009 bound_to 7997
  156.1981  140.1711  156.7942 H   0  0  0  0  0  0  0  0  0  0  0  0  # atno 8010 bound_to 7997
  139.5048  144.6232  151.6000 H   0  0  0  0  0  0  0  0  0  0  0  0  # atno 10167 bound_to 10162
  156.5409  130.4678  149.6499 H   0  0  0  0  0  0  0  0  0  0  0  0  # atno 10718 bound_to 10713
  153.9888  135.2934  155.3414 H   0  0  0  0  0  0  0  0  0  0  0  0  # atno 10763 bound_to 10752
  154.7227  135.5102  153.8840 H   0  0  0  0  0  0  0  0  0  0  0  0  # atno 10764 bound_to 10752
  153.0819  135.6681  154.0143 H   0  0  0  0  0  0  0  0  0  0  0  0  # atno 10765 bound_to 10752
  139.9930  134.9508  156.9900 H   0  0  0  0  0  0  0  0  0  0  0  0  # atno 11005 bound_to 11000
  144.6733  140.1612  143.7422 LP  0  0  0  0  0  0  0  0  0  0  0  0  # atno 17320 bound_to 7965
  145.8843  139.2340  143.1587 LP  0  0  0  0  0  0  0  0  0  0  0  0  # atno 17321 bound_to 7965
  140.5941  143.9727  150.6343 LP  0  0  0  0  0  0  0  0  0  0  0  0  # atno 17342 bound_to 10162
  140.2917  143.3319  152.1056 LP  0  0  0  0  0  0  0  0  0  0  0  0  # atno 17343 bound_to 10162
  156.2972  130.7157  151.2020 LP  0  0  0  0  0  0  0  0  0  0  0  0  # atno 17370 bound_to 10713
  157.7405  131.0516  150.5160 LP  0  0  0  0  0  0  0  0  0  0  0  0  # atno 17371 bound_to 10713
  140.4872  134.1230  155.7226 LP  0  0  0  0  0  0  0  0  0  0  0  0  # atno 17394 bound_to 11000
  141.1581  133.8844  157.1922 LP  0  0  0  0  0  0  0  0  0  0  0  0  # atno 17395 bound_to 11000

$$$$
