#       Name:                AV-unprocessed.smi:2718
#       Creating user name   scv26
#       Creation time:       Fri Mar 27 14:53:36 2020


#       File generated by GOLD software.
#

@<TRIPOS>MOLECULE
AV-unprocessed.smi:2718
    51    52     1
SMALL
NO_CHARGES


@<TRIPOS>ATOM
      1 ****        -4.5732  -1.1064  -2.2032 C.3            1 S1                 0.0000
      2 ****        -3.2574  -1.6768  -1.7121 C.2            1 S1                 0.0000
      3 ****        -3.0802  -3.1652  -1.9563 C.3            1 S1                 0.0000
      4 ****        -2.3342  -0.9057  -1.1065 C.2            1 S1                 0.0000
      5 ****        -1.0177  -1.3466  -0.5751 C.3            1 S1                 0.0000
      6 ****        -0.4441  -0.7176   0.6807 C.3            1 S1                 0.0000
      7 ****         1.0225  -0.4234   0.7335 C.2            1 S1                 0.0000
      8 ****         1.8486  -0.9224  -0.0313 O.2            1 S1                 0.0000
      9 ****         1.3548   0.4639   1.6824 N.am           1 S1                 0.0000
     10 ****         2.6986   0.9829   1.9204 C.3            1 S1                 0.0000
     11 ****         3.1352   2.0240   0.8652 C.3            1 S1                 0.0000
     12 ****         4.5064   2.6308   1.1973 C.3            1 S1                 0.0000
     13 ****         2.0961   3.0904   0.6377 C.2            1 S1                 0.0000
     14 ****         1.7095   3.9574   1.5834 N.2            1 S1                 0.0000
     15 ****         0.7402   4.7452   0.9964 N.2            1 S1                 0.0000
     16 ****         0.6357   4.2766  -0.2461 C.2            1 S1                 0.0000
     17 ****         1.4483   3.2497  -0.5367 N.pl3          1 S1                 0.0000
     18 ****         1.5688   2.5262  -1.7873 C.3            1 S1                 0.0000
     19 ****        -0.9162  -2.1670   0.7012 C.3            1 S1                 0.0000
     20 ****        -2.1441  -2.4856   1.5412 C.3            1 S1                 0.0000
     21 ****         0.0359  -3.3570   0.7292 C.3            1 S1                 0.0000
     22 ****        -4.6737  -1.2577  -3.2782 H              1 S1                 0.0000
     23 ****        -4.6476  -0.0370  -2.0030 H              1 S1                 0.0000
     24 ****        -5.4078  -1.6028  -1.7075 H              1 S1                 0.0000
     25 ****        -3.8451  -3.7265  -1.4195 H              1 S1                 0.0000
     26 ****        -2.1064  -3.5291  -1.6304 H              1 S1                 0.0000
     27 ****        -3.1789  -3.3854  -3.0193 H              1 S1                 0.0000
     28 ****        -2.5459   0.1465  -0.9833 H              1 S1                 0.0000
     29 ****        -0.3210  -1.5797  -1.3787 H              1 S1                 0.0000
     30 ****        -1.0788  -0.0035   1.2045 H              1 S1                 0.0000
     31 ****         0.6167   0.8295   2.2668 H              1 S1                 0.0000
     32 ****         2.6929   1.4442   2.9083 H              1 S1                 0.0000
     33 ****         3.4148   0.1611   1.9701 H              1 S1                 0.0000
     34 ****         3.2683   1.4812  -0.0701 H              1 S1                 0.0000
     35 ****         4.8395   3.3017   0.4049 H              1 S1                 0.0000
     36 ****         5.2622   1.8532   1.3111 H              1 S1                 0.0000
     37 ****         4.4752   3.2013   2.1263 H              1 S1                 0.0000
     38 ****        -0.0552   4.6943  -0.9636 H              1 S1                 0.0000
     39 ****         0.9198   2.9711  -2.5421 H              1 S1                 0.0000
     40 ****         1.2785   1.4857  -1.6420 H              1 S1                 0.0000
     41 ****         2.5993   2.5678  -2.1405 H              1 S1                 0.0000
     42 ****        -1.8510  -2.7197   2.5651 H              1 S1                 0.0000
     43 ****        -2.6781  -3.3412   1.1272 H              1 S1                 0.0000
     44 ****        -2.8300  -1.6385   1.5715 H              1 S1                 0.0000
     45 ****         0.5074  -3.4408   1.7085 H              1 S1                 0.0000
     46 ****         0.8155  -3.2667  -0.0262 H              1 S1                 0.0000
     47 ****        -0.5057  -4.2813   0.5260 H              1 S1                 0.0000
     48 ****         1.5517  -1.5644  -0.7382 LP             1 S1                 0.0000
     49 ****         2.8164  -0.6857   0.0545 LP             1 S1                 0.0000
     50 ****         2.0524   4.0205   2.5207 LP             1 S1                 0.0000
     51 ****         0.2305   5.4990   1.4110 LP             1 S1                 0.0000
@<TRIPOS>BOND
    1    1    2 1     
    2    1   22 1     
    3    1   23 1     
    4    1   24 1     
    5    2    3 1     
    6    2    4 2     
    7    3   25 1     
    8    3   26 1     
    9    3   27 1     
   10    4    5 1     
   11    4   28 1     
   12    5   19 1     
   13    5    6 1     
   14    5   29 1     
   15    6    7 1     
   16    6   19 1     
   17    6   30 1     
   18    7    8 2     
   19    7    9 am    
   20    9   10 1     
   21    9   31 1     
   22   10   11 1     
   23   10   32 1     
   24   10   33 1     
   25   11   12 1     
   26   11   13 1     
   27   11   34 1     
   28   12   35 1     
   29   12   36 1     
   30   12   37 1     
   31   13   17 1     
   32   13   14 2     
   33   14   15 1     
   34   15   16 2     
   35   16   17 1     
   36   16   38 1     
   37   17   18 1     
   38   18   39 1     
   39   18   40 1     
   40   18   41 1     
   41   19   20 1     
   42   19   21 1     
   43   20   42 1     
   44   20   43 1     
   45   20   44 1     
   46   21   45 1     
   47   21   46 1     
   48   21   47 1     
   49    8   48 1     
   50    8   49 1     
   51   14   50 1     
   52   15   51 1     
@<TRIPOS>SUBSTRUCTURE
      1 S1             1
@<TRIPOS>SET
LONE_PAIRS      STATIC     ATOMS    <user>   **** ""
4 48 49 50 51
DONOR_HYDROGENS      STATIC     ATOMS    <user>   **** ""
1 31
ATOM$BLUE        STATIC     ATOMS    COLORGROUP SYSTEM
4 48 49 50 51
ATOM$RED        STATIC     ATOMS    COLORGROUP SYSTEM
1 31
