AV-unprocessed.smi:3287|AV-procd|sdf|12591|dock6
  -GOLD-   2272018513D 1   1.00000     0.00000
 Structure written by MMmdl.
 43 44  0  0  0  0  0  0  0  0  2 V2000
  146.0927  131.5901  150.7336 C   0  0  0  0  0  0  0  0  0  0  0  0
  144.9118  132.1840  151.5278 C   0  0  1  0  0  0  0  0  0  0  0  0
  145.3828  132.8416  152.8410 C   0  0  0  0  0  0  0  0  0  0  0  0
  146.1102  134.1751  152.5987 C   0  0  0  0  0  0  0  0  0  0  0  0
  145.2367  135.1587  151.7997 C   0  0  1  0  0  0  0  0  0  0  0  0
  145.9844  136.4126  151.5602 N   0  3  0  0  0  0  0  0  0  0  0  0
  145.9148  137.4077  152.6523 C   0  0  0  0  0  0  0  0  0  0  0  0
  146.5361  138.7504  152.2306 C   0  0  2  0  0  0  0  0  0  0  0  0
  147.6718  138.4948  151.4265 O   0  0  0  0  0  0  0  0  0  0  0  0
  146.8820  139.5984  153.4448 C   0  0  0  0  0  0  0  0  0  0  0  0
  146.6955  139.0908  154.7477 C   0  0  0  0  0  0  0  0  0  0  0  0
  147.0370  139.9075  155.8446 C   0  0  0  0  0  0  0  0  0  0  0  0
  147.5367  141.1547  155.7132 N   0  0  0  0  0  0  0  0  0  0  0  0
  147.7159  141.6353  154.4644 C   0  0  0  0  0  0  0  0  0  0  0  0
  147.4081  140.9010  153.3017 C   0  0  0  0  0  0  0  0  0  0  0  0
  144.7689  134.5152  150.4769 C   0  0  0  0  0  0  0  0  0  0  0  0
  144.0388  133.1782  150.7199 C   0  0  1  0  0  0  0  0  0  0  0  0
  143.4887  132.5820  149.4136 C   0  0  0  0  0  0  0  0  0  0  0  0
  146.7602  132.3602  150.3487 H   0  0  0  0  0  0  0  0  0  0  0  0
  145.7465  130.9979  149.8864 H   0  0  0  0  0  0  0  0  0  0  0  0
  146.6870  130.9252  151.3610 H   0  0  0  0  0  0  0  0  0  0  0  0
  144.2762  131.3417  151.8058 H   0  0  0  0  0  0  0  0  0  0  0  0
  144.5182  133.0213  153.4815 H   0  0  0  0  0  0  0  0  0  0  0  0
  146.0290  132.1596  153.3948 H   0  0  0  0  0  0  0  0  0  0  0  0
  146.3821  134.6167  153.5583 H   0  0  0  0  0  0  0  0  0  0  0  0
  147.0476  133.9934  152.0715 H   0  0  0  0  0  0  0  0  0  0  0  0
  144.3625  135.3950  152.4084 H   0  0  0  0  0  0  0  0  0  0  0  0
  146.9588  136.1710  151.4479 H   0  0  0  0  0  0  0  0  0  0  0  0
  144.8714  137.5641  152.9274 H   0  0  0  0  0  0  0  0  0  0  0  0
  146.4240  137.0188  153.5354 H   0  0  0  0  0  0  0  0  0  0  0  0
  145.8220  139.3025  151.6175 H   0  0  0  0  0  0  0  0  0  0  0  0
  148.3069  139.1784  151.5796 H   0  0  0  0  0  0  0  0  0  0  0  0
  146.3006  138.0987  154.9094 H   0  0  0  0  0  0  0  0  0  0  0  0
  146.9063  139.5484  156.8547 H   0  0  0  0  0  0  0  0  0  0  0  0
  148.1185  142.6345  154.3880 H   0  0  0  0  0  0  0  0  0  0  0  0
  147.5747  141.3326  152.3256 H   0  0  0  0  0  0  0  0  0  0  0  0
  144.0965  135.1921  149.9500 H   0  0  0  0  0  0  0  0  0  0  0  0
  145.6225  134.3603  149.8156 H   0  0  0  0  0  0  0  0  0  0  0  0
  143.1685  133.4029  151.3388 H   0  0  0  0  0  0  0  0  0  0  0  0
  144.2800  132.4000  148.6864 H   0  0  0  0  0  0  0  0  0  0  0  0
  142.7704  133.2582  148.9492 H   0  0  0  0  0  0  0  0  0  0  0  0
  142.9767  131.6371  149.5974 H   0  0  0  0  0  0  0  0  0  0  0  0
  145.6590  136.8322  150.7012 H   0  0  0  0  0  0  0  0  0  0  0  0
  1  2  1  0  0  0  0
  1 19  1  0  0  0  0
  1 20  1  0  0  0  0
  1 21  1  0  0  0  0
  2 17  1  0  0  0  0
  2  3  1  0  0  0  0
  2 22  1  0  0  0  0
  3  4  1  0  0  0  0
  3 23  1  0  0  0  0
  3 24  1  0  0  0  0
  4  5  1  0  0  0  0
  4 25  1  0  0  0  0
  4 26  1  0  0  0  0
  5  6  1  0  0  0  0
  5 16  1  0  0  0  0
  5 27  1  0  0  0  0
  6  7  1  0  0  0  0
  6 28  1  0  0  0  0
  6 43  1  0  0  0  0
  7  8  1  0  0  0  0
  7 29  1  0  0  0  0
  7 30  1  0  0  0  0
  8  9  1  0  0  0  0
  8 10  1  0  0  0  0
  8 31  1  0  0  0  0
  9 32  1  0  0  0  0
 10 15  1  0  0  0  0
 10 11  2  0  0  0  0
 11 12  1  0  0  0  0
 11 33  1  0  0  0  0
 12 13  2  0  0  0  0
 12 34  1  0  0  0  0
 13 14  1  0  0  0  0
 14 15  2  0  0  0  0
 14 35  1  0  0  0  0
 15 36  1  0  0  0  0
 16 17  1  0  0  0  0
 16 37  1  0  0  0  0
 16 38  1  0  0  0  0
 17 18  1  0  0  0  0
 17 39  1  0  0  0  0
 18 40  1  0  0  0  0
 18 41  1  0  0  0  0
 18 42  1  0  0  0  0
M  CHG  1   6   1
M  END
> <s_m_source_file>
AV-unprocessed.smi

> <i_m_source_file_index>
3287

> <i_lp_mmshare_version>
43012

> <i_f3d_flags>
0

> <s_epik_input>
W0NIM11bQ0BASF0xW0NIMl1bQ0gyXVtDQEhdKFtDSDJdW0NASF0xW0NIM10pW05IXVtDSDJdW0NASF0oW09IXSljMltjSF1bY0hdbltjSF1bY0hdMg==

> <s_epik_cmdline>
J2VwaWtfcHl0aG9uJywgJy1waCcsICc3LjAnLCAnLXRuJywgJzgnLCAnLW1hJywgJzIwMCcsICctbWV0YWxfYmluZGluZycsICctaW1hZScsICc8aW5maWxlLm1hZT4nLCAnLW9tYWUnLCAnPG91dGZpbGUubWFlPic=

> <r_lp_tautomer_probability>
1

> <r_epik_Ionization_Penalty>
0.00537262

> <r_epik_Ionization_Penalty_Charging>
0.00321624

> <r_epik_Ionization_Penalty_Neutral>
0.00215638

> <r_epik_State_Penalty>
-0

> <r_epik_Charging_Adjusted_Penalty>
0.00321624

> <i_epik_Tot_Q>
1

> <i_epik_Tot_abs_Q>
1

> <r_epik_Metal_State_Penalty>
-0

> <b_epik_Metal_Only>
0

> <s_lp_Force_Field>
OPLS_2005

> <r_lp_Energy>
17.4427

> <b_lp_Chiralities_Consistent>
1

> <s_lp_Variant>
AV-unprocessed.smi:3287-2

> <Gold.Version>
5.8.1

> <Gold.Id.Protein>
6NUR|6NUR_protein|mol2

> <Gold.PLP.Fitness>
46.0346

> <Gold.PLP.PLP>
-32.0986

> <Gold.PLP.part.hbond>
-3.7424

> <Gold.PLP.part.metal>
0.0000

> <Gold.PLP.part.buried>
0.2872

> <Gold.PLP.part.nonpolar>
-28.6733

> <Gold.PLP.part.repulsive>
0.1254

> <Gold.PLP.ligand.clash>
0.0000

> <Gold.PLP.ligand.torsion>
0.5378

> <Gold.PLP.Chemscore.Hbond>
3.9920

> <Gold.PLP.Chemscore.CHOScore>
0.9971

> <Gold.PLP.Chemscore.Metal>
0.0000

> <Gold.Chemscore.Hbonds>
donor molecule, donor type, donor heavy atom, donor atom, acceptor molecule, acceptor atom, score
      L1  H     6    28       P1  7948  2.00
      L1  H     9    32       P1  7957  1.00
      P1  H  7954  7966       L1     9  0.98
      L1  C    14    35       P1  8028  1.00

> <Gold.PLP.Chemscore.Internal.Correction>
0.0443

> <Gold.Rescore>
     Score         DG    S(hbond)    S(metal)    S(lipo)     H(rot)  DE(clash)    DE(int)     intcor
     17.24     -19.26       2.30        0.00      93.67       1.90       1.42       0.60       ----

> <Gold.Chemscore.Fitness>
17.2405

> <Gold.Chemscore.DG>
-19.2615

> <Gold.Chemscore.ZeroCoef>
-5.4800

> <Gold.Chemscore.Hbond>
2.3039

> <Gold.Chemscore.Metal>
0.0000

> <Gold.Chemscore.Lipo>
93.6688

> <Gold.Chemscore.Internal_Hbond>
0.0000

> <Gold.Chemscore.DEClash>
1.4210

> <Gold.Chemscore.DEInternal>
0.6000

> <Gold.Chemscore.Rot>
1.9035

> <Gold.Chemscore.Internal.Correction>
   9.000000E+99

> <Gold.Chemscore.Hbonds>
donor molecule, donor type, donor heavy atom, donor atom, acceptor molecule, acceptor atom, score
      L1  H     6    28       P1  7948  0.95
      L1  H     9    32       P1  7957  0.83
      P1  H  7954  7966       L1     9  0.28

> <Gold.Chemscore.Hbond.Weighted>
-7.6952

> <Gold.Chemscore.Metal.Weighted>
-0.0000

> <Gold.Chemscore.Lipo.Weighted>
-10.9593

> <Gold.Chemscore.Internal_Hbond.Weighted>
0.0000

> <Gold.Chemscore.DEClash.Weighted>
1.4210

> <Gold.Chemscore.DEInternal.Weighted>
0.6000

> <Gold.Chemscore.Rot.Weighted>
4.8729

> <Gold.Chemscore.Internal.Correction.Weighted>
   9.000000E+99

> <Gold.Protein.RotatedTorsions>
[ 6907 6896 6895 6894 ] final -107.31 input  -60.11 | X-H torsion
[ 7974 7965 7964 7962 ] final -111.65 input  175.53 | X-H torsion
[ 8008 7997 7996 7995 ] final   38.04 input   59.86 | X-H torsion
[ 10167 10162 10161 10158 ] final -138.82 input  -65.29 | X-H torsion
[ 10718 10713 10712 10709 ] final  158.98 input   66.30 | X-H torsion
[ 10763 10752 10751 10750 ] final -140.64 input  -60.55 | X-H torsion
[ 11005 11000 10999 10996 ] final   -7.66 input  -57.11 | X-H torsion

> <Gold.Protein.ActiveResidues>
 VAL166  LYS551  ARG553  GLY616  TRP617  ASP618  TYR619  PRO620  LYS621  CYS622 
 ASP623  PHE694  ASN695  SER759  ASP760  ASP761  ALA762  ILE779  LEU786  VAL792 
 PHE793  MET794  SER795  GLU796  ALA797  LYS798  CYS799  TRP800  GLU811  SER814 

> <Gold.Protein.RotatedAtoms>
  150.7437  133.9846  159.3586 H   0  0  0  0  0  0  0  0  0  0  0  0  # atno 6907 bound_to 6896
  151.7789  135.0765  160.0380 H   0  0  0  0  0  0  0  0  0  0  0  0  # atno 6908 bound_to 6896
  152.3287  133.5898  159.5831 H   0  0  0  0  0  0  0  0  0  0  0  0  # atno 6909 bound_to 6896
  145.1536  140.8842  143.3632 H   0  0  0  0  0  0  0  0  0  0  0  0  # atno 7974 bound_to 7965
  155.2136  140.3325  155.4325 H   0  0  0  0  0  0  0  0  0  0  0  0  # atno 8008 bound_to 7997
  156.2361  140.1873  156.7164 H   0  0  0  0  0  0  0  0  0  0  0  0  # atno 8009 bound_to 7997
  154.6062  140.0616  156.9419 H   0  0  0  0  0  0  0  0  0  0  0  0  # atno 8010 bound_to 7997
  139.8440  143.7285  152.2662 H   0  0  0  0  0  0  0  0  0  0  0  0  # atno 10167 bound_to 10162
  157.1705  131.0609  151.2185 H   0  0  0  0  0  0  0  0  0  0  0  0  # atno 10718 bound_to 10713
  154.8572  135.3547  154.5740 H   0  0  0  0  0  0  0  0  0  0  0  0  # atno 10763 bound_to 10752
  153.6352  135.7000  153.5266 H   0  0  0  0  0  0  0  0  0  0  0  0  # atno 10764 bound_to 10752
  153.3016  135.4204  155.1217 H   0  0  0  0  0  0  0  0  0  0  0  0  # atno 10765 bound_to 10752
  140.7151  133.8875  155.8779 H   0  0  0  0  0  0  0  0  0  0  0  0  # atno 11005 bound_to 11000
  145.0405  139.3264  143.5979 LP  0  0  0  0  0  0  0  0  0  0  0  0  # atno 17320 bound_to 7965
  146.3491  139.9777  142.8699 LP  0  0  0  0  0  0  0  0  0  0  0  0  # atno 17321 bound_to 7965
  139.7531  144.7528  151.0477 LP  0  0  0  0  0  0  0  0  0  0  0  0  # atno 17342 bound_to 10162
  140.7795  143.4837  150.9984 LP  0  0  0  0  0  0  0  0  0  0  0  0  # atno 17343 bound_to 10162
  157.4048  130.7353  149.6794 LP  0  0  0  0  0  0  0  0  0  0  0  0  # atno 17370 bound_to 10713
  155.9739  130.4111  150.3964 LP  0  0  0  0  0  0  0  0  0  0  0  0  # atno 17371 bound_to 10713
  141.0051  134.1097  157.4278 LP  0  0  0  0  0  0  0  0  0  0  0  0  # atno 17394 bound_to 11000
  139.8862  135.0079  156.6481 LP  0  0  0  0  0  0  0  0  0  0  0  0  # atno 17395 bound_to 11000

$$$$
