AV-unprocessed.smi:1978|AV-procd|sdf|7997|dock4
  -GOLD-   2272010183D 1   1.00000     0.00000
 Structure written by MMmdl.
 45 46  0  0  0  0  0  0  0  0  2 V2000
  152.1740  141.3732  162.1307 C   0  0  0  0  0  0  0  0  0  0  0  0
  151.6253  142.0212  160.9058 C   0  0  0  0  0  0  0  0  0  0  0  0
  150.8330  141.5674  159.8887 C   0  0  0  0  0  0  0  0  0  0  0  0
  150.6979  142.7093  159.0550 C   0  0  0  0  0  0  0  0  0  0  0  0
  149.9341  142.6533  157.8610 N   0  0  0  0  0  0  0  0  0  0  0  0
  149.6744  141.5718  157.1071 C   0  0  0  0  0  0  0  0  0  0  0  0
  150.0903  140.4341  157.3286 O   0  0  0  0  0  0  0  0  0  0  0  0
  148.8887  141.8779  156.0643 N   0  0  0  0  0  0  0  0  0  0  0  0
  148.4195  140.9188  155.0694 C   0  0  0  0  0  0  0  0  0  0  0  0
  146.9978  141.2532  154.5481 C   0  0  1  0  0  0  0  0  0  0  0  0
  146.9271  142.6380  153.8721 C   0  0  0  0  0  0  0  0  0  0  0  0
  146.4283  140.1802  153.6702 N   0  3  1  0  0  0  0  0  0  0  0  0
  147.3762  139.6860  152.6284 C   0  0  0  0  0  0  0  0  0  0  0  0
  146.6621  138.8033  151.5946 C   0  0  0  0  0  0  0  0  0  0  0  0
  145.9733  137.6202  152.2784 C   0  0  0  0  0  0  0  0  0  0  0  0
  145.0278  138.1342  153.3689 C   0  0  0  0  0  0  0  0  0  0  0  0
  145.7586  139.0409  154.3832 C   0  0  2  0  0  0  0  0  0  0  0  0
  144.7593  139.4871  155.4704 C   0  0  0  0  0  0  0  0  0  0  0  0
  151.3501  143.7640  159.5197 N   0  0  0  0  0  0  0  0  0  0  0  0
  151.9478  143.3283  160.7082 O   0  0  0  0  0  0  0  0  0  0  0  0
  151.6504  140.4416  162.3461 H   0  0  0  0  0  0  0  0  0  0  0  0
  152.0679  142.0272  162.9962 H   0  0  0  0  0  0  0  0  0  0  0  0
  153.2326  141.1457  162.0056 H   0  0  0  0  0  0  0  0  0  0  0  0
  150.4190  140.5778  159.7648 H   0  0  0  0  0  0  0  0  0  0  0  0
  149.5350  143.5285  157.5558 H   0  0  0  0  0  0  0  0  0  0  0  0
  148.5945  142.8372  155.9509 H   0  0  0  0  0  0  0  0  0  0  0  0
  149.1383  140.9266  154.2502 H   0  0  0  0  0  0  0  0  0  0  0  0
  148.4567  139.9181  155.5013 H   0  0  0  0  0  0  0  0  0  0  0  0
  146.3357  141.3541  155.4055 H   0  0  0  0  0  0  0  0  0  0  0  0
  147.1024  143.4355  154.5948 H   0  0  0  0  0  0  0  0  0  0  0  0
  145.9433  142.8137  153.4354 H   0  0  0  0  0  0  0  0  0  0  0  0
  147.6726  142.7541  153.0860 H   0  0  0  0  0  0  0  0  0  0  0  0
  147.8418  140.5136  152.0966 H   0  0  0  0  0  0  0  0  0  0  0  0
  148.1818  139.1195  153.0970 H   0  0  0  0  0  0  0  0  0  0  0  0
  145.9263  139.3958  151.0493 H   0  0  0  0  0  0  0  0  0  0  0  0
  147.3774  138.4399  150.8561 H   0  0  0  0  0  0  0  0  0  0  0  0
  145.4209  137.0300  151.5464 H   0  0  0  0  0  0  0  0  0  0  0  0
  146.7207  136.9574  152.7168 H   0  0  0  0  0  0  0  0  0  0  0  0
  144.2064  138.6843  152.9075 H   0  0  0  0  0  0  0  0  0  0  0  0
  144.5770  137.2838  153.8818 H   0  0  0  0  0  0  0  0  0  0  0  0
  146.5293  138.4401  154.8680 H   0  0  0  0  0  0  0  0  0  0  0  0
  144.2038  138.6341  155.8615 H   0  0  0  0  0  0  0  0  0  0  0  0
  144.0331  140.2000  155.0785 H   0  0  0  0  0  0  0  0  0  0  0  0
  145.2581  139.9399  156.3269 H   0  0  0  0  0  0  0  0  0  0  0  0
  145.6862  140.6389  153.1613 H   0  0  0  0  0  0  0  0  0  0  0  0
  1  2  1  0  0  0  0
  1 21  1  0  0  0  0
  1 22  1  0  0  0  0
  1 23  1  0  0  0  0
  2 20  1  0  0  0  0
  2  3  2  0  0  0  0
  3  4  1  0  0  0  0
  3 24  1  0  0  0  0
  4  5  1  0  0  0  0
  4 19  2  0  0  0  0
  5  6  1  0  0  0  0
  5 25  1  0  0  0  0
  6  7  2  0  0  0  0
  6  8  1  0  0  0  0
  8  9  1  0  0  0  0
  8 26  1  0  0  0  0
  9 10  1  0  0  0  0
  9 27  1  0  0  0  0
  9 28  1  0  0  0  0
 10 11  1  0  0  0  0
 10 12  1  0  0  0  0
 10 29  1  0  0  0  0
 11 30  1  0  0  0  0
 11 31  1  0  0  0  0
 11 32  1  0  0  0  0
 12 17  1  0  0  0  0
 12 13  1  0  0  0  0
 12 45  1  0  0  0  0
 13 14  1  0  0  0  0
 13 33  1  0  0  0  0
 13 34  1  0  0  0  0
 14 15  1  0  0  0  0
 14 35  1  0  0  0  0
 14 36  1  0  0  0  0
 15 16  1  0  0  0  0
 15 37  1  0  0  0  0
 15 38  1  0  0  0  0
 16 17  1  0  0  0  0
 16 39  1  0  0  0  0
 16 40  1  0  0  0  0
 17 18  1  0  0  0  0
 17 41  1  0  0  0  0
 18 42  1  0  0  0  0
 18 43  1  0  0  0  0
 18 44  1  0  0  0  0
 19 20  1  0  0  0  0
M  CHG  1  12   1
M  END
> <s_m_source_file>
AV-unprocessed.smi

> <i_m_source_file_index>
1978

> <i_lp_mmshare_version>
43012

> <i_f3d_flags>
0

> <s_epik_input>
W0NIM11jMVtjSF1jKG5vMSlbTkhdQyg9TylbTkhdW0NIMl1bQ0BIXShbQ0gzXSlOMltDSDJdW0NIMl1bQ0gyXVtDSDJdW0NASF0yW0NIM10=

> <s_epik_cmdline>
J2VwaWtfcHl0aG9uJywgJy1waCcsICc3LjAnLCAnLXRuJywgJzgnLCAnLW1hJywgJzIwMCcsICctbWV0YWxfYmluZGluZycsICctaW1hZScsICc8aW5maWxlLm1hZT4nLCAnLW9tYWUnLCAnPG91dGZpbGUubWFlPic=

> <r_epik_Ionization_Penalty>
0.00265971

> <r_epik_Ionization_Penalty_Charging>
0.00262393

> <r_epik_Ionization_Penalty_Neutral>
3.57846e-05

> <r_epik_State_Penalty>
0.00182566

> <r_epik_Charging_Adjusted_Penalty>
0.00444959

> <i_epik_Tot_Q>
1

> <i_epik_Tot_abs_Q>
1

> <r_epik_Metal_State_Penalty>
0.0216344

> <b_epik_Metal_Only>
0

> <s_lp_Force_Field>
OPLS_2005

> <r_lp_Energy>
19.4961

> <b_lp_Chiralities_Consistent>
1

> <s_lp_Variant>
AV-unprocessed.smi:1978-6

> <Gold.Version>
5.8.1

> <Gold.Id.Protein>
6NUR|6NUR_protein|mol2

> <Gold.PLP.Fitness>
45.9677

> <Gold.PLP.PLP>
-35.5378

> <Gold.PLP.part.hbond>
-3.0000

> <Gold.PLP.part.metal>
0.0000

> <Gold.PLP.part.buried>
-1.4715

> <Gold.PLP.part.nonpolar>
-32.3013

> <Gold.PLP.part.repulsive>
0.2546

> <Gold.PLP.ligand.clash>
0.0000

> <Gold.PLP.ligand.torsion>
0.8291

> <Gold.PLP.Chemscore.Hbond>
3.9920

> <Gold.PLP.Chemscore.CHOScore>
0.0000

> <Gold.PLP.Chemscore.Metal>
0.0000

> <Gold.Chemscore.Hbonds>
donor molecule, donor type, donor heavy atom, donor atom, acceptor molecule, acceptor atom, score
      L1  H     5    25       P1  8028  0.26
      L1  H     8    26       P1  8028  1.00
      L1  H    12    45       P1 10175  1.45

> <Gold.PLP.Chemscore.Internal.Correction>
0.1120

> <Gold.Rescore>
     Score         DG    S(hbond)    S(metal)    S(lipo)     H(rot)  DE(clash)    DE(int)     intcor
     16.89     -19.28       2.91        0.00      68.74       1.55       0.02       2.36       ----

> <Gold.Chemscore.Fitness>
16.8898

> <Gold.Chemscore.DG>
-19.2755

> <Gold.Chemscore.ZeroCoef>
-5.4800

> <Gold.Chemscore.Hbond>
2.9084

> <Gold.Chemscore.Metal>
0.0000

> <Gold.Chemscore.Lipo>
68.7425

> <Gold.Chemscore.Internal_Hbond>
0.0000

> <Gold.Chemscore.DEClash>
0.0222

> <Gold.Chemscore.DEInternal>
2.3636

> <Gold.Chemscore.Rot>
1.5474

> <Gold.Chemscore.Internal.Correction>
   9.000000E+99

> <Gold.Chemscore.Hbonds>
donor molecule, donor type, donor heavy atom, donor atom, acceptor molecule, acceptor atom, score
      L1  H     5    25       P1  8028  0.16
      L1  H     8    26       P1  8028  0.97
      L1  H    12    45       P1 10175  0.56

> <Gold.Chemscore.Hbond.Weighted>
-9.7139

> <Gold.Chemscore.Metal.Weighted>
-0.0000

> <Gold.Chemscore.Lipo.Weighted>
-8.0429

> <Gold.Chemscore.Internal_Hbond.Weighted>
0.0000

> <Gold.Chemscore.DEClash.Weighted>
0.0222

> <Gold.Chemscore.DEInternal.Weighted>
2.3636

> <Gold.Chemscore.Rot.Weighted>
3.9612

> <Gold.Chemscore.Internal.Correction.Weighted>
   9.000000E+99

> <Gold.Protein.RotatedTorsions>
[ 6907 6896 6895 6894 ] final  137.14 input  -60.11 | X-H torsion
[ 7974 7965 7964 7962 ] final  -79.85 input  175.53 | X-H torsion
[ 8008 7997 7996 7995 ] final   83.90 input   59.86 | X-H torsion
[ 10167 10162 10161 10158 ] final    6.80 input  -65.29 | X-H torsion
[ 10718 10713 10712 10709 ] final   15.92 input   66.30 | X-H torsion
[ 10763 10752 10751 10750 ] final  179.77 input  -60.55 | X-H torsion
[ 11005 11000 10999 10996 ] final  -42.19 input  -57.11 | X-H torsion

> <Gold.Protein.ActiveResidues>
 VAL166  LYS551  ARG553  GLY616  TRP617  ASP618  TYR619  PRO620  LYS621  CYS622 
 ASP623  PHE694  ASN695  SER759  ASP760  ASP761  ALA762  ILE779  LEU786  VAL792 
 PHE793  MET794  SER795  GLU796  ALA797  LYS798  CYS799  TRP800  GLU811  SER814 

> <Gold.Protein.RotatedAtoms>
  152.2815  133.5474  159.5500 H   0  0  0  0  0  0  0  0  0  0  0  0  # atno 6907 bound_to 6896
  150.7198  134.0558  159.3823 H   0  0  0  0  0  0  0  0  0  0  0  0  # atno 6908 bound_to 6896
  151.8468  135.0571  160.0505 H   0  0  0  0  0  0  0  0  0  0  0  0  # atno 6909 bound_to 6896
  145.5678  140.9471  143.1412 H   0  0  0  0  0  0  0  0  0  0  0  0  # atno 7974 bound_to 7965
  155.9300  140.3415  155.6241 H   0  0  0  0  0  0  0  0  0  0  0  0  # atno 8008 bound_to 7997
  155.7169  140.0778  157.2366 H   0  0  0  0  0  0  0  0  0  0  0  0  # atno 8009 bound_to 7997
  154.4083  140.1612  156.2346 H   0  0  0  0  0  0  0  0  0  0  0  0  # atno 8010 bound_to 7997
  140.6407  143.7780  150.7424 H   0  0  0  0  0  0  0  0  0  0  0  0  # atno 10167 bound_to 10162
  157.0604  130.6306  149.5785 H   0  0  0  0  0  0  0  0  0  0  0  0  # atno 10718 bound_to 10713
  154.5249  135.2796  155.1230 H   0  0  0  0  0  0  0  0  0  0  0  0  # atno 10763 bound_to 10752
  154.2773  135.6292  153.5337 H   0  0  0  0  0  0  0  0  0  0  0  0  # atno 10764 bound_to 10752
  152.9944  135.5642  154.5748 H   0  0  0  0  0  0  0  0  0  0  0  0  # atno 10765 bound_to 10752
  141.0298  133.6825  156.2560 H   0  0  0  0  0  0  0  0  0  0  0  0  # atno 11005 bound_to 11000
  144.7452  139.7339  143.7295 LP  0  0  0  0  0  0  0  0  0  0  0  0  # atno 17320 bound_to 7965
  146.1806  139.4996  142.9869 LP  0  0  0  0  0  0  0  0  0  0  0  0  # atno 17321 bound_to 7965
  140.1411  143.4440  152.2193 LP  0  0  0  0  0  0  0  0  0  0  0  0  # atno 17342 bound_to 10162
  139.5617  144.7409  151.4138 LP  0  0  0  0  0  0  0  0  0  0  0  0  # atno 17343 bound_to 10162
  155.9980  130.5053  150.7555 LP  0  0  0  0  0  0  0  0  0  0  0  0  # atno 17370 bound_to 10713
  157.4959  131.0915  151.0372 LP  0  0  0  0  0  0  0  0  0  0  0  0  # atno 17371 bound_to 10713
  140.6427  134.5149  157.5571 LP  0  0  0  0  0  0  0  0  0  0  0  0  # atno 17394 bound_to 11000
  139.9200  134.8168  156.1241 LP  0  0  0  0  0  0  0  0  0  0  0  0  # atno 17395 bound_to 11000

$$$$
