AV-unprocessed.smi:235|AV-procd|sdf|1801|dock7
  -GOLD-   2262020373D 1   1.00000     0.00000
 Structure written by MMmdl.
 54 58  0  0  0  0  0  0  0  0  1 V2000
  146.0845  128.3365  153.2913 O   0  0  0  0  0  0  0  0  0  0  0  0
  146.4332  129.1796  152.4640 C   0  0  0  0  0  0  0  0  0  0  0  0
  147.1259  128.8844  151.3548 N   0  0  0  0  0  0  0  0  0  0  0  0
  147.5462  127.5794  150.9604 C   0  0  0  0  0  0  0  0  0  0  0  0
  148.3875  126.7877  151.9382 C   0  0  0  0  0  0  0  0  0  0  0  0
  149.0226  127.3662  150.7038 C   0  0  0  0  0  0  0  0  0  0  0  0
  146.0984  130.6639  152.6701 C   0  0  2  0  0  0  0  0  0  0  0  0
  145.0835  131.1744  151.6398 C   0  0  0  0  0  0  0  0  0  0  0  0
  145.3415  132.6760  151.6248 C   0  0  0  0  0  0  0  0  0  0  0  0
  146.8553  132.7694  151.8176 C   0  0  0  0  0  0  0  0  0  0  0  0
  147.2623  131.5320  152.4775 N   0  0  0  0  0  0  0  0  0  0  0  0
  148.0694  131.6819  153.5509 C   0  0  0  0  0  0  0  0  0  0  0  0
  148.5473  130.5537  154.1302 N   0  0  0  0  0  0  0  0  0  0  0  0
  149.3479  130.6394  155.1970 C   0  0  0  0  0  0  0  0  0  0  0  0
  149.7839  131.7317  155.8295 N   0  0  0  0  0  0  0  0  0  0  0  0
  149.3035  132.8668  155.2457 C   0  0  0  0  0  0  0  0  0  0  0  0
  148.4486  132.9341  154.1107 C   0  0  0  0  0  0  0  0  0  0  0  0
  148.1718  134.2608  153.8013 N   0  0  0  0  0  0  0  0  0  0  0  0
  148.8238  134.9397  154.7056 C   0  0  0  0  0  0  0  0  0  0  0  0
  149.5321  134.1808  155.6102 N   0  0  0  0  0  0  0  0  0  0  0  0
  150.3463  134.6682  156.7083 C   0  0  0  0  0  0  0  0  0  0  0  0
  150.6255  136.1815  156.6130 C   0  0  2  0  0  0  0  0  0  0  0  0
  151.8129  136.3869  155.8741 O   0  0  0  0  0  0  0  0  0  0  0  0
  150.7050  136.9050  157.9765 C   0  0  2  0  0  0  0  0  0  0  0  0
  150.5659  138.4369  157.9387 C   0  0  0  0  0  0  0  0  0  0  0  0
  151.8501  138.9302  158.5815 C   0  0  0  0  0  0  0  0  0  0  0  0
  152.2771  137.7419  159.4332 C   0  0  0  0  0  0  0  0  0  0  0  0
  151.9489  136.6316  158.6154 O   0  0  0  0  0  0  0  0  0  0  0  0
  147.3733  129.6452  150.7389 H   0  0  0  0  0  0  0  0  0  0  0  0
  146.8644  127.0003  150.3388 H   0  0  0  0  0  0  0  0  0  0  0  0
  148.6319  127.2512  152.8922 H   0  0  0  0  0  0  0  0  0  0  0  0
  148.2399  125.7101  151.9690 H   0  0  0  0  0  0  0  0  0  0  0  0
  149.2980  126.6756  149.9094 H   0  0  0  0  0  0  0  0  0  0  0  0
  149.6899  128.2164  150.8331 H   0  0  0  0  0  0  0  0  0  0  0  0
  145.6872  130.8047  153.6715 H   0  0  0  0  0  0  0  0  0  0  0  0
  145.2826  130.7573  150.6506 H   0  0  0  0  0  0  0  0  0  0  0  0
  144.0547  130.9315  151.9072 H   0  0  0  0  0  0  0  0  0  0  0  0
  144.9977  133.1613  150.7110 H   0  0  0  0  0  0  0  0  0  0  0  0
  144.8325  133.1436  152.4687 H   0  0  0  0  0  0  0  0  0  0  0  0
  147.3555  132.8104  150.8496 H   0  0  0  0  0  0  0  0  0  0  0  0
  147.1320  133.6723  152.3648 H   0  0  0  0  0  0  0  0  0  0  0  0
  149.6878  129.6976  155.6022 H   0  0  0  0  0  0  0  0  0  0  0  0
  148.8127  136.0198  154.7336 H   0  0  0  0  0  0  0  0  0  0  0  0
  149.8373  134.4331  157.6442 H   0  0  0  0  0  0  0  0  0  0  0  0
  151.2831  134.1095  156.7155 H   0  0  0  0  0  0  0  0  0  0  0  0
  149.8224  136.6431  156.0373 H   0  0  0  0  0  0  0  0  0  0  0  0
  152.0481  137.3000  155.9368 H   0  0  0  0  0  0  0  0  0  0  0  0
  149.9221  136.5174  158.6303 H   0  0  0  0  0  0  0  0  0  0  0  0
  150.4314  138.8430  156.9360 H   0  0  0  0  0  0  0  0  0  0  0  0
  149.7042  138.7443  158.5325 H   0  0  0  0  0  0  0  0  0  0  0  0
  152.6002  139.1203  157.8128 H   0  0  0  0  0  0  0  0  0  0  0  0
  151.7164  139.8444  159.1604 H   0  0  0  0  0  0  0  0  0  0  0  0
  153.3382  137.7591  159.6823 H   0  0  0  0  0  0  0  0  0  0  0  0
  151.7025  137.6977  160.3596 H   0  0  0  0  0  0  0  0  0  0  0  0
  1  2  2  0  0  0  0
  2  3  1  0  0  0  0
  2  7  1  0  0  0  0
  3  4  1  0  0  0  0
  3 29  1  0  0  0  0
  4  6  1  0  0  0  0
  4  5  1  0  0  0  0
  4 30  1  0  0  0  0
  5  6  1  0  0  0  0
  5 31  1  0  0  0  0
  5 32  1  0  0  0  0
  6 33  1  0  0  0  0
  6 34  1  0  0  0  0
  7 11  1  0  0  0  0
  7  8  1  0  0  0  0
  7 35  1  0  0  0  0
  8  9  1  0  0  0  0
  8 36  1  0  0  0  0
  8 37  1  0  0  0  0
  9 10  1  0  0  0  0
  9 38  1  0  0  0  0
  9 39  1  0  0  0  0
 10 11  1  0  0  0  0
 10 40  1  0  0  0  0
 10 41  1  0  0  0  0
 11 12  1  0  0  0  0
 12 17  1  0  0  0  0
 12 13  2  0  0  0  0
 13 14  1  0  0  0  0
 14 15  2  0  0  0  0
 14 42  1  0  0  0  0
 15 16  1  0  0  0  0
 16 20  1  0  0  0  0
 16 17  2  0  0  0  0
 17 18  1  0  0  0  0
 18 19  2  0  0  0  0
 19 20  1  0  0  0  0
 19 43  1  0  0  0  0
 20 21  1  0  0  0  0
 21 22  1  0  0  0  0
 21 44  1  0  0  0  0
 21 45  1  0  0  0  0
 22 23  1  0  0  0  0
 22 24  1  0  0  0  0
 22 46  1  0  0  0  0
 23 47  1  0  0  0  0
 24 28  1  0  0  0  0
 24 25  1  0  0  0  0
 24 48  1  0  0  0  0
 25 26  1  0  0  0  0
 25 49  1  0  0  0  0
 25 50  1  0  0  0  0
 26 27  1  0  0  0  0
 26 51  1  0  0  0  0
 26 52  1  0  0  0  0
 27 28  1  0  0  0  0
 27 53  1  0  0  0  0
 27 54  1  0  0  0  0
M  END
> <s_m_source_file>
AV-unprocessed.smi

> <i_m_source_file_index>
235

> <i_lp_mmshare_version>
43012

> <i_f3d_flags>
0

> <s_epik_input>
W0NIMl0xW0NIMl1bQ0hdMVtOSF1DKD1PKVtDQEBIXTJbQ0gyXVtDSDJdW0NIMl1OMmMobltjSF1uMyljKGMzNCluW2NIXW40W0NIMl1bQ0BIXShbT0hdKVtDQEBIXTVbQ0gyXVtDSDJdW0NIMl1PNQ==

> <s_epik_cmdline>
J2VwaWtfcHl0aG9uJywgJy1waCcsICc3LjAnLCAnLXRuJywgJzgnLCAnLW1hJywgJzIwMCcsICctbWV0YWxfYmluZGluZycsICctaW1hZScsICc8aW5maWxlLm1hZT4nLCAnLW9tYWUnLCAnPG91dGZpbGUubWFlPic=

> <r_lp_tautomer_probability>
1

> <r_epik_Ionization_Penalty>
0.000526714

> <r_epik_Ionization_Penalty_Charging>
0

> <r_epik_Ionization_Penalty_Neutral>
0.000526714

> <r_epik_State_Penalty>
0.000272704

> <r_epik_Charging_Adjusted_Penalty>
0.000272704

> <i_epik_Tot_Q>
0

> <i_epik_Tot_abs_Q>
0

> <r_epik_Metal_State_Penalty>
-0

> <b_epik_Metal_Only>
0

> <s_lp_Force_Field>
OPLS_2005

> <r_lp_Energy>
63.4887

> <b_lp_Chiralities_Consistent>
1

> <s_lp_Variant>
AV-unprocessed.smi:235-1

> <Gold.Version>
5.8.1

> <Gold.Id.Protein>
6NUR|6NUR_protein|mol2

> <Gold.PLP.Fitness>
47.0756

> <Gold.PLP.PLP>
-41.3450

> <Gold.PLP.part.hbond>
-3.0000

> <Gold.PLP.part.metal>
0.0000

> <Gold.PLP.part.buried>
-6.9157

> <Gold.PLP.part.nonpolar>
-34.9604

> <Gold.PLP.part.repulsive>
3.9684

> <Gold.PLP.ligand.clash>
0.0000

> <Gold.PLP.ligand.torsion>
1.0502

> <Gold.PLP.Chemscore.Hbond>
2.4880

> <Gold.PLP.Chemscore.CHOScore>
0.0395

> <Gold.PLP.Chemscore.Metal>
0.0000

> <Gold.Chemscore.Hbonds>
donor molecule, donor type, donor heavy atom, donor atom, acceptor molecule, acceptor atom, score
      L1  H     3    29       P1 10747  0.80
      P1  H  6896  6909       L1    28  0.70
      P1  H 10752 10764       L1    23  1.00
      L1  C    19    43       P1  7948  0.04

> <Gold.PLP.Chemscore.Internal.Correction>
0.2484

> <Gold.Rescore>
     Score         DG    S(hbond)    S(metal)    S(lipo)     H(rot)  DE(clash)    DE(int)     intcor
      9.34     -12.94       1.73        0.00      79.88       3.00       0.17       3.43       ----

> <Gold.Chemscore.Fitness>
9.3414

> <Gold.Chemscore.DG>
-12.9396

> <Gold.Chemscore.ZeroCoef>
-5.4800

> <Gold.Chemscore.Hbond>
1.7336

> <Gold.Chemscore.Metal>
0.0000

> <Gold.Chemscore.Lipo>
79.8847

> <Gold.Chemscore.Internal_Hbond>
0.0000

> <Gold.Chemscore.DEClash>
0.1709

> <Gold.Chemscore.DEInternal>
3.4273

> <Gold.Chemscore.Rot>
2.9989

> <Gold.Chemscore.Internal.Correction>
   9.000000E+99

> <Gold.Chemscore.Hbonds>
donor molecule, donor type, donor heavy atom, donor atom, acceptor molecule, acceptor atom, score
      L1  H     3    29       P1 10747  0.74
      P1  H  6896  6909       L1    28  0.15
      P1  H 10752 10764       L1    23  0.70

> <Gold.Chemscore.Hbond.Weighted>
-5.7903

> <Gold.Chemscore.Metal.Weighted>
-0.0000

> <Gold.Chemscore.Lipo.Weighted>
-9.3465

> <Gold.Chemscore.Internal_Hbond.Weighted>
0.0000

> <Gold.Chemscore.DEClash.Weighted>
0.1709

> <Gold.Chemscore.DEInternal.Weighted>
3.4273

> <Gold.Chemscore.Rot.Weighted>
7.6772

> <Gold.Chemscore.Internal.Correction.Weighted>
   9.000000E+99

> <Gold.Protein.RotatedTorsions>
[ 6907 6896 6895 6894 ] final  117.65 input  -60.11 | X-H torsion
[ 7974 7965 7964 7962 ] final  147.23 input  175.53 | X-H torsion
[ 8008 7997 7996 7995 ] final  121.39 input   59.86 | X-H torsion
[ 10167 10162 10161 10158 ] final   91.98 input  -65.29 | X-H torsion
[ 10718 10713 10712 10709 ] final  105.75 input   66.30 | X-H torsion
[ 10763 10752 10751 10750 ] final  -44.10 input  -60.55 | X-H torsion
[ 11005 11000 10999 10996 ] final  158.74 input  -57.11 | X-H torsion

> <Gold.Protein.ActiveResidues>
 VAL166  LYS551  ARG553  GLY616  TRP617  ASP618  TYR619  PRO620  LYS621  CYS622 
 ASP623  PHE694  ASN695  SER759  ASP760  ASP761  ALA762  ILE779  LEU786  VAL792 
 PHE793  MET794  SER795  GLU796  ALA797  LYS798  CYS799  TRP800  GLU811  SER814 

> <Gold.Protein.RotatedAtoms>
  152.4597  133.7796  159.6843 H   0  0  0  0  0  0  0  0  0  0  0  0  # atno 6907 bound_to 6896
  150.8536  133.7739  159.3023 H   0  0  0  0  0  0  0  0  0  0  0  0  # atno 6908 bound_to 6896
  151.5326  135.1071  159.9958 H   0  0  0  0  0  0  0  0  0  0  0  0  # atno 6909 bound_to 6896
  144.8608  139.6003  143.5931 H   0  0  0  0  0  0  0  0  0  0  0  0  # atno 7974 bound_to 7965
  156.2684  140.2809  156.1301 H   0  0  0  0  0  0  0  0  0  0  0  0  # atno 8008 bound_to 7997
  155.1064  140.0390  157.2729 H   0  0  0  0  0  0  0  0  0  0  0  0  # atno 8009 bound_to 7997
  154.6776  140.2601  155.6947 H   0  0  0  0  0  0  0  0  0  0  0  0  # atno 8010 bound_to 7997
  139.8322  144.6682  150.9386 H   0  0  0  0  0  0  0  0  0  0  0  0  # atno 10167 bound_to 10162
  157.6694  131.0835  150.5904 H   0  0  0  0  0  0  0  0  0  0  0  0  # atno 10718 bound_to 10713
  154.0064  135.6687  153.4762 H   0  0  0  0  0  0  0  0  0  0  0  0  # atno 10763 bound_to 10752
  153.0640  135.5011  154.8154 H   0  0  0  0  0  0  0  0  0  0  0  0  # atno 10764 bound_to 10752
  154.7022  135.3081  154.9288 H   0  0  0  0  0  0  0  0  0  0  0  0  # atno 10765 bound_to 10752
  140.1894  134.8418  157.2895 H   0  0  0  0  0  0  0  0  0  0  0  0  # atno 11005 bound_to 11000
  146.2859  139.7002  142.9196 LP  0  0  0  0  0  0  0  0  0  0  0  0  # atno 17320 bound_to 7965
  145.4316  141.0415  143.2907 LP  0  0  0  0  0  0  0  0  0  0  0  0  # atno 17321 bound_to 7965
  140.7805  143.3990  151.1180 LP  0  0  0  0  0  0  0  0  0  0  0  0  # atno 17342 bound_to 10162
  139.7643  143.8588  152.3107 LP  0  0  0  0  0  0  0  0  0  0  0  0  # atno 17343 bound_to 10162
  156.6204  130.4404  149.5824 LP  0  0  0  0  0  0  0  0  0  0  0  0  # atno 17370 bound_to 10713
  156.2360  130.6823  151.1510 LP  0  0  0  0  0  0  0  0  0  0  0  0  # atno 17371 bound_to 10713
  140.2177  134.4062  155.7581 LP  0  0  0  0  0  0  0  0  0  0  0  0  # atno 17394 bound_to 11000
  141.2226  133.7150  156.8440 LP  0  0  0  0  0  0  0  0  0  0  0  0  # atno 17395 bound_to 11000

$$$$
