AV-unprocessed.smi:2674|AV-procd|sdf|10358|dock7
  -GOLD-   2272014383D 1   1.00000     0.00000
 Structure written by MMmdl.
 45 46  0  0  0  0  0  0  0  0  2 V2000
  147.5207  141.6633  153.7705 C   0  0  0  0  0  0  0  0  0  0  0  0
  148.3122  140.4130  153.6427 N   0  3  2  0  0  0  0  0  0  0  0  0
  147.4996  139.2290  154.0326 C   0  0  0  0  0  0  0  0  0  0  0  0
  146.4812  138.8623  152.9381 C   0  0  0  0  0  0  0  0  0  0  0  0
  146.6822  137.5036  152.4477 N   0  0  0  0  0  0  0  0  0  0  0  0
  145.7014  136.6139  152.2366 C   0  0  0  0  0  0  0  0  0  0  0  0
  144.5111  136.8645  152.4281 O   0  0  0  0  0  0  0  0  0  0  0  0
  146.1908  135.4410  151.7972 N   0  0  0  0  0  0  0  0  0  0  0  0
  145.4731  134.2646  151.4525 C   0  0  0  0  0  0  0  0  0  0  0  0
  146.2754  133.1470  151.1283 C   0  0  0  0  0  0  0  0  0  0  0  0
  145.6593  131.9324  150.7699 C   0  0  0  0  0  0  0  0  0  0  0  0
  144.2550  131.8665  150.7443 C   0  0  0  0  0  0  0  0  0  0  0  0
  143.5307  133.0250  151.0800 C   0  0  0  0  0  0  0  0  0  0  0  0
  144.1189  134.1904  151.4238 N   0  0  0  0  0  0  0  0  0  0  0  0
  149.6592  140.4375  154.2970 C   0  0  0  0  0  0  0  0  0  0  0  0
  150.3284  139.0419  154.4157 C   0  0  0  0  0  0  0  0  0  0  0  0
  151.6919  139.1124  155.1232 C   0  0  0  0  0  0  0  0  0  0  0  0
  151.5705  139.7529  156.5116 C   0  0  0  0  0  0  0  0  0  0  0  0
  150.9179  141.1378  156.4155 C   0  0  0  0  0  0  0  0  0  0  0  0
  149.5540  141.0616  155.7120 C   0  0  0  0  0  0  0  0  0  0  0  0
  147.3812  141.9323  154.8183 H   0  0  0  0  0  0  0  0  0  0  0  0
  146.5339  141.5508  153.3214 H   0  0  0  0  0  0  0  0  0  0  0  0
  148.0000  142.4952  153.2549 H   0  0  0  0  0  0  0  0  0  0  0  0
  148.1370  138.3656  154.2193 H   0  0  0  0  0  0  0  0  0  0  0  0
  146.9938  139.4189  154.9810 H   0  0  0  0  0  0  0  0  0  0  0  0
  145.4639  138.9298  153.3228 H   0  0  0  0  0  0  0  0  0  0  0  0
  146.5450  139.5679  152.1077 H   0  0  0  0  0  0  0  0  0  0  0  0
  147.6335  137.2179  152.2664 H   0  0  0  0  0  0  0  0  0  0  0  0
  147.1933  135.3807  151.6972 H   0  0  0  0  0  0  0  0  0  0  0  0
  147.3535  133.2145  151.1529 H   0  0  0  0  0  0  0  0  0  0  0  0
  146.2547  131.0669  150.5189 H   0  0  0  0  0  0  0  0  0  0  0  0
  143.7463  130.9528  150.4747 H   0  0  0  0  0  0  0  0  0  0  0  0
  142.4508  133.0164  151.0722 H   0  0  0  0  0  0  0  0  0  0  0  0
  150.3145  141.0579  153.6824 H   0  0  0  0  0  0  0  0  0  0  0  0
  149.6744  138.3605  154.9619 H   0  0  0  0  0  0  0  0  0  0  0  0
  150.4920  138.6018  153.4320 H   0  0  0  0  0  0  0  0  0  0  0  0
  152.1160  138.1120  155.2134 H   0  0  0  0  0  0  0  0  0  0  0  0
  152.3899  139.6890  154.5148 H   0  0  0  0  0  0  0  0  0  0  0  0
  150.9762  139.1100  157.1624 H   0  0  0  0  0  0  0  0  0  0  0  0
  152.5552  139.8353  156.9727 H   0  0  0  0  0  0  0  0  0  0  0  0
  150.7980  141.5599  157.4135 H   0  0  0  0  0  0  0  0  0  0  0  0
  151.5739  141.8167  155.8693 H   0  0  0  0  0  0  0  0  0  0  0  0
  149.1309  142.0648  155.6768 H   0  0  0  0  0  0  0  0  0  0  0  0
  148.8690  140.4698  156.3210 H   0  0  0  0  0  0  0  0  0  0  0  0
  148.5019  140.3097  152.6559 H   0  0  0  0  0  0  0  0  0  0  0  0
  1  2  1  0  0  0  0
  1 21  1  0  0  0  0
  1 22  1  0  0  0  0
  1 23  1  0  0  0  0
  2  3  1  0  0  0  0
  2 15  1  0  0  0  0
  2 45  1  0  0  0  0
  3  4  1  0  0  0  0
  3 24  1  0  0  0  0
  3 25  1  0  0  0  0
  4  5  1  0  0  0  0
  4 26  1  0  0  0  0
  4 27  1  0  0  0  0
  5  6  1  0  0  0  0
  5 28  1  0  0  0  0
  6  7  2  0  0  0  0
  6  8  1  0  0  0  0
  8  9  1  0  0  0  0
  8 29  1  0  0  0  0
  9 14  1  0  0  0  0
  9 10  2  0  0  0  0
 10 11  1  0  0  0  0
 10 30  1  0  0  0  0
 11 12  2  0  0  0  0
 11 31  1  0  0  0  0
 12 13  1  0  0  0  0
 12 32  1  0  0  0  0
 13 14  2  0  0  0  0
 13 33  1  0  0  0  0
 15 20  1  0  0  0  0
 15 16  1  0  0  0  0
 15 34  1  0  0  0  0
 16 17  1  0  0  0  0
 16 35  1  0  0  0  0
 16 36  1  0  0  0  0
 17 18  1  0  0  0  0
 17 37  1  0  0  0  0
 17 38  1  0  0  0  0
 18 19  1  0  0  0  0
 18 39  1  0  0  0  0
 18 40  1  0  0  0  0
 19 20  1  0  0  0  0
 19 41  1  0  0  0  0
 19 42  1  0  0  0  0
 20 43  1  0  0  0  0
 20 44  1  0  0  0  0
M  CHG  1   2   1
M  END
> <s_m_source_file>
AV-unprocessed.smi

> <i_m_source_file_index>
2674

> <i_lp_mmshare_version>
43012

> <i_f3d_flags>
0

> <s_epik_input>
W0NIMl0xW0NIMl1bQ0gyXVtDSDJdW0NIMl1bQ0hdMU4oW0NIM10pW0NIMl1bQ0gyXVtOSF1DKD1PKVtOSF1jMltjSF1bY0hdW2NIXVtjSF1uMg==

> <s_epik_cmdline>
J2VwaWtfcHl0aG9uJywgJy1waCcsICc3LjAnLCAnLXRuJywgJzgnLCAnLW1hJywgJzIwMCcsICctbWV0YWxfYmluZGluZycsICctaW1hZScsICc8aW5maWxlLm1hZT4nLCAnLW9tYWUnLCAnPG91dGZpbGUubWFlPic=

> <r_epik_Ionization_Penalty>
0.00206741

> <r_epik_Ionization_Penalty_Charging>
0.00203269

> <r_epik_Ionization_Penalty_Neutral>
3.47205e-05

> <r_epik_State_Penalty>
0.00139005

> <r_epik_Charging_Adjusted_Penalty>
0.00342273

> <i_epik_Tot_Q>
1

> <i_epik_Tot_abs_Q>
1

> <r_epik_Metal_State_Penalty>
-0

> <b_epik_Metal_Only>
0

> <s_lp_Force_Field>
OPLS_2005

> <r_lp_Energy>
21.2235

> <b_lp_Chiralities_Consistent>
1

> <s_lp_Variant>
AV-unprocessed.smi:2674-1

> <Gold.Version>
5.8.1

> <Gold.Id.Protein>
6NUR|6NUR_protein|mol2

> <Gold.PLP.Fitness>
50.2351

> <Gold.PLP.PLP>
-40.1883

> <Gold.PLP.part.hbond>
-3.0000

> <Gold.PLP.part.metal>
0.0000

> <Gold.PLP.part.buried>
-3.4957

> <Gold.PLP.part.nonpolar>
-34.6499

> <Gold.PLP.part.repulsive>
0.6374

> <Gold.PLP.ligand.clash>
0.0000

> <Gold.PLP.ligand.torsion>
1.0220

> <Gold.PLP.Chemscore.Hbond>
3.0000

> <Gold.PLP.Chemscore.CHOScore>
0.9989

> <Gold.PLP.Chemscore.Metal>
0.0000

> <Gold.Chemscore.Hbonds>
donor molecule, donor type, donor heavy atom, donor atom, acceptor molecule, acceptor atom, score
      L1  H     2    45       P1  7957  1.00
      L1  H     5    28       P1  7948  1.00
      L1  H     8    29       P1  7948  1.00
      L1  C    13    33       P1 10186  0.91

> <Gold.PLP.Chemscore.Internal.Correction>
0.0943

> <Gold.Rescore>
     Score         DG    S(hbond)    S(metal)    S(lipo)     H(rot)  DE(clash)    DE(int)     intcor
     19.59     -21.99       2.86        0.00      96.74       1.70       0.24       2.16       ----

> <Gold.Chemscore.Fitness>
19.5929

> <Gold.Chemscore.DG>
-21.9941

> <Gold.Chemscore.ZeroCoef>
-5.4800

> <Gold.Chemscore.Hbond>
2.8609

> <Gold.Chemscore.Metal>
0.0000

> <Gold.Chemscore.Lipo>
96.7370

> <Gold.Chemscore.Internal_Hbond>
0.0000

> <Gold.Chemscore.DEClash>
0.2408

> <Gold.Chemscore.DEInternal>
2.1604

> <Gold.Chemscore.Rot>
1.7030

> <Gold.Chemscore.Internal.Correction>
   9.000000E+99

> <Gold.Chemscore.Hbonds>
donor molecule, donor type, donor heavy atom, donor atom, acceptor molecule, acceptor atom, score
      L1  H     2    45       P1  7957  0.98
      L1  H     5    28       P1  7948  0.99
      L1  H     8    29       P1  7948  0.93

> <Gold.Chemscore.Hbond.Weighted>
-9.5555

> <Gold.Chemscore.Metal.Weighted>
-0.0000

> <Gold.Chemscore.Lipo.Weighted>
-11.3182

> <Gold.Chemscore.Internal_Hbond.Weighted>
0.0000

> <Gold.Chemscore.DEClash.Weighted>
0.2408

> <Gold.Chemscore.DEInternal.Weighted>
2.1604

> <Gold.Chemscore.Rot.Weighted>
4.3597

> <Gold.Chemscore.Internal.Correction.Weighted>
   9.000000E+99

> <Gold.Protein.RotatedTorsions>
[ 6907 6896 6895 6894 ] final  105.00 input  -60.11 | X-H torsion
[ 7974 7965 7964 7962 ] final  136.15 input  175.53 | X-H torsion
[ 8008 7997 7996 7995 ] final -147.96 input   59.86 | X-H torsion
[ 10167 10162 10161 10158 ] final   -9.45 input  -65.29 | X-H torsion
[ 10718 10713 10712 10709 ] final  -75.17 input   66.30 | X-H torsion
[ 10763 10752 10751 10750 ] final   14.92 input  -60.55 | X-H torsion
[ 11005 11000 10999 10996 ] final  135.98 input  -57.11 | X-H torsion

> <Gold.Protein.ActiveResidues>
 VAL166  LYS551  ARG553  GLY616  TRP617  ASP618  TYR619  PRO620  LYS621  CYS622 
 ASP623  PHE694  ASN695  SER759  ASP760  ASP761  ALA762  ILE779  LEU786  VAL792 
 PHE793  MET794  SER795  GLU796  ALA797  LYS798  CYS799  TRP800  GLU811  SER814 

> <Gold.Protein.RotatedAtoms>
  152.5245  133.9594  159.7709 H   0  0  0  0  0  0  0  0  0  0  0  0  # atno 6907 bound_to 6896
  150.9888  133.6163  159.2718 H   0  0  0  0  0  0  0  0  0  0  0  0  # atno 6908 bound_to 6896
  151.3314  135.0848  159.9393 H   0  0  0  0  0  0  0  0  0  0  0  0  # atno 6909 bound_to 6896
  144.9593  139.4728  143.5487 H   0  0  0  0  0  0  0  0  0  0  0  0  # atno 7974 bound_to 7965
  155.5840  140.0646  157.2776 H   0  0  0  0  0  0  0  0  0  0  0  0  # atno 8008 bound_to 7997
  154.4324  140.1847  156.1052 H   0  0  0  0  0  0  0  0  0  0  0  0  # atno 8009 bound_to 7997
  156.0283  140.3309  155.7116 H   0  0  0  0  0  0  0  0  0  0  0  0  # atno 8010 bound_to 7997
  140.7088  143.5856  150.8946 H   0  0  0  0  0  0  0  0  0  0  0  0  # atno 10167 bound_to 10162
  156.0217  130.4434  150.3002 H   0  0  0  0  0  0  0  0  0  0  0  0  # atno 10718 bound_to 10713
  153.1575  135.6790  153.8790 H   0  0  0  0  0  0  0  0  0  0  0  0  # atno 10763 bound_to 10752
  153.8197  135.3132  155.3410 H   0  0  0  0  0  0  0  0  0  0  0  0  # atno 10764 bound_to 10752
  154.7908  135.4835  154.0137 H   0  0  0  0  0  0  0  0  0  0  0  0  # atno 10765 bound_to 10752
  140.0015  134.9476  157.0083 H   0  0  0  0  0  0  0  0  0  0  0  0  # atno 11005 bound_to 11000
  146.3348  139.8732  142.8836 LP  0  0  0  0  0  0  0  0  0  0  0  0  # atno 17320 bound_to 7965
  145.2724  141.0113  143.3764 LP  0  0  0  0  0  0  0  0  0  0  0  0  # atno 17321 bound_to 7965
  139.9582  143.6194  152.3010 LP  0  0  0  0  0  0  0  0  0  0  0  0  # atno 17342 bound_to 10162
  139.6737  144.7659  151.1735 LP  0  0  0  0  0  0  0  0  0  0  0  0  # atno 17343 bound_to 10162
  157.1105  131.0220  151.3050 LP  0  0  0  0  0  0  0  0  0  0  0  0  # atno 17370 bound_to 10713
  157.4708  130.7708  149.7322 LP  0  0  0  0  0  0  0  0  0  0  0  0  # atno 17371 bound_to 10713
  140.4718  134.1378  155.7204 LP  0  0  0  0  0  0  0  0  0  0  0  0  # atno 17394 bound_to 11000
  141.1645  133.8728  157.1753 LP  0  0  0  0  0  0  0  0  0  0  0  0  # atno 17395 bound_to 11000

$$$$
