AV-unprocessed.smi:475|AV-procd|sdf|2667|dock4
  -GOLD-   2262023 83D 1   1.00000     0.00000
 Structure written by MMmdl.
 39 41  0  0  0  0  0  0  0  0  1 V2000
  151.8881  138.7864  154.7749 C   0  0  0  0  0  0  0  0  0  0  0  0
  151.0357  139.9164  154.7182 O   0  0  0  0  0  0  0  0  0  0  0  0
  151.2476  140.8125  155.7971 C   0  0  0  0  0  0  0  0  0  0  0  0
  150.9067  140.1189  157.1244 C   0  0  0  0  0  0  0  0  0  0  0  0
  151.5486  140.7602  158.2628 N   0  0  0  0  0  0  0  0  0  0  0  0
  152.0783  140.1672  159.3601 C   0  0  0  0  0  0  0  0  0  0  0  0
  152.0552  138.4150  159.5633 S   0  0  0  0  0  0  0  0  0  0  0  0
  153.7058  138.1981  160.2880 C   0  0  0  0  0  0  0  0  0  0  0  0
  153.8983  136.7537  160.7390 C   0  0  0  0  0  0  0  0  0  0  0  0
  153.9284  135.8530  159.9008 O   0  0  0  0  0  0  0  0  0  0  0  0
  154.0442  136.4990  162.1699 C   0  0  0  0  0  0  0  0  0  0  0  0
  153.8493  137.2855  163.2737 C   0  0  0  0  0  0  0  0  0  0  0  0
  154.1516  136.5015  164.4268 C   0  0  0  0  0  0  0  0  0  0  0  0
  154.5211  135.2543  164.0026 C   0  0  0  0  0  0  0  0  0  0  0  0
  154.4517  135.2622  162.6258 N   0  0  0  0  0  0  0  0  0  0  0  0
  152.6112  140.9937  160.2615 N   0  0  0  0  0  0  0  0  0  0  0  0
  152.4168  142.2359  159.6906 C   0  0  0  0  0  0  0  0  0  0  0  0
  152.7666  143.5244  160.1542 C   0  0  0  0  0  0  0  0  0  0  0  0
  152.4647  144.6662  159.3837 C   0  0  0  0  0  0  0  0  0  0  0  0
  151.8111  144.5364  158.1412 C   0  0  0  0  0  0  0  0  0  0  0  0
  151.4530  143.2618  157.6614 C   0  0  0  0  0  0  0  0  0  0  0  0
  151.7550  142.1253  158.4355 C   0  0  0  0  0  0  0  0  0  0  0  0
  154.6697  134.4751  162.0311 H   0  0  0  0  0  0  0  0  0  0  0  0
  151.6844  138.1318  153.9278 H   0  0  0  0  0  0  0  0  0  0  0  0
  151.7248  138.2147  155.6893 H   0  0  0  0  0  0  0  0  0  0  0  0
  152.9374  139.0797  154.7285 H   0  0  0  0  0  0  0  0  0  0  0  0
  152.2873  141.1425  155.8108 H   0  0  0  0  0  0  0  0  0  0  0  0
  150.6289  141.7014  155.6686 H   0  0  0  0  0  0  0  0  0  0  0  0
  149.8277  140.1307  157.2808 H   0  0  0  0  0  0  0  0  0  0  0  0
  151.1982  139.0687  157.0939 H   0  0  0  0  0  0  0  0  0  0  0  0
  154.4720  138.4393  159.5511 H   0  0  0  0  0  0  0  0  0  0  0  0
  153.8314  138.8809  161.1287 H   0  0  0  0  0  0  0  0  0  0  0  0
  153.5256  138.3161  163.2587 H   0  0  0  0  0  0  0  0  0  0  0  0
  154.1026  136.8188  165.4579 H   0  0  0  0  0  0  0  0  0  0  0  0
  154.8240  134.3704  164.5443 H   0  0  0  0  0  0  0  0  0  0  0  0
  153.2689  143.6343  161.1038 H   0  0  0  0  0  0  0  0  0  0  0  0
  152.7370  145.6464  159.7470 H   0  0  0  0  0  0  0  0  0  0  0  0
  151.5850  145.4157  157.5559 H   0  0  0  0  0  0  0  0  0  0  0  0
  150.9551  143.1599  156.7088 H   0  0  0  0  0  0  0  0  0  0  0  0
  1  2  1  0  0  0  0
  1 24  1  0  0  0  0
  1 25  1  0  0  0  0
  1 26  1  0  0  0  0
  2  3  1  0  0  0  0
  3  4  1  0  0  0  0
  3 27  1  0  0  0  0
  3 28  1  0  0  0  0
  4  5  1  0  0  0  0
  4 29  1  0  0  0  0
  4 30  1  0  0  0  0
  5 22  1  0  0  0  0
  5  6  1  0  0  0  0
  6  7  1  0  0  0  0
  6 16  2  0  0  0  0
  7  8  1  0  0  0  0
  8  9  1  0  0  0  0
  8 31  1  0  0  0  0
  8 32  1  0  0  0  0
  9 10  2  0  0  0  0
  9 11  1  0  0  0  0
 11 15  1  0  0  0  0
 11 12  2  0  0  0  0
 12 13  1  0  0  0  0
 12 33  1  0  0  0  0
 13 14  2  0  0  0  0
 13 34  1  0  0  0  0
 14 15  1  0  0  0  0
 14 35  1  0  0  0  0
 15 23  1  0  0  0  0
 16 17  1  0  0  0  0
 17 22  2  0  0  0  0
 17 18  1  0  0  0  0
 18 19  2  0  0  0  0
 18 36  1  0  0  0  0
 19 20  1  0  0  0  0
 19 37  1  0  0  0  0
 20 21  2  0  0  0  0
 20 38  1  0  0  0  0
 21 22  1  0  0  0  0
 21 39  1  0  0  0  0
M  END
> <s_m_source_file>
AV-unprocessed.smi

> <i_m_source_file_index>
475

> <i_lp_mmshare_version>
43012

> <i_f3d_flags>
0

> <s_epik_input>
W2NIXTFbY0hdW2NIXVtjSF1jKGMxMiluKFtDSDJdW0NIMl1PW0NIM10pYyhuMilTW0NIMl1DKD1PKWMzW2NIXVtjSF1bY0hdW25IXTM=

> <s_epik_cmdline>
J2VwaWtfcHl0aG9uJywgJy1waCcsICc3LjAnLCAnLXRuJywgJzgnLCAnLW1hJywgJzIwMCcsICctbWV0YWxfYmluZGluZycsICctaW1hZScsICc8aW5maWxlLm1hZT4nLCAnLW9tYWUnLCAnPG91dGZpbGUubWFlPic=

> <r_lp_tautomer_probability>
0.9999

> <r_epik_Ionization_Penalty>
0.016511

> <r_epik_Ionization_Penalty_Charging>
0

> <r_epik_Ionization_Penalty_Neutral>
0.016511

> <r_epik_State_Penalty>
0.0130354

> <r_epik_Charging_Adjusted_Penalty>
0.0130354

> <i_epik_Tot_Q>
0

> <i_epik_Tot_abs_Q>
0

> <r_epik_Metal_State_Penalty>
0.0126412

> <b_epik_Metal_Only>
0

> <s_lp_Force_Field>
OPLS_2005

> <r_lp_Energy>
12.6628

> <b_lp_Chiralities_Consistent>
1

> <s_lp_Variant>
AV-unprocessed.smi:475-1

> <Gold.Version>
5.8.1

> <Gold.Id.Protein>
6NUR|6NUR_protein|mol2

> <Gold.PLP.Fitness>
55.4027

> <Gold.PLP.PLP>
-51.1292

> <Gold.PLP.part.hbond>
-2.0000

> <Gold.PLP.part.metal>
0.0000

> <Gold.PLP.part.buried>
-5.6540

> <Gold.PLP.part.nonpolar>
-43.5048

> <Gold.PLP.part.repulsive>
0.1240

> <Gold.PLP.ligand.clash>
0.0000

> <Gold.PLP.ligand.torsion>
0.8231

> <Gold.PLP.Chemscore.Hbond>
1.9500

> <Gold.PLP.Chemscore.CHOScore>
0.0000

> <Gold.PLP.Chemscore.Metal>
0.0000

> <Gold.Chemscore.Hbonds>
donor molecule, donor type, donor heavy atom, donor atom, acceptor molecule, acceptor atom, score
      P1  H  6896  6908       L1    10  1.00
      P1  H  7989  7998       L1     2  0.90

> <Gold.PLP.Chemscore.Internal.Correction>
0.0697

> <Gold.Rescore>
     Score         DG    S(hbond)    S(metal)    S(lipo)     H(rot)  DE(clash)    DE(int)     intcor
     19.67     -20.34       1.32        0.00     133.77       2.03       0.01       0.66       ----

> <Gold.Chemscore.Fitness>
19.6746

> <Gold.Chemscore.DG>
-20.3416

> <Gold.Chemscore.ZeroCoef>
-5.4800

> <Gold.Chemscore.Hbond>
1.3230

> <Gold.Chemscore.Metal>
0.0000

> <Gold.Chemscore.Lipo>
133.7721

> <Gold.Chemscore.Internal_Hbond>
0.0000

> <Gold.Chemscore.DEClash>
0.0110

> <Gold.Chemscore.DEInternal>
0.6560

> <Gold.Chemscore.Rot>
2.0346

> <Gold.Chemscore.Internal.Correction>
   9.000000E+99

> <Gold.Chemscore.Hbonds>
donor molecule, donor type, donor heavy atom, donor atom, acceptor molecule, acceptor atom, score
      P1  H  6896  6908       L1    10  0.92
      P1  H  7989  7998       L1     2  0.09

> <Gold.Chemscore.Hbond.Weighted>
-4.4189

> <Gold.Chemscore.Metal.Weighted>
-0.0000

> <Gold.Chemscore.Lipo.Weighted>
-15.6513

> <Gold.Chemscore.Internal_Hbond.Weighted>
0.0000

> <Gold.Chemscore.DEClash.Weighted>
0.0110

> <Gold.Chemscore.DEInternal.Weighted>
0.6560

> <Gold.Chemscore.Rot.Weighted>
5.2087

> <Gold.Chemscore.Internal.Correction.Weighted>
   9.000000E+99

> <Gold.Protein.RotatedTorsions>
[ 6907 6896 6895 6894 ] final  -54.77 input  -60.11 | X-H torsion
[ 7974 7965 7964 7962 ] final -105.14 input  175.53 | X-H torsion
[ 8008 7997 7996 7995 ] final   87.62 input   59.86 | X-H torsion
[ 10167 10162 10161 10158 ] final   -8.88 input  -65.29 | X-H torsion
[ 10718 10713 10712 10709 ] final  -74.09 input   66.30 | X-H torsion
[ 10763 10752 10751 10750 ] final   62.17 input  -60.55 | X-H torsion
[ 11005 11000 10999 10996 ] final -164.15 input  -57.11 | X-H torsion

> <Gold.Protein.ActiveResidues>
 VAL166  LYS551  ARG553  GLY616  TRP617  ASP618  TYR619  PRO620  LYS621  CYS622 
 ASP623  PHE694  ASN695  SER759  ASP760  ASP761  ALA762  ILE779  LEU786  VAL792 
 PHE793  MET794  SER795  GLU796  ALA797  LYS798  CYS799  TRP800  GLU811  SER814 

> <Gold.Protein.RotatedAtoms>
  150.8309  134.7561  159.6852 H   0  0  0  0  0  0  0  0  0  0  0  0  # atno 6907 bound_to 6896
  152.4413  134.5581  159.9896 H   0  0  0  0  0  0  0  0  0  0  0  0  # atno 6908 bound_to 6896
  151.5742  133.3348  159.3031 H   0  0  0  0  0  0  0  0  0  0  0  0  # atno 6909 bound_to 6896
  145.2342  140.9182  143.3187 H   0  0  0  0  0  0  0  0  0  0  0  0  # atno 7974 bound_to 7965
  155.9777  140.3380  155.6634 H   0  0  0  0  0  0  0  0  0  0  0  0  # atno 8008 bound_to 7997
  155.6590  140.0714  157.2578 H   0  0  0  0  0  0  0  0  0  0  0  0  # atno 8009 bound_to 7997
  154.4183  140.1712  156.1744 H   0  0  0  0  0  0  0  0  0  0  0  0  # atno 8010 bound_to 7997
  140.7072  143.5920  150.8884 H   0  0  0  0  0  0  0  0  0  0  0  0  # atno 10167 bound_to 10162
  156.0255  130.4409  150.2840 H   0  0  0  0  0  0  0  0  0  0  0  0  # atno 10718 bound_to 10713
  152.9974  135.5474  154.6150 H   0  0  0  0  0  0  0  0  0  0  0  0  # atno 10763 bound_to 10752
  154.5462  135.2823  155.1052 H   0  0  0  0  0  0  0  0  0  0  0  0  # atno 10764 bound_to 10752
  154.2310  135.6433  153.5228 H   0  0  0  0  0  0  0  0  0  0  0  0  # atno 10765 bound_to 10752
  140.5902  134.5053  157.5191 H   0  0  0  0  0  0  0  0  0  0  0  0  # atno 11005 bound_to 11000
  144.9648  139.3942  143.6338 LP  0  0  0  0  0  0  0  0  0  0  0  0  # atno 17320 bound_to 7965
  146.3345  139.8718  142.8839 LP  0  0  0  0  0  0  0  0  0  0  0  0  # atno 17321 bound_to 7965
  139.9645  143.6126  152.2992 LP  0  0  0  0  0  0  0  0  0  0  0  0  # atno 17342 bound_to 10162
  139.6691  144.7661  151.1817 LP  0  0  0  0  0  0  0  0  0  0  0  0  # atno 17343 bound_to 10162
  157.0944  131.0178  151.3109 LP  0  0  0  0  0  0  0  0  0  0  0  0  # atno 17370 bound_to 10713
  157.4829  130.7776  149.7431 LP  0  0  0  0  0  0  0  0  0  0  0  0  # atno 17371 bound_to 10713
  139.9278  134.8023  156.1019 LP  0  0  0  0  0  0  0  0  0  0  0  0  # atno 17394 bound_to 11000
  141.0940  133.6703  156.2603 LP  0  0  0  0  0  0  0  0  0  0  0  0  # atno 17395 bound_to 11000

$$$$
