AV-unprocessed.smi:483|AV-procd|sdf|2685|dock3
  -GOLD-   2262023113D 1   1.00000     0.00000
 Structure written by MMmdl.
 44 44  0  0  0  0  0  0  0  0  1 V2000
  152.5033  142.8789  158.9470 C   0  0  0  0  0  0  0  0  0  0  0  0
  151.3105  142.3392  158.1511 C   0  0  0  0  0  0  0  0  0  0  0  0
  150.9493  140.8968  158.5416 C   0  0  0  0  0  0  0  0  0  0  0  0
  150.6436  140.0836  157.3706 N   0  0  0  0  0  0  0  0  0  0  0  0
  151.5521  139.5929  156.5137 C   0  0  0  0  0  0  0  0  0  0  0  0
  152.7644  139.7761  156.6379 O   0  0  0  0  0  0  0  0  0  0  0  0
  151.0018  138.7502  155.3513 C   0  0  2  0  0  0  0  0  0  0  0  0
  150.0962  139.6543  154.4985 C   0  0  0  0  0  0  0  0  0  0  0  0
  150.1890  137.6445  155.8562 N   0  0  0  0  0  0  0  0  0  0  0  0
  150.3330  136.3556  155.5100 C   0  0  0  0  0  0  0  0  0  0  0  0
  151.1836  135.9638  154.7098 O   0  0  0  0  0  0  0  0  0  0  0  0
  149.3826  135.3628  156.1945 C   0  0  0  0  0  0  0  0  0  0  0  0
  149.4947  133.9959  155.6646 N   0  0  0  0  0  0  0  0  0  0  0  0
  148.6690  133.7384  154.5872 N   0  0  0  0  0  0  0  0  0  0  0  0
  148.6414  132.5759  154.0229 C   0  0  0  0  0  0  0  0  0  0  0  0
  147.6940  132.4097  152.8651 C   0  0  0  0  0  0  0  0  0  0  0  0
  149.5060  131.5099  154.5198 C   0  0  0  0  0  0  0  0  0  0  0  0
  149.4351  130.1619  153.8153 C   0  0  0  0  0  0  0  0  0  0  0  0
  150.3115  131.7747  155.5787 C   0  0  0  0  0  0  0  0  0  0  0  0
  151.1836  130.7929  156.1382 C   0  0  0  0  0  0  0  0  0  0  0  0
  151.9042  130.0000  156.5770 N   0  0  0  0  0  0  0  0  0  0  0  0
  150.3429  133.0875  156.2274 C   0  0  0  0  0  0  0  0  0  0  0  0
  151.0604  133.3599  157.1913 O   0  0  0  0  0  0  0  0  0  0  0  0
  152.7387  143.9008  158.6488 H   0  0  0  0  0  0  0  0  0  0  0  0
  153.3935  142.2708  158.7840 H   0  0  0  0  0  0  0  0  0  0  0  0
  152.2915  142.8847  160.0165 H   0  0  0  0  0  0  0  0  0  0  0  0
  150.4523  142.9932  158.3109 H   0  0  0  0  0  0  0  0  0  0  0  0
  151.5392  142.3850  157.0856 H   0  0  0  0  0  0  0  0  0  0  0  0
  151.7862  140.4332  159.0648 H   0  0  0  0  0  0  0  0  0  0  0  0
  150.1065  140.8870  159.2351 H   0  0  0  0  0  0  0  0  0  0  0  0
  149.6695  139.8836  157.1947 H   0  0  0  0  0  0  0  0  0  0  0  0
  151.8202  138.3669  154.7383 H   0  0  0  0  0  0  0  0  0  0  0  0
  150.6537  140.4956  154.0848 H   0  0  0  0  0  0  0  0  0  0  0  0
  149.2632  140.0586  155.0761 H   0  0  0  0  0  0  0  0  0  0  0  0
  149.6756  139.1013  153.6578 H   0  0  0  0  0  0  0  0  0  0  0  0
  149.4745  137.8776  156.5305 H   0  0  0  0  0  0  0  0  0  0  0  0
  149.6005  135.3724  157.2640 H   0  0  0  0  0  0  0  0  0  0  0  0
  148.3530  135.7149  156.1041 H   0  0  0  0  0  0  0  0  0  0  0  0
  148.2430  132.2596  151.9354 H   0  0  0  0  0  0  0  0  0  0  0  0
  147.0551  133.2845  152.7342 H   0  0  0  0  0  0  0  0  0  0  0  0
  147.0421  131.5491  153.0169 H   0  0  0  0  0  0  0  0  0  0  0  0
  150.2178  129.4819  154.1499 H   0  0  0  0  0  0  0  0  0  0  0  0
  149.5507  130.2795  152.7373 H   0  0  0  0  0  0  0  0  0  0  0  0
  148.4745  129.6834  154.0088 H   0  0  0  0  0  0  0  0  0  0  0  0
  1  2  1  0  0  0  0
  1 24  1  0  0  0  0
  1 25  1  0  0  0  0
  1 26  1  0  0  0  0
  2  3  1  0  0  0  0
  2 27  1  0  0  0  0
  2 28  1  0  0  0  0
  3  4  1  0  0  0  0
  3 29  1  0  0  0  0
  3 30  1  0  0  0  0
  4  5  1  0  0  0  0
  4 31  1  0  0  0  0
  5  6  2  0  0  0  0
  5  7  1  0  0  0  0
  7  8  1  0  0  0  0
  7  9  1  0  0  0  0
  7 32  1  0  0  0  0
  8 33  1  0  0  0  0
  8 34  1  0  0  0  0
  8 35  1  0  0  0  0
  9 10  1  0  0  0  0
  9 36  1  0  0  0  0
 10 11  2  0  0  0  0
 10 12  1  0  0  0  0
 12 13  1  0  0  0  0
 12 37  1  0  0  0  0
 12 38  1  0  0  0  0
 13 22  1  0  0  0  0
 13 14  1  0  0  0  0
 14 15  2  0  0  0  0
 15 16  1  0  0  0  0
 15 17  1  0  0  0  0
 16 39  1  0  0  0  0
 16 40  1  0  0  0  0
 16 41  1  0  0  0  0
 17 18  1  0  0  0  0
 17 19  2  0  0  0  0
 18 42  1  0  0  0  0
 18 43  1  0  0  0  0
 18 44  1  0  0  0  0
 19 20  1  0  0  0  0
 19 22  1  0  0  0  0
 20 21  3  0  0  0  0
 22 23  2  0  0  0  0
M  END
> <s_m_source_file>
AV-unprocessed.smi

> <i_m_source_file_index>
483

> <i_lp_mmshare_version>
43012

> <i_f3d_flags>
0

> <s_epik_input>
W0NIM11bQ0gyXVtDSDJdW05IXUMoPU8pW0NASF0oW0NIM10pW05IXUMoPU8pW0NIMl1uMW5jKFtDSDNdKWMoW0NIM10pYyhDI04pYzE9Tw==

> <s_epik_cmdline>
J2VwaWtfcHl0aG9uJywgJy1waCcsICc3LjAnLCAnLXRuJywgJzgnLCAnLW1hJywgJzIwMCcsICctbWV0YWxfYmluZGluZycsICctaW1hZScsICc8aW5maWxlLm1hZT4nLCAnLW9tYWUnLCAnPG91dGZpbGUubWFlPic=

> <r_lp_tautomer_probability>
1

> <r_epik_Ionization_Penalty>
5.96698e-08

> <r_epik_Ionization_Penalty_Charging>
1.88177e-11

> <r_epik_Ionization_Penalty_Neutral>
5.9651e-08

> <r_epik_State_Penalty>
-0

> <r_epik_Charging_Adjusted_Penalty>
1.88177e-11

> <i_epik_Tot_Q>
0

> <i_epik_Tot_abs_Q>
0

> <r_epik_Metal_State_Penalty>
-0

> <b_epik_Metal_Only>
0

> <s_lp_Force_Field>
OPLS_2005

> <r_lp_Energy>
17.9954

> <b_lp_Chiralities_Consistent>
1

> <s_lp_Variant>
AV-unprocessed.smi:483-1

> <Gold.Version>
5.8.1

> <Gold.Id.Protein>
6NUR|6NUR_protein|mol2

> <Gold.PLP.Fitness>
41.7047

> <Gold.PLP.PLP>
-35.0903

> <Gold.PLP.part.hbond>
-3.0000

> <Gold.PLP.part.metal>
0.0000

> <Gold.PLP.part.buried>
-4.2662

> <Gold.PLP.part.nonpolar>
-29.2260

> <Gold.PLP.part.repulsive>
0.3139

> <Gold.PLP.ligand.clash>
0.0000

> <Gold.PLP.ligand.torsion>
0.8999

> <Gold.PLP.Chemscore.Hbond>
2.7680

> <Gold.PLP.Chemscore.CHOScore>
0.0000

> <Gold.PLP.Chemscore.Metal>
0.0000

> <Gold.Chemscore.Hbonds>
donor molecule, donor type, donor heavy atom, donor atom, acceptor molecule, acceptor atom, score
      P1  H  6896  6908       L1    23  0.77
      P1  H  7997  8010       L1     6  1.00
      P1  H 10752 10764       L1    11  1.00

> <Gold.PLP.Chemscore.Internal.Correction>
0.1103

> <Gold.Rescore>
     Score         DG    S(hbond)    S(metal)    S(lipo)     H(rot)  DE(clash)    DE(int)     intcor
     16.06     -17.01       2.82        0.00      70.04       2.38       0.02       0.93       ----

> <Gold.Chemscore.Fitness>
16.0588

> <Gold.Chemscore.DG>
-17.0104

> <Gold.Chemscore.ZeroCoef>
-5.4800

> <Gold.Chemscore.Hbond>
2.8217

> <Gold.Chemscore.Metal>
0.0000

> <Gold.Chemscore.Lipo>
70.0417

> <Gold.Chemscore.Internal_Hbond>
0.0000

> <Gold.Chemscore.DEClash>
0.0171

> <Gold.Chemscore.DEInternal>
0.9345

> <Gold.Chemscore.Rot>
2.3785

> <Gold.Chemscore.Internal.Correction>
   9.000000E+99

> <Gold.Chemscore.Hbonds>
donor molecule, donor type, donor heavy atom, donor atom, acceptor molecule, acceptor atom, score
      P1  H  6896  6908       L1    23  0.72
      P1  H  7997  8010       L1     6  0.99
      P1  H 10752 10764       L1    11  1.00

> <Gold.Chemscore.Hbond.Weighted>
-9.4245

> <Gold.Chemscore.Metal.Weighted>
-0.0000

> <Gold.Chemscore.Lipo.Weighted>
-8.1949

> <Gold.Chemscore.Internal_Hbond.Weighted>
0.0000

> <Gold.Chemscore.DEClash.Weighted>
0.0171

> <Gold.Chemscore.DEInternal.Weighted>
0.9345

> <Gold.Chemscore.Rot.Weighted>
6.0890

> <Gold.Chemscore.Internal.Correction.Weighted>
   9.000000E+99

> <Gold.Protein.RotatedTorsions>
[ 6907 6896 6895 6894 ] final   87.45 input  -60.11 | X-H torsion
[ 7974 7965 7964 7962 ] final  -79.60 input  175.53 | X-H torsion
[ 8008 7997 7996 7995 ] final   72.73 input   59.86 | X-H torsion
[ 10167 10162 10161 10158 ] final  -93.42 input  -65.29 | X-H torsion
[ 10718 10713 10712 10709 ] final -178.80 input   66.30 | X-H torsion
[ 10763 10752 10751 10750 ] final  -61.90 input  -60.55 | X-H torsion
[ 11005 11000 10999 10996 ] final  146.70 input  -57.11 | X-H torsion

> <Gold.Protein.ActiveResidues>
 VAL166  LYS551  ARG553  GLY616  TRP617  ASP618  TYR619  PRO620  LYS621  CYS622 
 ASP623  PHE694  ASN695  SER759  ASP760  ASP761  ALA762  ILE779  LEU786  VAL792 
 PHE793  MET794  SER795  GLU796  ALA797  LYS798  CYS799  TRP800  GLU811  SER814 

> <Gold.Protein.RotatedAtoms>
  152.5411  134.2274  159.8811 H   0  0  0  0  0  0  0  0  0  0  0  0  # atno 6907 bound_to 6896
  151.2248  133.4476  159.2609 H   0  0  0  0  0  0  0  0  0  0  0  0  # atno 6908 bound_to 6896
  151.0771  134.9848  159.8393 H   0  0  0  0  0  0  0  0  0  0  0  0  # atno 6909 bound_to 6896
  145.5710  140.9466  143.1395 H   0  0  0  0  0  0  0  0  0  0  0  0  # atno 7974 bound_to 7965
  155.7732  140.3484  155.5258 H   0  0  0  0  0  0  0  0  0  0  0  0  # atno 8008 bound_to 7997
  155.8801  140.1001  157.1512 H   0  0  0  0  0  0  0  0  0  0  0  0  # atno 8009 bound_to 7997
  154.4024  140.1324  156.4173 H   0  0  0  0  0  0  0  0  0  0  0  0  # atno 8010 bound_to 7997
  140.3249  143.3028  152.0006 H   0  0  0  0  0  0  0  0  0  0  0  0  # atno 10167 bound_to 10162
  156.8496  130.9714  151.3093 H   0  0  0  0  0  0  0  0  0  0  0  0  # atno 10718 bound_to 10713
  154.2917  135.6252  153.5388 H   0  0  0  0  0  0  0  0  0  0  0  0  # atno 10763 bound_to 10752
  152.9852  135.5657  154.5383 H   0  0  0  0  0  0  0  0  0  0  0  0  # atno 10764 bound_to 10752
  154.4995  135.2871  155.1408 H   0  0  0  0  0  0  0  0  0  0  0  0  # atno 10765 bound_to 10752
  140.0815  134.9094  157.1507 H   0  0  0  0  0  0  0  0  0  0  0  0  # atno 11005 bound_to 11000
  144.7438  139.7377  143.7300 LP  0  0  0  0  0  0  0  0  0  0  0  0  # atno 17320 bound_to 7965
  146.1784  139.4965  142.9882 LP  0  0  0  0  0  0  0  0  0  0  0  0  # atno 17321 bound_to 7965
  139.4867  144.6282  151.7123 LP  0  0  0  0  0  0  0  0  0  0  0  0  # atno 17342 bound_to 10162
  140.5450  144.0517  150.6103 LP  0  0  0  0  0  0  0  0  0  0  0  0  # atno 17343 bound_to 10162
  157.6310  130.8729  149.9274 LP  0  0  0  0  0  0  0  0  0  0  0  0  # atno 17370 bound_to 10713
  156.0835  130.3670  150.0533 LP  0  0  0  0  0  0  0  0  0  0  0  0  # atno 17371 bound_to 10713
  140.3481  134.2629  155.7202 LP  0  0  0  0  0  0  0  0  0  0  0  0  # atno 17394 bound_to 11000
  141.2048  133.7877  157.0267 LP  0  0  0  0  0  0  0  0  0  0  0  0  # atno 17395 bound_to 11000

$$$$
