AV-unprocessed.smi:1679|AV-procd|sdf|6732|dock10
  -GOLD-   22720 7483D 1   1.00000     0.00000
 Structure written by MMmdl.
 45 46  0  0  0  0  0  0  0  0  1 V2000
  152.9044  140.1375  159.4594 C   0  0  0  0  0  0  0  0  0  0  0  0
  152.0235  141.3705  159.2000 C   0  0  1  0  0  0  0  0  0  0  0  0
  152.6184  142.6167  159.8853 C   0  0  0  0  0  0  0  0  0  0  0  0
  151.7542  143.8631  159.6477 C   0  0  0  0  0  0  0  0  0  0  0  0
  151.5665  144.1201  158.1473 C   0  0  0  0  0  0  0  0  0  0  0  0
  150.9709  142.8907  157.4480 C   0  0  0  0  0  0  0  0  0  0  0  0
  151.8136  141.6175  157.6881 C   0  0  2  0  0  0  0  0  0  0  0  0
  151.1205  140.4894  157.1698 O   0  0  0  0  0  0  0  0  0  0  0  0
  150.7197  140.5986  155.8103 C   0  0  0  0  0  0  0  0  0  0  0  0
  151.0724  139.2873  155.0880 C   0  0  0  0  0  0  0  0  0  0  0  0
  150.6938  138.1203  155.8784 N   0  0  0  0  0  0  0  0  0  0  0  0
  151.2844  136.9166  155.8273 C   0  0  0  0  0  0  0  0  0  0  0  0
  152.3007  136.6847  155.1731 O   0  0  0  0  0  0  0  0  0  0  0  0
  150.6095  135.7971  156.6255 C   0  0  0  0  0  0  0  0  0  0  0  0
  150.5428  134.5619  155.8323 N   0  0  0  0  0  0  0  0  0  0  0  0
  150.1502  134.6152  154.5018 C   0  0  0  0  0  0  0  0  0  0  0  0
  150.1009  133.5303  153.6930 C   0  0  0  0  0  0  0  0  0  0  0  0
  150.4714  132.2141  154.2008 C   0  0  0  0  0  0  0  0  0  0  0  0
  150.4673  131.1745  153.5457 O   0  0  0  0  0  0  0  0  0  0  0  0
  150.8594  132.2004  155.5431 N   0  0  0  0  0  0  0  0  0  0  0  0
  150.9129  133.3148  156.3822 C   0  0  0  0  0  0  0  0  0  0  0  0
  151.2789  133.1900  157.5501 O   0  0  0  0  0  0  0  0  0  0  0  0
  151.1281  131.3112  155.9387 H   0  0  0  0  0  0  0  0  0  0  0  0
  153.8960  140.2604  159.0233 H   0  0  0  0  0  0  0  0  0  0  0  0
  152.4634  139.2361  159.0332 H   0  0  0  0  0  0  0  0  0  0  0  0
  153.0305  139.9636  160.5282 H   0  0  0  0  0  0  0  0  0  0  0  0
  151.0472  141.1800  159.6489 H   0  0  0  0  0  0  0  0  0  0  0  0
  152.7146  142.4423  160.9576 H   0  0  0  0  0  0  0  0  0  0  0  0
  153.6268  142.7980  159.5112 H   0  0  0  0  0  0  0  0  0  0  0  0
  150.7817  143.7322  160.1235 H   0  0  0  0  0  0  0  0  0  0  0  0
  152.2152  144.7316  160.1188 H   0  0  0  0  0  0  0  0  0  0  0  0
  150.9161  144.9823  157.9969 H   0  0  0  0  0  0  0  0  0  0  0  0
  152.5262  144.3709  157.6938 H   0  0  0  0  0  0  0  0  0  0  0  0
  149.9612  142.7233  157.8177 H   0  0  0  0  0  0  0  0  0  0  0  0
  150.8719  143.1036  156.3843 H   0  0  0  0  0  0  0  0  0  0  0  0
  152.7876  141.7163  157.2048 H   0  0  0  0  0  0  0  0  0  0  0  0
  149.6513  140.7889  155.7186 H   0  0  0  0  0  0  0  0  0  0  0  0
  151.2303  141.4420  155.3442 H   0  0  0  0  0  0  0  0  0  0  0  0
  150.5946  139.2483  154.1082 H   0  0  0  0  0  0  0  0  0  0  0  0
  152.1480  139.2406  154.9168 H   0  0  0  0  0  0  0  0  0  0  0  0
  149.8678  138.2135  156.4515 H   0  0  0  0  0  0  0  0  0  0  0  0
  151.1549  135.6390  157.5576 H   0  0  0  0  0  0  0  0  0  0  0  0
  149.6085  136.1068  156.9316 H   0  0  0  0  0  0  0  0  0  0  0  0
  149.8758  135.5720  154.0804 H   0  0  0  0  0  0  0  0  0  0  0  0
  149.7911  133.6383  152.6636 H   0  0  0  0  0  0  0  0  0  0  0  0
  1  2  1  0  0  0  0
  1 24  1  0  0  0  0
  1 25  1  0  0  0  0
  1 26  1  0  0  0  0
  2  7  1  0  0  0  0
  2  3  1  0  0  0  0
  2 27  1  0  0  0  0
  3  4  1  0  0  0  0
  3 28  1  0  0  0  0
  3 29  1  0  0  0  0
  4  5  1  0  0  0  0
  4 30  1  0  0  0  0
  4 31  1  0  0  0  0
  5  6  1  0  0  0  0
  5 32  1  0  0  0  0
  5 33  1  0  0  0  0
  6  7  1  0  0  0  0
  6 34  1  0  0  0  0
  6 35  1  0  0  0  0
  7  8  1  0  0  0  0
  7 36  1  0  0  0  0
  8  9  1  0  0  0  0
  9 10  1  0  0  0  0
  9 37  1  0  0  0  0
  9 38  1  0  0  0  0
 10 11  1  0  0  0  0
 10 39  1  0  0  0  0
 10 40  1  0  0  0  0
 11 12  1  0  0  0  0
 11 41  1  0  0  0  0
 12 13  2  0  0  0  0
 12 14  1  0  0  0  0
 14 15  1  0  0  0  0
 14 42  1  0  0  0  0
 14 43  1  0  0  0  0
 15 21  1  0  0  0  0
 15 16  1  0  0  0  0
 16 17  2  0  0  0  0
 16 44  1  0  0  0  0
 17 18  1  0  0  0  0
 17 45  1  0  0  0  0
 18 19  2  0  0  0  0
 18 20  1  0  0  0  0
 20 23  1  0  0  0  0
 20 21  1  0  0  0  0
 21 22  2  0  0  0  0
M  END
> <s_m_source_file>
AV-unprocessed.smi

> <i_m_source_file_index>
1679

> <i_lp_mmshare_version>
43012

> <i_f3d_flags>
0

> <s_epik_input>
W0NIM11bQ0BASF0xW0NIMl1bQ0gyXVtDSDJdW0NIMl1bQ0BIXTFPW0NIMl1bQ0gyXVtOSF1DKD1PKVtDSDJdbjJbY0hdW2NIXWMoPU8pW25IXWMyPU8=

> <s_epik_cmdline>
J2VwaWtfcHl0aG9uJywgJy1waCcsICc3LjAnLCAnLXRuJywgJzgnLCAnLW1hJywgJzIwMCcsICctbWV0YWxfYmluZGluZycsICctaW1hZScsICc8aW5maWxlLm1hZT4nLCAnLW9tYWUnLCAnPG91dGZpbGUubWFlPic=

> <r_lp_tautomer_probability>
0.999537

> <r_epik_Ionization_Penalty>
0.0033132

> <r_epik_Ionization_Penalty_Charging>
0.00331317

> <r_epik_Ionization_Penalty_Neutral>
2.78599e-08

> <r_epik_State_Penalty>
0.002342

> <r_epik_Charging_Adjusted_Penalty>
0.00565517

> <i_epik_Tot_Q>
0

> <i_epik_Tot_abs_Q>
0

> <r_epik_Metal_State_Penalty>
0.365595

> <b_epik_Metal_Only>
0

> <s_lp_Force_Field>
OPLS_2005

> <r_lp_Energy>
10.1003

> <b_lp_Chiralities_Consistent>
1

> <s_lp_Variant>
AV-unprocessed.smi:1679-4

> <Gold.Version>
5.8.1

> <Gold.Id.Protein>
6NUR|6NUR_protein|mol2

> <Gold.PLP.Fitness>
48.2187

> <Gold.PLP.PLP>
-41.1327

> <Gold.PLP.part.hbond>
-1.9985

> <Gold.PLP.part.metal>
0.0000

> <Gold.PLP.part.buried>
-4.5380

> <Gold.PLP.part.nonpolar>
-34.1576

> <Gold.PLP.part.repulsive>
0.1918

> <Gold.PLP.ligand.clash>
0.0000

> <Gold.PLP.ligand.torsion>
0.9637

> <Gold.PLP.Chemscore.Hbond>
2.0000

> <Gold.PLP.Chemscore.CHOScore>
0.9925

> <Gold.PLP.Chemscore.Metal>
0.0000

> <Gold.Chemscore.Hbonds>
donor molecule, donor type, donor heavy atom, donor atom, acceptor molecule, acceptor atom, score
      P1  H  6896  6909       L1    22  0.66
      P1  H 10752 10763       L1    13  0.57
      L1  C    16    44       P1  7948  0.80

> <Gold.PLP.Chemscore.Internal.Correction>
0.0358

> <Gold.Rescore>
     Score         DG    S(hbond)    S(metal)    S(lipo)     H(rot)  DE(clash)    DE(int)     intcor
     15.62     -17.27       1.99        0.00      99.14       2.52       0.13       1.51       ----

> <Gold.Chemscore.Fitness>
15.6213

> <Gold.Chemscore.DG>
-17.2682

> <Gold.Chemscore.ZeroCoef>
-5.4800

> <Gold.Chemscore.Hbond>
1.9870

> <Gold.Chemscore.Metal>
0.0000

> <Gold.Chemscore.Lipo>
99.1363

> <Gold.Chemscore.Internal_Hbond>
0.0000

> <Gold.Chemscore.DEClash>
0.1348

> <Gold.Chemscore.DEInternal>
1.5120

> <Gold.Chemscore.Rot>
2.5185

> <Gold.Chemscore.Internal.Correction>
   9.000000E+99

> <Gold.Chemscore.Hbonds>
donor molecule, donor type, donor heavy atom, donor atom, acceptor molecule, acceptor atom, score
      P1  H  6896  6909       L1    22  0.66
      P1  H 10752 10763       L1    13  0.54

> <Gold.Chemscore.Hbond.Weighted>
-6.6365

> <Gold.Chemscore.Metal.Weighted>
-0.0000

> <Gold.Chemscore.Lipo.Weighted>
-11.5989

> <Gold.Chemscore.Internal_Hbond.Weighted>
0.0000

> <Gold.Chemscore.DEClash.Weighted>
0.1348

> <Gold.Chemscore.DEInternal.Weighted>
1.5120

> <Gold.Chemscore.Rot.Weighted>
6.4472

> <Gold.Chemscore.Internal.Correction.Weighted>
   9.000000E+99

> <Gold.Protein.RotatedTorsions>
[ 6907 6896 6895 6894 ] final  -15.18 input  -60.11 | X-H torsion
[ 7974 7965 7964 7962 ] final  175.32 input  175.53 | X-H torsion
[ 8008 7997 7996 7995 ] final   56.67 input   59.86 | X-H torsion
[ 10167 10162 10161 10158 ] final   70.10 input  -65.29 | X-H torsion
[ 10718 10713 10712 10709 ] final   73.44 input   66.30 | X-H torsion
[ 10763 10752 10751 10750 ] final   70.70 input  -60.55 | X-H torsion
[ 11005 11000 10999 10996 ] final  132.38 input  -57.11 | X-H torsion

> <Gold.Protein.ActiveResidues>
 VAL166  LYS551  ARG553  GLY616  TRP617  ASP618  TYR619  PRO620  LYS621  CYS622 
 ASP623  PHE694  ASN695  SER759  ASP760  ASP761  ALA762  ILE779  LEU786  VAL792 
 PHE793  MET794  SER795  GLU796  ALA797  LYS798  CYS799  TRP800  GLU811  SER814 

> <Gold.Protein.RotatedAtoms>
  151.3279  135.0834  159.9328 H   0  0  0  0  0  0  0  0  0  0  0  0  # atno 6907 bound_to 6896
  152.5241  133.9573  159.7710 H   0  0  0  0  0  0  0  0  0  0  0  0  # atno 6908 bound_to 6896
  150.9906  133.6101  159.2739 H   0  0  0  0  0  0  0  0  0  0  0  0  # atno 6909 bound_to 6896
  144.7204  139.9930  143.6440 H   0  0  0  0  0  0  0  0  0  0  0  0  # atno 7974 bound_to 7965
  155.5213  140.3480  155.4407 H   0  0  0  0  0  0  0  0  0  0  0  0  # atno 8008 bound_to 7997
  156.0782  140.1380  156.9772 H   0  0  0  0  0  0  0  0  0  0  0  0  # atno 8009 bound_to 7997
  154.4565  140.0951  156.6748 H   0  0  0  0  0  0  0  0  0  0  0  0  # atno 8010 bound_to 7997
  140.0606  144.5236  150.7297 H   0  0  0  0  0  0  0  0  0  0  0  0  # atno 10167 bound_to 10162
  157.6548  130.9628  150.1070 H   0  0  0  0  0  0  0  0  0  0  0  0  # atno 10718 bound_to 10713
  153.0356  135.5164  154.7481 H   0  0  0  0  0  0  0  0  0  0  0  0  # atno 10763 bound_to 10752
  154.6460  135.2918  155.0048 H   0  0  0  0  0  0  0  0  0  0  0  0  # atno 10764 bound_to 10752
  154.0949  135.6645  153.4911 H   0  0  0  0  0  0  0  0  0  0  0  0  # atno 10765 bound_to 10752
  139.9787  134.9555  156.9574 H   0  0  0  0  0  0  0  0  0  0  0  0  # atno 11005 bound_to 11000
  146.0397  139.3410  143.0705 LP  0  0  0  0  0  0  0  0  0  0  0  0  # atno 17320 bound_to 7965
  145.8350  140.9610  143.0829 LP  0  0  0  0  0  0  0  0  0  0  0  0  # atno 17321 bound_to 7965
  140.7173  143.2556  151.4391 LP  0  0  0  0  0  0  0  0  0  0  0  0  # atno 17342 bound_to 10162
  139.5896  144.1528  152.2072 LP  0  0  0  0  0  0  0  0  0  0  0  0  # atno 17343 bound_to 10162
  156.1977  130.3658  149.8828 LP  0  0  0  0  0  0  0  0  0  0  0  0  # atno 17370 bound_to 10713
  156.6740  130.8832  151.3566 LP  0  0  0  0  0  0  0  0  0  0  0  0  # atno 17371 bound_to 10713
  140.5142  134.0972  155.7277 LP  0  0  0  0  0  0  0  0  0  0  0  0  # atno 17394 bound_to 11000
  141.1461  133.9052  157.2212 LP  0  0  0  0  0  0  0  0  0  0  0  0  # atno 17395 bound_to 11000

$$$$
