AV-unprocessed.smi:1321|AV-procd|sdf|5462|dock9
  -GOLD-   22720 5 33D 1   1.00000     0.00000
 Structure written by MMmdl.
 43 44  0  0  0  0  0  0  0  0  1 V2000
  145.5892  135.8322  151.5960 C   0  0  0  0  0  0  0  0  0  0  0  0
  144.8890  136.2554  152.9091 C   0  0  0  0  0  0  0  0  0  0  0  0
  143.6432  137.0951  152.5557 C   0  0  0  0  0  0  0  0  0  0  0  0
  144.4453  134.9943  153.6774 C   0  0  0  0  0  0  0  0  0  0  0  0
  145.8139  137.0857  153.8311 C   0  0  0  0  0  0  0  0  0  0  0  0
  145.3590  137.5752  154.8657 O   0  0  0  0  0  0  0  0  0  0  0  0
  147.1012  137.2294  153.4722 N   0  0  0  0  0  0  0  0  0  0  0  0
  148.1444  137.8819  154.2557 C   0  0  0  0  0  0  0  0  0  0  0  0
  148.0107  139.3990  154.2242 C   0  0  0  0  0  0  0  0  0  0  0  0
  146.8624  139.9773  153.6422 C   0  0  0  0  0  0  0  0  0  0  0  0
  146.7519  141.3782  153.5824 C   0  0  0  0  0  0  0  0  0  0  0  0
  147.8020  142.1519  154.1085 C   0  0  0  0  0  0  0  0  0  0  0  0
  148.9063  141.6152  154.6671 N   0  0  0  0  0  0  0  0  0  0  0  0
  149.0180  140.2655  154.7267 C   0  0  0  0  0  0  0  0  0  0  0  0
  150.1733  139.7408  155.3311 N   0  0  0  0  0  0  0  0  0  0  0  0
  151.0239  138.9138  154.4821 C   0  0  0  0  0  0  0  0  0  0  0  0
  152.1416  138.2759  155.3245 C   0  0  0  0  0  0  0  0  0  0  0  0
  152.8744  139.2972  155.9958 O   0  0  0  0  0  0  0  0  0  0  0  0
  152.0521  140.0541  156.8799 C   0  0  0  0  0  0  0  0  0  0  0  0
  150.9249  140.7359  156.0846 C   0  0  0  0  0  0  0  0  0  0  0  0
  144.9069  135.2809  150.9483 H   0  0  0  0  0  0  0  0  0  0  0  0
  146.4453  135.1818  151.7817 H   0  0  0  0  0  0  0  0  0  0  0  0
  145.9405  136.6963  151.0300 H   0  0  0  0  0  0  0  0  0  0  0  0
  143.9170  138.0216  152.0494 H   0  0  0  0  0  0  0  0  0  0  0  0
  143.0662  137.3615  153.4425 H   0  0  0  0  0  0  0  0  0  0  0  0
  142.9736  136.5470  151.8922 H   0  0  0  0  0  0  0  0  0  0  0  0
  143.7795  134.3780  153.0723 H   0  0  0  0  0  0  0  0  0  0  0  0
  143.9096  135.2449  154.5940 H   0  0  0  0  0  0  0  0  0  0  0  0
  145.3000  134.3756  153.9554 H   0  0  0  0  0  0  0  0  0  0  0  0
  147.3913  136.8046  152.6036 H   0  0  0  0  0  0  0  0  0  0  0  0
  148.0559  137.5324  155.2847 H   0  0  0  0  0  0  0  0  0  0  0  0
  149.1433  137.5874  153.9328 H   0  0  0  0  0  0  0  0  0  0  0  0
  146.0760  139.3564  153.2390 H   0  0  0  0  0  0  0  0  0  0  0  0
  145.8855  141.8479  153.1416 H   0  0  0  0  0  0  0  0  0  0  0  0
  147.7547  143.2305  154.0802 H   0  0  0  0  0  0  0  0  0  0  0  0
  150.4249  138.1385  154.0029 H   0  0  0  0  0  0  0  0  0  0  0  0
  151.4642  139.5223  153.6910 H   0  0  0  0  0  0  0  0  0  0  0  0
  151.7311  137.5719  156.0496 H   0  0  0  0  0  0  0  0  0  0  0  0
  152.8206  137.7133  154.6838 H   0  0  0  0  0  0  0  0  0  0  0  0
  151.6446  139.4069  157.6579 H   0  0  0  0  0  0  0  0  0  0  0  0
  152.6649  140.8037  157.3807 H   0  0  0  0  0  0  0  0  0  0  0  0
  151.3458  141.4681  155.3941 H   0  0  0  0  0  0  0  0  0  0  0  0
  150.2646  141.2778  156.7623 H   0  0  0  0  0  0  0  0  0  0  0  0
  1  2  1  0  0  0  0
  1 21  1  0  0  0  0
  1 22  1  0  0  0  0
  1 23  1  0  0  0  0
  2  3  1  0  0  0  0
  2  4  1  0  0  0  0
  2  5  1  0  0  0  0
  3 24  1  0  0  0  0
  3 25  1  0  0  0  0
  3 26  1  0  0  0  0
  4 27  1  0  0  0  0
  4 28  1  0  0  0  0
  4 29  1  0  0  0  0
  5  6  2  0  0  0  0
  5  7  1  0  0  0  0
  7  8  1  0  0  0  0
  7 30  1  0  0  0  0
  8  9  1  0  0  0  0
  8 31  1  0  0  0  0
  8 32  1  0  0  0  0
  9 14  1  0  0  0  0
  9 10  2  0  0  0  0
 10 11  1  0  0  0  0
 10 33  1  0  0  0  0
 11 12  2  0  0  0  0
 11 34  1  0  0  0  0
 12 13  1  0  0  0  0
 12 35  1  0  0  0  0
 13 14  2  0  0  0  0
 14 15  1  0  0  0  0
 15 20  1  0  0  0  0
 15 16  1  0  0  0  0
 16 17  1  0  0  0  0
 16 36  1  0  0  0  0
 16 37  1  0  0  0  0
 17 18  1  0  0  0  0
 17 38  1  0  0  0  0
 17 39  1  0  0  0  0
 18 19  1  0  0  0  0
 19 20  1  0  0  0  0
 19 40  1  0  0  0  0
 19 41  1  0  0  0  0
 20 42  1  0  0  0  0
 20 43  1  0  0  0  0
M  END
> <s_m_source_file>
AV-unprocessed.smi

> <i_m_source_file_index>
1321

> <i_lp_mmshare_version>
43012

> <i_f3d_flags>
0

> <s_epik_input>
W0NIM11DKFtDSDNdKShbQ0gzXSlDKD1PKVtOSF1bQ0gyXWMxW2NIXVtjSF1bY0hdbmMxTjJbQ0gyXVtDSDJdT1tDSDJdW0NIMl0y

> <s_epik_cmdline>
J2VwaWtfcHl0aG9uJywgJy1waCcsICc3LjAnLCAnLXRuJywgJzgnLCAnLW1hJywgJzIwMCcsICctbWV0YWxfYmluZGluZycsICctaW1hZScsICc8aW5maWxlLm1hZT4nLCAnLW9tYWUnLCAnPG91dGZpbGUubWFlPic=

> <r_lp_tautomer_probability>
1

> <r_epik_Ionization_Penalty>
0.0052234

> <r_epik_Ionization_Penalty_Charging>
0

> <r_epik_Ionization_Penalty_Neutral>
0.0052234

> <r_epik_State_Penalty>
0.0038086

> <r_epik_Charging_Adjusted_Penalty>
0.0038086

> <i_epik_Tot_Q>
0

> <i_epik_Tot_abs_Q>
0

> <r_epik_Metal_State_Penalty>
-0

> <b_epik_Metal_Only>
0

> <s_lp_Force_Field>
OPLS_2005

> <r_lp_Energy>
23.2048

> <b_lp_Chiralities_Consistent>
1

> <s_lp_Variant>
AV-unprocessed.smi:1321-1

> <Gold.Version>
5.8.1

> <Gold.Id.Protein>
6NUR|6NUR_protein|mol2

> <Gold.PLP.Fitness>
35.9014

> <Gold.PLP.PLP>
-28.5371

> <Gold.PLP.part.hbond>
-2.0940

> <Gold.PLP.part.metal>
0.0000

> <Gold.PLP.part.buried>
-2.4146

> <Gold.PLP.part.nonpolar>
-24.7083

> <Gold.PLP.part.repulsive>
0.2447

> <Gold.PLP.ligand.clash>
0.0000

> <Gold.PLP.ligand.torsion>
0.4536

> <Gold.PLP.Chemscore.Hbond>
1.7840

> <Gold.PLP.Chemscore.CHOScore>
0.9131

> <Gold.PLP.Chemscore.Metal>
0.0000

> <Gold.Chemscore.Hbonds>
donor molecule, donor type, donor heavy atom, donor atom, acceptor molecule, acceptor atom, score
      L1  H     7    30       P1  7948  0.75
      P1  H  7997  8009       L1    18  0.95
      L1  C    12    35       P1  8028  0.93

> <Gold.PLP.Chemscore.Internal.Correction>
0.1802

> <Gold.Rescore>
     Score         DG    S(hbond)    S(metal)    S(lipo)     H(rot)  DE(clash)    DE(int)     intcor
     15.49     -16.22       1.91        0.00      70.45       1.52       0.10       0.63       ----

> <Gold.Chemscore.Fitness>
15.4910

> <Gold.Chemscore.DG>
-16.2169

> <Gold.Chemscore.ZeroCoef>
-5.4800

> <Gold.Chemscore.Hbond>
1.9097

> <Gold.Chemscore.Metal>
0.0000

> <Gold.Chemscore.Lipo>
70.4527

> <Gold.Chemscore.Internal_Hbond>
0.0000

> <Gold.Chemscore.DEClash>
0.0994

> <Gold.Chemscore.DEInternal>
0.6266

> <Gold.Chemscore.Rot>
1.5173

> <Gold.Chemscore.Internal.Correction>
   9.000000E+99

> <Gold.Chemscore.Hbonds>
donor molecule, donor type, donor heavy atom, donor atom, acceptor molecule, acceptor atom, score
      L1  H     7    30       P1  7948  0.76
      P1  H  7997  8009       L1    18  0.22

> <Gold.Chemscore.Hbond.Weighted>
-6.3783

> <Gold.Chemscore.Metal.Weighted>
-0.0000

> <Gold.Chemscore.Lipo.Weighted>
-8.2430

> <Gold.Chemscore.Internal_Hbond.Weighted>
0.0000

> <Gold.Chemscore.DEClash.Weighted>
0.0994

> <Gold.Chemscore.DEInternal.Weighted>
0.6266

> <Gold.Chemscore.Rot.Weighted>
3.8843

> <Gold.Chemscore.Internal.Correction.Weighted>
   9.000000E+99

> <Gold.Protein.RotatedTorsions>
[ 6907 6896 6895 6894 ] final -174.83 input  -60.11 | X-H torsion
[ 7974 7965 7964 7962 ] final    9.54 input  175.53 | X-H torsion
[ 8008 7997 7996 7995 ] final -156.07 input   59.86 | X-H torsion
[ 10167 10162 10161 10158 ] final   34.27 input  -65.29 | X-H torsion
[ 10718 10713 10712 10709 ] final   96.64 input   66.30 | X-H torsion
[ 10763 10752 10751 10750 ] final   96.96 input  -60.55 | X-H torsion
[ 11005 11000 10999 10996 ] final  -47.53 input  -57.11 | X-H torsion

> <Gold.Protein.ActiveResidues>
 VAL166  LYS551  ARG553  GLY616  TRP617  ASP618  TYR619  PRO620  LYS621  CYS622 
 ASP623  PHE694  ASN695  SER759  ASP760  ASP761  ALA762  ILE779  LEU786  VAL792 
 PHE793  MET794  SER795  GLU796  ALA797  LYS798  CYS799  TRP800  GLU811  SER814 

> <Gold.Protein.RotatedAtoms>
  151.5787  133.3380  159.3003 H   0  0  0  0  0  0  0  0  0  0  0  0  # atno 6907 bound_to 6896
  150.8326  134.7588  159.6877 H   0  0  0  0  0  0  0  0  0  0  0  0  # atno 6908 bound_to 6896
  152.4407  134.5603  159.9944 H   0  0  0  0  0  0  0  0  0  0  0  0  # atno 6909 bound_to 6896
  146.2402  139.9768  142.8440 H   0  0  0  0  0  0  0  0  0  0  0  0  # atno 7974 bound_to 7965
  155.7115  140.0779  157.2369 H   0  0  0  0  0  0  0  0  0  0  0  0  # atno 8008 bound_to 7997
  154.4058  140.1629  156.2355 H   0  0  0  0  0  0  0  0  0  0  0  0  # atno 8009 bound_to 7997
  155.9278  140.3393  155.6227 H   0  0  0  0  0  0  0  0  0  0  0  0  # atno 8010 bound_to 7997
  140.4330  144.1297  150.6162 H   0  0  0  0  0  0  0  0  0  0  0  0  # atno 10167 bound_to 10162
  157.6924  131.0584  150.4522 H   0  0  0  0  0  0  0  0  0  0  0  0  # atno 10718 bound_to 10713
  153.2712  135.4200  155.0989 H   0  0  0  0  0  0  0  0  0  0  0  0  # atno 10763 bound_to 10752
  154.8456  135.3472  154.6242 H   0  0  0  0  0  0  0  0  0  0  0  0  # atno 10764 bound_to 10752
  153.6662  135.7046  153.5219 H   0  0  0  0  0  0  0  0  0  0  0  0  # atno 10765 bound_to 10752
  141.0646  133.6698  156.3310 H   0  0  0  0  0  0  0  0  0  0  0  0  # atno 11005 bound_to 11000
  145.1629  140.9682  143.4366 LP  0  0  0  0  0  0  0  0  0  0  0  0  # atno 17320 bound_to 7965
  145.0099  139.3519  143.6125 LP  0  0  0  0  0  0  0  0  0  0  0  0  # atno 17321 bound_to 7965
  140.4405  143.2528  151.9479 LP  0  0  0  0  0  0  0  0  0  0  0  0  # atno 17342 bound_to 10162
  139.4786  144.5659  151.8166 LP  0  0  0  0  0  0  0  0  0  0  0  0  # atno 17343 bound_to 10162
  156.4873  130.4087  149.6427 LP  0  0  0  0  0  0  0  0  0  0  0  0  # atno 17370 bound_to 10713
  156.3450  130.7402  151.2353 LP  0  0  0  0  0  0  0  0  0  0  0  0  # atno 17371 bound_to 10713
  140.5800  134.5755  157.5477 LP  0  0  0  0  0  0  0  0  0  0  0  0  # atno 17394 bound_to 11000
  139.9464  134.7694  156.0552 LP  0  0  0  0  0  0  0  0  0  0  0  0  # atno 17395 bound_to 11000

$$$$
