AV-unprocessed.smi:1868|AV-procd|sdf|7584|dock3
  -GOLD-   22720 9293D 1   1.00000     0.00000
 Structure written by MMmdl.
 47 49  0  0  0  0  0  0  0  0  2 V2000
  154.1804  140.3268  161.3733 C   0  0  0  0  0  0  0  0  0  0  0  0
  153.4494  141.4994  160.8007 C   0  0  0  0  0  0  0  0  0  0  0  0
  153.1963  142.5954  161.5156 N   0  0  0  0  0  0  0  0  0  0  0  0
  152.5307  143.4006  160.6119 C   0  0  0  0  0  0  0  0  0  0  0  0
  151.9944  144.6996  160.7600 C   0  0  0  0  0  0  0  0  0  0  0  0
  151.3439  145.3308  159.6797 C   0  0  0  0  0  0  0  0  0  0  0  0
  151.2207  144.6740  158.4383 C   0  0  0  0  0  0  0  0  0  0  0  0
  151.7483  143.3795  158.2688 C   0  0  0  0  0  0  0  0  0  0  0  0
  152.3963  142.7534  159.3507 C   0  0  0  0  0  0  0  0  0  0  0  0
  153.0029  141.5118  159.5205 N   0  0  0  0  0  0  0  0  0  0  0  0
  153.1251  140.4621  158.5183 C   0  0  0  0  0  0  0  0  0  0  0  0
  151.8511  140.2915  157.6652 C   0  0  2  0  0  0  0  0  0  0  0  0
  151.0195  139.3559  158.3207 O   0  0  0  0  0  0  0  0  0  0  0  0
  152.1271  139.7855  156.2319 C   0  0  0  0  0  0  0  0  0  0  0  0
  150.9678  139.9789  155.3245 N   0  3  2  0  0  0  0  0  0  0  0  0
  150.2085  141.2163  155.6388 C   0  0  0  0  0  0  0  0  0  0  0  0
  149.1030  141.4691  154.6001 C   0  0  0  0  0  0  0  0  0  0  0  0
  148.1477  140.2684  154.4969 C   0  0  1  0  0  0  0  0  0  0  0  0
  147.0597  140.4979  153.4385 C   0  0  0  0  0  0  0  0  0  0  0  0
  148.9630  138.9963  154.2097 C   0  0  0  0  0  0  0  0  0  0  0  0
  150.0718  138.7938  155.2559 C   0  0  0  0  0  0  0  0  0  0  0  0
  154.4895  140.5340  162.3985 H   0  0  0  0  0  0  0  0  0  0  0  0
  155.0732  140.1118  160.7859 H   0  0  0  0  0  0  0  0  0  0  0  0
  153.5391  139.4460  161.3823 H   0  0  0  0  0  0  0  0  0  0  0  0
  152.0836  145.2114  161.7069 H   0  0  0  0  0  0  0  0  0  0  0  0
  150.9379  146.3241  159.8042 H   0  0  0  0  0  0  0  0  0  0  0  0
  150.7214  145.1653  157.6159 H   0  0  0  0  0  0  0  0  0  0  0  0
  151.6539  142.8757  157.3185 H   0  0  0  0  0  0  0  0  0  0  0  0
  153.9766  140.6973  157.8783 H   0  0  0  0  0  0  0  0  0  0  0  0
  153.3770  139.5267  159.0191 H   0  0  0  0  0  0  0  0  0  0  0  0
  151.3221  141.2425  157.6361 H   0  0  0  0  0  0  0  0  0  0  0  0
  151.3860  138.4919  158.2041 H   0  0  0  0  0  0  0  0  0  0  0  0
  152.9930  140.2841  155.7953 H   0  0  0  0  0  0  0  0  0  0  0  0
  152.3835  138.7262  156.2874 H   0  0  0  0  0  0  0  0  0  0  0  0
  149.7777  141.1367  156.6384 H   0  0  0  0  0  0  0  0  0  0  0  0
  150.8856  142.0712  155.6516 H   0  0  0  0  0  0  0  0  0  0  0  0
  148.5465  142.3677  154.8690 H   0  0  0  0  0  0  0  0  0  0  0  0
  149.5563  141.6668  153.6277 H   0  0  0  0  0  0  0  0  0  0  0  0
  147.6518  140.1446  155.4610 H   0  0  0  0  0  0  0  0  0  0  0  0
  147.4923  140.6324  152.4464 H   0  0  0  0  0  0  0  0  0  0  0  0
  146.4702  141.3861  153.6676 H   0  0  0  0  0  0  0  0  0  0  0  0
  146.3742  139.6512  153.3903 H   0  0  0  0  0  0  0  0  0  0  0  0
  148.3054  138.1262  154.2008 H   0  0  0  0  0  0  0  0  0  0  0  0
  149.4080  139.0568  153.2153 H   0  0  0  0  0  0  0  0  0  0  0  0
  150.6398  137.9007  154.9981 H   0  0  0  0  0  0  0  0  0  0  0  0
  149.6307  138.6122  156.2374 H   0  0  0  0  0  0  0  0  0  0  0  0
  151.3543  140.1141  154.4008 H   0  0  0  0  0  0  0  0  0  0  0  0
  1  2  1  0  0  0  0
  1 22  1  0  0  0  0
  1 23  1  0  0  0  0
  1 24  1  0  0  0  0
  2 10  1  0  0  0  0
  2  3  2  0  0  0  0
  3  4  1  0  0  0  0
  4  9  2  0  0  0  0
  4  5  1  0  0  0  0
  5  6  2  0  0  0  0
  5 25  1  0  0  0  0
  6  7  1  0  0  0  0
  6 26  1  0  0  0  0
  7  8  2  0  0  0  0
  7 27  1  0  0  0  0
  8  9  1  0  0  0  0
  8 28  1  0  0  0  0
  9 10  1  0  0  0  0
 10 11  1  0  0  0  0
 11 12  1  0  0  0  0
 11 29  1  0  0  0  0
 11 30  1  0  0  0  0
 12 13  1  0  0  0  0
 12 14  1  0  0  0  0
 12 31  1  0  0  0  0
 13 32  1  0  0  0  0
 14 15  1  0  0  0  0
 14 33  1  0  0  0  0
 14 34  1  0  0  0  0
 15 21  1  0  0  0  0
 15 16  1  0  0  0  0
 15 47  1  0  0  0  0
 16 17  1  0  0  0  0
 16 35  1  0  0  0  0
 16 36  1  0  0  0  0
 17 18  1  0  0  0  0
 17 37  1  0  0  0  0
 17 38  1  0  0  0  0
 18 19  1  0  0  0  0
 18 20  1  0  0  0  0
 18 39  1  0  0  0  0
 19 40  1  0  0  0  0
 19 41  1  0  0  0  0
 19 42  1  0  0  0  0
 20 21  1  0  0  0  0
 20 43  1  0  0  0  0
 20 44  1  0  0  0  0
 21 45  1  0  0  0  0
 21 46  1  0  0  0  0
M  CHG  1  15   1
M  END
> <s_m_source_file>
AV-unprocessed.smi

> <i_m_source_file_index>
1868

> <i_lp_mmshare_version>
43012

> <i_f3d_flags>
0

> <s_epik_input>
W2NIXTFbY0hdW2NIXVtjSF1jKGMxMiluKGMobjIpW0NIM10pW0NIMl1bQ0BIXShbT0hdKVtDSDJdTjNbQ0gyXVtDSDJdW0NIXShbQ0gzXSlbQ0gyXVtDSDJdMw==

> <s_epik_cmdline>
J2VwaWtfcHl0aG9uJywgJy1waCcsICc3LjAnLCAnLXRuJywgJzgnLCAnLW1hJywgJzIwMCcsICctbWV0YWxfYmluZGluZycsICctaW1hZScsICc8aW5maWxlLm1hZT4nLCAnLW9tYWUnLCAnPG91dGZpbGUubWFlPic=

> <r_epik_Ionization_Penalty>
0.101157

> <r_epik_Ionization_Penalty_Charging>
0.00181365

> <r_epik_Ionization_Penalty_Neutral>
0.0993436

> <r_epik_State_Penalty>
0.0871902

> <r_epik_Charging_Adjusted_Penalty>
0.0890039

> <i_epik_Tot_Q>
1

> <i_epik_Tot_abs_Q>
1

> <r_epik_Metal_State_Penalty>
9.24346e-05

> <b_epik_Metal_Only>
0

> <s_lp_Force_Field>
OPLS_2005

> <r_lp_Energy>
22.6133

> <b_lp_Chiralities_Consistent>
1

> <s_lp_Variant>
AV-unprocessed.smi:1868-1

> <Gold.Version>
5.8.1

> <Gold.Id.Protein>
6NUR|6NUR_protein|mol2

> <Gold.PLP.Fitness>
47.7000

> <Gold.PLP.PLP>
-49.9014

> <Gold.PLP.part.hbond>
0.0000

> <Gold.PLP.part.metal>
0.0000

> <Gold.PLP.part.buried>
-3.2841

> <Gold.PLP.part.nonpolar>
-46.0253

> <Gold.PLP.part.repulsive>
0.4604

> <Gold.PLP.ligand.clash>
0.0000

> <Gold.PLP.ligand.torsion>
1.1230

> <Gold.PLP.Chemscore.Hbond>
0.0000

> <Gold.PLP.Chemscore.CHOScore>
0.0000

> <Gold.PLP.Chemscore.Metal>
0.0000

> <Gold.PLP.Chemscore.Internal.Correction>
0.0446

> <Gold.Rescore>
     Score         DG    S(hbond)    S(metal)    S(lipo)     H(rot)  DE(clash)    DE(int)     intcor
     15.70     -16.88       0.00        0.00     139.45       1.92       0.11       1.07       ----

> <Gold.Chemscore.Fitness>
15.6991

> <Gold.Chemscore.DG>
-16.8804

> <Gold.Chemscore.ZeroCoef>
-5.4800

> <Gold.Chemscore.Hbond>
0.0000

> <Gold.Chemscore.Metal>
0.0000

> <Gold.Chemscore.Lipo>
139.4454

> <Gold.Chemscore.Internal_Hbond>
0.0000

> <Gold.Chemscore.DEClash>
0.1066

> <Gold.Chemscore.DEInternal>
1.0747

> <Gold.Chemscore.Rot>
1.9198

> <Gold.Chemscore.Internal.Correction>
   9.000000E+99

> <Gold.Chemscore.Hbond.Weighted>
-0.0000

> <Gold.Chemscore.Metal.Weighted>
-0.0000

> <Gold.Chemscore.Lipo.Weighted>
-16.3151

> <Gold.Chemscore.Internal_Hbond.Weighted>
0.0000

> <Gold.Chemscore.DEClash.Weighted>
0.1066

> <Gold.Chemscore.DEInternal.Weighted>
1.0747

> <Gold.Chemscore.Rot.Weighted>
4.9147

> <Gold.Chemscore.Internal.Correction.Weighted>
   9.000000E+99

> <Gold.Protein.RotatedTorsions>
[ 6907 6896 6895 6894 ] final  -22.79 input  -60.11 | X-H torsion
[ 7974 7965 7964 7962 ] final  -82.44 input  175.53 | X-H torsion
[ 8008 7997 7996 7995 ] final  -56.38 input   59.86 | X-H torsion
[ 10167 10162 10161 10158 ] final  -33.84 input  -65.29 | X-H torsion
[ 10718 10713 10712 10709 ] final  -42.54 input   66.30 | X-H torsion
[ 10763 10752 10751 10750 ] final   66.51 input  -60.55 | X-H torsion
[ 11005 11000 10999 10996 ] final  -59.86 input  -57.11 | X-H torsion

> <Gold.Protein.ActiveResidues>
 VAL166  LYS551  ARG553  GLY616  TRP617  ASP618  TYR619  PRO620  LYS621  CYS622 
 ASP623  PHE694  ASN695  SER759  ASP760  ASP761  ALA762  ILE779  LEU786  VAL792 
 PHE793  MET794  SER795  GLU796  ALA797  LYS798  CYS799  TRP800  GLU811  SER814 

> <Gold.Protein.RotatedAtoms>
  151.2135  135.0490  159.8920 H   0  0  0  0  0  0  0  0  0  0  0  0  # atno 6907 bound_to 6896
  152.5422  134.0718  159.8207 H   0  0  0  0  0  0  0  0  0  0  0  0  # atno 6908 bound_to 6896
  151.0875  133.5294  159.2648 H   0  0  0  0  0  0  0  0  0  0  0  0  # atno 6909 bound_to 6896
  145.5333  140.9519  143.1591 H   0  0  0  0  0  0  0  0  0  0  0  0  # atno 7974 bound_to 7965
  154.4228  140.1131  156.5628 H   0  0  0  0  0  0  0  0  0  0  0  0  # atno 8008 bound_to 7997
  155.6293  140.3495  155.4658 H   0  0  0  0  0  0  0  0  0  0  0  0  # atno 8009 bound_to 7997
  155.9961  140.1189  157.0582 H   0  0  0  0  0  0  0  0  0  0  0  0  # atno 8010 bound_to 7997
  140.7197  143.3591  151.2000 H   0  0  0  0  0  0  0  0  0  0  0  0  # atno 10167 bound_to 10162
  156.2585  130.4194  149.8569 H   0  0  0  0  0  0  0  0  0  0  0  0  # atno 10718 bound_to 10713
  153.0143  135.5318  154.6835 H   0  0  0  0  0  0  0  0  0  0  0  0  # atno 10763 bound_to 10752
  154.5989  135.2866  155.0559 H   0  0  0  0  0  0  0  0  0  0  0  0  # atno 10764 bound_to 10752
  154.1624  135.6545  153.5041 H   0  0  0  0  0  0  0  0  0  0  0  0  # atno 10765 bound_to 10752
  141.1265  133.6618  156.5136 H   0  0  0  0  0  0  0  0  0  0  0  0  # atno 11005 bound_to 11000
  144.7615  139.6946  143.7232 LP  0  0  0  0  0  0  0  0  0  0  0  0  # atno 17320 bound_to 7965
  146.2030  139.5336  142.9731 LP  0  0  0  0  0  0  0  0  0  0  0  0  # atno 17321 bound_to 7965
  139.7138  143.9333  152.2958 LP  0  0  0  0  0  0  0  0  0  0  0  0  # atno 17342 bound_to 10162
  139.9067  144.6880  150.8606 LP  0  0  0  0  0  0  0  0  0  0  0  0  # atno 17343 bound_to 10162
  156.6092  130.8579  151.3450 LP  0  0  0  0  0  0  0  0  0  0  0  0  # atno 17370 bound_to 10713
  157.7242  130.9599  150.1563 LP  0  0  0  0  0  0  0  0  0  0  0  0  # atno 17371 bound_to 10713
  140.4349  134.7068  157.4961 LP  0  0  0  0  0  0  0  0  0  0  0  0  # atno 17394 bound_to 11000
  140.0268  134.6465  155.9161 LP  0  0  0  0  0  0  0  0  0  0  0  0  # atno 17395 bound_to 11000

$$$$
