AV-unprocessed.smi:1574|AV-procd|sdf|6337|dock1
  -GOLD-   22720 6553D 1   1.00000     0.00000
 Structure written by MMmdl.
 40 41  0  0  0  0  0  0  0  0  1 V2000
  154.2712  141.0572  159.9691 C   0  0  0  0  0  0  0  0  0  0  0  0
  153.6568  142.4375  160.2503 C   0  0  2  0  0  0  0  0  0  0  0  0
  153.0214  142.5062  161.6550 C   0  0  0  0  0  0  0  0  0  0  0  0
  152.4430  143.9003  161.9450 C   0  0  0  0  0  0  0  0  0  0  0  0
  151.4432  144.3256  160.8594 C   0  0  0  0  0  0  0  0  0  0  0  0
  152.0796  144.2615  159.4627 C   0  0  0  0  0  0  0  0  0  0  0  0
  152.6410  142.8541  159.1627 C   0  0  2  0  0  0  0  0  0  0  0  0
  151.6058  141.8783  159.1478 O   0  0  0  0  0  0  0  0  0  0  0  0
  151.2970  141.3248  157.8786 C   0  0  0  0  0  0  0  0  0  0  0  0
  150.8385  142.4560  156.9478 C   0  0  0  0  0  0  0  0  0  0  0  0
  149.7760  142.0124  156.0508 N   0  0  0  0  0  0  0  0  0  0  0  0
  149.9321  141.1487  155.0347 C   0  0  0  0  0  0  0  0  0  0  0  0
  151.0111  140.6393  154.7327 O   0  0  0  0  0  0  0  0  0  0  0  0
  148.6772  140.7980  154.2368 C   0  0  0  0  0  0  0  0  0  0  0  0
  147.4810  141.2319  154.9323 N   0  0  0  0  0  0  0  0  0  0  0  0
  146.4209  141.9226  154.5077 C   0  0  0  0  0  0  0  0  0  0  0  0
  145.5426  142.1160  155.4800 N   0  0  0  0  0  0  0  0  0  0  0  0
  146.1287  141.4843  156.5642 N   0  0  0  0  0  0  0  0  0  0  0  0
  147.2787  140.9569  156.2450 N   0  0  0  0  0  0  0  0  0  0  0  0
  153.5174  140.2697  160.0014 H   0  0  0  0  0  0  0  0  0  0  0  0
  155.0365  140.8121  160.7058 H   0  0  0  0  0  0  0  0  0  0  0  0
  154.7401  141.0294  158.9852 H   0  0  0  0  0  0  0  0  0  0  0  0
  154.4754  143.1585  160.2259 H   0  0  0  0  0  0  0  0  0  0  0  0
  152.2304  141.7599  161.7426 H   0  0  0  0  0  0  0  0  0  0  0  0
  153.7638  142.2558  162.4133 H   0  0  0  0  0  0  0  0  0  0  0  0
  151.9583  143.9056  162.9214 H   0  0  0  0  0  0  0  0  0  0  0  0
  153.2536  144.6280  161.9993 H   0  0  0  0  0  0  0  0  0  0  0  0
  150.5714  143.6720  160.8884 H   0  0  0  0  0  0  0  0  0  0  0  0
  151.0805  145.3340  161.0607 H   0  0  0  0  0  0  0  0  0  0  0  0
  151.3566  144.5684  158.7083 H   0  0  0  0  0  0  0  0  0  0  0  0
  152.8898  144.9895  159.4060 H   0  0  0  0  0  0  0  0  0  0  0  0
  153.1456  142.8611  158.1951 H   0  0  0  0  0  0  0  0  0  0  0  0
  152.1573  140.8156  157.4452 H   0  0  0  0  0  0  0  0  0  0  0  0
  150.4982  140.5896  157.9839 H   0  0  0  0  0  0  0  0  0  0  0  0
  150.4481  143.2806  157.5441 H   0  0  0  0  0  0  0  0  0  0  0  0
  151.6838  142.8560  156.3852 H   0  0  0  0  0  0  0  0  0  0  0  0
  148.8502  142.3746  156.2274 H   0  0  0  0  0  0  0  0  0  0  0  0
  148.7088  141.2542  153.2460 H   0  0  0  0  0  0  0  0  0  0  0  0
  148.6243  139.7184  154.0921 H   0  0  0  0  0  0  0  0  0  0  0  0
  146.2950  142.2816  153.4969 H   0  0  0  0  0  0  0  0  0  0  0  0
  1  2  1  0  0  0  0
  1 20  1  0  0  0  0
  1 21  1  0  0  0  0
  1 22  1  0  0  0  0
  2  7  1  0  0  0  0
  2  3  1  0  0  0  0
  2 23  1  0  0  0  0
  3  4  1  0  0  0  0
  3 24  1  0  0  0  0
  3 25  1  0  0  0  0
  4  5  1  0  0  0  0
  4 26  1  0  0  0  0
  4 27  1  0  0  0  0
  5  6  1  0  0  0  0
  5 28  1  0  0  0  0
  5 29  1  0  0  0  0
  6  7  1  0  0  0  0
  6 30  1  0  0  0  0
  6 31  1  0  0  0  0
  7  8  1  0  0  0  0
  7 32  1  0  0  0  0
  8  9  1  0  0  0  0
  9 10  1  0  0  0  0
  9 33  1  0  0  0  0
  9 34  1  0  0  0  0
 10 11  1  0  0  0  0
 10 35  1  0  0  0  0
 10 36  1  0  0  0  0
 11 12  1  0  0  0  0
 11 37  1  0  0  0  0
 12 13  2  0  0  0  0
 12 14  1  0  0  0  0
 14 15  1  0  0  0  0
 14 38  1  0  0  0  0
 14 39  1  0  0  0  0
 15 19  1  0  0  0  0
 15 16  1  0  0  0  0
 16 17  2  0  0  0  0
 16 40  1  0  0  0  0
 17 18  1  0  0  0  0
 18 19  2  0  0  0  0
M  END
> <s_m_source_file>
AV-unprocessed.smi

> <i_m_source_file_index>
1574

> <i_lp_mmshare_version>
43012

> <i_f3d_flags>
0

> <s_epik_input>
W0NIM11bQ0BASF0xW0NIMl1bQ0gyXVtDSDJdW0NIMl1bQ0BIXTFPW0NIMl1bQ0gyXVtOSF1DKD1PKVtDSDJdbjJbY0hdbm5uMg==

> <s_epik_cmdline>
J2VwaWtfcHl0aG9uJywgJy1waCcsICc3LjAnLCAnLXRuJywgJzgnLCAnLW1hJywgJzIwMCcsICctbWV0YWxfYmluZGluZycsICctaW1hZScsICc8aW5maWxlLm1hZT4nLCAnLW9tYWUnLCAnPG91dGZpbGUubWFlPic=

> <r_lp_tautomer_probability>
1

> <r_epik_Ionization_Penalty>
1.44269e-06

> <r_epik_Ionization_Penalty_Charging>
0

> <r_epik_Ionization_Penalty_Neutral>
1.44269e-06

> <r_epik_State_Penalty>
-0

> <r_epik_Charging_Adjusted_Penalty>
0

> <i_epik_Tot_Q>
0

> <i_epik_Tot_abs_Q>
0

> <r_epik_Metal_State_Penalty>
-0

> <b_epik_Metal_Only>
0

> <s_lp_Force_Field>
OPLS_2005

> <r_lp_Energy>
10.5238

> <b_lp_Chiralities_Consistent>
1

> <s_lp_Variant>
AV-unprocessed.smi:1574-3

> <Gold.Version>
5.8.1

> <Gold.Id.Protein>
6NUR|6NUR_protein|mol2

> <Gold.PLP.Fitness>
50.1493

> <Gold.PLP.PLP>
-47.6934

> <Gold.PLP.part.hbond>
-2.0000

> <Gold.PLP.part.metal>
0.0000

> <Gold.PLP.part.buried>
-6.9197

> <Gold.PLP.part.nonpolar>
-39.1586

> <Gold.PLP.part.repulsive>
0.6397

> <Gold.PLP.ligand.clash>
0.0000

> <Gold.PLP.ligand.torsion>
1.2830

> <Gold.PLP.Chemscore.Hbond>
1.5829

> <Gold.PLP.Chemscore.CHOScore>
0.0000

> <Gold.PLP.Chemscore.Metal>
0.0000

> <Gold.Chemscore.Hbonds>
donor molecule, donor type, donor heavy atom, donor atom, acceptor molecule, acceptor atom, score
      L1  H    11    37       P1  8028  0.01
      P1  H  7989  7998       L1    13  0.65

> <Gold.PLP.Chemscore.Internal.Correction>
0.2730

> <Gold.Rescore>
     Score         DG    S(hbond)    S(metal)    S(lipo)     H(rot)  DE(clash)    DE(int)     intcor
     12.23     -14.84       1.44        0.00     102.57       2.90       0.05       2.56       ----

> <Gold.Chemscore.Fitness>
12.2293

> <Gold.Chemscore.DG>
-14.8385

> <Gold.Chemscore.ZeroCoef>
-5.4800

> <Gold.Chemscore.Hbond>
1.4354

> <Gold.Chemscore.Metal>
0.0000

> <Gold.Chemscore.Lipo>
102.5714

> <Gold.Chemscore.Internal_Hbond>
0.0000

> <Gold.Chemscore.DEClash>
0.0481

> <Gold.Chemscore.DEInternal>
2.5611

> <Gold.Chemscore.Rot>
2.9050

> <Gold.Chemscore.Internal.Correction>
   9.000000E+99

> <Gold.Chemscore.Hbonds>
donor molecule, donor type, donor heavy atom, donor atom, acceptor molecule, acceptor atom, score
      L1  H    11    37       P1  8028  0.02
      P1  H  7989  7998       L1    13  0.62

> <Gold.Chemscore.Hbond.Weighted>
-4.7943

> <Gold.Chemscore.Metal.Weighted>
-0.0000

> <Gold.Chemscore.Lipo.Weighted>
-12.0009

> <Gold.Chemscore.Internal_Hbond.Weighted>
0.0000

> <Gold.Chemscore.DEClash.Weighted>
0.0481

> <Gold.Chemscore.DEInternal.Weighted>
2.5611

> <Gold.Chemscore.Rot.Weighted>
7.4367

> <Gold.Chemscore.Internal.Correction.Weighted>
   9.000000E+99

> <Gold.Protein.RotatedTorsions>
[ 6907 6896 6895 6894 ] final  114.88 input  -60.11 | X-H torsion
[ 7974 7965 7964 7962 ] final -176.83 input  175.53 | X-H torsion
[ 8008 7997 7996 7995 ] final  -33.77 input   59.86 | X-H torsion
[ 10167 10162 10161 10158 ] final  101.14 input  -65.29 | X-H torsion
[ 10718 10713 10712 10709 ] final  157.15 input   66.30 | X-H torsion
[ 10763 10752 10751 10750 ] final  -43.08 input  -60.55 | X-H torsion
[ 11005 11000 10999 10996 ] final  131.61 input  -57.11 | X-H torsion

> <Gold.Protein.ActiveResidues>
 VAL166  LYS551  ARG553  GLY616  TRP617  ASP618  TYR619  PRO620  LYS621  CYS622 
 ASP623  PHE694  ASN695  SER759  ASP760  ASP761  ALA762  ILE779  LEU786  VAL792 
 PHE793  MET794  SER795  GLU796  ALA797  LYS798  CYS799  TRP800  GLU811  SER814 

> <Gold.Protein.RotatedAtoms>
  152.4776  133.8175  159.7035 H   0  0  0  0  0  0  0  0  0  0  0  0  # atno 6907 bound_to 6896
  150.8803  133.7372  159.2941 H   0  0  0  0  0  0  0  0  0  0  0  0  # atno 6908 bound_to 6896
  151.4878  135.1059  159.9847 H   0  0  0  0  0  0  0  0  0  0  0  0  # atno 6909 bound_to 6896
  144.7127  140.1112  143.6411 H   0  0  0  0  0  0  0  0  0  0  0  0  # atno 7974 bound_to 7965
  154.4139  140.1702  156.1941 H   0  0  0  0  0  0  0  0  0  0  0  0  # atno 8008 bound_to 7997
  155.9579  140.3396  155.6441 H   0  0  0  0  0  0  0  0  0  0  0  0  # atno 8009 bound_to 7997
  155.6787  140.0720  157.2484 H   0  0  0  0  0  0  0  0  0  0  0  0  # atno 8010 bound_to 7997
  139.7464  144.6996  151.0497 H   0  0  0  0  0  0  0  0  0  0  0  0  # atno 10167 bound_to 10162
  157.1953  131.0664  151.2056 H   0  0  0  0  0  0  0  0  0  0  0  0  # atno 10718 bound_to 10713
  153.9896  135.6707  153.4753 H   0  0  0  0  0  0  0  0  0  0  0  0  # atno 10763 bound_to 10752
  153.0711  135.4974  154.8303 H   0  0  0  0  0  0  0  0  0  0  0  0  # atno 10764 bound_to 10752
  154.7117  135.3098  154.9149 H   0  0  0  0  0  0  0  0  0  0  0  0  # atno 10765 bound_to 10752
  139.9741  134.9569  156.9464 H   0  0  0  0  0  0  0  0  0  0  0  0  # atno 11005 bound_to 11000
  145.9453  139.2697  143.1244 LP  0  0  0  0  0  0  0  0  0  0  0  0  # atno 17320 bound_to 7965
  145.9380  140.9000  143.0322 LP  0  0  0  0  0  0  0  0  0  0  0  0  # atno 17321 bound_to 7965
  140.7792  143.4861  150.9954 LP  0  0  0  0  0  0  0  0  0  0  0  0  # atno 17342 bound_to 10162
  139.8549  143.7389  152.3176 LP  0  0  0  0  0  0  0  0  0  0  0  0  # atno 17343 bound_to 10162
  157.3820  130.7236  149.6637 LP  0  0  0  0  0  0  0  0  0  0  0  0  # atno 17370 bound_to 10713
  155.9706  130.4170  150.4257 LP  0  0  0  0  0  0  0  0  0  0  0  0  # atno 17371 bound_to 10713
  140.5232  134.0887  155.7297 LP  0  0  0  0  0  0  0  0  0  0  0  0  # atno 17394 bound_to 11000
  141.1419  133.9123  157.2306 LP  0  0  0  0  0  0  0  0  0  0  0  0  # atno 17395 bound_to 11000

$$$$
