#       Name:                AV-unprocessed.smi:1644
#       Creating user name   scv26
#       Creation time:       Fri Mar 27 07:29:33 2020


#       File generated by GOLD software.
#

@<TRIPOS>MOLECULE
AV-unprocessed.smi:1644
    56    58     1
SMALL
NO_CHARGES


@<TRIPOS>ATOM
      1 ****         0.3984   5.1027   0.3762 C.3            1 S1                 0.0000
      2 ****        -0.3422   3.8905   0.9506 C.3            1 S1                 0.0000
      3 ****        -1.4077   4.2923   1.9933 C.3            1 S1                 0.0000
      4 ****        -2.2370   3.1354   2.6028 C.3            1 S1                 0.0000
      5 ****        -3.0383   2.4631   1.6016 N.pl3          1 S1                -1.0000
      6 ****        -2.7154   1.1482   1.6085 C.2            1 S1                 0.0000
      7 ****        -3.1879   0.2716   0.8852 O.2            1 S1                 0.0000
      8 ****        -1.7664   0.8852   2.5286 N.am           1 S1                 0.0000
      9 ****        -1.1635  -0.4301   2.7665 C.3            1 S1                 0.0000
     10 ****        -0.0477  -0.7389   1.7469 C.3            1 S1                 0.0000
     11 ****         1.1570  -0.1443   2.1913 O.3            1 S1                 0.0000
     12 ****         0.1835  -2.2546   1.5991 C.3            1 S1                 0.0000
     13 ****         1.1949  -2.5671   0.6056 N.pl3          1 S1                 0.0000
     14 ****         2.4565  -2.9831   0.8276 C.2            1 S1                 0.0000
     15 ****         3.2164  -3.2187  -0.2386 N.2            1 S1                 0.0000
     16 ****         2.3461  -2.9183  -1.2727 C.ar           1 S1                 0.0000
     17 ****         2.5346  -2.9602  -2.6717 C.ar           1 S1                 0.0000
     18 ****         1.4899  -2.6043  -3.5547 C.ar           1 S1                 0.0000
     19 ****         1.7362  -2.6628  -5.0520 C.3            1 S1                 0.0000
     20 ****         0.2316  -2.1993  -3.0406 C.ar           1 S1                 0.0000
     21 ****        -0.9052  -1.8099  -3.9689 C.3            1 S1                 0.0000
     22 ****         0.0263  -2.1532  -1.6459 C.ar           1 S1                 0.0000
     23 ****         1.0736  -2.5089  -0.7780 C.ar           1 S1                 0.0000
     24 ****        -1.4046   2.0019   3.1669 C.2            1 S1                 0.0000
     25 ****        -0.5533   2.1283   4.0479 O.2            1 S1                 0.0000
     26 ****         1.1434   4.7904  -0.3558 H              1 S1                 0.0000
     27 ****         0.9140   5.6569   1.1608 H              1 S1                 0.0000
     28 ****        -0.2907   5.7858  -0.1209 H              1 S1                 0.0000
     29 ****        -0.8106   3.3424   0.1326 H              1 S1                 0.0000
     30 ****         0.3879   3.2140   1.3956 H              1 S1                 0.0000
     31 ****        -0.9169   4.8319   2.8043 H              1 S1                 0.0000
     32 ****        -2.0933   5.0096   1.5401 H              1 S1                 0.0000
     33 ****        -2.8570   3.5320   3.4079 H              1 S1                 0.0000
     34 ****        -0.7942  -0.5198   3.7898 H              1 S1                 0.0000
     35 ****        -1.9531  -1.1789   2.6841 H              1 S1                 0.0000
     36 ****        -0.3029  -0.3234   0.7711 H              1 S1                 0.0000
     37 ****         1.3492  -0.4669   3.0582 H              1 S1                 0.0000
     38 ****         0.4767  -2.6944   2.5537 H              1 S1                 0.0000
     39 ****        -0.7420  -2.7479   1.2991 H              1 S1                 0.0000
     40 ****         2.8392  -3.1194   1.8286 H              1 S1                 0.0000
     41 ****         3.4933  -3.2684  -3.0623 H              1 S1                 0.0000
     42 ****         1.0646  -3.3823  -5.5207 H              1 S1                 0.0000
     43 ****         2.7596  -2.9649  -5.2763 H              1 S1                 0.0000
     44 ****         1.5693  -1.6859  -5.5061 H              1 S1                 0.0000
     45 ****        -1.8040  -1.5486  -3.4093 H              1 S1                 0.0000
     46 ****        -1.1553  -2.6351  -4.6359 H              1 S1                 0.0000
     47 ****        -0.6253  -0.9470  -4.5735 H              1 S1                 0.0000
     48 ****        -0.9257  -1.8437  -1.2396 H              1 S1                 0.0000
     49 ****        -3.7151   2.8962   1.0063 LP             1 S1                 0.0000
     50 ****        -3.8848   0.5048   0.2070 LP             1 S1                 0.0000
     51 ****        -2.8749  -0.6739   0.9757 LP             1 S1                 0.0000
     52 ****         1.0528   0.8499   2.2169 LP             1 S1                 0.0000
     53 ****         1.9016  -0.3856   1.5690 LP             1 S1                 0.0000
     54 ****         4.1655  -3.5305  -0.2818 LP             1 S1                 0.0000
     55 ****        -0.3719   3.0291   4.4423 LP             1 S1                 0.0000
     56 ****        -0.0435   1.3301   4.3688 LP             1 S1                 0.0000
@<TRIPOS>BOND
    1    1    2 1     
    2    1   26 1     
    3    1   27 1     
    4    1   28 1     
    5    2    3 1     
    6    2   29 1     
    7    2   30 1     
    8    3    4 1     
    9    3   31 1     
   10    3   32 1     
   11    4   24 1     
   12    4    5 1     
   13    4   33 1     
   14    5    6 1     
   15    6    7 2     
   16    6    8 am    
   17    8    9 1     
   18    8   24 am    
   19    9   10 1     
   20    9   34 1     
   21    9   35 1     
   22   10   11 1     
   23   10   12 1     
   24   10   36 1     
   25   11   37 1     
   26   12   13 1     
   27   12   38 1     
   28   12   39 1     
   29   13   23 1     
   30   13   14 1     
   31   14   15 2     
   32   14   40 1     
   33   15   16 1     
   34   16   23 ar    
   35   16   17 ar    
   36   17   18 ar    
   37   17   41 1     
   38   18   19 1     
   39   18   20 ar    
   40   19   42 1     
   41   19   43 1     
   42   19   44 1     
   43   20   21 1     
   44   20   22 ar    
   45   21   45 1     
   46   21   46 1     
   47   21   47 1     
   48   22   23 ar    
   49   22   48 1     
   50   24   25 2     
   51    5   49 1     
   52    7   50 1     
   53    7   51 1     
   54   11   52 1     
   55   11   53 1     
   56   15   54 1     
   57   25   55 1     
   58   25   56 1     
@<TRIPOS>SUBSTRUCTURE
      1 S1             1
@<TRIPOS>SET
LONE_PAIRS      STATIC     ATOMS    <user>   **** ""
8 49 50 51 52 53 54 55 56
DONOR_HYDROGENS      STATIC     ATOMS    <user>   **** ""
1 37
ATOM$BLUE        STATIC     ATOMS    COLORGROUP SYSTEM
8 49 50 51 52 53 54 55 56
ATOM$RED        STATIC     ATOMS    COLORGROUP SYSTEM
1 37
