AV-unprocessed.smi:3329|AV-procd|sdf|12800|dock1
  -GOLD-   2272019163D 1   1.00000     0.00000
 Structure written by MMmdl.
 41 42  0  0  0  0  0  0  0  0  3 V2000
  154.6715  141.0659  161.4512 C   0  0  0  0  0  0  0  0  0  0  0  0
  153.6565  142.0989  161.0547 C   0  0  0  0  0  0  0  0  0  0  0  0
  153.1281  143.1531  161.8526 C   0  0  0  0  0  0  0  0  0  0  0  0
  152.2450  143.8957  161.2050 N   0  0  0  0  0  0  0  0  0  0  0  0
  152.1795  143.3454  159.9746 N   0  0  0  0  0  0  0  0  0  0  0  0
  151.3014  143.9234  158.9726 C   0  0  0  0  0  0  0  0  0  0  0  0
  150.9678  142.9249  157.8521 C   0  0  0  0  0  0  0  0  0  0  0  0
  149.5089  142.7699  157.7005 N   0  3  0  0  0  0  0  0  0  0  0  0
  148.7475  142.7860  158.9647 C   0  0  0  0  0  0  0  0  0  0  0  0
  147.3569  142.1993  158.7165 C   0  0  0  0  0  0  0  0  0  0  0  0
  146.9782  142.0145  157.5612 O   0  0  0  0  0  0  0  0  0  0  0  0
  146.6991  141.9640  159.8803 N   0  5  0  0  0  0  0  0  0  0  0  0
  145.3330  142.4176  160.1404 C   0  0  2  0  0  0  0  0  0  0  0  0
  144.4584  141.2260  160.5772 C   0  0  0  0  0  0  0  0  0  0  0  0
  144.7513  143.0618  158.9420 C   0  0  0  0  0  0  0  0  0  0  0  0
  144.2955  143.5658  158.0044 N   0  0  0  0  0  0  0  0  0  0  0  0
  145.4187  143.4255  161.2855 C   0  0  0  0  0  0  0  0  0  0  0  0
  146.2345  143.1620  162.5322 C   0  0  0  0  0  0  0  0  0  0  0  0
  144.7259  143.2131  162.6140 C   0  0  0  0  0  0  0  0  0  0  0  0
  153.0194  142.2578  159.8567 C   0  0  0  0  0  0  0  0  0  0  0  0
  154.2466  140.3254  162.1288 H   0  0  0  0  0  0  0  0  0  0  0  0
  155.5245  141.5154  161.9597 H   0  0  0  0  0  0  0  0  0  0  0  0
  155.0610  140.5261  160.5878 H   0  0  0  0  0  0  0  0  0  0  0  0
  153.3601  143.3994  162.8784 H   0  0  0  0  0  0  0  0  0  0  0  0
  150.3887  144.2673  159.4614 H   0  0  0  0  0  0  0  0  0  0  0  0
  151.7868  144.8071  158.5565 H   0  0  0  0  0  0  0  0  0  0  0  0
  151.3884  143.2686  156.9067 H   0  0  0  0  0  0  0  0  0  0  0  0
  151.4182  141.9552  158.0692 H   0  0  0  0  0  0  0  0  0  0  0  0
  149.1632  143.5397  157.1441 H   0  0  0  0  0  0  0  0  0  0  0  0
  149.2762  142.2049  159.7216 H   0  0  0  0  0  0  0  0  0  0  0  0
  148.6516  143.8068  159.3384 H   0  0  0  0  0  0  0  0  0  0  0  0
  143.4565  141.5598  160.8493 H   0  0  0  0  0  0  0  0  0  0  0  0
  144.8799  140.7157  161.4443 H   0  0  0  0  0  0  0  0  0  0  0  0
  144.3452  140.4896  159.7812 H   0  0  0  0  0  0  0  0  0  0  0  0
  145.4396  144.4581  160.9392 H   0  0  0  0  0  0  0  0  0  0  0  0
  146.7111  142.1900  162.6413 H   0  0  0  0  0  0  0  0  0  0  0  0
  146.7880  143.9987  162.9535 H   0  0  0  0  0  0  0  0  0  0  0  0
  144.2789  144.0852  163.0857 H   0  0  0  0  0  0  0  0  0  0  0  0
  144.1949  142.2774  162.7746 H   0  0  0  0  0  0  0  0  0  0  0  0
  153.0982  141.6946  158.9384 H   0  0  0  0  0  0  0  0  0  0  0  0
  149.3084  141.9091  157.2127 H   0  0  0  0  0  0  0  0  0  0  0  0
  1  2  1  0  0  0  0
  1 21  1  0  0  0  0
  1 22  1  0  0  0  0
  1 23  1  0  0  0  0
  2 20  2  0  0  0  0
  2  3  1  0  0  0  0
  3  4  2  0  0  0  0
  3 24  1  0  0  0  0
  4  5  1  0  0  0  0
  5  6  1  0  0  0  0
  5 20  1  0  0  0  0
  6  7  1  0  0  0  0
  6 25  1  0  0  0  0
  6 26  1  0  0  0  0
  7  8  1  0  0  0  0
  7 27  1  0  0  0  0
  7 28  1  0  0  0  0
  8  9  1  0  0  0  0
  8 29  1  0  0  0  0
  8 41  1  0  0  0  0
  9 10  1  0  0  0  0
  9 30  1  0  0  0  0
  9 31  1  0  0  0  0
 10 11  2  0  0  0  0
 10 12  1  0  0  0  0
 12 13  1  0  0  0  0
 13 14  1  0  0  0  0
 13 15  1  0  0  0  0
 13 17  1  0  0  0  0
 14 32  1  0  0  0  0
 14 33  1  0  0  0  0
 14 34  1  0  0  0  0
 15 16  3  0  0  0  0
 17 19  1  0  0  0  0
 17 18  1  0  0  0  0
 17 35  1  0  0  0  0
 18 19  1  0  0  0  0
 18 36  1  0  0  0  0
 18 37  1  0  0  0  0
 19 38  1  0  0  0  0
 19 39  1  0  0  0  0
 20 40  1  0  0  0  0
M  CHG  1   8   1
M  CHG  1  12  -1
M  END
> <s_m_source_file>
AV-unprocessed.smi

> <i_m_source_file_index>
3329

> <i_lp_mmshare_version>
43012

> <i_f3d_flags>
0

> <s_epik_input>
W0NIM11jMVtjSF1ubihbY0hdMSlbQ0gyXVtDSDJdW05IXVtDSDJdQyg9TylbTkhdW0NAQF0oW0NIM10pKEMjTilbQ0hdMltDSDJdW0NIMl0y

> <s_epik_cmdline>
J2VwaWtfcHl0aG9uJywgJy1waCcsICc3LjAnLCAnLXRuJywgJzgnLCAnLW1hJywgJzIwMCcsICctbWV0YWxfYmluZGluZycsICctaW1hZScsICc8aW5maWxlLm1hZT4nLCAnLW9tYWUnLCAnPG91dGZpbGUubWFlPic=

> <r_lp_tautomer_probability>
1

> <r_epik_Ionization_Penalty>
5.61187

> <r_epik_Ionization_Penalty_Charging>
5.61186

> <r_epik_Ionization_Penalty_Neutral>
4.91277e-06

> <r_epik_State_Penalty>
5.94522

> <r_epik_Charging_Adjusted_Penalty>
11.5571

> <i_epik_Tot_Q>
0

> <i_epik_Tot_abs_Q>
2

> <r_epik_Metal_State_Penalty>
1.9215

> <b_epik_Metal_Only>
1

> <s_lp_Force_Field>
OPLS_2005

> <r_lp_Energy>
5.18635

> <b_lp_Chiralities_Consistent>
1

> <s_lp_Variant>
AV-unprocessed.smi:3329-6

> <Gold.Version>
5.8.1

> <Gold.Id.Protein>
6NUR|6NUR_protein|mol2

> <Gold.PLP.Fitness>
48.5451

> <Gold.PLP.PLP>
-40.2368

> <Gold.PLP.part.hbond>
-2.0000

> <Gold.PLP.part.metal>
0.0000

> <Gold.PLP.part.buried>
-6.7792

> <Gold.PLP.part.nonpolar>
-32.2206

> <Gold.PLP.part.repulsive>
0.4255

> <Gold.PLP.ligand.clash>
0.0000

> <Gold.PLP.ligand.torsion>
2.7015

> <Gold.PLP.Chemscore.Hbond>
4.0000

> <Gold.PLP.Chemscore.CHOScore>
0.0000

> <Gold.PLP.Chemscore.Metal>
0.0000

> <Gold.Chemscore.Hbonds>
donor molecule, donor type, donor heavy atom, donor atom, acceptor molecule, acceptor atom, score
      L1  H     8    29       P1  8028  2.00
      P1  H  6933  6944       L1    12  0.08
      P1  H  6934  6946       L1    12  1.33

> <Gold.PLP.Chemscore.Internal.Correction>
1.7113

> <Gold.Rescore>
     Score         DG    S(hbond)    S(metal)    S(lipo)     H(rot)  DE(clash)    DE(int)     intcor
     12.06     -16.06       1.82        0.00      89.16       2.31       0.04       3.96       ----

> <Gold.Chemscore.Fitness>
12.0612

> <Gold.Chemscore.DG>
-16.0617

> <Gold.Chemscore.ZeroCoef>
-5.4800

> <Gold.Chemscore.Hbond>
1.8186

> <Gold.Chemscore.Metal>
0.0000

> <Gold.Chemscore.Lipo>
89.1569

> <Gold.Chemscore.Internal_Hbond>
0.0000

> <Gold.Chemscore.DEClash>
0.0380

> <Gold.Chemscore.DEInternal>
3.9625

> <Gold.Chemscore.Rot>
2.3140

> <Gold.Chemscore.Internal.Correction>
   9.000000E+99

> <Gold.Chemscore.Hbonds>
donor molecule, donor type, donor heavy atom, donor atom, acceptor molecule, acceptor atom, score
      L1  H     8    29       P1  8028  0.65
      P1  H  6933  6944       L1    12  0.01
      P1  H  6934  6946       L1    12  0.39

> <Gold.Chemscore.Hbond.Weighted>
-6.0741

> <Gold.Chemscore.Metal.Weighted>
-0.0000

> <Gold.Chemscore.Lipo.Weighted>
-10.4314

> <Gold.Chemscore.Internal_Hbond.Weighted>
0.0000

> <Gold.Chemscore.DEClash.Weighted>
0.0380

> <Gold.Chemscore.DEInternal.Weighted>
3.9625

> <Gold.Chemscore.Rot.Weighted>
5.9238

> <Gold.Chemscore.Internal.Correction.Weighted>
   9.000000E+99

> <Gold.Protein.RotatedTorsions>
[ 6907 6896 6895 6894 ] final  127.19 input  -60.11 | X-H torsion
[ 7974 7965 7964 7962 ] final  112.46 input  175.53 | X-H torsion
[ 8008 7997 7996 7995 ] final   32.81 input   59.86 | X-H torsion
[ 10167 10162 10161 10158 ] final  108.64 input  -65.29 | X-H torsion
[ 10718 10713 10712 10709 ] final -158.46 input   66.30 | X-H torsion
[ 10763 10752 10751 10750 ] final  168.84 input  -60.55 | X-H torsion
[ 11005 11000 10999 10996 ] final   68.21 input  -57.11 | X-H torsion

> <Gold.Protein.ActiveResidues>
 VAL166  LYS551  ARG553  GLY616  TRP617  ASP618  TYR619  PRO620  LYS621  CYS622 
 ASP623  PHE694  ASN695  SER759  ASP760  ASP761  ALA762  ILE779  LEU786  VAL792 
 PHE793  MET794  SER795  GLU796  ALA797  LYS798  CYS799  TRP800  GLU811  SER814 

> <Gold.Protein.RotatedAtoms>
  152.3835  133.6579  159.6180 H   0  0  0  0  0  0  0  0  0  0  0  0  # atno 6907 bound_to 6896
  150.7760  133.9073  159.3368 H   0  0  0  0  0  0  0  0  0  0  0  0  # atno 6908 bound_to 6896
  151.6874  135.0953  160.0278 H   0  0  0  0  0  0  0  0  0  0  0  0  # atno 6909 bound_to 6896
  145.2293  139.2827  143.4176 H   0  0  0  0  0  0  0  0  0  0  0  0  # atno 7974 bound_to 7965
  155.1285  140.3255  155.4480 H   0  0  0  0  0  0  0  0  0  0  0  0  # atno 8008 bound_to 7997
  156.2641  140.2014  156.6354 H   0  0  0  0  0  0  0  0  0  0  0  0  # atno 8009 bound_to 7997
  154.6630  140.0545  157.0070 H   0  0  0  0  0  0  0  0  0  0  0  0  # atno 8010 bound_to 7997
  139.6830  144.7116  151.1482 H   0  0  0  0  0  0  0  0  0  0  0  0  # atno 10167 bound_to 10162
  156.5545  130.8620  151.2790 H   0  0  0  0  0  0  0  0  0  0  0  0  # atno 10718 bound_to 10713
  154.3745  135.2753  155.2247 H   0  0  0  0  0  0  0  0  0  0  0  0  # atno 10763 bound_to 10752
  154.4380  135.5961  153.6114 H   0  0  0  0  0  0  0  0  0  0  0  0  # atno 10764 bound_to 10752
  152.9837  135.6012  154.3980 H   0  0  0  0  0  0  0  0  0  0  0  0  # atno 10765 bound_to 10752
  139.9725  134.6877  156.0419 H   0  0  0  0  0  0  0  0  0  0  0  0  # atno 11005 bound_to 11000
  146.3357  140.2623  142.8602 LP  0  0  0  0  0  0  0  0  0  0  0  0  # atno 17320 bound_to 7965
  144.9692  140.8351  143.5466 LP  0  0  0  0  0  0  0  0  0  0  0  0  # atno 17321 bound_to 7965
  140.7658  143.5671  150.9036 LP  0  0  0  0  0  0  0  0  0  0  0  0  # atno 17342 bound_to 10162
  139.9344  143.6455  152.3069 LP  0  0  0  0  0  0  0  0  0  0  0  0  # atno 17343 bound_to 10162
  157.7381  130.9807  150.2232 LP  0  0  0  0  0  0  0  0  0  0  0  0  # atno 17370 bound_to 10713
  156.2854  130.3739  149.7893 LP  0  0  0  0  0  0  0  0  0  0  0  0  # atno 17371 bound_to 10713
  141.1404  133.6566  156.3712 LP  0  0  0  0  0  0  0  0  0  0  0  0  # atno 17394 bound_to 11000
  140.5264  134.6255  157.5335 LP  0  0  0  0  0  0  0  0  0  0  0  0  # atno 17395 bound_to 11000

$$$$
