AV-unprocessed.smi:2339|AV-procd|sdf|9337|dock6
  -GOLD-   2272012553D 1   1.00000     0.00000
 Structure written by MMmdl.
 49 52  0  0  0  0  0  0  0  0  1 V2000
  148.4595  130.9946  160.9609 C   0  0  0  0  0  0  0  0  0  0  0  0
  147.7093  131.9195  159.9963 C   0  0  0  0  0  0  0  0  0  0  0  0
  147.8620  133.3209  160.3602 N   0  0  0  0  0  0  0  0  0  0  0  0
  147.4048  133.8030  161.5826 C   0  0  0  0  0  0  0  0  0  0  0  0
  147.4383  135.1006  161.9432 C   0  0  0  0  0  0  0  0  0  0  0  0
  147.9857  136.0992  161.0029 C   0  0  0  0  0  0  0  0  0  0  0  0
  148.0264  137.2942  161.2958 O   0  0  0  0  0  0  0  0  0  0  0  0
  148.4785  135.5828  159.6992 C   0  0  0  0  0  0  0  0  0  0  0  0
  148.9862  136.5368  158.8048 N   0  0  0  0  0  0  0  0  0  0  0  0
  150.1500  137.2158  158.8523 C   0  0  0  0  0  0  0  0  0  0  0  0
  150.9767  137.1444  159.7592 O   0  0  0  0  0  0  0  0  0  0  0  0
  150.3245  138.0567  157.8183 N   0  0  0  0  0  0  0  0  0  0  0  0
  151.4724  138.9376  157.5676 C   0  0  1  0  0  0  0  0  0  0  0  0
  151.8800  139.0298  156.0768 C   0  0  1  0  0  0  0  0  0  0  0  0
  151.3460  138.1033  155.0105 C   0  0  0  0  0  0  0  0  0  0  0  0
  150.2059  138.9166  154.3915 C   0  0  0  0  0  0  0  0  0  0  0  0
  149.8653  139.8798  155.3857 O   0  0  0  0  0  0  0  0  0  0  0  0
  151.0758  140.3177  155.9972 C   0  0  1  0  0  0  0  0  0  0  0  0
  151.0648  140.4297  157.5354 C   0  0  0  0  0  0  0  0  0  0  0  0
  149.7707  140.8946  158.2036 C   0  0  0  0  0  0  0  0  0  0  0  0
  149.8392  142.4200  158.2802 C   0  0  0  0  0  0  0  0  0  0  0  0
  151.3325  142.7582  158.3113 C   0  0  0  0  0  0  0  0  0  0  0  0
  152.0668  141.4267  158.1178 C   0  0  0  0  0  0  0  0  0  0  0  0
  148.3802  134.2505  159.4606 C   0  0  0  0  0  0  0  0  0  0  0  0
  148.3261  129.9506  160.6774 H   0  0  0  0  0  0  0  0  0  0  0  0
  148.0963  131.1114  161.9823 H   0  0  0  0  0  0  0  0  0  0  0  0
  149.5293  131.2057  160.9574 H   0  0  0  0  0  0  0  0  0  0  0  0
  148.0710  131.7656  158.9788 H   0  0  0  0  0  0  0  0  0  0  0  0
  146.6499  131.6607  159.9849 H   0  0  0  0  0  0  0  0  0  0  0  0
  147.0148  133.0424  162.2434 H   0  0  0  0  0  0  0  0  0  0  0  0
  147.0729  135.4284  162.9054 H   0  0  0  0  0  0  0  0  0  0  0  0
  148.3707  136.7617  158.0364 H   0  0  0  0  0  0  0  0  0  0  0  0
  149.5453  138.1627  157.1846 H   0  0  0  0  0  0  0  0  0  0  0  0
  152.3214  138.7593  158.2302 H   0  0  0  0  0  0  0  0  0  0  0  0
  152.9481  139.2325  155.9839 H   0  0  0  0  0  0  0  0  0  0  0  0
  152.1011  137.8565  154.2638 H   0  0  0  0  0  0  0  0  0  0  0  0
  150.9813  137.1633  155.4215 H   0  0  0  0  0  0  0  0  0  0  0  0
  150.5497  139.4381  153.4971 H   0  0  0  0  0  0  0  0  0  0  0  0
  149.3484  138.3009  154.1199 H   0  0  0  0  0  0  0  0  0  0  0  0
  151.5734  141.1233  155.4551 H   0  0  0  0  0  0  0  0  0  0  0  0
  148.8766  140.5645  157.6738 H   0  0  0  0  0  0  0  0  0  0  0  0
  149.7068  140.4865  159.2133 H   0  0  0  0  0  0  0  0  0  0  0  0
  149.3828  142.8557  157.3905 H   0  0  0  0  0  0  0  0  0  0  0  0
  149.3059  142.8086  159.1481 H   0  0  0  0  0  0  0  0  0  0  0  0
  151.5760  143.4530  157.5066 H   0  0  0  0  0  0  0  0  0  0  0  0
  151.6206  143.2304  159.2511 H   0  0  0  0  0  0  0  0  0  0  0  0
  152.4235  141.0713  159.0855 H   0  0  0  0  0  0  0  0  0  0  0  0
  152.9484  141.5491  157.4872 H   0  0  0  0  0  0  0  0  0  0  0  0
  148.6927  133.7974  158.5329 H   0  0  0  0  0  0  0  0  0  0  0  0
  1  2  1  0  0  0  0
  1 25  1  0  0  0  0
  1 26  1  0  0  0  0
  1 27  1  0  0  0  0
  2  3  1  0  0  0  0
  2 28  1  0  0  0  0
  2 29  1  0  0  0  0
  3 24  1  0  0  0  0
  3  4  1  0  0  0  0
  4  5  2  0  0  0  0
  4 30  1  0  0  0  0
  5  6  1  0  0  0  0
  5 31  1  0  0  0  0
  6  7  2  0  0  0  0
  6  8  1  0  0  0  0
  8  9  1  0  0  0  0
  8 24  2  0  0  0  0
  9 10  1  0  0  0  0
  9 32  1  0  0  0  0
 10 11  2  0  0  0  0
 10 12  1  0  0  0  0
 12 13  1  0  0  0  0
 12 33  1  0  0  0  0
 13 19  1  0  0  0  0
 13 14  1  0  0  0  0
 13 34  1  0  0  0  0
 14 18  1  0  0  0  0
 14 15  1  0  0  0  0
 14 35  1  0  0  0  0
 15 16  1  0  0  0  0
 15 36  1  0  0  0  0
 15 37  1  0  0  0  0
 16 17  1  0  0  0  0
 16 38  1  0  0  0  0
 16 39  1  0  0  0  0
 17 18  1  0  0  0  0
 18 19  1  0  0  0  0
 18 40  1  0  0  0  0
 19 23  1  0  0  0  0
 19 20  1  0  0  0  0
 20 21  1  0  0  0  0
 20 41  1  0  0  0  0
 20 42  1  0  0  0  0
 21 22  1  0  0  0  0
 21 43  1  0  0  0  0
 21 44  1  0  0  0  0
 22 23  1  0  0  0  0
 22 45  1  0  0  0  0
 22 46  1  0  0  0  0
 23 47  1  0  0  0  0
 23 48  1  0  0  0  0
 24 49  1  0  0  0  0
M  END
> <s_m_source_file>
AV-unprocessed.smi

> <i_m_source_file_index>
2339

> <i_lp_mmshare_version>
43012

> <i_f3d_flags>
0

> <s_epik_input>
W0NIM11bQ0gyXW4xW2NIXVtjSF1jKD1PKWMoW2NIXTEpW05IXUMoPU8pW05IXVtDQEBIXTJbQ0BASF0oW0NIMl1bQ0gyXU8zKVtDQEBIXTNDMjRbQ0gyXVtDSDJdW0NIMl1bQ0gyXTQ=

> <s_epik_cmdline>
J2VwaWtfcHl0aG9uJywgJy1waCcsICc3LjAnLCAnLXRuJywgJzgnLCAnLW1hJywgJzIwMCcsICctbWV0YWxfYmluZGluZycsICctaW1hZScsICc8aW5maWxlLm1hZT4nLCAnLW9tYWUnLCAnPG91dGZpbGUubWFlPic=

> <r_lp_tautomer_probability>
1

> <r_epik_Ionization_Penalty>
0.00145966

> <r_epik_Ionization_Penalty_Charging>
0.00143969

> <r_epik_Ionization_Penalty_Neutral>
1.99697e-05

> <r_epik_State_Penalty>
0.000961843

> <r_epik_Charging_Adjusted_Penalty>
0.00240153

> <i_epik_Tot_Q>
0

> <i_epik_Tot_abs_Q>
0

> <r_epik_Metal_State_Penalty>
-0

> <b_epik_Metal_Only>
0

> <s_lp_Force_Field>
OPLS_2005

> <r_lp_Energy>
59.7263

> <b_lp_Chiralities_Consistent>
1

> <s_lp_Variant>
AV-unprocessed.smi:2339-2

> <Gold.Version>
5.8.1

> <Gold.Id.Protein>
6NUR|6NUR_protein|mol2

> <Gold.PLP.Fitness>
44.4543

> <Gold.PLP.PLP>
-37.8895

> <Gold.PLP.part.hbond>
-2.8479

> <Gold.PLP.part.metal>
0.0000

> <Gold.PLP.part.buried>
-4.6957

> <Gold.PLP.part.nonpolar>
-31.0364

> <Gold.PLP.part.repulsive>
0.2443

> <Gold.PLP.ligand.clash>
0.0000

> <Gold.PLP.ligand.torsion>
0.8404

> <Gold.PLP.Chemscore.Hbond>
2.6800

> <Gold.PLP.Chemscore.CHOScore>
0.0000

> <Gold.PLP.Chemscore.Metal>
0.0000

> <Gold.Chemscore.Hbonds>
donor molecule, donor type, donor heavy atom, donor atom, acceptor molecule, acceptor atom, score
      P1  H  6896  6908       L1    11  0.94
      P1  H  6931  6943       L1     7  0.96
      P1  H  6934  6947       L1     7  0.66

> <Gold.PLP.Chemscore.Internal.Correction>
0.2055

> <Gold.Rescore>
     Score         DG    S(hbond)    S(metal)    S(lipo)     H(rot)  DE(clash)    DE(int)     intcor
     21.01     -21.86       2.65        0.00      90.01       1.17       0.01       0.84       ----

> <Gold.Chemscore.Fitness>
21.0096

> <Gold.Chemscore.DG>
-21.8603

> <Gold.Chemscore.ZeroCoef>
-5.4800

> <Gold.Chemscore.Hbond>
2.6456

> <Gold.Chemscore.Metal>
0.0000

> <Gold.Chemscore.Lipo>
90.0130

> <Gold.Chemscore.Internal_Hbond>
0.0000

> <Gold.Chemscore.DEClash>
0.0121

> <Gold.Chemscore.DEInternal>
0.8386

> <Gold.Chemscore.Rot>
1.1670

> <Gold.Chemscore.Internal.Correction>
   9.000000E+99

> <Gold.Chemscore.Hbonds>
donor molecule, donor type, donor heavy atom, donor atom, acceptor molecule, acceptor atom, score
      P1  H  6896  6908       L1    11  0.23
      P1  H  6931  6943       L1     7  0.87
      P1  H  6934  6947       L1     7  0.63

> <Gold.Chemscore.Hbond.Weighted>
-8.8362

> <Gold.Chemscore.Metal.Weighted>
-0.0000

> <Gold.Chemscore.Lipo.Weighted>
-10.5315

> <Gold.Chemscore.Internal_Hbond.Weighted>
0.0000

> <Gold.Chemscore.DEClash.Weighted>
0.0121

> <Gold.Chemscore.DEInternal.Weighted>
0.8386

> <Gold.Chemscore.Rot.Weighted>
2.9874

> <Gold.Chemscore.Internal.Correction.Weighted>
   9.000000E+99

> <Gold.Protein.RotatedTorsions>
[ 6907 6896 6895 6894 ] final -145.11 input  -60.11 | X-H torsion
[ 7974 7965 7964 7962 ] final   34.72 input  175.53 | X-H torsion
[ 8008 7997 7996 7995 ] final -137.06 input   59.86 | X-H torsion
[ 10167 10162 10161 10158 ] final -141.19 input  -65.29 | X-H torsion
[ 10718 10713 10712 10709 ] final -161.85 input   66.30 | X-H torsion
[ 10763 10752 10751 10750 ] final    4.49 input  -60.55 | X-H torsion
[ 11005 11000 10999 10996 ] final    2.16 input  -57.11 | X-H torsion

> <Gold.Protein.ActiveResidues>
 VAL166  LYS551  ARG553  GLY616  TRP617  ASP618  TYR619  PRO620  LYS621  CYS622 
 ASP623  PHE694  ASN695  SER759  ASP760  ASP761  ALA762  ILE779  LEU786  VAL792 
 PHE793  MET794  SER795  GLU796  ALA797  LYS798  CYS799  TRP800  GLU811  SER814 

> <Gold.Protein.RotatedAtoms>
  151.1232  133.5089  159.2601 H   0  0  0  0  0  0  0  0  0  0  0  0  # atno 6907 bound_to 6896
  151.1838  135.0372  159.8814 H   0  0  0  0  0  0  0  0  0  0  0  0  # atno 6908 bound_to 6896
  152.5457  134.1081  159.8400 H   0  0  0  0  0  0  0  0  0  0  0  0  # atno 6909 bound_to 6896
  146.1333  139.6233  142.9212 H   0  0  0  0  0  0  0  0  0  0  0  0  # atno 7974 bound_to 7965
  155.4055  140.0509  157.3034 H   0  0  0  0  0  0  0  0  0  0  0  0  # atno 8008 bound_to 7997
  154.4970  140.2142  155.9385 H   0  0  0  0  0  0  0  0  0  0  0  0  # atno 8009 bound_to 7997
  156.1419  140.3152  155.8514 H   0  0  0  0  0  0  0  0  0  0  0  0  # atno 8010 bound_to 7997
  139.8209  143.7576  152.2666 H   0  0  0  0  0  0  0  0  0  0  0  0  # atno 10167 bound_to 10162
  156.6021  130.8815  151.2916 H   0  0  0  0  0  0  0  0  0  0  0  0  # atno 10718 bound_to 10713
  153.2707  135.6932  153.7484 H   0  0  0  0  0  0  0  0  0  0  0  0  # atno 10763 bound_to 10752
  153.6508  135.3377  155.3100 H   0  0  0  0  0  0  0  0  0  0  0  0  # atno 10764 bound_to 10752
  154.8463  135.4454  154.1728 H   0  0  0  0  0  0  0  0  0  0  0  0  # atno 10765 bound_to 10752
  140.6074  133.9779  155.8161 H   0  0  0  0  0  0  0  0  0  0  0  0  # atno 11005 bound_to 11000
  145.5212  141.0432  143.2434 LP  0  0  0  0  0  0  0  0  0  0  0  0  # atno 17320 bound_to 7965
  144.7713  139.6729  143.7193 LP  0  0  0  0  0  0  0  0  0  0  0  0  # atno 17321 bound_to 7965
  139.7753  144.7463  151.0165 LP  0  0  0  0  0  0  0  0  0  0  0  0  # atno 17342 bound_to 10162
  140.7813  143.4600  151.0291 LP  0  0  0  0  0  0  0  0  0  0  0  0  # atno 17343 bound_to 10162
  157.7277  130.9646  150.1709 LP  0  0  0  0  0  0  0  0  0  0  0  0  # atno 17370 bound_to 10713
  156.2460  130.3695  149.8284 LP  0  0  0  0  0  0  0  0  0  0  0  0  # atno 17371 bound_to 10713
  141.0831  134.0032  157.3355 LP  0  0  0  0  0  0  0  0  0  0  0  0  # atno 17394 bound_to 11000
  139.9206  135.0200  156.8051 LP  0  0  0  0  0  0  0  0  0  0  0  0  # atno 17395 bound_to 11000

$$$$
