#       Name:                AV-unprocessed.smi:2822
#       Creating user name   scv26
#       Creation time:       Fri Mar 27 15:32:01 2020


#       File generated by GOLD software.
#

@<TRIPOS>MOLECULE
AV-unprocessed.smi:2822
    43    45     1
SMALL
NO_CHARGES


@<TRIPOS>ATOM
      1 ****        -5.1964  -0.2373   1.0892 Cl             1 S1                 0.0000
      2 ****        -4.3426   1.2656   1.1369 C.ar           1 S1                 0.0000
      3 ****        -5.0689   2.4725   1.0692 C.ar           1 S1                 0.0000
      4 ****        -4.4193   3.6552   1.1048 N.pl3          1 S1                 1.0000
      5 ****        -3.0765   3.7463   1.2057 C.ar           1 S1                 0.0000
      6 ****        -2.2958   2.5751   1.2779 C.ar           1 S1                 0.0000
      7 ****        -2.9303   1.3081   1.2415 C.ar           1 S1                 0.0000
      8 ****        -2.2092   0.1064   1.3081 N.pl3          1 S1                 0.0000
      9 ****        -0.7575   0.0953   1.2123 C.3            1 S1                 0.0000
     10 ****        -0.2118  -1.3410   1.1058 C.3            1 S1                 0.0000
     11 ****         1.3260  -1.4027   1.1692 C.3            1 S1                 0.0000
     12 ****         1.9615  -0.8899  -0.0387 N.3            1 S1                 0.0000
     13 ****         3.4182  -0.9860   0.0543 C.3            1 S1                 0.0000
     14 ****         4.1268  -0.4313  -1.1912 C.3            1 S1                 0.0000
     15 ****         3.6257  -1.1486  -2.4523 C.3            1 S1                 0.0000
     16 ****         2.0925  -1.0842  -2.5191 C.3            1 S1                 0.0000
     17 ****         1.4595  -1.6088  -1.2133 C.3            1 S1                 0.0000
     18 ****        -0.0781  -1.5329  -1.2927 C.3            1 S1                 0.0000
     19 ****        -0.6648  -1.9980  -0.0795 O.3            1 S1                 0.0000
     20 ****        -6.1447   2.5265   0.9880 H              1 S1                 0.0000
     21 ****        -2.6688   4.7466   1.2264 H              1 S1                 0.0000
     22 ****        -1.2232   2.6678   1.3618 H              1 S1                 0.0000
     23 ****        -2.7009  -0.7701   1.2008 H              1 S1                 0.0000
     24 ****        -0.4336   0.6974   0.3634 H              1 S1                 0.0000
     25 ****        -0.3520   0.5679   2.1077 H              1 S1                 0.0000
     26 ****        -0.6006  -1.9081   1.9525 H              1 S1                 0.0000
     27 ****         1.6792  -0.8481   2.0393 H              1 S1                 0.0000
     28 ****         1.6280  -2.4398   1.3241 H              1 S1                 0.0000
     29 ****         3.7653  -0.4396   0.9322 H              1 S1                 0.0000
     30 ****         3.7118  -2.0263   0.2034 H              1 S1                 0.0000
     31 ****         3.9370   0.6395  -1.2752 H              1 S1                 0.0000
     32 ****         5.2062  -0.5510  -1.0945 H              1 S1                 0.0000
     33 ****         4.0645  -0.7004  -3.3440 H              1 S1                 0.0000
     34 ****         3.9474  -2.1905  -2.4338 H              1 S1                 0.0000
     35 ****         1.7808  -0.0532  -2.6925 H              1 S1                 0.0000
     36 ****         1.7362  -1.6635  -3.3716 H              1 S1                 0.0000
     37 ****         1.7297  -2.6616  -1.1137 H              1 S1                 0.0000
     38 ****        -0.4097  -0.5164  -1.5056 H              1 S1                 0.0000
     39 ****        -0.4440  -2.1546  -2.1101 H              1 S1                 0.0000
     40 ****        -4.9662   4.5153   1.0539 H              1 S1                 0.0000
     41 ****         1.7296   0.0780  -0.1354 LP             1 S1                 0.0000
     42 ****        -1.6544  -1.8700  -0.1453 LP             1 S1                 0.0000
     43 ****        -0.4601  -2.9728   0.0095 LP             1 S1                 0.0000
@<TRIPOS>BOND
    1    1    2 1     
    2    2    7 ar    
    3    2    3 ar    
    4    3    4 ar    
    5    3   20 1     
    6    4    5 ar    
    7    4   40 1     
    8    5    6 ar    
    9    5   21 1     
   10    6    7 ar    
   11    6   22 1     
   12    7    8 1     
   13    8    9 1     
   14    8   23 1     
   15    9   10 1     
   16    9   24 1     
   17    9   25 1     
   18   10   19 1     
   19   10   11 1     
   20   10   26 1     
   21   11   12 1     
   22   11   27 1     
   23   11   28 1     
   24   12   17 1     
   25   12   13 1     
   26   13   14 1     
   27   13   29 1     
   28   13   30 1     
   29   14   15 1     
   30   14   31 1     
   31   14   32 1     
   32   15   16 1     
   33   15   33 1     
   34   15   34 1     
   35   16   17 1     
   36   16   35 1     
   37   16   36 1     
   38   17   18 1     
   39   17   37 1     
   40   18   19 1     
   41   18   38 1     
   42   18   39 1     
   43   12   41 1     
   44   19   42 1     
   45   19   43 1     
@<TRIPOS>SUBSTRUCTURE
      1 S1             1
@<TRIPOS>SET
LONE_PAIRS      STATIC     ATOMS    <user>   **** ""
3 41 42 43
DONOR_HYDROGENS      STATIC     ATOMS    <user>   **** ""
2 40 23
ATOM$BLUE        STATIC     ATOMS    COLORGROUP SYSTEM
3 41 42 43
ATOM$RED        STATIC     ATOMS    COLORGROUP SYSTEM
2 40 23
