#       Name:                AV-unprocessed.smi:2418
#       Creating user name   scv26
#       Creation time:       Fri Mar 27 13:18:31 2020


#       File generated by GOLD software.
#

@<TRIPOS>MOLECULE
AV-unprocessed.smi:2418
    39    40     1
SMALL
NO_CHARGES


@<TRIPOS>ATOM
      1 ****        -5.1846   0.1838   0.7005 C.3            1 S1                 0.0000
      2 ****        -3.6665   0.2035   0.6820 C.2            1 S1                 0.0000
      3 ****        -3.0788   1.4717   0.6613 N.2            1 S1                 0.0000
      4 ****        -1.7910   1.5854   0.6381 C.2            1 S1                 0.0000
      5 ****        -0.9509   0.4600   0.6389 N.am           1 S1                 0.0000
      6 ****         0.4971   0.7259   0.6023 C.3            1 S1                 0.0000
      7 ****         1.0841   0.5690  -0.8181 C.3            1 S1                 0.0000
      8 ****         0.7630   1.7245  -1.5691 O.3            1 S1                 0.0000
      9 ****         2.5891   0.3384  -0.7623 C.ar           1 S1                 0.0000
     10 ****         3.4726   1.4223  -0.5562 C.ar           1 S1                 0.0000
     11 ****         4.8631   1.2073  -0.4984 C.ar           1 S1                 0.0000
     12 ****         5.7020   2.2520  -0.3038 F              1 S1                 0.0000
     13 ****         5.3811  -0.0935  -0.6410 C.ar           1 S1                 0.0000
     14 ****         4.5071  -1.1793  -0.8379 C.ar           1 S1                 0.0000
     15 ****         3.1157  -0.9668  -0.8963 C.ar           1 S1                 0.0000
     16 ****         2.2904  -2.0256  -1.0788 F              1 S1                 0.0000
     17 ****        -1.4415  -0.8131   0.6581 C.2            1 S1                 0.0000
     18 ****        -0.6952  -1.7941   0.6521 O.2            1 S1                 0.0000
     19 ****        -2.9087  -0.9271   0.6802 C.2            1 S1                 0.0000
     20 ****        -3.4924  -2.3343   0.6963 C.3            1 S1                 0.0000
     21 ****        -5.5502  -0.3385   1.5849 H              1 S1                 0.0000
     22 ****        -5.5695  -0.3198  -0.1868 H              1 S1                 0.0000
     23 ****        -5.5955   1.1942   0.7165 H              1 S1                 0.0000
     24 ****        -1.2832   2.5511   0.6119 H              1 S1                 0.0000
     25 ****         0.7534   1.7026   1.0184 H              1 S1                 0.0000
     26 ****         0.9844   0.0140   1.2717 H              1 S1                 0.0000
     27 ****         0.6229  -0.2788  -1.3253 H              1 S1                 0.0000
     28 ****         1.0411   1.5878  -2.4620 H              1 S1                 0.0000
     29 ****         3.0866   2.4245  -0.4395 H              1 S1                 0.0000
     30 ****         6.4474  -0.2594  -0.5967 H              1 S1                 0.0000
     31 ****         4.9041  -2.1783  -0.9426 H              1 S1                 0.0000
     32 ****        -3.1648  -2.8868  -0.1852 H              1 S1                 0.0000
     33 ****        -4.5811  -2.3483   0.7051 H              1 S1                 0.0000
     34 ****        -3.1498  -2.8735   1.5801 H              1 S1                 0.0000
     35 ****        -3.6537   2.2899   0.6645 LP             1 S1                 0.0000
     36 ****         1.2357   2.5181  -1.1861 LP             1 S1                 0.0000
     37 ****        -0.2245   1.8802  -1.5432 LP             1 S1                 0.0000
     38 ****         0.2965  -1.6677   0.6328 LP             1 S1                 0.0000
     39 ****        -1.0816  -2.7164   0.6666 LP             1 S1                 0.0000
@<TRIPOS>BOND
    1    1    2 1     
    2    1   21 1     
    3    1   22 1     
    4    1   23 1     
    5    2   19 2     
    6    2    3 1     
    7    3    4 2     
    8    4    5 1     
    9    4   24 1     
   10    5    6 1     
   11    5   17 am    
   12    6    7 1     
   13    6   25 1     
   14    6   26 1     
   15    7    8 1     
   16    7    9 1     
   17    7   27 1     
   18    8   28 1     
   19    9   15 ar    
   20    9   10 ar    
   21   10   11 ar    
   22   10   29 1     
   23   11   12 1     
   24   11   13 ar    
   25   13   14 ar    
   26   13   30 1     
   27   14   15 ar    
   28   14   31 1     
   29   15   16 1     
   30   17   18 2     
   31   17   19 1     
   32   19   20 1     
   33   20   32 1     
   34   20   33 1     
   35   20   34 1     
   36    3   35 1     
   37    8   36 1     
   38    8   37 1     
   39   18   38 1     
   40   18   39 1     
@<TRIPOS>SUBSTRUCTURE
      1 S1             1
@<TRIPOS>SET
LONE_PAIRS      STATIC     ATOMS    <user>   **** ""
5 35 36 37 38 39
DONOR_HYDROGENS      STATIC     ATOMS    <user>   **** ""
1 28
ATOM$BLUE        STATIC     ATOMS    COLORGROUP SYSTEM
5 35 36 37 38 39
ATOM$RED        STATIC     ATOMS    COLORGROUP SYSTEM
1 28
