AV-unprocessed.smi:2124|AV-procd|sdf|8665|dock9
  -GOLD-   2272011413D 1   1.00000     0.00000
 Structure written by MMmdl.
 47 49  0  0  0  0  0  0  0  0  1 V2000
  143.3643  138.4669  155.5810 C   0  0  0  0  0  0  0  0  0  0  0  0
  144.1096  139.6254  156.2071 C   0  0  0  0  0  0  0  0  0  0  0  0
  144.4548  140.6178  155.3047 N   0  0  0  0  0  0  0  0  0  0  0  0
  145.1463  141.7164  155.7837 C   0  0  0  0  0  0  0  0  0  0  0  0
  145.4907  142.7544  154.7295 C   0  0  0  0  0  0  0  0  0  0  0  0
  145.4773  141.8206  157.0958 C   0  0  0  0  0  0  0  0  0  0  0  0
  146.2491  143.0124  157.6596 C   0  0  0  0  0  0  0  0  0  0  0  0
  147.5154  142.6672  158.4469 C   0  0  0  0  0  0  0  0  0  0  0  0
  147.4428  142.3809  159.6421 O   0  0  0  0  0  0  0  0  0  0  0  0
  148.6673  142.6976  157.7585 N   0  0  0  0  0  0  0  0  0  0  0  0
  149.9970  142.3926  158.2846 C   0  0  1  0  0  0  0  0  0  0  0  0
  150.5400  141.1570  157.5505 C   0  0  0  0  0  0  0  0  0  0  0  0
  150.9165  143.6286  158.1293 C   0  0  1  0  0  0  0  0  0  0  0  0
  150.5684  144.8229  159.0487 C   0  0  0  0  0  0  0  0  0  0  0  0
  151.9285  145.1935  159.6682 C   0  0  1  0  0  0  0  0  0  0  0  0
  152.3044  144.1356  160.7216 C   0  0  0  0  0  0  0  0  0  0  0  0
  152.6696  142.9151  159.8576 C   0  0  0  0  0  0  0  0  0  0  0  0
  152.4240  143.4248  158.4222 C   0  0  2  0  0  0  0  0  0  0  0  0
  152.8982  144.8704  158.5376 C   0  0  0  0  0  0  0  0  0  0  0  0
  145.0797  140.7269  158.0137 C   0  0  0  0  0  0  0  0  0  0  0  0
  145.3544  140.7596  159.2125 O   0  0  0  0  0  0  0  0  0  0  0  0
  144.3781  139.6350  157.4774 N   0  0  0  0  0  0  0  0  0  0  0  0
  144.2340  140.5774  154.3202 H   0  0  0  0  0  0  0  0  0  0  0  0
  142.9720  137.7964  156.3467 H   0  0  0  0  0  0  0  0  0  0  0  0
  144.0305  137.8949  154.9347 H   0  0  0  0  0  0  0  0  0  0  0  0
  142.5262  138.8274  154.9837 H   0  0  0  0  0  0  0  0  0  0  0  0
  145.0332  143.7130  154.9742 H   0  0  0  0  0  0  0  0  0  0  0  0
  145.1353  142.4576  153.7419 H   0  0  0  0  0  0  0  0  0  0  0  0
  146.5705  142.8924  154.6680 H   0  0  0  0  0  0  0  0  0  0  0  0
  145.6094  143.6238  158.2964 H   0  0  0  0  0  0  0  0  0  0  0  0
  146.5180  143.6665  156.8295 H   0  0  0  0  0  0  0  0  0  0  0  0
  148.6195  142.9481  156.7816 H   0  0  0  0  0  0  0  0  0  0  0  0
  149.9151  142.1363  159.3411 H   0  0  0  0  0  0  0  0  0  0  0  0
  151.5034  140.8462  157.9545 H   0  0  0  0  0  0  0  0  0  0  0  0
  150.6718  141.3520  156.4857 H   0  0  0  0  0  0  0  0  0  0  0  0
  149.8595  140.3110  157.6532 H   0  0  0  0  0  0  0  0  0  0  0  0
  150.8345  143.9693  157.0954 H   0  0  0  0  0  0  0  0  0  0  0  0
  150.1631  145.6497  158.4645 H   0  0  0  0  0  0  0  0  0  0  0  0
  149.8367  144.5739  159.8180 H   0  0  0  0  0  0  0  0  0  0  0  0
  151.9752  146.2171  160.0409 H   0  0  0  0  0  0  0  0  0  0  0  0
  153.1636  144.4590  161.3106 H   0  0  0  0  0  0  0  0  0  0  0  0
  151.4852  143.9277  161.4110 H   0  0  0  0  0  0  0  0  0  0  0  0
  153.7211  142.6594  159.9940 H   0  0  0  0  0  0  0  0  0  0  0  0
  152.0886  142.0291  160.1104 H   0  0  0  0  0  0  0  0  0  0  0  0
  152.9426  142.8438  157.6591 H   0  0  0  0  0  0  0  0  0  0  0  0
  152.7235  145.4603  157.6360 H   0  0  0  0  0  0  0  0  0  0  0  0
  153.9468  144.9624  158.8265 H   0  0  0  0  0  0  0  0  0  0  0  0
  1 24  1  0  0  0  0
  1 25  1  0  0  0  0
  1 26  1  0  0  0  0
  1  2  1  0  0  0  0
  2  3  1  0  0  0  0
  2 22  2  0  0  0  0
  3  4  1  0  0  0  0
  3 23  1  0  0  0  0
  4  6  2  0  0  0  0
  4  5  1  0  0  0  0
  5 27  1  0  0  0  0
  5 28  1  0  0  0  0
  5 29  1  0  0  0  0
  6 20  1  0  0  0  0
  6  7  1  0  0  0  0
  7  8  1  0  0  0  0
  7 30  1  0  0  0  0
  7 31  1  0  0  0  0
  8  9  2  0  0  0  0
  8 10  1  0  0  0  0
 10 11  1  0  0  0  0
 10 32  1  0  0  0  0
 11 12  1  0  0  0  0
 11 13  1  0  0  0  0
 11 33  1  0  0  0  0
 12 34  1  0  0  0  0
 12 35  1  0  0  0  0
 12 36  1  0  0  0  0
 13 18  1  0  0  0  0
 13 14  1  0  0  0  0
 13 37  1  0  0  0  0
 14 15  1  0  0  0  0
 14 38  1  0  0  0  0
 14 39  1  0  0  0  0
 15 19  1  0  0  0  0
 15 16  1  0  0  0  0
 15 40  1  0  0  0  0
 16 17  1  0  0  0  0
 16 41  1  0  0  0  0
 16 42  1  0  0  0  0
 17 18  1  0  0  0  0
 17 43  1  0  0  0  0
 17 44  1  0  0  0  0
 18 19  1  0  0  0  0
 18 45  1  0  0  0  0
 19 46  1  0  0  0  0
 19 47  1  0  0  0  0
 20 21  2  0  0  0  0
 20 22  1  0  0  0  0
M  END
> <s_m_source_file>
AV-unprocessed.smi

> <i_m_source_file_index>
2124

> <i_lp_mmshare_version>
43012

> <i_f3d_flags>
0

> <s_epik_input>
W0NIM11jMW5jKFtDSDNdKWMoYyg9TylbbkhdMSlbQ0gyXUMoPU8pW05IXVtDQEhdKFtDSDNdKVtDQEhdKFtDSDJdW0NASF0yMylbQ0BIXShbQ0gyXTMpW0NIMl1bQ0gyXTI=

> <s_epik_cmdline>
J2VwaWtfcHl0aG9uJywgJy1waCcsICc3LjAnLCAnLXRuJywgJzgnLCAnLW1hJywgJzIwMCcsICctbWV0YWxfYmluZGluZycsICctaW1hZScsICc8aW5maWxlLm1hZT4nLCAnLW9tYWUnLCAnPG91dGZpbGUubWFlPic=

> <r_lp_tautomer_probability>
0.156392

> <r_epik_Ionization_Penalty>
0.0139374

> <r_epik_Ionization_Penalty_Charging>
0.0138122

> <r_epik_Ionization_Penalty_Neutral>
0.000125146

> <r_epik_State_Penalty>
1.15342

> <r_epik_Charging_Adjusted_Penalty>
1.16723

> <i_epik_Tot_Q>
0

> <i_epik_Tot_abs_Q>
0

> <r_epik_Metal_State_Penalty>
1.3173

> <b_epik_Metal_Only>
0

> <s_lp_Force_Field>
OPLS_2005

> <r_lp_Energy>
55.9992

> <b_lp_Chiralities_Consistent>
1

> <s_lp_Variant>
AV-unprocessed.smi:2124-16

> <Gold.Version>
5.8.1

> <Gold.Id.Protein>
6NUR|6NUR_protein|mol2

> <Gold.PLP.Fitness>
45.9879

> <Gold.PLP.PLP>
-38.2570

> <Gold.PLP.part.hbond>
-5.2910

> <Gold.PLP.part.metal>
0.0000

> <Gold.PLP.part.buried>
-4.3758

> <Gold.PLP.part.nonpolar>
-28.8602

> <Gold.PLP.part.repulsive>
0.1220

> <Gold.PLP.ligand.clash>
0.0000

> <Gold.PLP.ligand.torsion>
0.4974

> <Gold.PLP.Chemscore.Hbond>
2.9038

> <Gold.PLP.Chemscore.CHOScore>
0.0000

> <Gold.PLP.Chemscore.Metal>
0.0000

> <Gold.Chemscore.Hbonds>
donor molecule, donor type, donor heavy atom, donor atom, acceptor molecule, acceptor atom, score
      L1  H     3    23       P1 10175  1.00
      L1  H    10    32       P1  8028  0.57
      P1  H  6933  6944       L1     9  0.47
      P1  H  6934  6946       L1     9  0.59

> <Gold.PLP.Chemscore.Internal.Correction>
0.0144

> <Gold.Rescore>
     Score         DG    S(hbond)    S(metal)    S(lipo)     H(rot)  DE(clash)    DE(int)     intcor
     19.82     -21.71       2.52        0.00     103.01       1.65       0.03       1.86       ----

> <Gold.Chemscore.Fitness>
19.8228

> <Gold.Chemscore.DG>
-21.7110

> <Gold.Chemscore.ZeroCoef>
-5.4800

> <Gold.Chemscore.Hbond>
2.5184

> <Gold.Chemscore.Metal>
0.0000

> <Gold.Chemscore.Lipo>
103.0110

> <Gold.Chemscore.Internal_Hbond>
0.0000

> <Gold.Chemscore.DEClash>
0.0265

> <Gold.Chemscore.DEInternal>
1.8616

> <Gold.Chemscore.Rot>
1.6534

> <Gold.Chemscore.Internal.Correction>
   9.000000E+99

> <Gold.Chemscore.Hbonds>
donor molecule, donor type, donor heavy atom, donor atom, acceptor molecule, acceptor atom, score
      L1  H     3    23       P1 10175  1.00
      L1  H    10    32       P1  8028  0.44
      P1  H  6933  6944       L1     9  0.45
      P1  H  6934  6946       L1     9  0.60

> <Gold.Chemscore.Hbond.Weighted>
-8.4113

> <Gold.Chemscore.Metal.Weighted>
-0.0000

> <Gold.Chemscore.Lipo.Weighted>
-12.0523

> <Gold.Chemscore.Internal_Hbond.Weighted>
0.0000

> <Gold.Chemscore.DEClash.Weighted>
0.0265

> <Gold.Chemscore.DEInternal.Weighted>
1.8616

> <Gold.Chemscore.Rot.Weighted>
4.2326

> <Gold.Chemscore.Internal.Correction.Weighted>
   9.000000E+99

> <Gold.Protein.RotatedTorsions>
[ 6907 6896 6895 6894 ] final   39.54 input  -60.11 | X-H torsion
[ 7974 7965 7964 7962 ] final   82.79 input  175.53 | X-H torsion
[ 8008 7997 7996 7995 ] final -161.15 input   59.86 | X-H torsion
[ 10167 10162 10161 10158 ] final  -30.29 input  -65.29 | X-H torsion
[ 10718 10713 10712 10709 ] final  121.62 input   66.30 | X-H torsion
[ 10763 10752 10751 10750 ] final  -89.20 input  -60.55 | X-H torsion
[ 11005 11000 10999 10996 ] final  -92.45 input  -57.11 | X-H torsion

> <Gold.Protein.ActiveResidues>
 VAL166  LYS551  ARG553  GLY616  TRP617  ASP618  TYR619  PRO620  LYS621  CYS622 
 ASP623  PHE694  ASN695  SER759  ASP760  ASP761  ALA762  ILE779  LEU786  VAL792 
 PHE793  MET794  SER795  GLU796  ALA797  LYS798  CYS799  TRP800  GLU811  SER814 

> <Gold.Protein.RotatedAtoms>
  152.1708  134.8835  160.0534 H   0  0  0  0  0  0  0  0  0  0  0  0  # atno 6907 bound_to 6896
  151.9796  133.3748  159.4110 H   0  0  0  0  0  0  0  0  0  0  0  0  # atno 6908 bound_to 6896
  150.6901  134.3976  159.5148 H   0  0  0  0  0  0  0  0  0  0  0  0  # atno 6909 bound_to 6896
  145.6204  139.2385  143.2141 H   0  0  0  0  0  0  0  0  0  0  0  0  # atno 7974 bound_to 7965
  155.7879  140.0874  157.2024 H   0  0  0  0  0  0  0  0  0  0  0  0  # atno 8008 bound_to 7997
  154.3987  140.1495  156.3187 H   0  0  0  0  0  0  0  0  0  0  0  0  # atno 8009 bound_to 7997
  155.8588  140.3431  155.5745 H   0  0  0  0  0  0  0  0  0  0  0  0  # atno 8010 bound_to 7997
  140.7251  143.3861  151.1514 H   0  0  0  0  0  0  0  0  0  0  0  0  # atno 10167 bound_to 10162
  157.5804  131.1075  150.8198 H   0  0  0  0  0  0  0  0  0  0  0  0  # atno 10718 bound_to 10713
  154.6527  135.5349  153.7921 H   0  0  0  0  0  0  0  0  0  0  0  0  # atno 10763 bound_to 10752
  153.0395  135.6486  154.0992 H   0  0  0  0  0  0  0  0  0  0  0  0  # atno 10764 bound_to 10752
  154.0907  135.2940  155.3252 H   0  0  0  0  0  0  0  0  0  0  0  0  # atno 10765 bound_to 10752
  141.1521  133.7822  157.0022 H   0  0  0  0  0  0  0  0  0  0  0  0  # atno 11005 bound_to 11000
  146.1435  140.7025  142.9355 LP  0  0  0  0  0  0  0  0  0  0  0  0  # atno 17320 bound_to 7965
  144.7233  140.4445  143.6992 LP  0  0  0  0  0  0  0  0  0  0  0  0  # atno 17321 bound_to 7965
  139.7458  143.8855  152.3063 LP  0  0  0  0  0  0  0  0  0  0  0  0  # atno 17342 bound_to 10162
  139.8691  144.7077  150.9008 LP  0  0  0  0  0  0  0  0  0  0  0  0  # atno 17343 bound_to 10162
  156.8646  130.5125  149.5301 LP  0  0  0  0  0  0  0  0  0  0  0  0  # atno 17370 bound_to 10713
  156.0850  130.5850  150.9631 LP  0  0  0  0  0  0  0  0  0  0  0  0  # atno 17371 bound_to 10713
  140.0933  134.9579  157.1810 LP  0  0  0  0  0  0  0  0  0  0  0  0  # atno 17394 bound_to 11000
  140.3417  134.2697  155.7211 LP  0  0  0  0  0  0  0  0  0  0  0  0  # atno 17395 bound_to 11000

$$$$
