AV-unprocessed.smi:3253|AV-procd|sdf|12451|dock7
  -GOLD-   2272018343D 1   1.00000     0.00000
 Structure written by MMmdl.
 36 37  0  0  0  0  0  0  0  0  1 V2000
  149.3544  141.8479  157.4067 C   0  0  0  0  0  0  0  0  0  0  0  0
  150.5068  140.8619  157.6585 C   0  0  2  0  0  0  0  0  0  0  0  0
  151.8944  141.5403  157.6699 C   0  0  0  0  0  0  0  0  0  0  0  0
  151.9304  142.7302  158.4988 N   0  0  0  0  0  0  0  0  0  0  0  0
  151.3806  143.9726  158.2109 C   0  0  0  0  0  0  0  0  0  0  0  0
  151.6660  144.7866  159.2837 C   0  0  0  0  0  0  0  0  0  0  0  0
  152.3910  144.0721  160.2345 N   0  0  0  0  0  0  0  0  0  0  0  0
  152.5115  142.8643  159.6988 C   0  0  0  0  0  0  0  0  0  0  0  0
  150.4674  139.8112  156.6454 N   0  0  0  0  0  0  0  0  0  0  0  0
  150.3378  140.0105  155.3243 C   0  0  0  0  0  0  0  0  0  0  0  0
  150.2308  141.1276  154.8172 O   0  0  0  0  0  0  0  0  0  0  0  0
  150.3265  138.7541  154.4397 C   0  0  1  0  0  0  0  0  0  0  0  0
  151.5210  137.8306  154.7552 C   0  0  0  0  0  0  0  0  0  0  0  0
  150.8804  136.5920  155.3589 C   0  0  0  0  0  0  0  0  0  0  0  0
  151.5352  135.6586  155.8204 O   0  0  0  0  0  0  0  0  0  0  0  0
  149.5479  136.6749  155.3187 N   0  0  0  0  0  0  0  0  0  0  0  0
  148.6173  135.6693  155.8131 C   0  0  0  0  0  0  0  0  0  0  0  0
  149.0711  137.8838  154.6695 C   0  0  0  0  0  0  0  0  0  0  0  0
  149.2894  142.5980  158.1951 H   0  0  0  0  0  0  0  0  0  0  0  0
  148.3953  141.3299  157.3756 H   0  0  0  0  0  0  0  0  0  0  0  0
  149.4811  142.3716  156.4585 H   0  0  0  0  0  0  0  0  0  0  0  0
  150.3349  140.4049  158.6351 H   0  0  0  0  0  0  0  0  0  0  0  0
  152.6552  140.8510  158.0392 H   0  0  0  0  0  0  0  0  0  0  0  0
  152.1895  141.8158  156.6565 H   0  0  0  0  0  0  0  0  0  0  0  0
  150.8442  144.1687  157.2943 H   0  0  0  0  0  0  0  0  0  0  0  0
  151.4089  145.8233  159.4424 H   0  0  0  0  0  0  0  0  0  0  0  0
  153.0322  142.0566  160.1919 H   0  0  0  0  0  0  0  0  0  0  0  0
  150.5477  138.8598  156.9741 H   0  0  0  0  0  0  0  0  0  0  0  0
  150.3673  139.0576  153.3919 H   0  0  0  0  0  0  0  0  0  0  0  0
  152.0569  137.5558  153.8462 H   0  0  0  0  0  0  0  0  0  0  0  0
  152.2405  138.2648  155.4514 H   0  0  0  0  0  0  0  0  0  0  0  0
  148.7408  134.7338  155.2664 H   0  0  0  0  0  0  0  0  0  0  0  0
  147.5843  135.9974  155.6947 H   0  0  0  0  0  0  0  0  0  0  0  0
  148.7909  135.4746  156.8720 H   0  0  0  0  0  0  0  0  0  0  0  0
  148.3155  138.3754  155.2851 H   0  0  0  0  0  0  0  0  0  0  0  0
  148.6020  137.6227  153.7200 H   0  0  0  0  0  0  0  0  0  0  0  0
  1  2  1  0  0  0  0
  1 19  1  0  0  0  0
  1 20  1  0  0  0  0
  1 21  1  0  0  0  0
  2  3  1  0  0  0  0
  2  9  1  0  0  0  0
  2 22  1  0  0  0  0
  3  4  1  0  0  0  0
  3 23  1  0  0  0  0
  3 24  1  0  0  0  0
  4  8  1  0  0  0  0
  4  5  1  0  0  0  0
  5  6  2  0  0  0  0
  5 25  1  0  0  0  0
  6  7  1  0  0  0  0
  6 26  1  0  0  0  0
  7  8  2  0  0  0  0
  8 27  1  0  0  0  0
  9 10  1  0  0  0  0
  9 28  1  0  0  0  0
 10 11  2  0  0  0  0
 10 12  1  0  0  0  0
 12 18  1  0  0  0  0
 12 13  1  0  0  0  0
 12 29  1  0  0  0  0
 13 14  1  0  0  0  0
 13 30  1  0  0  0  0
 13 31  1  0  0  0  0
 14 15  2  0  0  0  0
 14 16  1  0  0  0  0
 16 17  1  0  0  0  0
 16 18  1  0  0  0  0
 17 32  1  0  0  0  0
 17 33  1  0  0  0  0
 17 34  1  0  0  0  0
 18 35  1  0  0  0  0
 18 36  1  0  0  0  0
M  END
> <s_m_source_file>
AV-unprocessed.smi

> <i_m_source_file_index>
3253

> <i_lp_mmshare_version>
43012

> <i_f3d_flags>
0

> <s_epik_input>
W2NIXTFuW2NIXVtjSF1uMVtDSDJdW0NAQEhdKFtDSDNdKVtOSF1DKD1PKVtDQEBIXTJbQ0gyXUMoPU8pTihbQ0gzXSlbQ0gyXTI=

> <s_epik_cmdline>
J2VwaWtfcHl0aG9uJywgJy1waCcsICc3LjAnLCAnLXRuJywgJzgnLCAnLW1hJywgJzIwMCcsICctbWV0YWxfYmluZGluZycsICctaW1hZScsICc8aW5maWxlLm1hZT4nLCAnLW9tYWUnLCAnPG91dGZpbGUubWFlPic=

> <r_lp_tautomer_probability>
1

> <r_epik_Ionization_Penalty>
0.628884

> <r_epik_Ionization_Penalty_Charging>
0.628884

> <r_epik_Ionization_Penalty_Neutral>
2.35084e-08

> <r_epik_State_Penalty>
0.64556

> <r_epik_Charging_Adjusted_Penalty>
1.27444

> <i_epik_Tot_Q>
0

> <i_epik_Tot_abs_Q>
0

> <r_epik_Metal_State_Penalty>
0.308736

> <b_epik_Metal_Only>
0

> <s_lp_Force_Field>
OPLS_2005

> <r_lp_Energy>
12.6609

> <b_lp_Chiralities_Consistent>
1

> <s_lp_Variant>
AV-unprocessed.smi:3253-7

> <Gold.Version>
5.8.1

> <Gold.Id.Protein>
6NUR|6NUR_protein|mol2

> <Gold.PLP.Fitness>
38.6870

> <Gold.PLP.PLP>
-31.8664

> <Gold.PLP.part.hbond>
-2.0000

> <Gold.PLP.part.metal>
0.0000

> <Gold.PLP.part.buried>
-4.7308

> <Gold.PLP.part.nonpolar>
-25.8718

> <Gold.PLP.part.repulsive>
0.2181

> <Gold.PLP.ligand.clash>
0.0000

> <Gold.PLP.ligand.torsion>
0.5401

> <Gold.PLP.Chemscore.Hbond>
1.6232

> <Gold.PLP.Chemscore.CHOScore>
1.0000

> <Gold.PLP.Chemscore.Metal>
0.0000

> <Gold.Chemscore.Hbonds>
donor molecule, donor type, donor heavy atom, donor atom, acceptor molecule, acceptor atom, score
      P1  H  7989  7998       L1    11  0.53
      P1  H 10752 10763       L1    15  1.00
      L1  C     5    25       P1  8028  0.87

> <Gold.PLP.Chemscore.Internal.Correction>
0.0312

> <Gold.Rescore>
     Score         DG    S(hbond)    S(metal)    S(lipo)     H(rot)  DE(clash)    DE(int)     intcor
      8.37     -11.00       0.99        0.00      61.97       1.97       0.03       2.60       ----

> <Gold.Chemscore.Fitness>
8.3711

> <Gold.Chemscore.DG>
-11.0045

> <Gold.Chemscore.ZeroCoef>
-5.4800

> <Gold.Chemscore.Hbond>
0.9908

> <Gold.Chemscore.Metal>
0.0000

> <Gold.Chemscore.Lipo>
61.9681

> <Gold.Chemscore.Internal_Hbond>
0.0000

> <Gold.Chemscore.DEClash>
0.0348

> <Gold.Chemscore.DEInternal>
2.5986

> <Gold.Chemscore.Rot>
1.9669

> <Gold.Chemscore.Internal.Correction>
   9.000000E+99

> <Gold.Chemscore.Hbonds>
donor molecule, donor type, donor heavy atom, donor atom, acceptor molecule, acceptor atom, score
      P1  H  7989  7998       L1    11  0.09
      P1  H 10752 10763       L1    15  0.44

> <Gold.Chemscore.Hbond.Weighted>
-3.3094

> <Gold.Chemscore.Metal.Weighted>
-0.0000

> <Gold.Chemscore.Lipo.Weighted>
-7.2503

> <Gold.Chemscore.Internal_Hbond.Weighted>
0.0000

> <Gold.Chemscore.DEClash.Weighted>
0.0348

> <Gold.Chemscore.DEInternal.Weighted>
2.5986

> <Gold.Chemscore.Rot.Weighted>
5.0352

> <Gold.Chemscore.Internal.Correction.Weighted>
   9.000000E+99

> <Gold.Protein.RotatedTorsions>
[ 6907 6896 6895 6894 ] final   98.48 input  -60.11 | X-H torsion
[ 7974 7965 7964 7962 ] final -145.14 input  175.53 | X-H torsion
[ 8008 7997 7996 7995 ] final   81.39 input   59.86 | X-H torsion
[ 10167 10162 10161 10158 ] final  163.48 input  -65.29 | X-H torsion
[ 10718 10713 10712 10709 ] final -127.98 input   66.30 | X-H torsion
[ 10763 10752 10751 10750 ] final   67.15 input  -60.55 | X-H torsion
[ 11005 11000 10999 10996 ] final  103.37 input  -57.11 | X-H torsion

> <Gold.Protein.ActiveResidues>
 VAL166  LYS551  ARG553  GLY616  TRP617  ASP618  TYR619  PRO620  LYS621  CYS622 
 ASP623  PHE694  ASN695  SER759  ASP760  ASP761  ALA762  ILE779  LEU786  VAL792 
 PHE793  MET794  SER795  GLU796  ALA797  LYS798  CYS799  TRP800  GLU811  SER814 

> <Gold.Protein.RotatedAtoms>
  152.5408  134.0574  159.8136 H   0  0  0  0  0  0  0  0  0  0  0  0  # atno 6907 bound_to 6896
  151.0707  133.5461  159.2634 H   0  0  0  0  0  0  0  0  0  0  0  0  # atno 6908 bound_to 6896
  151.2325  135.0568  159.9047 H   0  0  0  0  0  0  0  0  0  0  0  0  # atno 6909 bound_to 6896
  144.8248  140.5622  143.5554 H   0  0  0  0  0  0  0  0  0  0  0  0  # atno 7974 bound_to 7965
  155.8964  140.3436  155.5994 H   0  0  0  0  0  0  0  0  0  0  0  0  # atno 8008 bound_to 7997
  155.7551  140.0825  157.2201 H   0  0  0  0  0  0  0  0  0  0  0  0  # atno 8009 bound_to 7997
  154.4039  140.1546  156.2755 H   0  0  0  0  0  0  0  0  0  0  0  0  # atno 8010 bound_to 7997
  139.4874  144.4333  151.9044 H   0  0  0  0  0  0  0  0  0  0  0  0  # atno 10167 bound_to 10162
  156.1907  130.6793  151.0421 H   0  0  0  0  0  0  0  0  0  0  0  0  # atno 10718 bound_to 10713
  153.0173  135.5294  154.6935 H   0  0  0  0  0  0  0  0  0  0  0  0  # atno 10763 bound_to 10752
  154.6063  135.2873  155.0483 H   0  0  0  0  0  0  0  0  0  0  0  0  # atno 10764 bound_to 10752
  154.1521  135.6561  153.5018 H   0  0  0  0  0  0  0  0  0  0  0  0  # atno 10765 bound_to 10752
  139.8783  134.9260  156.5200 H   0  0  0  0  0  0  0  0  0  0  0  0  # atno 11005 bound_to 11000
  145.5024  139.1483  143.3650 LP  0  0  0  0  0  0  0  0  0  0  0  0  # atno 17320 bound_to 7965
  146.2554  140.5164  142.8876 LP  0  0  0  0  0  0  0  0  0  0  0  0  # atno 17321 bound_to 7965
  140.3781  144.2770  150.5911 LP  0  0  0  0  0  0  0  0  0  0  0  0  # atno 17342 bound_to 10162
  140.5258  143.2255  151.8317 LP  0  0  0  0  0  0  0  0  0  0  0  0  # atno 17343 bound_to 10162
  157.6927  131.0804  150.7060 LP  0  0  0  0  0  0  0  0  0  0  0  0  # atno 17370 bound_to 10713
  156.7116  130.4653  149.5546 LP  0  0  0  0  0  0  0  0  0  0  0  0  # atno 17371 bound_to 10713
  140.8457  133.8170  155.9119 LP  0  0  0  0  0  0  0  0  0  0  0  0  # atno 17394 bound_to 11000
  140.9193  134.2162  157.4936 LP  0  0  0  0  0  0  0  0  0  0  0  0  # atno 17395 bound_to 11000

$$$$
