AV-unprocessed.smi:2063|AV-procd|sdf|8408|dock10
  -GOLD-   2272011 93D 1   1.00000     0.00000
 Structure written by MMmdl.
 39 40  0  0  0  0  0  0  0  0  1 V2000
  152.0386  140.6927  158.0704 C   0  0  0  0  0  0  0  0  0  0  0  0
  151.7879  140.6843  156.5553 C   0  0  0  0  0  0  0  0  0  0  0  0
  150.7197  141.6958  156.1149 C   0  0  0  0  0  0  0  0  0  0  0  0
  151.5090  139.3077  156.0372 C   0  0  0  0  0  0  0  0  0  0  0  0
  152.3460  138.2769  156.2174 N   0  0  0  0  0  0  0  0  0  0  0  0
  151.8687  137.1037  155.6511 N   0  0  0  0  0  0  0  0  0  0  0  0
  150.6818  137.2827  155.0558 C   0  0  0  0  0  0  0  0  0  0  0  0
  149.9632  136.2471  154.4016 N   0  0  0  0  0  0  0  0  0  0  0  0
  149.5951  135.0503  154.8920 C   0  0  0  0  0  0  0  0  0  0  0  0
  149.8490  134.6370  156.0235 O   0  0  0  0  0  0  0  0  0  0  0  0
  148.9010  134.3485  153.9835 N   0  0  0  0  0  0  0  0  0  0  0  0
  148.3489  133.0079  154.1755 C   0  0  2  0  0  0  0  0  0  0  0  0
  149.4526  132.0963  154.7318 C   0  0  0  0  0  0  0  0  0  0  0  0
  147.7700  132.4644  152.8522 C   0  0  2  0  0  0  0  0  0  0  0  0
  146.6408  133.2989  152.2448 C   0  0  0  0  0  0  0  0  0  0  0  0
  145.9480  132.2816  151.3685 C   0  0  0  0  0  0  0  0  0  0  0  0
  146.0354  131.0201  152.2226 C   0  0  0  0  0  0  0  0  0  0  0  0
  147.1870  131.1781  153.0486 O   0  0  0  0  0  0  0  0  0  0  0  0
  150.0452  138.9161  155.1403 S   0  0  0  0  0  0  0  0  0  0  0  0
  152.8600  140.0264  158.3354 H   0  0  0  0  0  0  0  0  0  0  0  0
  151.1550  140.3678  158.6210 H   0  0  0  0  0  0  0  0  0  0  0  0
  152.2984  141.6923  158.4198 H   0  0  0  0  0  0  0  0  0  0  0  0
  152.7211  141.0036  156.0895 H   0  0  0  0  0  0  0  0  0  0  0  0
  150.6280  141.7208  155.0286 H   0  0  0  0  0  0  0  0  0  0  0  0
  150.9711  142.7031  156.4482 H   0  0  0  0  0  0  0  0  0  0  0  0
  149.7416  141.4447  156.5264 H   0  0  0  0  0  0  0  0  0  0  0  0
  149.6898  136.4443  153.4505 H   0  0  0  0  0  0  0  0  0  0  0  0
  148.7403  134.7737  153.0822 H   0  0  0  0  0  0  0  0  0  0  0  0
  147.5476  133.0409  154.9159 H   0  0  0  0  0  0  0  0  0  0  0  0
  149.0727  131.0942  154.9319 H   0  0  0  0  0  0  0  0  0  0  0  0
  149.8496  132.4874  155.6691 H   0  0  0  0  0  0  0  0  0  0  0  0
  150.2830  132.0027  154.0309 H   0  0  0  0  0  0  0  0  0  0  0  0
  148.5654  132.3568  152.1123 H   0  0  0  0  0  0  0  0  0  0  0  0
  145.9582  133.6475  153.0214 H   0  0  0  0  0  0  0  0  0  0  0  0
  147.0004  134.1657  151.6897 H   0  0  0  0  0  0  0  0  0  0  0  0
  144.9234  132.5566  151.1163 H   0  0  0  0  0  0  0  0  0  0  0  0
  146.5054  132.1476  150.4405 H   0  0  0  0  0  0  0  0  0  0  0  0
  145.1591  130.9313  152.8653 H   0  0  0  0  0  0  0  0  0  0  0  0
  146.1028  130.1168  151.6160 H   0  0  0  0  0  0  0  0  0  0  0  0
  1  2  1  0  0  0  0
  1 20  1  0  0  0  0
  1 21  1  0  0  0  0
  1 22  1  0  0  0  0
  2  3  1  0  0  0  0
  2  4  1  0  0  0  0
  2 23  1  0  0  0  0
  3 24  1  0  0  0  0
  3 25  1  0  0  0  0
  3 26  1  0  0  0  0
  4 19  1  0  0  0  0
  4  5  2  0  0  0  0
  5  6  1  0  0  0  0
  6  7  2  0  0  0  0
  7  8  1  0  0  0  0
  7 19  1  0  0  0  0
  8  9  1  0  0  0  0
  8 27  1  0  0  0  0
  9 10  2  0  0  0  0
  9 11  1  0  0  0  0
 11 12  1  0  0  0  0
 11 28  1  0  0  0  0
 12 13  1  0  0  0  0
 12 14  1  0  0  0  0
 12 29  1  0  0  0  0
 13 30  1  0  0  0  0
 13 31  1  0  0  0  0
 13 32  1  0  0  0  0
 14 18  1  0  0  0  0
 14 15  1  0  0  0  0
 14 33  1  0  0  0  0
 15 16  1  0  0  0  0
 15 34  1  0  0  0  0
 15 35  1  0  0  0  0
 16 17  1  0  0  0  0
 16 36  1  0  0  0  0
 16 37  1  0  0  0  0
 17 18  1  0  0  0  0
 17 38  1  0  0  0  0
 17 39  1  0  0  0  0
M  END
> <s_m_source_file>
AV-unprocessed.smi

> <i_m_source_file_index>
2063

> <i_lp_mmshare_version>
43012

> <i_f3d_flags>
0

> <s_epik_input>
W0NIM11bQ0hdKFtDSDNdKWMxbm5jKHMxKVtOSF1DKD1PKVtOSF1bQ0BIXShbQ0gzXSlbQ0BASF0yW0NIMl1bQ0gyXVtDSDJdTzI=

> <s_epik_cmdline>
J2VwaWtfcHl0aG9uJywgJy1waCcsICc3LjAnLCAnLXRuJywgJzgnLCAnLW1hJywgJzIwMCcsICctbWV0YWxfYmluZGluZycsICctaW1hZScsICc8aW5maWxlLm1hZT4nLCAnLW9tYWUnLCAnPG91dGZpbGUubWFlPic=

> <r_lp_tautomer_probability>
1

> <r_epik_Ionization_Penalty>
0.00050567

> <r_epik_Ionization_Penalty_Charging>
0

> <r_epik_Ionization_Penalty_Neutral>
0.00050567

> <r_epik_State_Penalty>
-0

> <r_epik_Charging_Adjusted_Penalty>
0

> <i_epik_Tot_Q>
0

> <i_epik_Tot_abs_Q>
0

> <r_epik_Metal_State_Penalty>
0.219912

> <b_epik_Metal_Only>
0

> <s_lp_Force_Field>
OPLS_2005

> <r_lp_Energy>
10.8376

> <b_lp_Chiralities_Consistent>
1

> <s_lp_Variant>
AV-unprocessed.smi:2063-1

> <Gold.Version>
5.8.1

> <Gold.Id.Protein>
6NUR|6NUR_protein|mol2

> <Gold.PLP.Fitness>
38.7597

> <Gold.PLP.PLP>
-31.1824

> <Gold.PLP.part.hbond>
-3.8133

> <Gold.PLP.part.metal>
0.0000

> <Gold.PLP.part.buried>
-3.2628

> <Gold.PLP.part.nonpolar>
-25.2184

> <Gold.PLP.part.repulsive>
0.2396

> <Gold.PLP.ligand.clash>
0.0000

> <Gold.PLP.ligand.torsion>
0.6048

> <Gold.PLP.Chemscore.Hbond>
2.9000

> <Gold.PLP.Chemscore.CHOScore>
0.0000

> <Gold.PLP.Chemscore.Metal>
0.0000

> <Gold.Chemscore.Hbonds>
donor molecule, donor type, donor heavy atom, donor atom, acceptor molecule, acceptor atom, score
      L1  H     8    27       P1  7948  1.00
      L1  H    11    28       P1  7948  1.00
      P1  H 10752 10765       L1     6  0.84

> <Gold.PLP.Chemscore.Internal.Correction>
0.0869

> <Gold.Rescore>
     Score         DG    S(hbond)    S(metal)    S(lipo)     H(rot)  DE(clash)    DE(int)     intcor
     15.41     -17.41       2.51        0.00      61.34       1.42       0.01       1.99       ----

> <Gold.Chemscore.Fitness>
15.4118

> <Gold.Chemscore.DG>
-17.4108

> <Gold.Chemscore.ZeroCoef>
-5.4800

> <Gold.Chemscore.Hbond>
2.5080

> <Gold.Chemscore.Metal>
0.0000

> <Gold.Chemscore.Lipo>
61.3412

> <Gold.Chemscore.Internal_Hbond>
0.0000

> <Gold.Chemscore.DEClash>
0.0126

> <Gold.Chemscore.DEInternal>
1.9864

> <Gold.Chemscore.Rot>
1.4152

> <Gold.Chemscore.Internal.Correction>
   9.000000E+99

> <Gold.Chemscore.Hbonds>
donor molecule, donor type, donor heavy atom, donor atom, acceptor molecule, acceptor atom, score
      L1  H     8    27       P1  7948  0.39
      L1  H    11    28       P1  7948  0.24
      P1  H 10752 10765       L1     6  0.72

> <Gold.Chemscore.Hbond.Weighted>
-8.3768

> <Gold.Chemscore.Metal.Weighted>
-0.0000

> <Gold.Chemscore.Lipo.Weighted>
-7.1769

> <Gold.Chemscore.Internal_Hbond.Weighted>
0.0000

> <Gold.Chemscore.DEClash.Weighted>
0.0126

> <Gold.Chemscore.DEInternal.Weighted>
1.9864

> <Gold.Chemscore.Rot.Weighted>
3.6229

> <Gold.Chemscore.Internal.Correction.Weighted>
   9.000000E+99

> <Gold.Protein.RotatedTorsions>
[ 6907 6896 6895 6894 ] final -149.66 input  -60.11 | X-H torsion
[ 7974 7965 7964 7962 ] final -178.18 input  175.53 | X-H torsion
[ 8008 7997 7996 7995 ] final  -21.85 input   59.86 | X-H torsion
[ 10167 10162 10161 10158 ] final -125.51 input  -65.29 | X-H torsion
[ 10718 10713 10712 10709 ] final   13.11 input   66.30 | X-H torsion
[ 10763 10752 10751 10750 ] final -164.76 input  -60.55 | X-H torsion
[ 11005 11000 10999 10996 ] final  121.07 input  -57.11 | X-H torsion

> <Gold.Protein.ActiveResidues>
 VAL166  LYS551  ARG553  GLY616  TRP617  ASP618  TYR619  PRO620  LYS621  CYS622 
 ASP623  PHE694  ASN695  SER759  ASP760  ASP761  ALA762  ILE779  LEU786  VAL792 
 PHE793  MET794  SER795  GLU796  ALA797  LYS798  CYS799  TRP800  GLU811  SER814 

> <Gold.Protein.RotatedAtoms>
  151.1873  133.4688  159.2594 H   0  0  0  0  0  0  0  0  0  0  0  0  # atno 6907 bound_to 6896
  151.1199  135.0073  159.8543 H   0  0  0  0  0  0  0  0  0  0  0  0  # atno 6908 bound_to 6896
  152.5455  134.1785  159.8679 H   0  0  0  0  0  0  0  0  0  0  0  0  # atno 6909 bound_to 6896
  144.7130  140.0907  143.6421 H   0  0  0  0  0  0  0  0  0  0  0  0  # atno 7974 bound_to 7965
  154.4680  140.2024  156.0068 H   0  0  0  0  0  0  0  0  0  0  0  0  # atno 8008 bound_to 7997
  156.0961  140.3251  155.7851 H   0  0  0  0  0  0  0  0  0  0  0  0  # atno 8009 bound_to 7997
  155.4875  140.0543  157.2949 H   0  0  0  0  0  0  0  0  0  0  0  0  # atno 8010 bound_to 7997
  139.9814  143.5739  152.2377 H   0  0  0  0  0  0  0  0  0  0  0  0  # atno 10167 bound_to 10162
  157.0198  130.6150  149.5719 H   0  0  0  0  0  0  0  0  0  0  0  0  # atno 10718 bound_to 10713
  154.6997  135.2985  154.9359 H   0  0  0  0  0  0  0  0  0  0  0  0  # atno 10763 bound_to 10752
  154.0296  135.6672  153.4783 H   0  0  0  0  0  0  0  0  0  0  0  0  # atno 10764 bound_to 10752
  153.0672  135.5081  154.8134 H   0  0  0  0  0  0  0  0  0  0  0  0  # atno 10765 bound_to 10752
  139.9211  134.9637  156.7902 H   0  0  0  0  0  0  0  0  0  0  0  0  # atno 11005 bound_to 11000
  145.9623  139.2809  143.1148 LP  0  0  0  0  0  0  0  0  0  0  0  0  # atno 17320 bound_to 7965
  145.9207  140.9117  143.0406 LP  0  0  0  0  0  0  0  0  0  0  0  0  # atno 17321 bound_to 7965
  139.6407  144.7654  151.2345 LP  0  0  0  0  0  0  0  0  0  0  0  0  # atno 17342 bound_to 10162
  140.7488  143.6322  150.8413 LP  0  0  0  0  0  0  0  0  0  0  0  0  # atno 17343 bound_to 10162
  156.0106  130.5197  150.7976 LP  0  0  0  0  0  0  0  0  0  0  0  0  # atno 17370 bound_to 10713
  157.5258  131.0934  151.0020 LP  0  0  0  0  0  0  0  0  0  0  0  0  # atno 17371 bound_to 10713
  140.6473  133.9763  155.7737 LP  0  0  0  0  0  0  0  0  0  0  0  0  # atno 17394 bound_to 11000
  141.0731  134.0175  157.3497 LP  0  0  0  0  0  0  0  0  0  0  0  0  # atno 17395 bound_to 11000

$$$$
