AV-unprocessed.smi:2695|AV-procd|sdf|10412|dock6
  -GOLD-   2272014453D 1   1.00000     0.00000
 Structure written by MMmdl.
 42 43  0  0  0  0  0  0  0  0  1 V2000
  148.8828  141.3834  154.4122 C   0  0  0  0  0  0  0  0  0  0  0  0
  149.8333  140.2546  154.7904 C   0  0  0  0  0  0  0  0  0  0  0  0
  150.9233  140.5304  155.5434 C   0  0  0  0  0  0  0  0  0  0  0  0
  151.8836  139.4718  155.8998 C   0  0  0  0  0  0  0  0  0  0  0  0
  152.8636  139.6909  156.6087 O   0  0  0  0  0  0  0  0  0  0  0  0
  151.5999  138.1384  155.3510 C   0  0  0  0  0  0  0  0  0  0  0  0
  150.4875  137.9568  154.6135 C   0  0  0  0  0  0  0  0  0  0  0  0
  150.1954  136.7628  154.0750 O   0  0  0  0  0  0  0  0  0  0  0  0
  149.5379  138.9555  154.3191 N   0  0  0  0  0  0  0  0  0  0  0  0
  148.3064  138.6551  153.5660 C   0  0  0  0  0  0  0  0  0  0  0  0
  147.3560  137.7038  154.3070 C   0  0  0  0  0  0  0  0  0  0  0  0
  146.7524  138.0693  155.3165 O   0  0  0  0  0  0  0  0  0  0  0  0
  147.2443  136.4728  153.7855 N   0  0  0  0  0  0  0  0  0  0  0  0
  146.4041  135.3911  154.3029 C   0  0  1  0  0  0  0  0  0  0  0  0
  145.4041  134.9555  153.2020 C   0  0  0  0  0  0  0  0  0  0  0  0
  146.0648  134.5493  151.8781 C   0  0  0  0  0  0  0  0  0  0  0  0
  144.9290  134.5801  150.8559 C   0  0  0  0  0  0  0  0  0  0  0  0
  143.9628  135.6670  151.3433 C   0  0  0  0  0  0  0  0  0  0  0  0
  144.4061  136.0382  152.7655 C   0  0  0  0  0  0  0  0  0  0  0  0
  147.3104  134.2475  154.8153 C   0  0  0  0  0  0  0  0  0  0  0  0
  147.9679  134.6422  155.9064 F   0  0  0  0  0  0  0  0  0  0  0  0
  146.5888  133.1763  155.1426 F   0  0  0  0  0  0  0  0  0  0  0  0
  148.1999  133.9008  153.8840 F   0  0  0  0  0  0  0  0  0  0  0  0
  149.3495  142.3554  154.5744 H   0  0  0  0  0  0  0  0  0  0  0  0
  147.9811  141.3430  155.0236 H   0  0  0  0  0  0  0  0  0  0  0  0
  148.6003  141.3427  153.3605 H   0  0  0  0  0  0  0  0  0  0  0  0
  151.1230  141.5342  155.8893 H   0  0  0  0  0  0  0  0  0  0  0  0
  152.2948  137.3337  155.5436 H   0  0  0  0  0  0  0  0  0  0  0  0
  147.7710  139.5751  153.3276 H   0  0  0  0  0  0  0  0  0  0  0  0
  148.5321  138.2320  152.5880 H   0  0  0  0  0  0  0  0  0  0  0  0
  147.7856  136.2628  152.9597 H   0  0  0  0  0  0  0  0  0  0  0  0
  145.8211  135.7574  155.1497 H   0  0  0  0  0  0  0  0  0  0  0  0
  144.8333  134.0977  153.5619 H   0  0  0  0  0  0  0  0  0  0  0  0
  146.8262  135.2802  151.6015 H   0  0  0  0  0  0  0  0  0  0  0  0
  146.5466  133.5721  151.9269 H   0  0  0  0  0  0  0  0  0  0  0  0
  145.2901  134.7664  149.8441 H   0  0  0  0  0  0  0  0  0  0  0  0
  144.4188  133.6161  150.8492 H   0  0  0  0  0  0  0  0  0  0  0  0
  143.9944  136.5425  150.6936 H   0  0  0  0  0  0  0  0  0  0  0  0
  142.9381  135.2941  151.3358 H   0  0  0  0  0  0  0  0  0  0  0  0
  143.5576  136.1151  153.4459 H   0  0  0  0  0  0  0  0  0  0  0  0
  144.8980  137.0118  152.7441 H   0  0  0  0  0  0  0  0  0  0  0  0
  149.8212  136.9196  153.2213 H   0  0  0  0  0  0  0  0  0  0  0  0
  1  2  1  0  0  0  0
  1 24  1  0  0  0  0
  1 25  1  0  0  0  0
  1 26  1  0  0  0  0
  2  9  1  0  0  0  0
  2  3  2  0  0  0  0
  3  4  1  0  0  0  0
  3 27  1  0  0  0  0
  4  5  2  0  0  0  0
  4  6  1  0  0  0  0
  6  7  2  0  0  0  0
  6 28  1  0  0  0  0
  7  8  1  0  0  0  0
  7  9  1  0  0  0  0
  8 42  1  0  0  0  0
  9 10  1  0  0  0  0
 10 11  1  0  0  0  0
 10 29  1  0  0  0  0
 10 30  1  0  0  0  0
 11 12  2  0  0  0  0
 11 13  1  0  0  0  0
 13 14  1  0  0  0  0
 13 31  1  0  0  0  0
 14 15  1  0  0  0  0
 14 20  1  0  0  0  0
 14 32  1  0  0  0  0
 15 19  1  0  0  0  0
 15 16  1  0  0  0  0
 15 33  1  0  0  0  0
 16 17  1  0  0  0  0
 16 34  1  0  0  0  0
 16 35  1  0  0  0  0
 17 18  1  0  0  0  0
 17 36  1  0  0  0  0
 17 37  1  0  0  0  0
 18 19  1  0  0  0  0
 18 38  1  0  0  0  0
 18 39  1  0  0  0  0
 19 40  1  0  0  0  0
 19 41  1  0  0  0  0
 20 21  1  0  0  0  0
 20 22  1  0  0  0  0
 20 23  1  0  0  0  0
M  END
> <s_m_source_file>
AV-unprocessed.smi

> <i_m_source_file_index>
2695

> <i_lp_mmshare_version>
43012

> <i_f3d_flags>
0

> <s_epik_input>
W0NIM11jMVtjSF1jKFtPSF0pW2NIXWMoPU8pbjFbQ0gyXUMoPU8pW05IXVtDQEBIXShDKEYpKEYpRilbQ0hdMltDSDJdW0NIMl1bQ0gyXVtDSDJdMg==

> <s_epik_cmdline>
J2VwaWtfcHl0aG9uJywgJy1waCcsICc3LjAnLCAnLXRuJywgJzgnLCAnLW1hJywgJzIwMCcsICctbWV0YWxfYmluZGluZycsICctaW1hZScsICc8aW5maWxlLm1hZT4nLCAnLW9tYWUnLCAnPG91dGZpbGUubWFlPic=

> <r_epik_Ionization_Penalty>
1.35977e-07

> <r_epik_Ionization_Penalty_Charging>
0

> <r_epik_Ionization_Penalty_Neutral>
1.35977e-07

> <r_epik_State_Penalty>
2.53185

> <r_epik_Charging_Adjusted_Penalty>
2.53185

> <i_epik_Tot_Q>
0

> <i_epik_Tot_abs_Q>
0

> <r_epik_Metal_State_Penalty>
2.53184

> <b_epik_Metal_Only>
0

> <s_lp_Force_Field>
OPLS_2005

> <r_lp_Energy>
25.7414

> <b_lp_Chiralities_Consistent>
1

> <s_lp_Variant>
AV-unprocessed.smi:2695-6

> <Gold.Version>
5.8.1

> <Gold.Id.Protein>
6NUR|6NUR_protein|mol2

> <Gold.PLP.Fitness>
40.4386

> <Gold.PLP.PLP>
-31.9226

> <Gold.PLP.part.hbond>
-4.0000

> <Gold.PLP.part.metal>
0.0000

> <Gold.PLP.part.buried>
1.1265

> <Gold.PLP.part.nonpolar>
-28.7373

> <Gold.PLP.part.repulsive>
0.0300

> <Gold.PLP.ligand.clash>
0.0000

> <Gold.PLP.ligand.torsion>
0.2958

> <Gold.PLP.Chemscore.Hbond>
2.9280

> <Gold.PLP.Chemscore.CHOScore>
0.0000

> <Gold.PLP.Chemscore.Metal>
0.0000

> <Gold.Chemscore.Hbonds>
donor molecule, donor type, donor heavy atom, donor atom, acceptor molecule, acceptor atom, score
      L1  H     8    42       P1  7948  0.93
      L1  H    13    31       P1  7948  1.00
      P1  H  7997  8008       L1     5  1.00

> <Gold.PLP.Chemscore.Internal.Correction>
0.3236

> <Gold.Rescore>
     Score         DG    S(hbond)    S(metal)    S(lipo)     H(rot)  DE(clash)    DE(int)     intcor
     12.54     -15.21       2.85        0.00      55.59       2.45       0.02       2.65       ----

> <Gold.Chemscore.Fitness>
12.5409

> <Gold.Chemscore.DG>
-15.2134

> <Gold.Chemscore.ZeroCoef>
-5.4800

> <Gold.Chemscore.Hbond>
2.8457

> <Gold.Chemscore.Metal>
0.0000

> <Gold.Chemscore.Lipo>
55.5882

> <Gold.Chemscore.Internal_Hbond>
0.0000

> <Gold.Chemscore.DEClash>
0.0239

> <Gold.Chemscore.DEInternal>
2.6486

> <Gold.Chemscore.Rot>
2.4512

> <Gold.Chemscore.Internal.Correction>
   9.000000E+99

> <Gold.Chemscore.Hbonds>
donor molecule, donor type, donor heavy atom, donor atom, acceptor molecule, acceptor atom, score
      L1  H     8    42       P1  7948  0.27
      L1  H    13    31       P1  7948  0.98
      P1  H  7997  8008       L1     5  0.96

> <Gold.Chemscore.Hbond.Weighted>
-9.5047

> <Gold.Chemscore.Metal.Weighted>
-0.0000

> <Gold.Chemscore.Lipo.Weighted>
-6.5038

> <Gold.Chemscore.Internal_Hbond.Weighted>
0.0000

> <Gold.Chemscore.DEClash.Weighted>
0.0239

> <Gold.Chemscore.DEInternal.Weighted>
2.6486

> <Gold.Chemscore.Rot.Weighted>
6.2752

> <Gold.Chemscore.Internal.Correction.Weighted>
   9.000000E+99

> <Gold.Protein.RotatedTorsions>
[ 6907 6896 6895 6894 ] final   81.82 input  -60.11 | X-H torsion
[ 7974 7965 7964 7962 ] final   41.37 input  175.53 | X-H torsion
[ 8008 7997 7996 7995 ] final  -39.87 input   59.86 | X-H torsion
[ 10167 10162 10161 10158 ] final -161.64 input  -65.29 | X-H torsion
[ 10718 10713 10712 10709 ] final -119.94 input   66.30 | X-H torsion
[ 10763 10752 10751 10750 ] final   94.87 input  -60.55 | X-H torsion
[ 11005 11000 10999 10996 ] final -136.85 input  -57.11 | X-H torsion

> <Gold.Protein.ActiveResidues>
 VAL166  LYS551  ARG553  GLY616  TRP617  ASP618  TYR619  PRO620  LYS621  CYS622 
 ASP623  PHE694  ASN695  SER759  ASP760  ASP761  ALA762  ILE779  LEU786  VAL792 
 PHE793  MET794  SER795  GLU796  ALA797  LYS798  CYS799  TRP800  GLU811  SER814 

> <Gold.Protein.RotatedAtoms>
  152.5280  134.3146  159.9125 H   0  0  0  0  0  0  0  0  0  0  0  0  # atno 6907 bound_to 6896
  151.3095  133.4080  159.2653 H   0  0  0  0  0  0  0  0  0  0  0  0  # atno 6908 bound_to 6896
  151.0050  134.9369  159.8033 H   0  0  0  0  0  0  0  0  0  0  0  0  # atno 6909 bound_to 6896
  146.0829  139.5423  142.9525 H   0  0  0  0  0  0  0  0  0  0  0  0  # atno 7974 bound_to 7965
  154.4018  140.1540  156.2934 H   0  0  0  0  0  0  0  0  0  0  0  0  # atno 8008 bound_to 7997
  155.8765  140.3446  155.5835 H   0  0  0  0  0  0  0  0  0  0  0  0  # atno 8009 bound_to 7997
  155.7716  140.0831  157.2095 H   0  0  0  0  0  0  0  0  0  0  0  0  # atno 8010 bound_to 7997
  139.6450  144.0189  152.2120 H   0  0  0  0  0  0  0  0  0  0  0  0  # atno 10167 bound_to 10162
  156.1219  130.6330  150.9478 H   0  0  0  0  0  0  0  0  0  0  0  0  # atno 10718 bound_to 10713
  153.2467  135.4274  155.0754 H   0  0  0  0  0  0  0  0  0  0  0  0  # atno 10763 bound_to 10752
  154.8364  135.3416  154.6572 H   0  0  0  0  0  0  0  0  0  0  0  0  # atno 10764 bound_to 10752
  153.6994  135.7029  153.5124 H   0  0  0  0  0  0  0  0  0  0  0  0  # atno 10765 bound_to 10752
  140.8766  134.1984  157.4617 H   0  0  0  0  0  0  0  0  0  0  0  0  # atno 11005 bound_to 11000
  145.6184  141.0327  143.1928 LP  0  0  0  0  0  0  0  0  0  0  0  0  # atno 17320 bound_to 7965
  144.7305  139.7739  143.7349 LP  0  0  0  0  0  0  0  0  0  0  0  0  # atno 17321 bound_to 7965
  139.9888  144.6376  150.7833 LP  0  0  0  0  0  0  0  0  0  0  0  0  # atno 17342 bound_to 10162
  140.7510  143.2965  151.3191 LP  0  0  0  0  0  0  0  0  0  0  0  0  # atno 17343 bound_to 10162
  157.6402  131.0911  150.8266 LP  0  0  0  0  0  0  0  0  0  0  0  0  # atno 17370 bound_to 10713
  156.8361  130.5032  149.5326 LP  0  0  0  0  0  0  0  0  0  0  0  0  # atno 17371 bound_to 10713
  139.8716  134.9798  156.5053 LP  0  0  0  0  0  0  0  0  0  0  0  0  # atno 17394 bound_to 11000
  140.8510  133.8132  155.9169 LP  0  0  0  0  0  0  0  0  0  0  0  0  # atno 17395 bound_to 11000

$$$$
