AV-unprocessed.smi:21|AV-procd|sdf|123|dock1
  -GOLD-   2262015293D 1   1.00000     0.00000
 Structure written by MMmdl.
 62 65  0  0  0  0  0  0  0  0  2 V2000
  145.7414  131.7881  149.8798 C   0  0  0  0  0  0  0  0  0  0  0  0
  145.7794  131.9294  151.2914 O   0  0  0  0  0  0  0  0  0  0  0  0
  145.2736  133.1750  151.7519 C   0  0  1  0  0  0  0  0  0  0  0  0
  145.6279  133.3491  153.2328 C   0  0  0  0  0  0  0  0  0  0  0  0
  146.8006  134.3319  153.2368 C   0  0  2  0  0  0  0  0  0  0  0  0
  147.0422  135.0630  154.5785 C   0  0  0  0  0  0  0  0  0  0  0  0
  148.4021  134.8895  155.0830 N   0  0  0  0  0  0  0  0  0  0  0  0
  149.2277  133.8328  154.4997 C   0  0  0  0  0  0  0  0  0  0  0  0
  148.9672  135.7700  155.9628 C   0  0  0  0  0  0  0  0  0  0  0  0
  148.5998  135.6813  157.2704 N   0  0  0  0  0  0  0  0  0  0  0  0
  149.1039  136.5082  158.1886 C   0  0  0  0  0  0  0  0  0  0  0  0
  149.9861  137.4921  158.0249 N   0  0  0  0  0  0  0  0  0  0  0  0
  150.3705  137.5968  156.7223 C   0  0  0  0  0  0  0  0  0  0  0  0
  149.9189  136.7894  155.6353 C   0  0  0  0  0  0  0  0  0  0  0  0
  150.5511  137.2094  154.4668 N   0  0  0  0  0  0  0  0  0  0  0  0
  151.3197  138.1950  154.8388 C   0  0  0  0  0  0  0  0  0  0  0  0
  151.2770  138.4906  156.1794 N   0  0  0  0  0  0  0  0  0  0  0  0
  152.0301  139.5310  156.8591 C   0  0  0  0  0  0  0  0  0  0  0  0
  151.1825  140.7883  157.1758 C   0  0  2  0  0  0  0  0  0  0  0  0
  150.6888  141.5129  155.8994 C   0  0  0  0  0  0  0  0  0  0  0  0
  149.5400  142.2928  156.1599 O   0  0  0  0  0  0  0  0  0  0  0  0
  151.9209  141.7470  158.1442 C   0  0  2  0  0  0  0  0  0  0  0  0
  152.3611  141.1178  159.4545 C   0  0  0  0  0  0  0  0  0  0  0  0
  152.6019  142.3408  160.3327 C   0  0  0  0  0  0  0  0  0  0  0  0
  151.6606  143.3158  159.8996 O   0  0  0  0  0  0  0  0  0  0  0  0
  151.0716  142.9102  158.6682 C   0  0  0  0  0  0  0  0  0  0  0  0
  146.5425  135.2229  152.0803 N   0  3  2  0  0  0  0  0  0  0  0  0
  145.6972  136.4100  152.3594 C   0  0  0  0  0  0  0  0  0  0  0  0
  145.9639  134.3524  151.0331 C   0  0  0  0  0  0  0  0  0  0  0  0
  144.1889  133.2142  151.6353 H   0  0  0  0  0  0  0  0  0  0  0  0
  147.6976  133.7680  152.9769 H   0  0  0  0  0  0  0  0  0  0  0  0
  146.1405  130.8131  149.6005 H   0  0  0  0  0  0  0  0  0  0  0  0
  146.3421  132.5495  149.3815 H   0  0  0  0  0  0  0  0  0  0  0  0
  144.7188  131.8504  149.5052 H   0  0  0  0  0  0  0  0  0  0  0  0
  144.7777  133.7848  153.7595 H   0  0  0  0  0  0  0  0  0  0  0  0
  145.8686  132.4063  153.7252 H   0  0  0  0  0  0  0  0  0  0  0  0
  146.8131  136.1242  154.4969 H   0  0  0  0  0  0  0  0  0  0  0  0
  146.3494  134.6871  155.3320 H   0  0  0  0  0  0  0  0  0  0  0  0
  149.5810  133.1490  155.2725 H   0  0  0  0  0  0  0  0  0  0  0  0
  150.0930  134.2562  153.9879 H   0  0  0  0  0  0  0  0  0  0  0  0
  148.6671  133.2455  153.7722 H   0  0  0  0  0  0  0  0  0  0  0  0
  148.7499  136.3605  159.1982 H   0  0  0  0  0  0  0  0  0  0  0  0
  151.9462  138.7344  154.1432 H   0  0  0  0  0  0  0  0  0  0  0  0
  152.4306  139.0977  157.7757 H   0  0  0  0  0  0  0  0  0  0  0  0
  152.8915  139.7984  156.2461 H   0  0  0  0  0  0  0  0  0  0  0  0
  150.2873  140.4403  157.6930 H   0  0  0  0  0  0  0  0  0  0  0  0
  151.4645  142.1584  155.4882 H   0  0  0  0  0  0  0  0  0  0  0  0
  150.4510  140.7960  155.1140 H   0  0  0  0  0  0  0  0  0  0  0  0
  149.5839  143.0791  155.6375 H   0  0  0  0  0  0  0  0  0  0  0  0
  152.8033  142.1576  157.6503 H   0  0  0  0  0  0  0  0  0  0  0  0
  151.5602  140.5077  159.8746 H   0  0  0  0  0  0  0  0  0  0  0  0
  153.2511  140.4952  159.3581 H   0  0  0  0  0  0  0  0  0  0  0  0
  152.4901  142.1217  161.3948 H   0  0  0  0  0  0  0  0  0  0  0  0
  153.6066  142.7329  160.1706 H   0  0  0  0  0  0  0  0  0  0  0  0
  151.0257  143.7421  157.9648 H   0  0  0  0  0  0  0  0  0  0  0  0
  150.0508  142.5839  158.8716 H   0  0  0  0  0  0  0  0  0  0  0  0
  144.7290  136.1218  152.7707 H   0  0  0  0  0  0  0  0  0  0  0  0
  145.5209  136.9735  151.4425 H   0  0  0  0  0  0  0  0  0  0  0  0
  146.1832  137.0888  153.0601 H   0  0  0  0  0  0  0  0  0  0  0  0
  146.7908  133.9875  150.4226 H   0  0  0  0  0  0  0  0  0  0  0  0
  145.2855  134.8841  150.3645 H   0  0  0  0  0  0  0  0  0  0  0  0
  147.4292  135.5749  151.7479 H   0  0  0  0  0  0  0  0  0  0  0  0
  1  2  1  0  0  0  0
  1 32  1  0  0  0  0
  1 33  1  0  0  0  0
  1 34  1  0  0  0  0
  2  3  1  0  0  0  0
  3 30  1  0  0  0  0
  3 29  1  0  0  0  0
  3  4  1  0  0  0  0
  4  5  1  0  0  0  0
  4 35  1  0  0  0  0
  4 36  1  0  0  0  0
  5 31  1  0  0  0  0
  5  6  1  0  0  0  0
  5 27  1  0  0  0  0
  6  7  1  0  0  0  0
  6 37  1  0  0  0  0
  6 38  1  0  0  0  0
  7  8  1  0  0  0  0
  7  9  1  0  0  0  0
  8 39  1  0  0  0  0
  8 40  1  0  0  0  0
  8 41  1  0  0  0  0
  9 14  1  0  0  0  0
  9 10  2  0  0  0  0
 10 11  1  0  0  0  0
 11 12  2  0  0  0  0
 11 42  1  0  0  0  0
 12 13  1  0  0  0  0
 13 17  1  0  0  0  0
 13 14  2  0  0  0  0
 14 15  1  0  0  0  0
 15 16  2  0  0  0  0
 16 17  1  0  0  0  0
 16 43  1  0  0  0  0
 17 18  1  0  0  0  0
 18 19  1  0  0  0  0
 18 44  1  0  0  0  0
 18 45  1  0  0  0  0
 19 20  1  0  0  0  0
 19 22  1  0  0  0  0
 19 46  1  0  0  0  0
 20 21  1  0  0  0  0
 20 47  1  0  0  0  0
 20 48  1  0  0  0  0
 21 49  1  0  0  0  0
 22 26  1  0  0  0  0
 22 23  1  0  0  0  0
 22 50  1  0  0  0  0
 23 24  1  0  0  0  0
 23 51  1  0  0  0  0
 23 52  1  0  0  0  0
 24 25  1  0  0  0  0
 24 53  1  0  0  0  0
 24 54  1  0  0  0  0
 25 26  1  0  0  0  0
 26 55  1  0  0  0  0
 26 56  1  0  0  0  0
 27 28  1  0  0  0  0
 27 29  1  0  0  0  0
 27 62  1  0  0  0  0
 28 57  1  0  0  0  0
 28 58  1  0  0  0  0
 28 59  1  0  0  0  0
 29 60  1  0  0  0  0
 29 61  1  0  0  0  0
M  CHG  1  27   1
M  END
> <s_m_source_file>
AV-unprocessed.smi

> <i_m_source_file_index>
21

> <i_lp_mmshare_version>
43012

> <i_f3d_flags>
0

> <s_epik_input>
W0NIM11PW0NASF0xW0NIMl1bQ0BIXShOKFtDSDNdKVtDSDJdMSlbQ0gyXU4oW0NIM10pYyhuW2NIXW4yKWMoYzIzKW5bY0hdbjNbQ0gyXVtDQEhdKFtDSDJdW09IXSlbQ0BASF00W0NIMl1bQ0gyXU9bQ0gyXTQ=

> <s_epik_cmdline>
J2VwaWtfcHl0aG9uJywgJy1waCcsICc3LjAnLCAnLXRuJywgJzgnLCAnLW1hJywgJzIwMCcsICctbWV0YWxfYmluZGluZycsICctaW1hZScsICc8aW5maWxlLm1hZT4nLCAnLW9tYWUnLCAnPG91dGZpbGUubWFlPic=

> <r_lp_tautomer_probability>
1

> <r_epik_Ionization_Penalty>
0.0157465

> <r_epik_Ionization_Penalty_Charging>
0.015354

> <r_epik_Ionization_Penalty_Neutral>
0.000392529

> <r_epik_State_Penalty>
0.0120612

> <r_epik_Charging_Adjusted_Penalty>
0.0274152

> <i_epik_Tot_Q>
1

> <i_epik_Tot_abs_Q>
1

> <r_epik_Metal_State_Penalty>
0.0121253

> <b_epik_Metal_Only>
0

> <s_lp_Force_Field>
OPLS_2005

> <r_lp_Energy>
63.0646

> <b_lp_Chiralities_Consistent>
1

> <s_lp_Variant>
AV-unprocessed.smi:21-3

> <Gold.Version>
5.8.1

> <Gold.Id.Protein>
6NUR|6NUR_protein|mol2

> <Gold.PLP.Fitness>
45.1325

> <Gold.PLP.PLP>
-41.1066

> <Gold.PLP.part.hbond>
-2.0000

> <Gold.PLP.part.metal>
0.0000

> <Gold.PLP.part.buried>
-6.2513

> <Gold.PLP.part.nonpolar>
-33.8998

> <Gold.PLP.part.repulsive>
0.4982

> <Gold.PLP.ligand.clash>
0.0000

> <Gold.PLP.ligand.torsion>
2.9073

> <Gold.PLP.Chemscore.Hbond>
3.0000

> <Gold.PLP.Chemscore.CHOScore>
0.0000

> <Gold.PLP.Chemscore.Metal>
0.0000

> <Gold.Chemscore.Hbonds>
donor molecule, donor type, donor heavy atom, donor atom, acceptor molecule, acceptor atom, score
      L1  H    21    49       P1  8028  0.77
      L1  H    27    62       P1  7948  2.00

> <Gold.PLP.Chemscore.Internal.Correction>
0.8405

> <Gold.Rescore>
     Score         DG    S(hbond)    S(metal)    S(lipo)     H(rot)  DE(clash)    DE(int)     intcor
     13.08     -15.97       1.97        0.00     100.63       3.08       0.04       2.85       ----

> <Gold.Chemscore.Fitness>
13.0842

> <Gold.Chemscore.DG>
-15.9743

> <Gold.Chemscore.ZeroCoef>
-5.4800

> <Gold.Chemscore.Hbond>
1.9745

> <Gold.Chemscore.Metal>
0.0000

> <Gold.Chemscore.Lipo>
100.6282

> <Gold.Chemscore.Internal_Hbond>
0.0000

> <Gold.Chemscore.DEClash>
0.0365

> <Gold.Chemscore.DEInternal>
2.8536

> <Gold.Chemscore.Rot>
3.0758

> <Gold.Chemscore.Internal.Correction>
   9.000000E+99

> <Gold.Chemscore.Hbonds>
donor molecule, donor type, donor heavy atom, donor atom, acceptor molecule, acceptor atom, score
      L1  H    21    49       P1  8028  0.76
      L1  H    27    62       P1  7948  0.98

> <Gold.Chemscore.Hbond.Weighted>
-6.5949

> <Gold.Chemscore.Metal.Weighted>
-0.0000

> <Gold.Chemscore.Lipo.Weighted>
-11.7735

> <Gold.Chemscore.Internal_Hbond.Weighted>
0.0000

> <Gold.Chemscore.DEClash.Weighted>
0.0365

> <Gold.Chemscore.DEInternal.Weighted>
2.8536

> <Gold.Chemscore.Rot.Weighted>
7.8741

> <Gold.Chemscore.Internal.Correction.Weighted>
   9.000000E+99

> <Gold.Protein.RotatedTorsions>
[ 6907 6896 6895 6894 ] final  -47.29 input  -60.11 | X-H torsion
[ 7974 7965 7964 7962 ] final -168.40 input  175.53 | X-H torsion
[ 8008 7997 7996 7995 ] final -156.29 input   59.86 | X-H torsion
[ 10167 10162 10161 10158 ] final   46.86 input  -65.29 | X-H torsion
[ 10718 10713 10712 10709 ] final  -89.76 input   66.30 | X-H torsion
[ 10763 10752 10751 10750 ] final -134.72 input  -60.55 | X-H torsion
[ 11005 11000 10999 10996 ] final  178.78 input  -57.11 | X-H torsion

> <Gold.Protein.ActiveResidues>
 VAL166  LYS551  ARG553  GLY616  TRP617  ASP618  TYR619  PRO620  LYS621  CYS622 
 ASP623  PHE694  ASN695  SER759  ASP760  ASP761  ALA762  ILE779  LEU786  VAL792 
 PHE793  MET794  SER795  GLU796  ALA797  LYS798  CYS799  TRP800  GLU811  SER814 

> <Gold.Protein.RotatedAtoms>
  150.9023  134.8436  159.7368 H   0  0  0  0  0  0  0  0  0  0  0  0  # atno 6907 bound_to 6896
  152.4899  134.4484  159.9576 H   0  0  0  0  0  0  0  0  0  0  0  0  # atno 6908 bound_to 6896
  151.4534  133.3572  159.2834 H   0  0  0  0  0  0  0  0  0  0  0  0  # atno 6909 bound_to 6896
  144.7204  140.2376  143.6296 H   0  0  0  0  0  0  0  0  0  0  0  0  # atno 7974 bound_to 7965
  155.7149  140.0783  157.2355 H   0  0  0  0  0  0  0  0  0  0  0  0  # atno 8008 bound_to 7997
  154.4053  140.1623  156.2392 H   0  0  0  0  0  0  0  0  0  0  0  0  # atno 8009 bound_to 7997
  155.9249  140.3395  155.6205 H   0  0  0  0  0  0  0  0  0  0  0  0  # atno 8010 bound_to 7997
  140.3095  144.2837  150.6202 H   0  0  0  0  0  0  0  0  0  0  0  0  # atno 10167 bound_to 10162
  155.9985  130.4884  150.5220 H   0  0  0  0  0  0  0  0  0  0  0  0  # atno 10718 bound_to 10713
  154.8715  135.3726  154.4782 H   0  0  0  0  0  0  0  0  0  0  0  0  # atno 10763 bound_to 10752
  153.5437  135.7026  153.5629 H   0  0  0  0  0  0  0  0  0  0  0  0  # atno 10764 bound_to 10752
  153.3779  135.4004  155.1800 H   0  0  0  0  0  0  0  0  0  0  0  0  # atno 10765 bound_to 10752
  140.3989  134.6795  157.4551 H   0  0  0  0  0  0  0  0  0  0  0  0  # atno 11005 bound_to 11000
  145.8350  139.2103  143.1860 LP  0  0  0  0  0  0  0  0  0  0  0  0  # atno 17320 bound_to 7965
  146.0397  140.8177  142.9835 LP  0  0  0  0  0  0  0  0  0  0  0  0  # atno 17321 bound_to 7965
  140.5580  143.2196  151.7814 LP  0  0  0  0  0  0  0  0  0  0  0  0  # atno 17342 bound_to 10162
  139.4897  144.4387  151.9789 LP  0  0  0  0  0  0  0  0  0  0  0  0  # atno 17343 bound_to 10162
  157.3180  131.0676  151.1952 LP  0  0  0  0  0  0  0  0  0  0  0  0  # atno 17370 bound_to 10713
  157.2875  130.6780  149.6097 LP  0  0  0  0  0  0  0  0  0  0  0  0  # atno 17371 bound_to 10713
  140.0351  134.6349  155.9055 LP  0  0  0  0  0  0  0  0  0  0  0  0  # atno 17394 bound_to 11000
  141.1864  133.6557  156.5237 LP  0  0  0  0  0  0  0  0  0  0  0  0  # atno 17395 bound_to 11000

$$$$
