AV-unprocessed.smi:1558|AV-procd|sdf|6273|dock7
  -GOLD-   22720 6463D 1   1.00000     0.00000
 Structure written by MMmdl.
 36 37  0  0  0  0  0  0  0  0  1 V2000
  142.0554  132.3285  147.8353 N   0  0  0  0  0  0  0  0  0  0  0  0
  143.2689  132.6724  148.2754 C   0  0  0  0  0  0  0  0  0  0  0  0
  143.9914  133.4569  147.6649 O   0  0  0  0  0  0  0  0  0  0  0  0
  143.7390  132.0459  149.5895 C   0  0  0  0  0  0  0  0  0  0  0  0
  144.8104  132.8226  150.1875 N   0  0  0  0  0  0  0  0  0  0  0  0
  144.7559  134.1110  150.6832 C   0  0  0  0  0  0  0  0  0  0  0  0
  146.0148  134.3876  151.1361 C   0  0  0  0  0  0  0  0  0  0  0  0
  146.5129  135.5690  151.7416 N   0  0  0  0  0  0  0  0  0  0  0  0
  145.8076  136.5168  152.3801 C   0  0  0  0  0  0  0  0  0  0  0  0
  144.5867  136.5027  152.5399 O   0  0  0  0  0  0  0  0  0  0  0  0
  146.6053  137.4943  152.8329 N   0  0  0  0  0  0  0  0  0  0  0  0
  146.1597  138.6545  153.5964 C   0  0  0  0  0  0  0  0  0  0  0  0
  147.1446  139.8270  153.4613 C   0  0  1  0  0  0  0  0  0  0  0  0
  146.8302  141.0013  154.3849 C   0  0  0  0  0  0  0  0  0  0  0  0
  148.1702  141.6978  154.4541 C   0  0  0  0  0  0  0  0  0  0  0  0
  149.1441  140.5213  154.4595 C   0  0  0  0  0  0  0  0  0  0  0  0
  148.4645  139.4372  153.8305 O   0  0  0  0  0  0  0  0  0  0  0  0
  146.7833  133.2228  150.8784 C   0  0  0  0  0  0  0  0  0  0  0  0
  146.0489  132.2813  150.3054 N   0  0  0  0  0  0  0  0  0  0  0  0
  141.7083  132.7176  146.9706 H   0  0  0  0  0  0  0  0  0  0  0  0
  141.4902  131.6806  148.3645 H   0  0  0  0  0  0  0  0  0  0  0  0
  142.9024  131.9796  150.2871 H   0  0  0  0  0  0  0  0  0  0  0  0
  144.0953  131.0288  149.4206 H   0  0  0  0  0  0  0  0  0  0  0  0
  143.8462  134.6926  150.6678 H   0  0  0  0  0  0  0  0  0  0  0  0
  147.5123  135.7018  151.6909 H   0  0  0  0  0  0  0  0  0  0  0  0
  147.5959  137.4222  152.6530 H   0  0  0  0  0  0  0  0  0  0  0  0
  145.1856  138.9504  153.2064 H   0  0  0  0  0  0  0  0  0  0  0  0
  146.0055  138.3977  154.6459 H   0  0  0  0  0  0  0  0  0  0  0  0
  147.1712  140.1821  152.4298 H   0  0  0  0  0  0  0  0  0  0  0  0
  146.0340  141.6414  154.0043 H   0  0  0  0  0  0  0  0  0  0  0  0
  146.5420  140.6465  155.3757 H   0  0  0  0  0  0  0  0  0  0  0  0
  148.3200  142.3048  153.5603 H   0  0  0  0  0  0  0  0  0  0  0  0
  148.2757  142.3431  155.3266 H   0  0  0  0  0  0  0  0  0  0  0  0
  150.0738  140.7581  153.9419 H   0  0  0  0  0  0  0  0  0  0  0  0
  149.3901  140.2288  155.4807 H   0  0  0  0  0  0  0  0  0  0  0  0
  147.8262  133.0317  151.0840 H   0  0  0  0  0  0  0  0  0  0  0  0
  1  2  1  0  0  0  0
  1 20  1  0  0  0  0
  1 21  1  0  0  0  0
  2  3  2  0  0  0  0
  2  4  1  0  0  0  0
  4  5  1  0  0  0  0
  4 22  1  0  0  0  0
  4 23  1  0  0  0  0
  5 19  1  0  0  0  0
  5  6  1  0  0  0  0
  6  7  2  0  0  0  0
  6 24  1  0  0  0  0
  7  8  1  0  0  0  0
  7 18  1  0  0  0  0
  8  9  1  0  0  0  0
  8 25  1  0  0  0  0
  9 10  2  0  0  0  0
  9 11  1  0  0  0  0
 11 12  1  0  0  0  0
 11 26  1  0  0  0  0
 12 13  1  0  0  0  0
 12 27  1  0  0  0  0
 12 28  1  0  0  0  0
 13 17  1  0  0  0  0
 13 14  1  0  0  0  0
 13 29  1  0  0  0  0
 14 15  1  0  0  0  0
 14 30  1  0  0  0  0
 14 31  1  0  0  0  0
 15 16  1  0  0  0  0
 15 32  1  0  0  0  0
 15 33  1  0  0  0  0
 16 17  1  0  0  0  0
 16 34  1  0  0  0  0
 16 35  1  0  0  0  0
 18 19  2  0  0  0  0
 18 36  1  0  0  0  0
M  END
> <s_m_source_file>
AV-unprocessed.smi

> <i_m_source_file_index>
1558

> <i_lp_mmshare_version>
43012

> <i_f3d_flags>
0

> <s_epik_input>
W05IMl1DKD1PKVtDSDJdbjFbY0hdYyhbY0hdbjEpW05IXUMoPU8pW05IXVtDSDJdW0NAQEhdMltDSDJdW0NIMl1bQ0gyXU8y

> <s_epik_cmdline>
J2VwaWtfcHl0aG9uJywgJy1waCcsICc3LjAnLCAnLXRuJywgJzgnLCAnLW1hJywgJzIwMCcsICctbWV0YWxfYmluZGluZycsICctaW1hZScsICc8aW5maWxlLm1hZT4nLCAnLW9tYWUnLCAnPG91dGZpbGUubWFlPic=

> <r_lp_tautomer_probability>
1

> <r_epik_Ionization_Penalty>
4.01684e-05

> <r_epik_Ionization_Penalty_Charging>
0

> <r_epik_Ionization_Penalty_Neutral>
4.01684e-05

> <r_epik_State_Penalty>
-0

> <r_epik_Charging_Adjusted_Penalty>
0

> <i_epik_Tot_Q>
0

> <i_epik_Tot_abs_Q>
0

> <r_epik_Metal_State_Penalty>
-0

> <b_epik_Metal_Only>
0

> <s_lp_Force_Field>
OPLS_2005

> <r_lp_Energy>
20.8688

> <b_lp_Chiralities_Consistent>
1

> <s_lp_Variant>
AV-unprocessed.smi:1558-2

> <Gold.Version>
5.8.1

> <Gold.Id.Protein>
6NUR|6NUR_protein|mol2

> <Gold.PLP.Fitness>
46.5005

> <Gold.PLP.PLP>
-32.1462

> <Gold.PLP.part.hbond>
-5.8016

> <Gold.PLP.part.metal>
0.0000

> <Gold.PLP.part.buried>
-4.3154

> <Gold.PLP.part.nonpolar>
-28.5690

> <Gold.PLP.part.repulsive>
6.5289

> <Gold.PLP.ligand.clash>
0.0000

> <Gold.PLP.ligand.torsion>
0.6105

> <Gold.PLP.Chemscore.Hbond>
4.5124

> <Gold.PLP.Chemscore.CHOScore>
0.6701

> <Gold.PLP.Chemscore.Metal>
0.0000

> <Gold.Chemscore.Hbonds>
donor molecule, donor type, donor heavy atom, donor atom, acceptor molecule, acceptor atom, score
      L1  H     1    20       P1 10195  0.91
      L1  H     1    21       P1 10952  1.00
      L1  H     8    25       P1  7948  0.94
      L1  H    11    26       P1  7948  0.85
      P1  H  7918  7932       L1     3  0.74
      L1  C    18    36       P1 10747  0.74

> <Gold.PLP.Chemscore.Internal.Correction>
0.0278

> <Gold.Rescore>
     Score         DG    S(hbond)    S(metal)    S(lipo)     H(rot)  DE(clash)    DE(int)     intcor
     17.72     -21.05       4.28        0.00      61.97       2.33       1.92       1.41       ----

> <Gold.Chemscore.Fitness>
17.7170

> <Gold.Chemscore.DG>
-21.0487

> <Gold.Chemscore.ZeroCoef>
-5.4800

> <Gold.Chemscore.Hbond>
4.2766

> <Gold.Chemscore.Metal>
0.0000

> <Gold.Chemscore.Lipo>
61.9701

> <Gold.Chemscore.Internal_Hbond>
0.0000

> <Gold.Chemscore.DEClash>
1.9183

> <Gold.Chemscore.DEInternal>
1.4134

> <Gold.Chemscore.Rot>
2.3303

> <Gold.Chemscore.Internal.Correction>
   9.000000E+99

> <Gold.Chemscore.Hbonds>
donor molecule, donor type, donor heavy atom, donor atom, acceptor molecule, acceptor atom, score
      L1  H     1    20       P1 10195  0.78
      L1  H     1    21       P1 10952  1.00
      L1  H     8    25       P1  7948  0.90
      L1  H    11    26       P1  7948  0.82
      P1  H  7918  7932       L1     3  0.70

> <Gold.Chemscore.Hbond.Weighted>
-14.2838

> <Gold.Chemscore.Metal.Weighted>
-0.0000

> <Gold.Chemscore.Lipo.Weighted>
-7.2505

> <Gold.Chemscore.Internal_Hbond.Weighted>
0.0000

> <Gold.Chemscore.DEClash.Weighted>
1.9183

> <Gold.Chemscore.DEInternal.Weighted>
1.4134

> <Gold.Chemscore.Rot.Weighted>
5.9656

> <Gold.Chemscore.Internal.Correction.Weighted>
   9.000000E+99

> <Gold.Protein.RotatedTorsions>
[ 6907 6896 6895 6894 ] final  -38.43 input  -60.11 | X-H torsion
[ 7974 7965 7964 7962 ] final  -53.11 input  175.53 | X-H torsion
[ 8008 7997 7996 7995 ] final -143.57 input   59.86 | X-H torsion
[ 10167 10162 10161 10158 ] final   34.74 input  -65.29 | X-H torsion
[ 10718 10713 10712 10709 ] final  -77.40 input   66.30 | X-H torsion
[ 10763 10752 10751 10750 ] final  -10.36 input  -60.55 | X-H torsion
[ 11005 11000 10999 10996 ] final   56.64 input  -57.11 | X-H torsion

> <Gold.Protein.ActiveResidues>
 VAL166  LYS551  ARG553  GLY616  TRP617  ASP618  TYR619  PRO620  LYS621  CYS622 
 ASP623  PHE694  ASN695  SER759  ASP760  ASP761  ALA762  ILE779  LEU786  VAL792 
 PHE793  MET794  SER795  GLU796  ALA797  LYS798  CYS799  TRP800  GLU811  SER814 

> <Gold.Protein.RotatedAtoms>
  151.0025  134.9333  159.7961 H   0  0  0  0  0  0  0  0  0  0  0  0  # atno 6907 bound_to 6896
  152.5281  134.3135  159.9132 H   0  0  0  0  0  0  0  0  0  0  0  0  # atno 6908 bound_to 6896
  151.3141  133.4026  159.2683 H   0  0  0  0  0  0  0  0  0  0  0  0  # atno 6909 bound_to 6896
  145.9005  140.7998  142.9745 H   0  0  0  0  0  0  0  0  0  0  0  0  # atno 7974 bound_to 7965
  155.5127  140.0585  157.2920 H   0  0  0  0  0  0  0  0  0  0  0  0  # atno 8008 bound_to 7997
  154.4546  140.1966  156.0365 H   0  0  0  0  0  0  0  0  0  0  0  0  # atno 8009 bound_to 7997
  156.0773  140.3252  155.7654 H   0  0  0  0  0  0  0  0  0  0  0  0  # atno 8010 bound_to 7997
  140.4287  144.1356  150.6156 H   0  0  0  0  0  0  0  0  0  0  0  0  # atno 10167 bound_to 10162
  156.0146  130.4490  150.3339 H   0  0  0  0  0  0  0  0  0  0  0  0  # atno 10718 bound_to 10713
  153.4680  135.7016  153.6010 H   0  0  0  0  0  0  0  0  0  0  0  0  # atno 10763 bound_to 10752
  153.4276  135.3810  155.2150 H   0  0  0  0  0  0  0  0  0  0  0  0  # atno 10764 bound_to 10752
  154.8726  135.3943  154.4115 H   0  0  0  0  0  0  0  0  0  0  0  0  # atno 10765 bound_to 10752
  140.0514  134.5732  155.9260 H   0  0  0  0  0  0  0  0  0  0  0  0  # atno 11005 bound_to 11000
  144.6735  140.1670  143.7417 LP  0  0  0  0  0  0  0  0  0  0  0  0  # atno 17320 bound_to 7965
  145.8796  139.2316  143.1613 LP  0  0  0  0  0  0  0  0  0  0  0  0  # atno 17321 bound_to 7965
  140.4452  143.2509  151.9420 LP  0  0  0  0  0  0  0  0  0  0  0  0  # atno 17342 bound_to 10162
  139.4784  144.5616  151.8231 LP  0  0  0  0  0  0  0  0  0  0  0  0  # atno 17343 bound_to 10162
  157.1437  131.0303  151.2916 LP  0  0  0  0  0  0  0  0  0  0  0  0  # atno 17370 bound_to 10713
  157.4450  130.7566  149.7102 LP  0  0  0  0  0  0  0  0  0  0  0  0  # atno 17371 bound_to 10713
  141.1932  133.6578  156.5536 LP  0  0  0  0  0  0  0  0  0  0  0  0  # atno 17394 bound_to 11000
  140.3912  134.7438  157.4723 LP  0  0  0  0  0  0  0  0  0  0  0  0  # atno 17395 bound_to 11000

$$$$
