AV-unprocessed.smi:109|AV-procd|sdf|1062|dock6
  -GOLD-   2262018143D 1   1.00000     0.00000
 Structure written by MMmdl.
 58 61  0  0  0  0  0  0  0  0  1 V2000
  154.8150  139.1432  158.6896 O   0  0  0  0  0  0  0  0  0  0  0  0
  153.5851  138.7957  159.2879 C   0  0  0  0  0  0  0  0  0  0  0  0
  152.8278  140.0683  159.7043 C   0  0  0  0  0  0  0  0  0  0  0  0
  152.3171  140.9244  158.5184 C   0  0  1  0  0  0  0  0  0  0  0  0
  151.2178  140.2267  157.8476 N   0  0  0  0  0  0  0  0  0  0  0  0
  151.4272  139.2832  156.9026 C   0  0  0  0  0  0  0  0  0  0  0  0
  152.5370  139.2936  156.1194 N   0  0  0  0  0  0  0  0  0  0  0  0
  152.7175  138.3397  155.2015 C   0  0  0  0  0  0  0  0  0  0  0  0
  151.9279  137.3043  154.9092 N   0  0  0  0  0  0  0  0  0  0  0  0
  150.8095  137.2900  155.6904 C   0  0  0  0  0  0  0  0  0  0  0  0
  150.4893  138.2381  156.7015 C   0  0  0  0  0  0  0  0  0  0  0  0
  149.2752  137.9081  157.2891 N   0  0  0  0  0  0  0  0  0  0  0  0
  148.9016  136.8284  156.6561 C   0  0  0  0  0  0  0  0  0  0  0  0
  149.7696  136.3826  155.6843 N   0  0  0  0  0  0  0  0  0  0  0  0
  149.6104  135.1875  154.8029 C   0  0  1  0  0  0  0  0  0  0  0  0
  150.4334  134.1798  155.2957 O   0  0  0  0  0  0  0  0  0  0  0  0
  149.8474  132.8952  155.0758 C   0  0  1  0  0  0  0  0  0  0  0  0
  149.8211  132.1376  156.4146 C   0  0  0  0  0  0  0  0  0  0  0  0
  149.4897  130.7824  156.1995 O   0  0  0  0  0  0  0  0  0  0  0  0
  148.4355  133.1703  154.5201 C   0  0  2  0  0  0  0  0  0  0  0  0
  148.4408  132.9206  153.1238 O   0  0  0  0  0  0  0  0  0  0  0  0
  148.1877  134.6397  154.8509 C   0  0  2  0  0  0  0  0  0  0  0  0
  147.3148  135.2581  153.9240 O   0  0  0  0  0  0  0  0  0  0  0  0
  151.8407  142.3452  158.9376 C   0  0  0  0  0  0  0  0  0  0  0  0
  151.7887  143.2995  157.7164 C   0  0  0  0  0  0  0  0  0  0  0  0
  151.3156  144.7120  158.0928 C   0  0  0  0  0  0  0  0  0  0  0  0
  152.2054  145.3208  159.1827 C   0  0  0  0  0  0  0  0  0  0  0  0
  152.2543  144.4051  160.4115 C   0  0  0  0  0  0  0  0  0  0  0  0
  152.7196  142.9872  160.0406 C   0  0  0  0  0  0  0  0  0  0  0  0
  149.9352  135.4943  153.8074 H   0  0  0  0  0  0  0  0  0  0  0  0
  150.4436  132.3374  154.3508 H   0  0  0  0  0  0  0  0  0  0  0  0
  147.6745  132.5299  154.9675 H   0  0  0  0  0  0  0  0  0  0  0  0
  147.7897  134.7257  155.8621 H   0  0  0  0  0  0  0  0  0  0  0  0
  155.5153  138.7751  159.2065 H   0  0  0  0  0  0  0  0  0  0  0  0
  152.9975  138.2141  158.5769 H   0  0  0  0  0  0  0  0  0  0  0  0
  153.7887  138.1564  160.1469 H   0  0  0  0  0  0  0  0  0  0  0  0
  151.9917  139.8032  160.3531 H   0  0  0  0  0  0  0  0  0  0  0  0
  153.5152  140.6535  160.3125 H   0  0  0  0  0  0  0  0  0  0  0  0
  153.1521  141.0693  157.8331 H   0  0  0  0  0  0  0  0  0  0  0  0
  150.2909  140.5204  158.1211 H   0  0  0  0  0  0  0  0  0  0  0  0
  153.6241  138.4160  154.6198 H   0  0  0  0  0  0  0  0  0  0  0  0
  147.9758  136.3213  156.8863 H   0  0  0  0  0  0  0  0  0  0  0  0
  150.7706  132.2176  156.9426 H   0  0  0  0  0  0  0  0  0  0  0  0
  149.0549  132.5544  157.0687 H   0  0  0  0  0  0  0  0  0  0  0  0
  148.9935  130.4728  156.9419 H   0  0  0  0  0  0  0  0  0  0  0  0
  149.3373  132.8795  152.8284 H   0  0  0  0  0  0  0  0  0  0  0  0
  147.7804  135.3799  153.1107 H   0  0  0  0  0  0  0  0  0  0  0  0
  150.8286  142.2553  159.3362 H   0  0  0  0  0  0  0  0  0  0  0  0
  152.7768  143.3595  157.2578 H   0  0  0  0  0  0  0  0  0  0  0  0
  151.1209  142.9107  156.9475 H   0  0  0  0  0  0  0  0  0  0  0  0
  151.3195  145.3524  157.2102 H   0  0  0  0  0  0  0  0  0  0  0  0
  150.2828  144.6719  158.4414 H   0  0  0  0  0  0  0  0  0  0  0  0
  153.2137  145.4704  158.7944 H   0  0  0  0  0  0  0  0  0  0  0  0
  151.8307  146.3053  159.4647 H   0  0  0  0  0  0  0  0  0  0  0  0
  152.9206  144.8289  161.1634 H   0  0  0  0  0  0  0  0  0  0  0  0
  151.2653  144.3555  160.8688 H   0  0  0  0  0  0  0  0  0  0  0  0
  152.6969  142.3911  160.9515 H   0  0  0  0  0  0  0  0  0  0  0  0
  153.7592  143.0172  159.7121 H   0  0  0  0  0  0  0  0  0  0  0  0
  1  2  1  0  0  0  0
  1 34  1  0  0  0  0
  2  3  1  0  0  0  0
  2 35  1  0  0  0  0
  2 36  1  0  0  0  0
  3  4  1  0  0  0  0
  3 37  1  0  0  0  0
  3 38  1  0  0  0  0
  4  5  1  0  0  0  0
  4 24  1  0  0  0  0
  4 39  1  0  0  0  0
  5  6  1  0  0  0  0
  5 40  1  0  0  0  0
  6 11  1  0  0  0  0
  6  7  2  0  0  0  0
  7  8  1  0  0  0  0
  8  9  2  0  0  0  0
  8 41  1  0  0  0  0
  9 10  1  0  0  0  0
 10 14  1  0  0  0  0
 10 11  2  0  0  0  0
 11 12  1  0  0  0  0
 12 13  2  0  0  0  0
 13 14  1  0  0  0  0
 13 42  1  0  0  0  0
 14 15  1  0  0  0  0
 15 30  1  0  0  0  0
 15 22  1  0  0  0  0
 15 16  1  0  0  0  0
 16 17  1  0  0  0  0
 17 31  1  0  0  0  0
 17 18  1  0  0  0  0
 17 20  1  0  0  0  0
 18 19  1  0  0  0  0
 18 43  1  0  0  0  0
 18 44  1  0  0  0  0
 19 45  1  0  0  0  0
 20 32  1  0  0  0  0
 20 21  1  0  0  0  0
 20 22  1  0  0  0  0
 21 46  1  0  0  0  0
 22 33  1  0  0  0  0
 22 23  1  0  0  0  0
 23 47  1  0  0  0  0
 24 29  1  0  0  0  0
 24 25  1  0  0  0  0
 24 48  1  0  0  0  0
 25 26  1  0  0  0  0
 25 49  1  0  0  0  0
 25 50  1  0  0  0  0
 26 27  1  0  0  0  0
 26 51  1  0  0  0  0
 26 52  1  0  0  0  0
 27 28  1  0  0  0  0
 27 53  1  0  0  0  0
 27 54  1  0  0  0  0
 28 29  1  0  0  0  0
 28 55  1  0  0  0  0
 28 56  1  0  0  0  0
 29 57  1  0  0  0  0
 29 58  1  0  0  0  0
M  END
> <s_m_source_file>
AV-unprocessed.smi

> <i_m_source_file_index>
109

> <i_lp_mmshare_version>
43012

> <i_f3d_flags>
0

> <s_epik_input>
W0NIMl0xW0NIMl1bQ0gyXVtDSDJdW0NIMl1bQ0hdMVtDQEhdKFtDSDJdW0NIMl1bT0hdKVtOSF1jKG5bY0hdbjIpYyhjMjMpbltjSF1uM1tDQEBIXTRPW0NASF0oW0NIMl1bT0hdKVtDQEBIXShbT0hdKVtDQEhdNFtPSF0=

> <s_epik_cmdline>
J2VwaWtfcHl0aG9uJywgJy1waCcsICc3LjAnLCAnLXRuJywgJzgnLCAnLW1hJywgJzIwMCcsICctbWV0YWxfYmluZGluZycsICctaW1hZScsICc8aW5maWxlLm1hZT4nLCAnLW9tYWUnLCAnPG91dGZpbGUubWFlPic=

> <r_lp_tautomer_probability>
1

> <r_epik_Ionization_Penalty>
0.000793976

> <r_epik_Ionization_Penalty_Charging>
0

> <r_epik_Ionization_Penalty_Neutral>
0.000793976

> <r_epik_State_Penalty>
-0

> <r_epik_Charging_Adjusted_Penalty>
0

> <i_epik_Tot_Q>
0

> <i_epik_Tot_abs_Q>
0

> <r_epik_Metal_State_Penalty>
-0

> <b_epik_Metal_Only>
0

> <s_epik_Chemistry_Notes>
This compound contains an acetal/aminal-like group ( X-CH(R)-Y where X, Y are N, S, or O) that may be acid/base labile, releasing an aldehyde.

> <s_lp_Force_Field>
OPLS_2005

> <r_lp_Energy>
55.705

> <b_lp_Chiralities_Consistent>
1

> <s_lp_Variant>
AV-unprocessed.smi:109-32

> <Gold.Version>
5.8.1

> <Gold.Id.Protein>
6NUR|6NUR_protein|mol2

> <Gold.PLP.Fitness>
54.2999

> <Gold.PLP.PLP>
-45.8363

> <Gold.PLP.part.hbond>
-3.9768

> <Gold.PLP.part.metal>
0.0000

> <Gold.PLP.part.buried>
-5.6799

> <Gold.PLP.part.nonpolar>
-35.9256

> <Gold.PLP.part.repulsive>
0.2510

> <Gold.PLP.ligand.clash>
0.0000

> <Gold.PLP.ligand.torsion>
1.4364

> <Gold.PLP.Chemscore.Hbond>
3.7320

> <Gold.PLP.Chemscore.CHOScore>
0.0000

> <Gold.PLP.Chemscore.Metal>
0.0000

> <Gold.Chemscore.Hbonds>
donor molecule, donor type, donor heavy atom, donor atom, acceptor molecule, acceptor atom, score
      L1  H    23    47       P1  7948  1.00
      P1  H  7997  8008       L1     7  0.80
      P1  H  7997  8010       L1     1  0.99
      P1  H 10752 10765       L1     9  0.90

> <Gold.PLP.Chemscore.Internal.Correction>
0.1404

> <Gold.Rescore>
     Score         DG    S(hbond)    S(metal)    S(lipo)     H(rot)  DE(clash)    DE(int)     intcor
     13.20     -14.56       2.98        0.00     112.17       5.47       0.12       1.24       ----

> <Gold.Chemscore.Fitness>
13.2030

> <Gold.Chemscore.DG>
-14.5634

> <Gold.Chemscore.ZeroCoef>
-5.4800

> <Gold.Chemscore.Hbond>
2.9799

> <Gold.Chemscore.Metal>
0.0000

> <Gold.Chemscore.Lipo>
112.1720

> <Gold.Chemscore.Internal_Hbond>
0.0000

> <Gold.Chemscore.DEClash>
0.1209

> <Gold.Chemscore.DEInternal>
1.2396

> <Gold.Chemscore.Rot>
5.4662

> <Gold.Chemscore.Internal.Correction>
   9.000000E+99

> <Gold.Chemscore.Hbonds>
donor molecule, donor type, donor heavy atom, donor atom, acceptor molecule, acceptor atom, score
      L1  H    23    47       P1  7948  0.99
      P1  H  7997  8008       L1     7  0.15
      P1  H  7997  8010       L1     1  0.70
      P1  H 10752 10765       L1     9  0.72

> <Gold.Chemscore.Hbond.Weighted>
-9.9528

> <Gold.Chemscore.Metal.Weighted>
-0.0000

> <Gold.Chemscore.Lipo.Weighted>
-13.1241

> <Gold.Chemscore.Internal_Hbond.Weighted>
0.0000

> <Gold.Chemscore.DEClash.Weighted>
0.1209

> <Gold.Chemscore.DEInternal.Weighted>
1.2396

> <Gold.Chemscore.Rot.Weighted>
13.9935

> <Gold.Chemscore.Internal.Correction.Weighted>
   9.000000E+99

> <Gold.Protein.RotatedTorsions>
[ 6907 6896 6895 6894 ] final  165.08 input  -60.11 | X-H torsion
[ 7974 7965 7964 7962 ] final -106.72 input  175.53 | X-H torsion
[ 8008 7997 7996 7995 ] final  -21.24 input   59.86 | X-H torsion
[ 10167 10162 10161 10158 ] final   75.12 input  -65.29 | X-H torsion
[ 10718 10713 10712 10709 ] final -140.60 input   66.30 | X-H torsion
[ 10763 10752 10751 10750 ] final  165.90 input  -60.55 | X-H torsion
[ 11005 11000 10999 10996 ] final   55.47 input  -57.11 | X-H torsion

> <Gold.Protein.ActiveResidues>
 VAL166  LYS551  ARG553  GLY616  TRP617  ASP618  TYR619  PRO620  LYS621  CYS622 
 ASP623  PHE694  ASN695  SER759  ASP760  ASP761  ALA762  ILE779  LEU786  VAL792 
 PHE793  MET794  SER795  GLU796  ALA797  LYS798  CYS799  TRP800  GLU811  SER814 

> <Gold.Protein.RotatedAtoms>
  151.9000  133.3536  159.3827 H   0  0  0  0  0  0  0  0  0  0  0  0  # atno 6907 bound_to 6896
  150.7082  134.4838  159.5492 H   0  0  0  0  0  0  0  0  0  0  0  0  # atno 6908 bound_to 6896
  152.2424  134.8215  160.0509 H   0  0  0  0  0  0  0  0  0  0  0  0  # atno 6909 bound_to 6896
  145.2144  140.9109  143.3296 H   0  0  0  0  0  0  0  0  0  0  0  0  # atno 7974 bound_to 7965
  154.4718  140.2040  155.9976 H   0  0  0  0  0  0  0  0  0  0  0  0  # atno 8008 bound_to 7997
  156.1023  140.3242  155.7929 H   0  0  0  0  0  0  0  0  0  0  0  0  # atno 8009 bound_to 7997
  155.4776  140.0536  157.2962 H   0  0  0  0  0  0  0  0  0  0  0  0  # atno 8010 bound_to 7997
  140.0064  144.5647  150.7695 H   0  0  0  0  0  0  0  0  0  0  0  0  # atno 10167 bound_to 10162
  156.3243  130.7551  151.1655 H   0  0  0  0  0  0  0  0  0  0  0  0  # atno 10718 bound_to 10713
  154.3310  135.2755  155.2472 H   0  0  0  0  0  0  0  0  0  0  0  0  # atno 10763 bound_to 10752
  154.4784  135.5865  153.6375 H   0  0  0  0  0  0  0  0  0  0  0  0  # atno 10764 bound_to 10752
  152.9866  135.6105  154.3502 H   0  0  0  0  0  0  0  0  0  0  0  0  # atno 10765 bound_to 10752
  140.0604  134.5610  155.9158 H   0  0  0  0  0  0  0  0  0  0  0  0  # atno 11005 bound_to 11000
  144.9825  139.3769  143.6255 LP  0  0  0  0  0  0  0  0  0  0  0  0  # atno 17320 bound_to 7965
  146.3390  139.8972  142.8800 LP  0  0  0  0  0  0  0  0  0  0  0  0  # atno 17321 bound_to 7965
  140.7399  143.2797  151.3635 LP  0  0  0  0  0  0  0  0  0  0  0  0  # atno 17342 bound_to 10162
  139.6236  144.0859  152.2413 LP  0  0  0  0  0  0  0  0  0  0  0  0  # atno 17343 bound_to 10162
  157.7418  131.0499  150.5071 LP  0  0  0  0  0  0  0  0  0  0  0  0  # atno 17370 bound_to 10713
  156.5228  130.4166  149.6242 LP  0  0  0  0  0  0  0  0  0  0  0  0  # atno 17371 bound_to 10713
  141.1971  133.6594  156.5723 LP  0  0  0  0  0  0  0  0  0  0  0  0  # atno 17394 bound_to 11000
  140.3779  134.7549  157.4641 LP  0  0  0  0  0  0  0  0  0  0  0  0  # atno 17395 bound_to 11000

$$$$
