AV-unprocessed.smi:2371|AV-procd|sdf|9436|dock4
  -GOLD-   2272013 63D 1   1.00000     0.00000
 Structure written by MMmdl.
 35 36  0  0  0  0  0  0  0  0  1 V2000
  150.7057  140.5439  155.4220 C   0  0  0  0  0  0  0  0  0  0  0  0
  149.4597  140.4747  154.6543 N   0  0  0  0  0  0  0  0  0  0  0  0
  148.7159  141.6586  154.5142 C   0  0  0  0  0  0  0  0  0  0  0  0
  147.5636  141.6885  153.8304 C   0  0  0  0  0  0  0  0  0  0  0  0
  147.0913  140.4649  153.2283 C   0  0  0  0  0  0  0  0  0  0  0  0
  147.7977  139.3122  153.3444 C   0  0  0  0  0  0  0  0  0  0  0  0
  147.4063  138.0781  152.7972 N   0  0  0  0  0  0  0  0  0  0  0  0
  146.1791  137.5308  152.7213 C   0  0  0  0  0  0  0  0  0  0  0  0
  145.1338  138.0498  153.1117 O   0  0  0  0  0  0  0  0  0  0  0  0
  146.2286  136.3292  152.1295 N   0  0  0  0  0  0  0  0  0  0  0  0
  145.0804  135.4704  151.8568 C   0  0  0  0  0  0  0  0  0  0  0  0
  145.4868  134.1988  151.0921 C   0  0  2  0  0  0  0  0  0  0  0  0
  144.3239  133.3410  150.5913 C   0  0  0  0  0  0  0  0  0  0  0  0
  144.9757  131.9824  150.4792 C   0  0  0  0  0  0  0  0  0  0  0  0
  145.8876  131.9748  151.7026 C   0  0  0  0  0  0  0  0  0  0  0  0
  146.2416  133.3356  151.9388 O   0  0  0  0  0  0  0  0  0  0  0  0
  149.0590  139.2868  154.1108 C   0  0  0  0  0  0  0  0  0  0  0  0
  149.7260  138.2600  154.2598 O   0  0  0  0  0  0  0  0  0  0  0  0
  150.9376  141.5550  155.7583 H   0  0  0  0  0  0  0  0  0  0  0  0
  151.5490  140.2030  154.8194 H   0  0  0  0  0  0  0  0  0  0  0  0
  150.6430  139.9110  156.3084 H   0  0  0  0  0  0  0  0  0  0  0  0
  149.1354  142.5312  154.9934 H   0  0  0  0  0  0  0  0  0  0  0  0
  147.0022  142.6058  153.7313 H   0  0  0  0  0  0  0  0  0  0  0  0
  146.1517  140.5064  152.7016 H   0  0  0  0  0  0  0  0  0  0  0  0
  148.1557  137.5560  152.3662 H   0  0  0  0  0  0  0  0  0  0  0  0
  147.1303  135.9833  151.8354 H   0  0  0  0  0  0  0  0  0  0  0  0
  144.6431  135.1913  152.8156 H   0  0  0  0  0  0  0  0  0  0  0  0
  144.3025  136.0112  151.3150 H   0  0  0  0  0  0  0  0  0  0  0  0
  146.1256  134.4619  150.2475 H   0  0  0  0  0  0  0  0  0  0  0  0
  143.5221  133.3080  151.3305 H   0  0  0  0  0  0  0  0  0  0  0  0
  143.9069  133.6955  149.6483 H   0  0  0  0  0  0  0  0  0  0  0  0
  144.2599  131.1600  150.4740 H   0  0  0  0  0  0  0  0  0  0  0  0
  145.5694  131.9265  149.5657 H   0  0  0  0  0  0  0  0  0  0  0  0
  145.3507  131.6021  152.5756 H   0  0  0  0  0  0  0  0  0  0  0  0
  146.7709  131.3524  151.5577 H   0  0  0  0  0  0  0  0  0  0  0  0
  1  2  1  0  0  0  0
  1 19  1  0  0  0  0
  1 20  1  0  0  0  0
  1 21  1  0  0  0  0
  2 17  1  0  0  0  0
  2  3  1  0  0  0  0
  3  4  2  0  0  0  0
  3 22  1  0  0  0  0
  4  5  1  0  0  0  0
  4 23  1  0  0  0  0
  5  6  2  0  0  0  0
  5 24  1  0  0  0  0
  6  7  1  0  0  0  0
  6 17  1  0  0  0  0
  7  8  1  0  0  0  0
  7 25  1  0  0  0  0
  8  9  2  0  0  0  0
  8 10  1  0  0  0  0
 10 11  1  0  0  0  0
 10 26  1  0  0  0  0
 11 12  1  0  0  0  0
 11 27  1  0  0  0  0
 11 28  1  0  0  0  0
 12 16  1  0  0  0  0
 12 13  1  0  0  0  0
 12 29  1  0  0  0  0
 13 14  1  0  0  0  0
 13 30  1  0  0  0  0
 13 31  1  0  0  0  0
 14 15  1  0  0  0  0
 14 32  1  0  0  0  0
 14 33  1  0  0  0  0
 15 16  1  0  0  0  0
 15 34  1  0  0  0  0
 15 35  1  0  0  0  0
 17 18  2  0  0  0  0
M  END
> <s_m_source_file>
AV-unprocessed.smi

> <i_m_source_file_index>
2371

> <i_lp_mmshare_version>
43012

> <i_f3d_flags>
0

> <s_epik_input>
W0NIM11uMVtjSF1bY0hdW2NIXWMoYzE9TylbTkhdQyg9TylbTkhdW0NIMl1bQ0BASF0yW0NIMl1bQ0gyXVtDSDJdTzI=

> <s_epik_cmdline>
J2VwaWtfcHl0aG9uJywgJy1waCcsICc3LjAnLCAnLXRuJywgJzgnLCAnLW1hJywgJzIwMCcsICctbWV0YWxfYmluZGluZycsICctaW1hZScsICc8aW5maWxlLm1hZT4nLCAnLW9tYWUnLCAnPG91dGZpbGUubWFlPic=

> <r_lp_tautomer_probability>
1

> <r_epik_Ionization_Penalty>
2.36512e-05

> <r_epik_Ionization_Penalty_Charging>
4.84074e-06

> <r_epik_Ionization_Penalty_Neutral>
1.88105e-05

> <r_epik_State_Penalty>
-0

> <r_epik_Charging_Adjusted_Penalty>
4.84074e-06

> <i_epik_Tot_Q>
0

> <i_epik_Tot_abs_Q>
0

> <r_epik_Metal_State_Penalty>
-0

> <b_epik_Metal_Only>
0

> <s_lp_Force_Field>
OPLS_2005

> <r_lp_Energy>
29.8245

> <b_lp_Chiralities_Consistent>
1

> <s_lp_Variant>
AV-unprocessed.smi:2371-1

> <Gold.Version>
5.8.1

> <Gold.Id.Protein>
6NUR|6NUR_protein|mol2

> <Gold.PLP.Fitness>
41.0867

> <Gold.PLP.PLP>
-32.9147

> <Gold.PLP.part.hbond>
-2.1442

> <Gold.PLP.part.metal>
0.0000

> <Gold.PLP.part.buried>
-1.8286

> <Gold.PLP.part.nonpolar>
-30.8819

> <Gold.PLP.part.repulsive>
2.6653

> <Gold.PLP.ligand.clash>
0.0000

> <Gold.PLP.ligand.torsion>
0.3566

> <Gold.PLP.Chemscore.Hbond>
1.9600

> <Gold.PLP.Chemscore.CHOScore>
1.0000

> <Gold.PLP.Chemscore.Metal>
0.0000

> <Gold.Chemscore.Hbonds>
donor molecule, donor type, donor heavy atom, donor atom, acceptor molecule, acceptor atom, score
      L1  H     7    25       P1  7948  1.00
      L1  H    10    26       P1  7948  0.96
      L1  C     3    22       P1  8028  1.00

> <Gold.PLP.Chemscore.Internal.Correction>
0.0051

> <Gold.Rescore>
     Score         DG    S(hbond)    S(metal)    S(lipo)     H(rot)  DE(clash)    DE(int)     intcor
     15.31     -16.83       1.92        0.00      69.45       1.25       1.12       0.41       ----

> <Gold.Chemscore.Fitness>
15.3068

> <Gold.Chemscore.DG>
-16.8327

> <Gold.Chemscore.ZeroCoef>
-5.4800

> <Gold.Chemscore.Hbond>
1.9225

> <Gold.Chemscore.Metal>
0.0000

> <Gold.Chemscore.Lipo>
69.4523

> <Gold.Chemscore.Internal_Hbond>
0.0000

> <Gold.Chemscore.DEClash>
1.1198

> <Gold.Chemscore.DEInternal>
0.4061

> <Gold.Chemscore.Rot>
1.2478

> <Gold.Chemscore.Internal.Correction>
   9.000000E+99

> <Gold.Chemscore.Hbonds>
donor molecule, donor type, donor heavy atom, donor atom, acceptor molecule, acceptor atom, score
      L1  H     7    25       P1  7948  0.98
      L1  H    10    26       P1  7948  0.92

> <Gold.Chemscore.Hbond.Weighted>
-6.4212

> <Gold.Chemscore.Metal.Weighted>
-0.0000

> <Gold.Chemscore.Lipo.Weighted>
-8.1259

> <Gold.Chemscore.Internal_Hbond.Weighted>
0.0000

> <Gold.Chemscore.DEClash.Weighted>
1.1198

> <Gold.Chemscore.DEInternal.Weighted>
0.4061

> <Gold.Chemscore.Rot.Weighted>
3.1944

> <Gold.Chemscore.Internal.Correction.Weighted>
   9.000000E+99

> <Gold.Protein.RotatedTorsions>
[ 6907 6896 6895 6894 ] final   66.19 input  -60.11 | X-H torsion
[ 7974 7965 7964 7962 ] final    7.24 input  175.53 | X-H torsion
[ 8008 7997 7996 7995 ] final   12.27 input   59.86 | X-H torsion
[ 10167 10162 10161 10158 ] final   16.18 input  -65.29 | X-H torsion
[ 10718 10713 10712 10709 ] final   17.22 input   66.30 | X-H torsion
[ 10763 10752 10751 10750 ] final -119.14 input  -60.55 | X-H torsion
[ 11005 11000 10999 10996 ] final -154.31 input  -57.11 | X-H torsion

> <Gold.Protein.ActiveResidues>
 VAL166  LYS551  ARG553  GLY616  TRP617  ASP618  TYR619  PRO620  LYS621  CYS622 
 ASP623  PHE694  ASN695  SER759  ASP760  ASP761  ALA762  ILE779  LEU786  VAL792 
 PHE793  MET794  SER795  GLU796  ALA797  LYS798  CYS799  TRP800  GLU811  SER814 

> <Gold.Protein.RotatedAtoms>
  152.4463  134.5487  159.9860 H   0  0  0  0  0  0  0  0  0  0  0  0  # atno 6907 bound_to 6896
  151.5571  133.3403  159.2972 H   0  0  0  0  0  0  0  0  0  0  0  0  # atno 6908 bound_to 6896
  150.8380  134.7694  159.6973 H   0  0  0  0  0  0  0  0  0  0  0  0  # atno 6909 bound_to 6896
  146.2428  140.0113  142.8406 H   0  0  0  0  0  0  0  0  0  0  0  0  # atno 7974 bound_to 7965
  154.8183  140.2879  155.5804 H   0  0  0  0  0  0  0  0  0  0  0  0  # atno 8008 bound_to 7997
  156.2995  140.2555  156.3015 H   0  0  0  0  0  0  0  0  0  0  0  0  # atno 8009 bound_to 7997
  154.9368  140.0382  157.2065 H   0  0  0  0  0  0  0  0  0  0  0  0  # atno 8010 bound_to 7997
  140.5815  143.8971  150.6794 H   0  0  0  0  0  0  0  0  0  0  0  0  # atno 10167 bound_to 10162
  157.0790  130.6380  149.5822 H   0  0  0  0  0  0  0  0  0  0  0  0  # atno 10718 bound_to 10713
  154.8608  135.4249  154.2251 H   0  0  0  0  0  0  0  0  0  0  0  0  # atno 10763 bound_to 10752
  153.3247  135.6984  153.7005 H   0  0  0  0  0  0  0  0  0  0  0  0  # atno 10764 bound_to 10752
  153.6046  135.3530  155.2931 H   0  0  0  0  0  0  0  0  0  0  0  0  # atno 10765 bound_to 10752
  140.6987  134.3961  157.5212 H   0  0  0  0  0  0  0  0  0  0  0  0  # atno 11005 bound_to 11000
  145.1325  140.9526  143.4536 LP  0  0  0  0  0  0  0  0  0  0  0  0  # atno 17320 bound_to 7965
  145.0373  139.3289  143.5994 LP  0  0  0  0  0  0  0  0  0  0  0  0  # atno 17321 bound_to 7965
  140.2471  143.3620  152.1437 LP  0  0  0  0  0  0  0  0  0  0  0  0  # atno 17342 bound_to 10162
  139.5173  144.6989  151.5550 LP  0  0  0  0  0  0  0  0  0  0  0  0  # atno 17343 bound_to 10162
  155.9929  130.4988  150.7358 LP  0  0  0  0  0  0  0  0  0  0  0  0  # atno 17370 bound_to 10713
  157.4815  131.0903  151.0530 LP  0  0  0  0  0  0  0  0  0  0  0  0  # atno 17371 bound_to 10713
  139.8903  134.8809  156.2378 LP  0  0  0  0  0  0  0  0  0  0  0  0  # atno 17394 bound_to 11000
  141.0181  133.7057  156.1223 LP  0  0  0  0  0  0  0  0  0  0  0  0  # atno 17395 bound_to 11000

$$$$
