AV-unprocessed.smi:72|AV-procd|sdf|753|dock9
  -GOLD-   2262017 93D 1   1.00000     0.00000
 Structure written by MMmdl.
 29 30  0  0  0  0  0  0  0  0  1 V2000
  152.9225  140.4869  159.1020 N   0  0  0  0  0  0  0  0  0  0  0  0
  152.1149  140.5836  157.9881 C   0  0  0  0  0  0  0  0  0  0  0  0
  150.9405  141.3347  158.1333 N   0  0  0  0  0  0  0  0  0  0  0  0
  150.1801  141.4313  157.0889 C   0  0  0  0  0  0  0  0  0  0  0  0
  150.5344  140.7878  155.8349 N   0  0  0  0  0  0  0  0  0  0  0  0
  149.6655  140.8855  154.5921 C   0  0  2  0  0  0  0  0  0  0  0  0
  148.5701  141.7207  154.8361 O   0  0  0  0  0  0  0  0  0  0  0  0
  147.3738  140.9517  154.9209 C   0  0  1  0  0  0  0  0  0  0  0  0
  146.1332  141.8164  154.6373 C   0  0  0  0  0  0  0  0  0  0  0  0
  144.9579  141.0727  154.8792 O   0  0  0  0  0  0  0  0  0  0  0  0
  147.6284  139.8120  153.9267 C   0  0  1  0  0  0  0  0  0  0  0  0
  147.3759  140.2272  152.5962 O   0  0  0  0  0  0  0  0  0  0  0  0
  149.1102  139.5186  154.1206 C   0  0  2  0  0  0  0  0  0  0  0  0
  149.2679  138.4758  155.0674 O   0  0  0  0  0  0  0  0  0  0  0  0
  151.7400  140.0371  155.7615 C   0  0  0  0  0  0  0  0  0  0  0  0
  152.0524  139.4732  154.7127 O   0  0  0  0  0  0  0  0  0  0  0  0
  152.5264  139.9674  156.9174 N   0  0  0  0  0  0  0  0  0  0  0  0
  150.2856  141.3783  153.8414 H   0  0  0  0  0  0  0  0  0  0  0  0
  147.3013  140.5138  155.9180 H   0  0  0  0  0  0  0  0  0  0  0  0
  146.9976  138.9461  154.1325 H   0  0  0  0  0  0  0  0  0  0  0  0
  149.6026  139.2193  153.1943 H   0  0  0  0  0  0  0  0  0  0  0  0
  153.7911  139.9724  159.1138 H   0  0  0  0  0  0  0  0  0  0  0  0
  152.7046  140.9206  159.9874 H   0  0  0  0  0  0  0  0  0  0  0  0
  149.2455  141.9919  157.0902 H   0  0  0  0  0  0  0  0  0  0  0  0
  146.1351  142.7257  155.2392 H   0  0  0  0  0  0  0  0  0  0  0  0
  146.1173  142.1176  153.5895 H   0  0  0  0  0  0  0  0  0  0  0  0
  144.6239  140.7599  154.0524 H   0  0  0  0  0  0  0  0  0  0  0  0
  148.0511  139.8728  152.0381 H   0  0  0  0  0  0  0  0  0  0  0  0
  150.1050  138.0626  154.9198 H   0  0  0  0  0  0  0  0  0  0  0  0
  1  2  1  0  0  0  0
  1 22  1  0  0  0  0
  1 23  1  0  0  0  0
  2 17  2  0  0  0  0
  2  3  1  0  0  0  0
  3  4  2  0  0  0  0
  4  5  1  0  0  0  0
  4 24  1  0  0  0  0
  5  6  1  0  0  0  0
  5 15  1  0  0  0  0
  6 18  1  0  0  0  0
  6 13  1  0  0  0  0
  6  7  1  0  0  0  0
  7  8  1  0  0  0  0
  8 19  1  0  0  0  0
  8  9  1  0  0  0  0
  8 11  1  0  0  0  0
  9 10  1  0  0  0  0
  9 25  1  0  0  0  0
  9 26  1  0  0  0  0
 10 27  1  0  0  0  0
 11 20  1  0  0  0  0
 11 12  1  0  0  0  0
 11 13  1  0  0  0  0
 12 28  1  0  0  0  0
 13 21  1  0  0  0  0
 13 14  1  0  0  0  0
 14 29  1  0  0  0  0
 15 16  2  0  0  0  0
 15 17  1  0  0  0  0
M  END
> <s_m_source_file>
AV-unprocessed.smi

> <i_m_source_file_index>
72

> <i_lp_mmshare_version>
43012

> <i_f3d_flags>
0

> <s_epik_input>
W05IMl1jMW5bY0hdbihjKD1PKW4xKVtDQEBIXTJPW0NASF0oW0NIMl1bT0hdKVtDQEBIXShbT0hdKVtDQEhdMltPSF0=

> <s_epik_cmdline>
J2VwaWtfcHl0aG9uJywgJy1waCcsICc3LjAnLCAnLXRuJywgJzgnLCAnLW1hJywgJzIwMCcsICctbWV0YWxfYmluZGluZycsICctaW1hZScsICc8aW5maWxlLm1hZT4nLCAnLW9tYWUnLCAnPG91dGZpbGUubWFlPic=

> <r_lp_tautomer_probability>
4.77166e-05

> <r_epik_Ionization_Penalty>
1.3546

> <r_epik_Ionization_Penalty_Charging>
1.46833e-10

> <r_epik_Ionization_Penalty_Neutral>
1.3546

> <r_epik_State_Penalty>
3.51908

> <r_epik_Charging_Adjusted_Penalty>
3.51908

> <i_epik_Tot_Q>
0

> <i_epik_Tot_abs_Q>
0

> <r_epik_Metal_State_Penalty>
3.44088

> <b_epik_Metal_Only>
1

> <s_epik_Chemistry_Notes>
This compound contains an acetal/aminal-like group ( X-CH(R)-Y where X, Y are N, S, or O) that may be acid/base labile, releasing an aldehyde.

> <s_lp_Force_Field>
OPLS_2005

> <r_lp_Energy>
33.7938

> <b_lp_Chiralities_Consistent>
1

> <s_lp_Variant>
AV-unprocessed.smi:72-91

> <Gold.Version>
5.8.1

> <Gold.Id.Protein>
6NUR|6NUR_protein|mol2

> <Gold.PLP.Fitness>
36.2610

> <Gold.PLP.PLP>
-24.5892

> <Gold.PLP.part.hbond>
-4.0000

> <Gold.PLP.part.metal>
0.0000

> <Gold.PLP.part.buried>
-3.1047

> <Gold.PLP.part.nonpolar>
-18.3322

> <Gold.PLP.part.repulsive>
0.3360

> <Gold.PLP.ligand.clash>
0.0000

> <Gold.PLP.ligand.torsion>
0.0560

> <Gold.PLP.Chemscore.Hbond>
3.9120

> <Gold.PLP.Chemscore.CHOScore>
0.0000

> <Gold.PLP.Chemscore.Metal>
0.0000

> <Gold.Chemscore.Hbonds>
donor molecule, donor type, donor heavy atom, donor atom, acceptor molecule, acceptor atom, score
      L1  H    10    27       P1 10175  1.00
      L1  H    12    28       P1  7957  1.00
      P1  H  7989  7998       L1    16  0.88
      P1  H  7997  8009       L1    17  1.00

> <Gold.PLP.Chemscore.Internal.Correction>
0.0477

> <Gold.Rescore>
     Score         DG    S(hbond)    S(metal)    S(lipo)     H(rot)  DE(clash)    DE(int)     intcor
      9.35      -9.63       3.66        0.00      19.91       4.06       0.08       0.21       ----

> <Gold.Chemscore.Fitness>
9.3462

> <Gold.Chemscore.DG>
-9.6332

> <Gold.Chemscore.ZeroCoef>
-5.4800

> <Gold.Chemscore.Hbond>
3.6577

> <Gold.Chemscore.Metal>
0.0000

> <Gold.Chemscore.Lipo>
19.9145

> <Gold.Chemscore.Internal_Hbond>
0.0000

> <Gold.Chemscore.DEClash>
0.0756

> <Gold.Chemscore.DEInternal>
0.2114

> <Gold.Chemscore.Rot>
4.0600

> <Gold.Chemscore.Internal.Correction>
   9.000000E+99

> <Gold.Chemscore.Hbonds>
donor molecule, donor type, donor heavy atom, donor atom, acceptor molecule, acceptor atom, score
      L1  H    10    27       P1 10175  0.98
      L1  H    12    28       P1  7957  0.95
      P1  H  7989  7998       L1    16  0.22
      P1  H  7997  8009       L1    17  0.76

> <Gold.Chemscore.Hbond.Weighted>
-12.2168

> <Gold.Chemscore.Metal.Weighted>
-0.0000

> <Gold.Chemscore.Lipo.Weighted>
-2.3300

> <Gold.Chemscore.Internal_Hbond.Weighted>
0.0000

> <Gold.Chemscore.DEClash.Weighted>
0.0756

> <Gold.Chemscore.DEInternal.Weighted>
0.2114

> <Gold.Chemscore.Rot.Weighted>
10.3936

> <Gold.Chemscore.Internal.Correction.Weighted>
   9.000000E+99

> <Gold.Protein.RotatedTorsions>
[ 6907 6896 6895 6894 ] final  -29.62 input  -60.11 | X-H torsion
[ 7974 7965 7964 7962 ] final -120.87 input  175.53 | X-H torsion
[ 8008 7997 7996 7995 ] final -173.82 input   59.86 | X-H torsion
[ 10167 10162 10161 10158 ] final  -81.09 input  -65.29 | X-H torsion
[ 10718 10713 10712 10709 ] final -154.25 input   66.30 | X-H torsion
[ 10763 10752 10751 10750 ] final  115.67 input  -60.55 | X-H torsion
[ 11005 11000 10999 10996 ] final   95.94 input  -57.11 | X-H torsion

> <Gold.Protein.ActiveResidues>
 VAL166  LYS551  ARG553  GLY616  TRP617  ASP618  TYR619  PRO620  LYS621  CYS622 
 ASP623  PHE694  ASN695  SER759  ASP760  ASP761  ALA762  ILE779  LEU786  VAL792 
 PHE793  MET794  SER795  GLU796  ALA797  LYS798  CYS799  TRP800  GLU811  SER814 

> <Gold.Protein.RotatedAtoms>
  151.1167  135.0057  159.8519 H   0  0  0  0  0  0  0  0  0  0  0  0  # atno 6907 bound_to 6896
  152.5446  134.1771  159.8630 H   0  0  0  0  0  0  0  0  0  0  0  0  # atno 6908 bound_to 6896
  151.1826  133.4671  159.2627 H   0  0  0  0  0  0  0  0  0  0  0  0  # atno 6909 bound_to 6896
  145.0466  140.8186  143.4234 H   0  0  0  0  0  0  0  0  0  0  0  0  # atno 7974 bound_to 7965
  155.9623  140.1147  157.0885 H   0  0  0  0  0  0  0  0  0  0  0  0  # atno 8008 bound_to 7997
  154.4135  140.1179  156.5262 H   0  0  0  0  0  0  0  0  0  0  0  0  # atno 8009 bound_to 7997
  155.6704  140.3473  155.4818 H   0  0  0  0  0  0  0  0  0  0  0  0  # atno 8010 bound_to 7997
  140.4444  143.2504  151.8580 H   0  0  0  0  0  0  0  0  0  0  0  0  # atno 10167 bound_to 10162
  156.4968  130.8373  151.2593 H   0  0  0  0  0  0  0  0  0  0  0  0  # atno 10718 bound_to 10713
  153.5257  135.3588  155.2652 H   0  0  0  0  0  0  0  0  0  0  0  0  # atno 10763 bound_to 10752
  154.8731  135.4056  154.3209 H   0  0  0  0  0  0  0  0  0  0  0  0  # atno 10764 bound_to 10752
  153.3888  135.7071  153.6578 H   0  0  0  0  0  0  0  0  0  0  0  0  # atno 10765 bound_to 10752
  139.8785  134.8925  156.4084 H   0  0  0  0  0  0  0  0  0  0  0  0  # atno 11005 bound_to 11000
  145.1580  139.2475  143.5406 LP  0  0  0  0  0  0  0  0  0  0  0  0  # atno 17320 bound_to 7965
  146.3514  140.1300  142.8597 LP  0  0  0  0  0  0  0  0  0  0  0  0  # atno 17321 bound_to 7965
  139.4792  144.5192  151.8825 LP  0  0  0  0  0  0  0  0  0  0  0  0  # atno 17342 bound_to 10162
  140.4281  144.2153  150.5887 LP  0  0  0  0  0  0  0  0  0  0  0  0  # atno 17343 bound_to 10162
  157.7467  130.9995  150.2892 LP  0  0  0  0  0  0  0  0  0  0  0  0  # atno 17370 bound_to 10713
  156.3372  130.3809  149.7440 LP  0  0  0  0  0  0  0  0  0  0  0  0  # atno 17371 bound_to 10713
  140.9217  133.7640  155.9915 LP  0  0  0  0  0  0  0  0  0  0  0  0  # atno 17394 bound_to 11000
  140.8431  134.3042  157.5305 LP  0  0  0  0  0  0  0  0  0  0  0  0  # atno 17395 bound_to 11000

$$$$
