AV-unprocessed.smi:3074|AV-procd|sdf|11722|dock7
  -GOLD-   2272017123D 1   1.00000     0.00000
 Structure written by MMmdl.
 20 21  0  0  0  0  0  0  0  0  3 V2000
  152.8581  142.9038  162.2967 C   0  0  0  0  0  0  0  0  0  0  0  0
  152.9893  142.4672  161.0035 C   0  0  0  0  0  0  0  0  0  0  0  0
  152.3778  143.4037  160.2090 N   0  0  0  0  0  0  0  0  0  0  0  0
  152.3081  143.4181  158.7757 C   0  0  0  0  0  0  0  0  0  0  0  0
  151.9964  144.7034  158.0081 C   0  0  0  0  0  0  0  0  0  0  0  0
  151.3046  143.8777  157.0254 N   0  3  0  0  0  0  0  0  0  0  0  0
  151.0944  142.8511  158.0391 C   0  0  0  0  0  0  0  0  0  0  0  0
  151.9246  144.4133  160.9646 C   0  0  0  0  0  0  0  0  0  0  0  0
  152.1982  144.1015  162.2357 N   0  3  0  0  0  0  0  0  0  0  0  0
  153.1862  142.4696  163.2301 H   0  0  0  0  0  0  0  0  0  0  0  0
  153.4582  141.5793  160.6040 H   0  0  0  0  0  0  0  0  0  0  0  0
  153.2315  142.9600  158.4141 H   0  0  0  0  0  0  0  0  0  0  0  0
  151.3135  145.3741  158.5335 H   0  0  0  0  0  0  0  0  0  0  0  0
  152.8670  145.2285  157.6141 H   0  0  0  0  0  0  0  0  0  0  0  0
  150.4524  144.2870  156.6691 H   0  0  0  0  0  0  0  0  0  0  0  0
  151.2128  141.8321  157.6693 H   0  0  0  0  0  0  0  0  0  0  0  0
  150.1519  142.9891  158.5730 H   0  0  0  0  0  0  0  0  0  0  0  0
  151.4307  145.3047  160.6201 H   0  0  0  0  0  0  0  0  0  0  0  0
  151.9328  143.5595  156.3008 H   0  0  0  0  0  0  0  0  0  0  0  0
  151.9630  144.6774  163.0348 H   0  0  0  0  0  0  0  0  0  0  0  0
  1  9  1  0  0  0  0
  1  2  2  0  0  0  0
  1 10  1  0  0  0  0
  2  3  1  0  0  0  0
  2 11  1  0  0  0  0
  3  4  1  0  0  0  0
  3  8  1  0  0  0  0
  4  7  1  0  0  0  0
  4  5  1  0  0  0  0
  4 12  1  0  0  0  0
  5  6  1  0  0  0  0
  5 13  1  0  0  0  0
  5 14  1  0  0  0  0
  6  7  1  0  0  0  0
  6 15  1  0  0  0  0
  6 19  1  0  0  0  0
  7 16  1  0  0  0  0
  7 17  1  0  0  0  0
  8  9  2  0  0  0  0
  8 18  1  0  0  0  0
  9 20  1  0  0  0  0
M  CHG  1   6   1
M  CHG  1   9   1
M  END
> <s_m_source_file>
AV-unprocessed.smi

> <i_m_source_file_index>
3074

> <i_lp_mmshare_version>
43012

> <i_f3d_flags>
0

> <s_epik_input>
W2NIXTFuW2NIXVtjSF1uMVtDSF0yW0NIMl1bTkhdW0NIMl0y

> <s_epik_cmdline>
J2VwaWtfcHl0aG9uJywgJy1waCcsICc3LjAnLCAnLXRuJywgJzgnLCAnLW1hJywgJzIwMCcsICctbWV0YWxfYmluZGluZycsICctaW1hZScsICc8aW5maWxlLm1hZT4nLCAnLW9tYWUnLCAnPG91dGZpbGUubWFlPic=

> <r_lp_tautomer_probability>
1

> <r_epik_Ionization_Penalty>
1.41643

> <r_epik_Ionization_Penalty_Charging>
0.0219601

> <r_epik_Ionization_Penalty_Neutral>
1.39447

> <r_epik_State_Penalty>
1.13931

> <r_epik_Charging_Adjusted_Penalty>
1.16127

> <i_epik_Tot_Q>
2

> <i_epik_Tot_abs_Q>
2

> <r_epik_Metal_State_Penalty>
5.12948

> <b_epik_Metal_Only>
0

> <s_lp_Force_Field>
OPLS_2005

> <r_lp_Energy>
25.5014

> <b_lp_Chiralities_Consistent>
1

> <s_lp_Variant>
AV-unprocessed.smi:3074-2

> <Gold.Version>
5.8.1

> <Gold.Id.Protein>
6NUR|6NUR_protein|mol2

> <Gold.PLP.Fitness>
37.1627

> <Gold.PLP.PLP>
-32.0429

> <Gold.PLP.part.hbond>
-2.7288

> <Gold.PLP.part.metal>
0.0000

> <Gold.PLP.part.buried>
-4.6944

> <Gold.PLP.part.nonpolar>
-24.6117

> <Gold.PLP.part.repulsive>
0.0864

> <Gold.PLP.ligand.clash>
0.0000

> <Gold.PLP.ligand.torsion>
0.5771

> <Gold.PLP.Chemscore.Hbond>
2.0000

> <Gold.PLP.Chemscore.CHOScore>
0.0000

> <Gold.PLP.Chemscore.Metal>
0.0000

> <Gold.Chemscore.Hbonds>
donor molecule, donor type, donor heavy atom, donor atom, acceptor molecule, acceptor atom, score
      L1  H     6    15       P1  8028  2.00

> <Gold.PLP.Chemscore.Internal.Correction>
0.2740

> <Gold.Rescore>
     Score         DG    S(hbond)    S(metal)    S(lipo)     H(rot)  DE(clash)    DE(int)     intcor
     12.57     -13.22       1.00        0.00      59.52       1.00       0.10       0.55       ----

> <Gold.Chemscore.Fitness>
12.5675

> <Gold.Chemscore.DG>
-13.2231

> <Gold.Chemscore.ZeroCoef>
-5.4800

> <Gold.Chemscore.Hbond>
0.9996

> <Gold.Chemscore.Metal>
0.0000

> <Gold.Chemscore.Lipo>
59.5241

> <Gold.Chemscore.Internal_Hbond>
0.0000

> <Gold.Chemscore.DEClash>
0.1006

> <Gold.Chemscore.DEInternal>
0.5550

> <Gold.Chemscore.Rot>
1.0000

> <Gold.Chemscore.Internal.Correction>
   9.000000E+99

> <Gold.Chemscore.Hbonds>
donor molecule, donor type, donor heavy atom, donor atom, acceptor molecule, acceptor atom, score
      L1  H     6    15       P1  8028  0.99

> <Gold.Chemscore.Hbond.Weighted>
-3.3387

> <Gold.Chemscore.Metal.Weighted>
-0.0000

> <Gold.Chemscore.Lipo.Weighted>
-6.9643

> <Gold.Chemscore.Internal_Hbond.Weighted>
0.0000

> <Gold.Chemscore.DEClash.Weighted>
0.1006

> <Gold.Chemscore.DEInternal.Weighted>
0.5550

> <Gold.Chemscore.Rot.Weighted>
2.5600

> <Gold.Chemscore.Internal.Correction.Weighted>
   9.000000E+99

> <Gold.Protein.RotatedTorsions>
[ 6907 6896 6895 6894 ] final  165.38 input  -60.11 | X-H torsion
[ 7974 7965 7964 7962 ] final  161.58 input  175.53 | X-H torsion
[ 8008 7997 7996 7995 ] final  165.77 input   59.86 | X-H torsion
[ 10167 10162 10161 10158 ] final    8.22 input  -65.29 | X-H torsion
[ 10718 10713 10712 10709 ] final  105.16 input   66.30 | X-H torsion
[ 10763 10752 10751 10750 ] final   13.33 input  -60.55 | X-H torsion
[ 11005 11000 10999 10996 ] final -137.41 input  -57.11 | X-H torsion

> <Gold.Protein.ActiveResidues>
 VAL166  LYS551  ARG553  GLY616  TRP617  ASP618  TYR619  PRO620  LYS621  CYS622 
 ASP623  PHE694  ASN695  SER759  ASP760  ASP761  ALA762  ILE779  LEU786  VAL792 
 PHE793  MET794  SER795  GLU796  ALA797  LYS798  CYS799  TRP800  GLU811  SER814 

> <Gold.Protein.RotatedAtoms>
  151.8953  133.3525  159.3811 H   0  0  0  0  0  0  0  0  0  0  0  0  # atno 6907 bound_to 6896
  150.7093  134.4883  159.5513 H   0  0  0  0  0  0  0  0  0  0  0  0  # atno 6908 bound_to 6896
  152.2461  134.8180  160.0504 H   0  0  0  0  0  0  0  0  0  0  0  0  # atno 6909 bound_to 6896
  144.7679  139.7918  143.6308 H   0  0  0  0  0  0  0  0  0  0  0  0  # atno 7974 bound_to 7965
  156.1773  140.1661  156.8339 H   0  0  0  0  0  0  0  0  0  0  0  0  # atno 8008 bound_to 7997
  154.5321  140.0754  156.8396 H   0  0  0  0  0  0  0  0  0  0  0  0  # atno 8009 bound_to 7997
  155.3386  140.3383  155.4241 H   0  0  0  0  0  0  0  0  0  0  0  0  # atno 8010 bound_to 7997
  140.6327  143.7957  150.7317 H   0  0  0  0  0  0  0  0  0  0  0  0  # atno 10167 bound_to 10162
  157.6715  131.0821  150.5815 H   0  0  0  0  0  0  0  0  0  0  0  0  # atno 10718 bound_to 10713
  153.1731  135.6815  153.8580 H   0  0  0  0  0  0  0  0  0  0  0  0  # atno 10763 bound_to 10752
  153.7937  135.3165  155.3383 H   0  0  0  0  0  0  0  0  0  0  0  0  # atno 10764 bound_to 10752
  154.8011  135.4777  154.0372 H   0  0  0  0  0  0  0  0  0  0  0  0  # atno 10765 bound_to 10752
  140.8713  134.2047  157.4649 H   0  0  0  0  0  0  0  0  0  0  0  0  # atno 11005 bound_to 11000
  146.1801  139.4990  142.9872 LP  0  0  0  0  0  0  0  0  0  0  0  0  # atno 17320 bound_to 7965
  145.6414  141.0283  143.1809 LP  0  0  0  0  0  0  0  0  0  0  0  0  # atno 17321 bound_to 7965
  140.1572  143.4306  152.2091 LP  0  0  0  0  0  0  0  0  0  0  0  0  # atno 17342 bound_to 10162
  139.5539  144.7359  151.4351 LP  0  0  0  0  0  0  0  0  0  0  0  0  # atno 17343 bound_to 10162
  156.6116  130.4381  149.5857 LP  0  0  0  0  0  0  0  0  0  0  0  0  # atno 17370 bound_to 10713
  156.2426  130.6860  151.1570 LP  0  0  0  0  0  0  0  0  0  0  0  0  # atno 17371 bound_to 10713
  139.8712  134.9775  156.4963 LP  0  0  0  0  0  0  0  0  0  0  0  0  # atno 17394 bound_to 11000
  140.8569  133.8089  155.9225 LP  0  0  0  0  0  0  0  0  0  0  0  0  # atno 17395 bound_to 11000

$$$$
