#       Name:                AV-unprocessed.smi:3187
#       Creating user name   scv26
#       Creation time:       Fri Mar 27 18:01:23 2020


#       File generated by GOLD software.
#

@<TRIPOS>MOLECULE
AV-unprocessed.smi:3187
    42    43     1
SMALL
NO_CHARGES


@<TRIPOS>ATOM
      1 ****         0.7030   2.8110  -0.8483 C.3            1 S1                 0.0000
      2 ****        -0.7347   2.3175  -0.8595 C.2            1 S1                 0.0000
      3 ****        -1.5552   2.6089  -1.8882 C.2            1 S1                 0.0000
      4 ****        -3.0193   2.2132  -1.9685 C.3            1 S1                 0.0000
      5 ****        -3.4537   1.2706  -0.8343 C.3            1 S1                 0.0000
      6 ****        -2.7636   1.6311   0.4925 C.3            1 S1                 0.0000
      7 ****        -3.3583   0.8578   1.6822 C.3            1 S1                 0.0000
      8 ****        -1.2174   1.5250   0.3631 C.3            1 S1                 0.0000
      9 ****        -0.7108   0.0586   0.3499 C.3            1 S1                 0.0000
     10 ****         0.7585  -0.0435   0.4484 N.4            1 S1                 1.0000
     11 ****         1.2696  -1.4273   0.4237 C.3            1 S1                 0.0000
     12 ****         2.8020  -1.4506   0.5004 C.3            1 S1                 0.0000
     13 ****         3.3112  -2.8069   0.4897 N.pl3          1 S1                 0.0000
     14 ****         3.6583  -3.5635  -0.6218 C.2            1 S1                 0.0000
     15 ****         4.0803  -4.7857  -0.1488 C.2            1 S1                 0.0000
     16 ****         4.0012  -4.8024   1.2417 N.2            1 S1                 0.0000
     17 ****         3.5395  -3.5972   1.5477 C.2            1 S1                 0.0000
     18 ****         0.9374   3.2871   0.1041 H              1 S1                 0.0000
     19 ****         0.8695   3.5481  -1.6347 H              1 S1                 0.0000
     20 ****         1.4068   1.9976  -1.0160 H              1 S1                 0.0000
     21 ****        -1.1835   3.1911  -2.7190 H              1 S1                 0.0000
     22 ****        -3.6073   3.1305  -1.9270 H              1 S1                 0.0000
     23 ****        -3.2204   1.7543  -2.9369 H              1 S1                 0.0000
     24 ****        -4.5382   1.3135  -0.7258 H              1 S1                 0.0000
     25 ****        -3.2198   0.2404  -1.1037 H              1 S1                 0.0000
     26 ****        -2.9870   2.6818   0.6864 H              1 S1                 0.0000
     27 ****        -3.3295  -0.2204   1.5252 H              1 S1                 0.0000
     28 ****        -4.4030   1.1300   1.8349 H              1 S1                 0.0000
     29 ****        -2.8244   1.0821   2.6058 H              1 S1                 0.0000
     30 ****        -0.8001   2.0130   1.2454 H              1 S1                 0.0000
     31 ****        -1.1213  -0.4987   1.1907 H              1 S1                 0.0000
     32 ****        -1.0409  -0.4464  -0.5584 H              1 S1                 0.0000
     33 ****         1.1641   0.4622  -0.3261 H              1 S1                 0.0000
     34 ****         0.8441  -1.9816   1.2614 H              1 S1                 0.0000
     35 ****         0.9352  -1.9172  -0.4918 H              1 S1                 0.0000
     36 ****         3.2360  -0.9105  -0.3423 H              1 S1                 0.0000
     37 ****         3.1492  -0.9564   1.4090 H              1 S1                 0.0000
     38 ****         3.5785  -3.1823  -1.6294 H              1 S1                 0.0000
     39 ****         4.4307  -5.6477  -0.6970 H              1 S1                 0.0000
     40 ****         3.3600  -3.2832   2.5656 H              1 S1                 0.0000
     41 ****         1.0528   0.3942   1.3099 H              1 S1                 0.0000
     42 ****         4.2374  -5.5487   1.8640 LP             1 S1                 0.0000
@<TRIPOS>BOND
    1    1    2 1     
    2    1   18 1     
    3    1   19 1     
    4    1   20 1     
    5    2    8 1     
    6    2    3 2     
    7    3    4 1     
    8    3   21 1     
    9    4    5 1     
   10    4   22 1     
   11    4   23 1     
   12    5    6 1     
   13    5   24 1     
   14    5   25 1     
   15    6    7 1     
   16    6    8 1     
   17    6   26 1     
   18    7   27 1     
   19    7   28 1     
   20    7   29 1     
   21    8    9 1     
   22    8   30 1     
   23    9   10 1     
   24    9   31 1     
   25    9   32 1     
   26   10   11 1     
   27   10   33 1     
   28   10   41 1     
   29   11   12 1     
   30   11   34 1     
   31   11   35 1     
   32   12   13 1     
   33   12   36 1     
   34   12   37 1     
   35   13   17 1     
   36   13   14 1     
   37   14   15 2     
   38   14   38 1     
   39   15   16 1     
   40   15   39 1     
   41   16   17 2     
   42   17   40 1     
   43   16   42 1     
@<TRIPOS>SUBSTRUCTURE
      1 S1             1
@<TRIPOS>SET
LONE_PAIRS      STATIC     ATOMS    <user>   **** ""
1 42
DONOR_HYDROGENS      STATIC     ATOMS    <user>   **** ""
2 33 41
ATOM$BLUE        STATIC     ATOMS    COLORGROUP SYSTEM
1 42
ATOM$RED        STATIC     ATOMS    COLORGROUP SYSTEM
2 33 41
