AV-unprocessed.smi:845|AV-procd|sdf|3934|dock2
  -GOLD-   22720 1393D 1   1.00000     0.00000
 Structure written by MMmdl.
 41 42  0  0  0  0  0  0  0  0  2 V2000
  149.9362  135.1928  155.5213 C   0  0  0  0  0  0  0  0  0  0  0  0
  149.8068  136.6815  155.1346 C   0  0  0  0  0  0  0  0  0  0  0  0
  151.0813  137.1891  154.4374 C   0  0  0  0  0  0  0  0  0  0  0  0
  149.3011  137.6552  156.2484 C   0  0  1  0  0  0  0  0  0  0  0  0
  149.9952  137.4444  157.6203 C   0  0  0  0  0  0  0  0  0  0  0  0
  149.0655  137.6326  158.7281 N   0  0  0  0  0  0  0  0  0  0  0  0
  148.5769  136.6553  159.5021 C   0  0  0  0  0  0  0  0  0  0  0  0
  148.9122  135.4859  159.2991 O   0  0  0  0  0  0  0  0  0  0  0  0
  147.7318  137.0937  160.4628 N   0  5  0  0  0  0  0  0  0  0  0  0
  146.9817  136.2168  161.1499 C   0  0  0  0  0  0  0  0  0  0  0  0
  145.7187  136.4666  161.5141 N   0  0  0  0  0  0  0  0  0  0  0  0
  145.1230  135.4139  162.2112 C   0  0  0  0  0  0  0  0  0  0  0  0
  145.9491  134.3336  162.3742 C   0  0  0  0  0  0  0  0  0  0  0  0
  147.5097  134.6086  161.6537 S   0  0  0  0  0  0  0  0  0  0  0  0
  149.1665  139.0657  155.8309 N   0  0  0  0  0  0  0  0  0  0  0  0
  150.4331  139.7951  155.8509 C   0  0  0  0  0  0  0  0  0  0  0  0
  150.2347  141.2900  155.5505 C   0  0  0  0  0  0  0  0  0  0  0  0
  149.5883  141.4377  154.2906 O   0  0  0  0  0  0  0  0  0  0  0  0
  148.3264  140.7800  154.2422 C   0  0  0  0  0  0  0  0  0  0  0  0
  148.5012  139.2818  154.5479 C   0  0  0  0  0  0  0  0  0  0  0  0
  150.7460  135.0022  156.2209 H   0  0  0  0  0  0  0  0  0  0  0  0
  150.1439  134.5917  154.6357 H   0  0  0  0  0  0  0  0  0  0  0  0
  149.0177  134.7975  155.9540 H   0  0  0  0  0  0  0  0  0  0  0  0
  149.0361  136.6989  154.3627 H   0  0  0  0  0  0  0  0  0  0  0  0
  151.9447  137.1508  155.1023 H   0  0  0  0  0  0  0  0  0  0  0  0
  150.9620  138.2198  154.1023 H   0  0  0  0  0  0  0  0  0  0  0  0
  151.3159  136.5846  153.5611 H   0  0  0  0  0  0  0  0  0  0  0  0
  148.2766  137.3163  156.4123 H   0  0  0  0  0  0  0  0  0  0  0  0
  150.4337  136.4478  157.6839 H   0  0  0  0  0  0  0  0  0  0  0  0
  150.8118  138.1529  157.7558 H   0  0  0  0  0  0  0  0  0  0  0  0
  148.7675  138.5771  158.9233 H   0  0  0  0  0  0  0  0  0  0  0  0
  144.1042  135.5191  162.5528 H   0  0  0  0  0  0  0  0  0  0  0  0
  145.7368  133.3981  162.8696 H   0  0  0  0  0  0  0  0  0  0  0  0
  150.9114  139.6856  156.8247 H   0  0  0  0  0  0  0  0  0  0  0  0
  151.1212  139.3823  155.1134 H   0  0  0  0  0  0  0  0  0  0  0  0
  149.6408  141.7661  156.3323 H   0  0  0  0  0  0  0  0  0  0  0  0
  151.1963  141.8022  155.5207 H   0  0  0  0  0  0  0  0  0  0  0  0
  147.6437  141.2406  154.9580 H   0  0  0  0  0  0  0  0  0  0  0  0
  147.8913  140.9162  153.2520 H   0  0  0  0  0  0  0  0  0  0  0  0
  149.0729  138.8168  153.7442 H   0  0  0  0  0  0  0  0  0  0  0  0
  147.5171  138.8243  154.5460 H   0  0  0  0  0  0  0  0  0  0  0  0
  1  2  1  0  0  0  0
  1 21  1  0  0  0  0
  1 22  1  0  0  0  0
  1 23  1  0  0  0  0
  2  3  1  0  0  0  0
  2  4  1  0  0  0  0
  2 24  1  0  0  0  0
  3 25  1  0  0  0  0
  3 26  1  0  0  0  0
  3 27  1  0  0  0  0
  4  5  1  0  0  0  0
  4 15  1  0  0  0  0
  4 28  1  0  0  0  0
  5  6  1  0  0  0  0
  5 29  1  0  0  0  0
  5 30  1  0  0  0  0
  6  7  1  0  0  0  0
  6 31  1  0  0  0  0
  7  8  2  0  0  0  0
  7  9  1  0  0  0  0
  9 10  1  0  0  0  0
 10 14  1  0  0  0  0
 10 11  2  0  0  0  0
 11 12  1  0  0  0  0
 12 13  2  0  0  0  0
 12 32  1  0  0  0  0
 13 14  1  0  0  0  0
 13 33  1  0  0  0  0
 15 20  1  0  0  0  0
 15 16  1  0  0  0  0
 16 17  1  0  0  0  0
 16 34  1  0  0  0  0
 16 35  1  0  0  0  0
 17 18  1  0  0  0  0
 17 36  1  0  0  0  0
 17 37  1  0  0  0  0
 18 19  1  0  0  0  0
 19 20  1  0  0  0  0
 19 38  1  0  0  0  0
 19 39  1  0  0  0  0
 20 40  1  0  0  0  0
 20 41  1  0  0  0  0
M  CHG  1   9  -1
M  END
> <s_m_source_file>
AV-unprocessed.smi

> <i_m_source_file_index>
845

> <i_lp_mmshare_version>
43012

> <i_f3d_flags>
0

> <s_epik_input>
W0NIMl0xW0NIMl1PW0NIMl1bQ0gyXU4xW0NASF0oW0NIXShbQ0gzXSlbQ0gzXSlbQ0gyXVtOSF1DKD1PKVtOSF1jMm5bY0hdW2NIXXMy

> <s_epik_cmdline>
J2VwaWtfcHl0aG9uJywgJy1waCcsICc3LjAnLCAnLXRuJywgJzgnLCAnLW1hJywgJzIwMCcsICctbWV0YWxfYmluZGluZycsICctaW1hZScsICc8aW5maWxlLm1hZT4nLCAnLW9tYWUnLCAnPG91dGZpbGUubWFlPic=

> <r_lp_tautomer_probability>
0.999

> <r_epik_Ionization_Penalty>
9.02543

> <r_epik_Ionization_Penalty_Charging>
6.76546

> <r_epik_Ionization_Penalty_Neutral>
2.25997

> <r_epik_State_Penalty>
7.18984

> <r_epik_Charging_Adjusted_Penalty>
13.9553

> <i_epik_Tot_Q>
-1

> <i_epik_Tot_abs_Q>
1

> <r_epik_Metal_State_Penalty>
3.11401

> <b_epik_Metal_Only>
1

> <s_lp_Force_Field>
OPLS_2005

> <r_lp_Energy>
34.4261

> <b_lp_Chiralities_Consistent>
1

> <s_lp_Variant>
AV-unprocessed.smi:845-8

> <Gold.Version>
5.8.1

> <Gold.Id.Protein>
6NUR|6NUR_protein|mol2

> <Gold.PLP.Fitness>
42.5596

> <Gold.PLP.PLP>
-30.2705

> <Gold.PLP.part.hbond>
-5.0000

> <Gold.PLP.part.metal>
0.0000

> <Gold.PLP.part.buried>
-3.9964

> <Gold.PLP.part.nonpolar>
-22.6908

> <Gold.PLP.part.repulsive>
0.3745

> <Gold.PLP.ligand.clash>
0.0000

> <Gold.PLP.ligand.torsion>
1.1112

> <Gold.PLP.Chemscore.Hbond>
4.6174

> <Gold.PLP.Chemscore.CHOScore>
0.0000

> <Gold.PLP.Chemscore.Metal>
0.0000

> <Gold.Chemscore.Hbonds>
donor molecule, donor type, donor heavy atom, donor atom, acceptor molecule, acceptor atom, score
      P1  H  6896  6908       L1     8  1.00
      P1  H  6931  6943       L1     9  0.69
      P1  H  6934  6947       L1     9  1.72
      P1  H  7989  7998       L1    18  0.03
      P1  H  8011  8017       L1    18  0.37

> <Gold.PLP.Chemscore.Internal.Correction>
0.6594

> <Gold.Rescore>
     Score         DG    S(hbond)    S(metal)    S(lipo)     H(rot)  DE(clash)    DE(int)     intcor
     14.63     -17.25       2.49        0.00      66.93       1.71       0.31       2.31       ----

> <Gold.Chemscore.Fitness>
14.6329

> <Gold.Chemscore.DG>
-17.2535

> <Gold.Chemscore.ZeroCoef>
-5.4800

> <Gold.Chemscore.Hbond>
2.4896

> <Gold.Chemscore.Metal>
0.0000

> <Gold.Chemscore.Lipo>
66.9332

> <Gold.Chemscore.Internal_Hbond>
0.0000

> <Gold.Chemscore.DEClash>
0.3073

> <Gold.Chemscore.DEInternal>
2.3134

> <Gold.Chemscore.Rot>
1.7081

> <Gold.Chemscore.Internal.Correction>
   9.000000E+99

> <Gold.Chemscore.Hbonds>
donor molecule, donor type, donor heavy atom, donor atom, acceptor molecule, acceptor atom, score
      P1  H  6896  6908       L1     8  0.95
      P1  H  6931  6943       L1     9  0.13
      P1  H  6934  6947       L1     9  0.63
      P1  H  8011  8017       L1    18  0.20

> <Gold.Chemscore.Hbond.Weighted>
-8.3152

> <Gold.Chemscore.Metal.Weighted>
-0.0000

> <Gold.Chemscore.Lipo.Weighted>
-7.8312

> <Gold.Chemscore.Internal_Hbond.Weighted>
0.0000

> <Gold.Chemscore.DEClash.Weighted>
0.3073

> <Gold.Chemscore.DEInternal.Weighted>
2.3134

> <Gold.Chemscore.Rot.Weighted>
4.3728

> <Gold.Chemscore.Internal.Correction.Weighted>
   9.000000E+99

> <Gold.Protein.RotatedTorsions>
[ 6907 6896 6895 6894 ] final  162.64 input  -60.11 | X-H torsion
[ 7974 7965 7964 7962 ] final   15.52 input  175.53 | X-H torsion
[ 8008 7997 7996 7995 ] final -106.47 input   59.86 | X-H torsion
[ 10167 10162 10161 10158 ] final -156.78 input  -65.29 | X-H torsion
[ 10718 10713 10712 10709 ] final  -34.30 input   66.30 | X-H torsion
[ 10763 10752 10751 10750 ] final -139.25 input  -60.55 | X-H torsion
[ 11005 11000 10999 10996 ] final  -36.69 input  -57.11 | X-H torsion

> <Gold.Protein.ActiveResidues>
 VAL166  LYS551  ARG553  GLY616  TRP617  ASP618  TYR619  PRO620  LYS621  CYS622 
 ASP623  PHE694  ASN695  SER759  ASP760  ASP761  ALA762  ILE779  LEU786  VAL792 
 PHE793  MET794  SER795  GLU796  ALA797  LYS798  CYS799  TRP800  GLU811  SER814 

> <Gold.Protein.RotatedAtoms>
  151.9373  133.3628  159.3952 H   0  0  0  0  0  0  0  0  0  0  0  0  # atno 6907 bound_to 6896
  150.7005  134.4476  159.5330 H   0  0  0  0  0  0  0  0  0  0  0  0  # atno 6908 bound_to 6896
  152.2126  134.8487  160.0546 H   0  0  0  0  0  0  0  0  0  0  0  0  # atno 6909 bound_to 6896
  146.2276  139.8882  142.8559 H   0  0  0  0  0  0  0  0  0  0  0  0  # atno 7974 bound_to 7965
  154.9151  140.0409  157.1967 H   0  0  0  0  0  0  0  0  0  0  0  0  # atno 8008 bound_to 7997
  154.8310  140.2899  155.5701 H   0  0  0  0  0  0  0  0  0  0  0  0  # atno 8009 bound_to 7997
  156.2987  140.2501  156.3235 H   0  0  0  0  0  0  0  0  0  0  0  0  # atno 8010 bound_to 7997
  139.6823  143.9561  152.2343 H   0  0  0  0  0  0  0  0  0  0  0  0  # atno 10167 bound_to 10162
  156.3523  130.4310  149.7694 H   0  0  0  0  0  0  0  0  0  0  0  0  # atno 10718 bound_to 10713
  154.8614  135.3588  154.5515 H   0  0  0  0  0  0  0  0  0  0  0  0  # atno 10763 bound_to 10752
  153.6133  135.7008  153.5343 H   0  0  0  0  0  0  0  0  0  0  0  0  # atno 10764 bound_to 10752
  153.3190  135.4156  155.1361 H   0  0  0  0  0  0  0  0  0  0  0  0  # atno 10765 bound_to 10752
  140.9894  133.7013  156.1823 H   0  0  0  0  0  0  0  0  0  0  0  0  # atno 11005 bound_to 11000
  145.2444  141.0021  143.3917 LP  0  0  0  0  0  0  0  0  0  0  0  0  # atno 17320 bound_to 7965
  144.9426  139.4172  143.6441 LP  0  0  0  0  0  0  0  0  0  0  0  0  # atno 17321 bound_to 7965
  139.9354  144.6715  150.8320 LP  0  0  0  0  0  0  0  0  0  0  0  0  # atno 17342 bound_to 10162
  140.7656  143.3280  151.2473 LP  0  0  0  0  0  0  0  0  0  0  0  0  # atno 17343 bound_to 10162
  156.4890  130.8076  151.3087 LP  0  0  0  0  0  0  0  0  0  0  0  0  # atno 17370 bound_to 10713
  157.7463  130.9981  150.2842 LP  0  0  0  0  0  0  0  0  0  0  0  0  # atno 17371 bound_to 10713
  140.7063  134.4509  157.5584 LP  0  0  0  0  0  0  0  0  0  0  0  0  # atno 17394 bound_to 11000
  139.8985  134.8611  156.1998 LP  0  0  0  0  0  0  0  0  0  0  0  0  # atno 17395 bound_to 11000

$$$$
