AV-unprocessed.smi:2544|AV-procd|sdf|9994|dock8
  -GOLD-   2272014 43D 1   1.00000     0.00000
 Structure written by MMmdl.
 40 41  0  0  0  0  0  0  0  0  1 V2000
  147.0948  131.4342  159.9251 C   0  0  0  0  0  0  0  0  0  0  0  0
  146.0309  132.3179  160.5858 C   0  0  0  0  0  0  0  0  0  0  0  0
  146.5918  133.5749  161.0602 N   0  0  0  0  0  0  0  0  0  0  0  0
  146.4583  133.9689  162.3875 C   0  0  0  0  0  0  0  0  0  0  0  0
  146.9105  135.1398  162.8762 C   0  0  0  0  0  0  0  0  0  0  0  0
  147.5893  136.0884  161.9700 C   0  0  0  0  0  0  0  0  0  0  0  0
  148.0216  137.1636  162.3850 O   0  0  0  0  0  0  0  0  0  0  0  0
  147.7189  135.6745  160.5474 C   0  0  0  0  0  0  0  0  0  0  0  0
  148.3675  136.5825  159.6933 N   0  0  0  0  0  0  0  0  0  0  0  0
  149.1413  136.3410  158.6190 C   0  0  0  0  0  0  0  0  0  0  0  0
  149.4062  135.2325  158.1546 O   0  0  0  0  0  0  0  0  0  0  0  0
  149.5992  137.4861  158.0921 N   0  0  0  0  0  0  0  0  0  0  0  0
  150.4801  137.5880  156.9317 C   0  0  0  0  0  0  0  0  0  0  0  0
  150.9184  139.0523  156.7409 C   0  0  0  0  0  0  0  0  0  0  0  0
  151.8109  139.2132  155.4993 C   0  0  0  0  0  0  0  0  0  0  0  0
  151.1131  138.6811  154.2377 C   0  0  0  0  0  0  0  0  0  0  0  0
  150.6709  137.2207  154.4218 C   0  0  0  0  0  0  0  0  0  0  0  0
  149.7791  137.0579  155.6636 C   0  0  0  0  0  0  0  0  0  0  0  0
  147.2217  134.4625  160.1898 C   0  0  0  0  0  0  0  0  0  0  0  0
  146.6569  130.5021  159.5682 H   0  0  0  0  0  0  0  0  0  0  0  0
  147.8889  131.1813  160.6282 H   0  0  0  0  0  0  0  0  0  0  0  0
  147.5497  131.9373  159.0715 H   0  0  0  0  0  0  0  0  0  0  0  0
  145.2277  132.5219  159.8767 H   0  0  0  0  0  0  0  0  0  0  0  0
  145.5734  131.7859  161.4207 H   0  0  0  0  0  0  0  0  0  0  0  0
  145.9587  133.2475  163.0178 H   0  0  0  0  0  0  0  0  0  0  0  0
  146.7878  135.4015  163.9170 H   0  0  0  0  0  0  0  0  0  0  0  0
  148.2146  137.5532  159.9252 H   0  0  0  0  0  0  0  0  0  0  0  0
  149.3288  138.3532  158.5330 H   0  0  0  0  0  0  0  0  0  0  0  0
  151.3760  136.9907  157.1130 H   0  0  0  0  0  0  0  0  0  0  0  0
  150.0405  139.6921  156.6403 H   0  0  0  0  0  0  0  0  0  0  0  0
  151.4551  139.4002  157.6243 H   0  0  0  0  0  0  0  0  0  0  0  0
  152.0742  140.2625  155.3640 H   0  0  0  0  0  0  0  0  0  0  0  0
  152.7483  138.6770  155.6522 H   0  0  0  0  0  0  0  0  0  0  0  0
  150.2444  139.3003  154.0109 H   0  0  0  0  0  0  0  0  0  0  0  0
  151.7829  138.7615  153.3809 H   0  0  0  0  0  0  0  0  0  0  0  0
  150.1386  136.8788  153.5338 H   0  0  0  0  0  0  0  0  0  0  0  0
  151.5504  136.5828  154.5192 H   0  0  0  0  0  0  0  0  0  0  0  0
  149.5174  136.0065  155.7879 H   0  0  0  0  0  0  0  0  0  0  0  0
  148.8410  137.5930  155.5080 H   0  0  0  0  0  0  0  0  0  0  0  0
  147.2880  134.0723  159.1868 H   0  0  0  0  0  0  0  0  0  0  0  0
  1  2  1  0  0  0  0
  1 20  1  0  0  0  0
  1 21  1  0  0  0  0
  1 22  1  0  0  0  0
  2  3  1  0  0  0  0
  2 23  1  0  0  0  0
  2 24  1  0  0  0  0
  3 19  1  0  0  0  0
  3  4  1  0  0  0  0
  4  5  2  0  0  0  0
  4 25  1  0  0  0  0
  5  6  1  0  0  0  0
  5 26  1  0  0  0  0
  6  7  2  0  0  0  0
  6  8  1  0  0  0  0
  8  9  1  0  0  0  0
  8 19  2  0  0  0  0
  9 10  1  0  0  0  0
  9 27  1  0  0  0  0
 10 11  2  0  0  0  0
 10 12  1  0  0  0  0
 12 13  1  0  0  0  0
 12 28  1  0  0  0  0
 13 18  1  0  0  0  0
 13 14  1  0  0  0  0
 13 29  1  0  0  0  0
 14 15  1  0  0  0  0
 14 30  1  0  0  0  0
 14 31  1  0  0  0  0
 15 16  1  0  0  0  0
 15 32  1  0  0  0  0
 15 33  1  0  0  0  0
 16 17  1  0  0  0  0
 16 34  1  0  0  0  0
 16 35  1  0  0  0  0
 17 18  1  0  0  0  0
 17 36  1  0  0  0  0
 17 37  1  0  0  0  0
 18 38  1  0  0  0  0
 18 39  1  0  0  0  0
 19 40  1  0  0  0  0
M  END
> <s_m_source_file>
AV-unprocessed.smi

> <i_m_source_file_index>
2544

> <i_lp_mmshare_version>
43012

> <i_f3d_flags>
0

> <s_epik_input>
W0NIM11bQ0gyXW4xW2NIXVtjSF1jKD1PKWMoW2NIXTEpW05IXUMoPU8pW05IXVtDSF0yW0NIMl1bQ0gyXVtDSDJdW0NIMl1bQ0gyXTI=

> <s_epik_cmdline>
J2VwaWtfcHl0aG9uJywgJy1waCcsICc3LjAnLCAnLXRuJywgJzgnLCAnLW1hJywgJzIwMCcsICctbWV0YWxfYmluZGluZycsICctaW1hZScsICc8aW5maWxlLm1hZT4nLCAnLW9tYWUnLCAnPG91dGZpbGUubWFlPic=

> <r_lp_tautomer_probability>
1

> <r_epik_Ionization_Penalty>
0.00144746

> <r_epik_Ionization_Penalty_Charging>
0.00142605

> <r_epik_Ionization_Penalty_Neutral>
2.14089e-05

> <r_epik_State_Penalty>
0.000952116

> <r_epik_Charging_Adjusted_Penalty>
0.00237816

> <i_epik_Tot_Q>
0

> <i_epik_Tot_abs_Q>
0

> <r_epik_Metal_State_Penalty>
-0

> <b_epik_Metal_Only>
0

> <s_lp_Force_Field>
OPLS_2005

> <r_lp_Energy>
3.66557

> <b_lp_Chiralities_Consistent>
1

> <s_lp_Variant>
AV-unprocessed.smi:2544-1

> <Gold.Version>
5.8.1

> <Gold.Id.Protein>
6NUR|6NUR_protein|mol2

> <Gold.PLP.Fitness>
40.9056

> <Gold.PLP.PLP>
-34.3759

> <Gold.PLP.part.hbond>
-2.9470

> <Gold.PLP.part.metal>
0.0000

> <Gold.PLP.part.buried>
-2.3141

> <Gold.PLP.part.nonpolar>
-28.6657

> <Gold.PLP.part.repulsive>
0.3138

> <Gold.PLP.ligand.clash>
0.0000

> <Gold.PLP.ligand.torsion>
0.2564

> <Gold.PLP.Chemscore.Hbond>
2.3440

> <Gold.PLP.Chemscore.CHOScore>
0.0000

> <Gold.PLP.Chemscore.Metal>
0.0000

> <Gold.Chemscore.Hbonds>
donor molecule, donor type, donor heavy atom, donor atom, acceptor molecule, acceptor atom, score
      P1  H  6896  6907       L1    11  0.67
      P1  H  6931  6943       L1     7  1.00

> <Gold.PLP.Chemscore.Internal.Correction>
0.0104

> <Gold.Rescore>
     Score         DG    S(hbond)    S(metal)    S(lipo)     H(rot)  DE(clash)    DE(int)     intcor
     17.66     -18.04       2.26        0.00      68.42       1.17       0.03       0.35       ----

> <Gold.Chemscore.Fitness>
17.6639

> <Gold.Chemscore.DG>
-18.0412

> <Gold.Chemscore.ZeroCoef>
-5.4800

> <Gold.Chemscore.Hbond>
2.2577

> <Gold.Chemscore.Metal>
0.0000

> <Gold.Chemscore.Lipo>
68.4238

> <Gold.Chemscore.Internal_Hbond>
0.0000

> <Gold.Chemscore.DEClash>
0.0253

> <Gold.Chemscore.DEInternal>
0.3520

> <Gold.Chemscore.Rot>
1.1660

> <Gold.Chemscore.Internal.Correction>
   9.000000E+99

> <Gold.Chemscore.Hbonds>
donor molecule, donor type, donor heavy atom, donor atom, acceptor molecule, acceptor atom, score
      P1  H  6896  6907       L1    11  0.08
      P1  H  6931  6943       L1     7  0.89
      P1  H  6934  6947       L1     7  0.01

> <Gold.Chemscore.Hbond.Weighted>
-7.5406

> <Gold.Chemscore.Metal.Weighted>
-0.0000

> <Gold.Chemscore.Lipo.Weighted>
-8.0056

> <Gold.Chemscore.Internal_Hbond.Weighted>
0.0000

> <Gold.Chemscore.DEClash.Weighted>
0.0253

> <Gold.Chemscore.DEInternal.Weighted>
0.3520

> <Gold.Chemscore.Rot.Weighted>
2.9850

> <Gold.Chemscore.Internal.Correction.Weighted>
   9.000000E+99

> <Gold.Protein.RotatedTorsions>
[ 6907 6896 6895 6894 ] final  -57.79 input  -60.11 | X-H torsion
[ 7974 7965 7964 7962 ] final  143.27 input  175.53 | X-H torsion
[ 8008 7997 7996 7995 ] final  -18.57 input   59.86 | X-H torsion
[ 10167 10162 10161 10158 ] final -171.41 input  -65.29 | X-H torsion
[ 10718 10713 10712 10709 ] final  -91.02 input   66.30 | X-H torsion
[ 10763 10752 10751 10750 ] final  159.36 input  -60.55 | X-H torsion
[ 11005 11000 10999 10996 ] final   55.85 input  -57.11 | X-H torsion

> <Gold.Protein.ActiveResidues>
 VAL166  LYS551  ARG553  GLY616  TRP617  ASP618  TYR619  PRO620  LYS621  CYS622 
 ASP623  PHE694  ASN695  SER759  ASP760  ASP761  ALA762  ILE779  LEU786  VAL792 
 PHE793  MET794  SER795  GLU796  ALA797  LYS798  CYS799  TRP800  GLU811  SER814 

> <Gold.Protein.RotatedAtoms>
  150.8057  134.7181  159.6641 H   0  0  0  0  0  0  0  0  0  0  0  0  # atno 6907 bound_to 6896
  152.4177  134.6009  160.0009 H   0  0  0  0  0  0  0  0  0  0  0  0  # atno 6908 bound_to 6896
  151.6233  133.3300  159.3129 H   0  0  0  0  0  0  0  0  0  0  0  0  # atno 6909 bound_to 6896
  144.8935  139.5524  143.5787 H   0  0  0  0  0  0  0  0  0  0  0  0  # atno 7974 bound_to 7965
  154.4897  140.2112  155.9576 H   0  0  0  0  0  0  0  0  0  0  0  0  # atno 8008 bound_to 7997
  156.1287  140.3201  155.8285 H   0  0  0  0  0  0  0  0  0  0  0  0  # atno 8009 bound_to 7997
  155.4336  140.0505  157.3007 H   0  0  0  0  0  0  0  0  0  0  0  0  # atno 8010 bound_to 7997
  139.5804  144.1436  152.1507 H   0  0  0  0  0  0  0  0  0  0  0  0  # atno 10167 bound_to 10162
  155.9991  130.4932  150.5410 H   0  0  0  0  0  0  0  0  0  0  0  0  # atno 10718 bound_to 10713
  154.2306  135.2778  155.2891 H   0  0  0  0  0  0  0  0  0  0  0  0  # atno 10763 bound_to 10752
  154.5627  135.5642  153.7025 H   0  0  0  0  0  0  0  0  0  0  0  0  # atno 10764 bound_to 10752
  153.0021  135.6302  154.2448 H   0  0  0  0  0  0  0  0  0  0  0  0  # atno 10765 bound_to 10752
  140.0574  134.5650  155.9191 H   0  0  0  0  0  0  0  0  0  0  0  0  # atno 11005 bound_to 11000
  146.3068  139.7607  142.9050 LP  0  0  0  0  0  0  0  0  0  0  0  0  # atno 17320 bound_to 7965
  145.3740  141.0347  143.3215 LP  0  0  0  0  0  0  0  0  0  0  0  0  # atno 17321 bound_to 7965
  140.0988  144.5557  150.7003 LP  0  0  0  0  0  0  0  0  0  0  0  0  # atno 17342 bound_to 10162
  140.7083  143.2485  151.4660 LP  0  0  0  0  0  0  0  0  0  0  0  0  # atno 17343 bound_to 10162
  157.3347  131.0706  151.1834 LP  0  0  0  0  0  0  0  0  0  0  0  0  # atno 17370 bound_to 10713
  157.2703  130.6701  149.6016 LP  0  0  0  0  0  0  0  0  0  0  0  0  # atno 17371 bound_to 10713
  141.1958  133.6589  156.5662 LP  0  0  0  0  0  0  0  0  0  0  0  0  # atno 17394 bound_to 11000
  140.3822  134.7513  157.4668 LP  0  0  0  0  0  0  0  0  0  0  0  0  # atno 17395 bound_to 11000

$$$$
