AV-unprocessed.smi:1813|AV-procd|sdf|7346|dock5
  -GOLD-   22720 9 03D 1   1.00000     0.00000
 Structure written by MMmdl.
 39 40  0  0  0  0  0  0  0  0  3 V2000
  144.5840  134.6623  150.3969 C   0  0  0  0  0  0  0  0  0  0  0  0
  144.7865  135.9967  150.9407 N   0  0  0  0  0  0  0  0  0  0  0  0
  145.6023  136.2765  151.9664 C   0  0  0  0  0  0  0  0  0  0  0  0
  146.2715  135.4221  152.5485 O   0  0  0  0  0  0  0  0  0  0  0  0
  145.6856  137.7486  152.3830 C   0  0  0  0  0  0  0  0  0  0  0  0
  146.9639  138.0912  153.0578 N   0  3  2  0  0  0  0  0  0  0  0  0
  147.1534  137.3760  154.3481 C   0  0  0  0  0  0  0  0  0  0  0  0
  148.5469  137.6533  154.9344 C   0  0  0  0  0  0  0  0  0  0  0  0
  148.7819  139.1611  155.1146 C   0  0  1  0  0  0  0  0  0  0  0  0
  150.1418  139.3953  155.5902 N   0  0  0  0  0  0  0  0  0  0  0  0
  150.4822  140.0674  156.6991 C   0  0  0  0  0  0  0  0  0  0  0  0
  149.6054  140.5517  157.4184 O   0  0  0  0  0  0  0  0  0  0  0  0
  151.8169  140.1393  156.9014 N   0  5  0  0  0  0  0  0  0  0  0  0
  152.2963  140.7013  158.0230 C   0  0  0  0  0  0  0  0  0  0  0  0
  153.4468  140.3255  158.5930 N   0  0  0  0  0  0  0  0  0  0  0  0
  153.7553  141.0461  159.7481 C   0  0  0  0  0  0  0  0  0  0  0  0
  152.8226  141.9993  160.0598 C   0  0  0  0  0  0  0  0  0  0  0  0
  151.5212  142.0208  158.9045 S   0  0  0  0  0  0  0  0  0  0  0  0
  148.5361  139.8853  153.7782 C   0  0  0  0  0  0  0  0  0  0  0  0
  147.1441  139.5565  153.2164 C   0  0  0  0  0  0  0  0  0  0  0  0
  143.8783  134.7022  149.5671 H   0  0  0  0  0  0  0  0  0  0  0  0
  144.1801  133.9903  151.1553 H   0  0  0  0  0  0  0  0  0  0  0  0
  145.5219  134.2467  150.0262 H   0  0  0  0  0  0  0  0  0  0  0  0
  144.2761  136.7528  150.5074 H   0  0  0  0  0  0  0  0  0  0  0  0
  145.5846  138.3355  151.4693 H   0  0  0  0  0  0  0  0  0  0  0  0
  144.8422  138.0162  153.0220 H   0  0  0  0  0  0  0  0  0  0  0  0
  146.3818  137.6863  155.0544 H   0  0  0  0  0  0  0  0  0  0  0  0
  147.0351  136.3018  154.2049 H   0  0  0  0  0  0  0  0  0  0  0  0
  148.6526  137.1419  155.8921 H   0  0  0  0  0  0  0  0  0  0  0  0
  149.3076  137.2337  154.2741 H   0  0  0  0  0  0  0  0  0  0  0  0
  148.0742  139.5309  155.8592 H   0  0  0  0  0  0  0  0  0  0  0  0
  150.8941  139.0160  155.0338 H   0  0  0  0  0  0  0  0  0  0  0  0
  154.6625  140.8145  160.2859 H   0  0  0  0  0  0  0  0  0  0  0  0
  152.8212  142.6868  160.8918 H   0  0  0  0  0  0  0  0  0  0  0  0
  148.6313  140.9637  153.9089 H   0  0  0  0  0  0  0  0  0  0  0  0
  149.2982  139.5946  153.0534 H   0  0  0  0  0  0  0  0  0  0  0  0
  147.0241  140.0503  152.2516 H   0  0  0  0  0  0  0  0  0  0  0  0
  146.3686  139.9511  153.8748 H   0  0  0  0  0  0  0  0  0  0  0  0
  147.7002  137.7811  152.4390 H   0  0  0  0  0  0  0  0  0  0  0  0
  1  2  1  0  0  0  0
  1 21  1  0  0  0  0
  1 22  1  0  0  0  0
  1 23  1  0  0  0  0
  2  3  1  0  0  0  0
  2 24  1  0  0  0  0
  3  4  2  0  0  0  0
  3  5  1  0  0  0  0
  5  6  1  0  0  0  0
  5 25  1  0  0  0  0
  5 26  1  0  0  0  0
  6 20  1  0  0  0  0
  6  7  1  0  0  0  0
  6 39  1  0  0  0  0
  7  8  1  0  0  0  0
  7 27  1  0  0  0  0
  7 28  1  0  0  0  0
  8  9  1  0  0  0  0
  8 29  1  0  0  0  0
  8 30  1  0  0  0  0
  9 10  1  0  0  0  0
  9 19  1  0  0  0  0
  9 31  1  0  0  0  0
 10 11  1  0  0  0  0
 10 32  1  0  0  0  0
 11 12  2  0  0  0  0
 11 13  1  0  0  0  0
 13 14  1  0  0  0  0
 14 18  1  0  0  0  0
 14 15  2  0  0  0  0
 15 16  1  0  0  0  0
 16 17  2  0  0  0  0
 16 33  1  0  0  0  0
 17 18  1  0  0  0  0
 17 34  1  0  0  0  0
 19 20  1  0  0  0  0
 19 35  1  0  0  0  0
 19 36  1  0  0  0  0
 20 37  1  0  0  0  0
 20 38  1  0  0  0  0
M  CHG  1   6   1
M  CHG  1  13  -1
M  END
> <s_m_source_file>
AV-unprocessed.smi

> <i_m_source_file_index>
1813

> <i_lp_mmshare_version>
43012

> <i_f3d_flags>
0

> <s_epik_input>
W0NIM11bTkhdQyg9TylbQ0gyXU4xW0NIMl1bQ0gyXVtDSF0oW0NIMl1bQ0gyXTEpW05IXUMoPU8pW05IXWMybltjSF1bY0hdczI=

> <s_epik_cmdline>
J2VwaWtfcHl0aG9uJywgJy1waCcsICc3LjAnLCAnLXRuJywgJzgnLCAnLW1hJywgJzIwMCcsICctbWV0YWxfYmluZGluZycsICctaW1hZScsICc8aW5maWxlLm1hZT4nLCAnLW9tYWUnLCAnPG91dGZpbGUubWFlPic=

> <r_lp_tautomer_probability>
0.999

> <r_epik_Ionization_Penalty>
7.12128

> <r_epik_Ionization_Penalty_Charging>
6.25357

> <r_epik_Ionization_Penalty_Neutral>
0.867707

> <r_epik_State_Penalty>
6.33838

> <r_epik_Charging_Adjusted_Penalty>
12.592

> <i_epik_Tot_Q>
0

> <i_epik_Tot_abs_Q>
2

> <r_epik_Metal_State_Penalty>
2.34161

> <b_epik_Metal_Only>
1

> <s_lp_Force_Field>
OPLS_2005

> <r_lp_Energy>
3.88073

> <b_lp_Chiralities_Consistent>
1

> <s_lp_Variant>
AV-unprocessed.smi:1813-7

> <Gold.Version>
5.8.1

> <Gold.Id.Protein>
6NUR|6NUR_protein|mol2

> <Gold.PLP.Fitness>
36.6034

> <Gold.PLP.PLP>
-25.9100

> <Gold.PLP.part.hbond>
-3.0000

> <Gold.PLP.part.metal>
0.0000

> <Gold.PLP.part.buried>
-1.1367

> <Gold.PLP.part.nonpolar>
-22.5185

> <Gold.PLP.part.repulsive>
1.0692

> <Gold.PLP.ligand.clash>
0.0000

> <Gold.PLP.ligand.torsion>
0.6127

> <Gold.PLP.Chemscore.Hbond>
3.9600

> <Gold.PLP.Chemscore.CHOScore>
0.0000

> <Gold.PLP.Chemscore.Metal>
0.0000

> <Gold.Chemscore.Hbonds>
donor molecule, donor type, donor heavy atom, donor atom, acceptor molecule, acceptor atom, score
      L1  H     2    24       P1 10171  1.00
      L1  H     6    39       P1  7948  1.78
      P1  H  7997  8008       L1    15  0.88

> <Gold.PLP.Chemscore.Internal.Correction>
0.0390

> <Gold.Rescore>
     Score         DG    S(hbond)    S(metal)    S(lipo)     H(rot)  DE(clash)    DE(int)     intcor
     12.12     -16.84       2.58        0.00      61.99       1.76       1.37       3.35       ----

> <Gold.Chemscore.Fitness>
12.1163

> <Gold.Chemscore.DG>
-16.8391

> <Gold.Chemscore.ZeroCoef>
-5.4800

> <Gold.Chemscore.Hbond>
2.5785

> <Gold.Chemscore.Metal>
0.0000

> <Gold.Chemscore.Lipo>
61.9949

> <Gold.Chemscore.Internal_Hbond>
0.0000

> <Gold.Chemscore.DEClash>
1.3701

> <Gold.Chemscore.DEInternal>
3.3526

> <Gold.Chemscore.Rot>
1.7603

> <Gold.Chemscore.Internal.Correction>
   9.000000E+99

> <Gold.Chemscore.Hbonds>
donor molecule, donor type, donor heavy atom, donor atom, acceptor molecule, acceptor atom, score
      L1  H     2    24       P1 10171  0.96
      L1  H     6    39       P1  7948  0.82
      P1  H  7997  8008       L1    15  0.43

> <Gold.Chemscore.Hbond.Weighted>
-8.6121

> <Gold.Chemscore.Metal.Weighted>
-0.0000

> <Gold.Chemscore.Lipo.Weighted>
-7.2534

> <Gold.Chemscore.Internal_Hbond.Weighted>
0.0000

> <Gold.Chemscore.DEClash.Weighted>
1.3701

> <Gold.Chemscore.DEInternal.Weighted>
3.3526

> <Gold.Chemscore.Rot.Weighted>
4.5064

> <Gold.Chemscore.Internal.Correction.Weighted>
   9.000000E+99

> <Gold.Protein.RotatedTorsions>
[ 6907 6896 6895 6894 ] final   46.20 input  -60.11 | X-H torsion
[ 7974 7965 7964 7962 ] final  146.10 input  175.53 | X-H torsion
[ 8008 7997 7996 7995 ] final  -93.20 input   59.86 | X-H torsion
[ 10167 10162 10161 10158 ] final -132.64 input  -65.29 | X-H torsion
[ 10718 10713 10712 10709 ] final   76.96 input   66.30 | X-H torsion
[ 10763 10752 10751 10750 ] final   23.67 input  -60.55 | X-H torsion
[ 11005 11000 10999 10996 ] final  113.10 input  -57.11 | X-H torsion

> <Gold.Protein.ActiveResidues>
 VAL166  LYS551  ARG553  GLY616  TRP617  ASP618  TYR619  PRO620  LYS621  CYS622 
 ASP623  PHE694  ASN695  SER759  ASP760  ASP761  ALA762  ILE779  LEU786  VAL792 
 PHE793  MET794  SER795  GLU796  ALA797  LYS798  CYS799  TRP800  GLU811  SER814 

> <Gold.Protein.RotatedAtoms>
  152.2535  134.8108  160.0441 H   0  0  0  0  0  0  0  0  0  0  0  0  # atno 6907 bound_to 6896
  151.8779  133.3484  159.3765 H   0  0  0  0  0  0  0  0  0  0  0  0  # atno 6908 bound_to 6896
  150.7092  134.4974  159.5589 H   0  0  0  0  0  0  0  0  0  0  0  0  # atno 6909 bound_to 6896
  144.8698  139.5864  143.5892 H   0  0  0  0  0  0  0  0  0  0  0  0  # atno 7974 bound_to 7965
  154.7327  140.0501  157.0741 H   0  0  0  0  0  0  0  0  0  0  0  0  # atno 8008 bound_to 7997
  155.0280  140.3154  155.4749 H   0  0  0  0  0  0  0  0  0  0  0  0  # atno 8009 bound_to 7997
  156.2845  140.2155  156.5401 H   0  0  0  0  0  0  0  0  0  0  0  0  # atno 8010 bound_to 7997
  139.9065  143.6545  152.2584 H   0  0  0  0  0  0  0  0  0  0  0  0  # atno 10167 bound_to 10162
  157.6693  130.9799  150.1572 H   0  0  0  0  0  0  0  0  0  0  0  0  # atno 10718 bound_to 10713
  153.0821  135.6622  154.0023 H   0  0  0  0  0  0  0  0  0  0  0  0  # atno 10763 bound_to 10752
  153.9642  135.2971  155.3433 H   0  0  0  0  0  0  0  0  0  0  0  0  # atno 10764 bound_to 10752
  154.7223  135.5159  153.8902 H   0  0  0  0  0  0  0  0  0  0  0  0  # atno 10765 bound_to 10752
  139.8944  134.9543  156.6687 H   0  0  0  0  0  0  0  0  0  0  0  0  # atno 11005 bound_to 11000
  146.2922  139.7172  142.9153 LP  0  0  0  0  0  0  0  0  0  0  0  0  # atno 17320 bound_to 7965
  145.4152  141.0401  143.2995 LP  0  0  0  0  0  0  0  0  0  0  0  0  # atno 17321 bound_to 7965
  139.6980  144.7639  151.1323 LP  0  0  0  0  0  0  0  0  0  0  0  0  # atno 17342 bound_to 10162
  140.7695  143.5497  150.9218 LP  0  0  0  0  0  0  0  0  0  0  0  0  # atno 17343 bound_to 10162
  156.2357  130.3686  149.8394 LP  0  0  0  0  0  0  0  0  0  0  0  0  # atno 17370 bound_to 10713
  156.6208  130.8625  151.3475 LP  0  0  0  0  0  0  0  0  0  0  0  0  # atno 17371 bound_to 10713
  140.7390  133.8994  155.8264 LP  0  0  0  0  0  0  0  0  0  0  0  0  # atno 17394 bound_to 11000
  141.0093  134.1043  157.4238 LP  0  0  0  0  0  0  0  0  0  0  0  0  # atno 17395 bound_to 11000

$$$$
