AV-unprocessed.smi:125|AV-procd|sdf|1150|dock7
  -GOLD-   2262018283D 1   1.00000     0.00000
 Structure written by MMmdl.
 59 62  0  0  0  0  0  0  0  0  1 V2000
  146.0210  133.8764  157.9616 C   0  0  0  0  0  0  0  0  0  0  0  0
  147.1196  134.8664  157.6106 C   0  0  0  0  0  0  0  0  0  0  0  0
  148.1353  134.4558  156.7215 C   0  0  0  0  0  0  0  0  0  0  0  0
  149.1785  135.3300  156.3634 C   0  0  0  0  0  0  0  0  0  0  0  0
  149.2171  136.6434  156.8858 C   0  0  0  0  0  0  0  0  0  0  0  0
  150.2514  137.5733  156.5948 N   0  0  0  0  0  0  0  0  0  0  0  0
  151.4553  137.3439  156.0399 C   0  0  0  0  0  0  0  0  0  0  0  0
  151.8409  136.2437  155.6422 O   0  0  0  0  0  0  0  0  0  0  0  0
  152.3490  138.5858  155.8936 C   0  0  0  0  0  0  0  0  0  0  0  0
  151.6670  139.8534  156.2362 N   0  0  0  0  0  0  0  0  0  0  0  0
  150.6640  140.3423  155.3626 C   0  0  0  0  0  0  0  0  0  0  0  0
  150.3600  139.7334  154.3357 O   0  0  0  0  0  0  0  0  0  0  0  0
  150.0307  141.5925  155.7667 C   0  0  0  0  0  0  0  0  0  0  0  0
  149.0808  142.1394  154.9894 F   0  0  0  0  0  0  0  0  0  0  0  0
  150.3871  142.2138  156.9096 C   0  0  0  0  0  0  0  0  0  0  0  0
  151.3550  141.7153  157.7627 N   0  0  0  0  0  0  0  0  0  0  0  0
  151.7327  142.4373  159.0379 C   0  0  1  0  0  0  0  0  0  0  0  0
  153.1267  143.0591  158.9003 C   0  0  0  0  0  0  0  0  0  0  0  0
  152.7961  144.4515  158.4094 C   0  0  0  0  0  0  0  0  0  0  0  0
  151.4967  144.7389  159.1537 C   0  0  0  0  0  0  0  0  0  0  0  0
  150.8299  143.4828  159.2595 O   0  0  0  0  0  0  0  0  0  0  0  0
  152.0231  140.5153  157.4354 C   0  0  0  0  0  0  0  0  0  0  0  0
  152.8957  140.0587  158.1773 O   0  0  0  0  0  0  0  0  0  0  0  0
  148.2136  137.0541  157.7852 C   0  0  0  0  0  0  0  0  0  0  0  0
  147.1655  136.1804  158.1447 C   0  0  0  0  0  0  0  0  0  0  0  0
  145.9330  136.7886  159.3091 S   0  0  0  0  0  0  0  0  0  0  0  0
  146.0534  138.2503  159.4295 O   0  0  0  0  0  0  0  0  0  0  0  0
  144.6367  136.1878  158.9579 O   0  0  0  0  0  0  0  0  0  0  0  0
  146.4647  136.1047  160.8084 N   0  0  0  0  0  0  0  0  0  0  0  0
  146.1403  134.7048  161.1256 C   0  0  0  0  0  0  0  0  0  0  0  0
  147.0377  134.1765  162.2569 C   0  0  0  0  0  0  0  0  0  0  0  0
  146.9912  135.0511  163.3745 O   0  0  0  0  0  0  0  0  0  0  0  0
  147.4934  136.3387  163.0492 C   0  0  0  0  0  0  0  0  0  0  0  0
  146.6133  136.9912  161.9719 C   0  0  0  0  0  0  0  0  0  0  0  0
  146.1803  132.9201  157.4630 H   0  0  0  0  0  0  0  0  0  0  0  0
  145.0469  134.2474  157.6457 H   0  0  0  0  0  0  0  0  0  0  0  0
  145.9959  133.6809  159.0322 H   0  0  0  0  0  0  0  0  0  0  0  0
  148.1251  133.4570  156.3099 H   0  0  0  0  0  0  0  0  0  0  0  0
  149.9467  134.9650  155.6995 H   0  0  0  0  0  0  0  0  0  0  0  0
  150.0276  138.5409  156.7770 H   0  0  0  0  0  0  0  0  0  0  0  0
  153.2418  138.4427  156.5045 H   0  0  0  0  0  0  0  0  0  0  0  0
  152.7331  138.6171  154.8727 H   0  0  0  0  0  0  0  0  0  0  0  0
  149.8884  143.1399  157.1534 H   0  0  0  0  0  0  0  0  0  0  0  0
  151.6493  141.7014  159.8393 H   0  0  0  0  0  0  0  0  0  0  0  0
  153.5884  143.1006  159.8875 H   0  0  0  0  0  0  0  0  0  0  0  0
  153.7736  142.4920  158.2301 H   0  0  0  0  0  0  0  0  0  0  0  0
  153.5800  145.1787  158.6220 H   0  0  0  0  0  0  0  0  0  0  0  0
  152.6222  144.4408  157.3328 H   0  0  0  0  0  0  0  0  0  0  0  0
  151.7093  145.1048  160.1591 H   0  0  0  0  0  0  0  0  0  0  0  0
  150.8775  145.4792  158.6467 H   0  0  0  0  0  0  0  0  0  0  0  0
  148.2534  138.0512  158.1975 H   0  0  0  0  0  0  0  0  0  0  0  0
  145.0912  134.6462  161.4167 H   0  0  0  0  0  0  0  0  0  0  0  0
  146.2648  134.0803  160.2412 H   0  0  0  0  0  0  0  0  0  0  0  0
  146.7017  133.1873  162.5680 H   0  0  0  0  0  0  0  0  0  0  0  0
  148.0672  134.0654  161.9122 H   0  0  0  0  0  0  0  0  0  0  0  0
  147.4989  136.9535  163.9493 H   0  0  0  0  0  0  0  0  0  0  0  0
  148.5283  136.2648  162.7109 H   0  0  0  0  0  0  0  0  0  0  0  0
  147.0468  137.9413  161.6592 H   0  0  0  0  0  0  0  0  0  0  0  0
  145.6238  137.2078  162.3758 H   0  0  0  0  0  0  0  0  0  0  0  0
  1  2  1  0  0  0  0
  1 35  1  0  0  0  0
  1 36  1  0  0  0  0
  1 37  1  0  0  0  0
  2 25  1  0  0  0  0
  2  3  2  0  0  0  0
  3  4  1  0  0  0  0
  3 38  1  0  0  0  0
  4  5  2  0  0  0  0
  4 39  1  0  0  0  0
  5  6  1  0  0  0  0
  5 24  1  0  0  0  0
  6  7  1  0  0  0  0
  6 40  1  0  0  0  0
  7  8  2  0  0  0  0
  7  9  1  0  0  0  0
  9 10  1  0  0  0  0
  9 41  1  0  0  0  0
  9 42  1  0  0  0  0
 10 22  1  0  0  0  0
 10 11  1  0  0  0  0
 11 12  2  0  0  0  0
 11 13  1  0  0  0  0
 13 14  1  0  0  0  0
 13 15  2  0  0  0  0
 15 16  1  0  0  0  0
 15 43  1  0  0  0  0
 16 17  1  0  0  0  0
 16 22  1  0  0  0  0
 17 21  1  0  0  0  0
 17 18  1  0  0  0  0
 17 44  1  0  0  0  0
 18 19  1  0  0  0  0
 18 45  1  0  0  0  0
 18 46  1  0  0  0  0
 19 20  1  0  0  0  0
 19 47  1  0  0  0  0
 19 48  1  0  0  0  0
 20 21  1  0  0  0  0
 20 49  1  0  0  0  0
 20 50  1  0  0  0  0
 22 23  2  0  0  0  0
 24 25  2  0  0  0  0
 24 51  1  0  0  0  0
 25 26  1  0  0  0  0
 26 27  2  0  0  0  0
 26 28  2  0  0  0  0
 26 29  1  0  0  0  0
 29 34  1  0  0  0  0
 29 30  1  0  0  0  0
 30 31  1  0  0  0  0
 30 52  1  0  0  0  0
 30 53  1  0  0  0  0
 31 32  1  0  0  0  0
 31 54  1  0  0  0  0
 31 55  1  0  0  0  0
 32 33  1  0  0  0  0
 33 34  1  0  0  0  0
 33 56  1  0  0  0  0
 33 57  1  0  0  0  0
 34 58  1  0  0  0  0
 34 59  1  0  0  0  0
M  END
> <s_m_source_file>
AV-unprocessed.smi

> <i_m_source_file_index>
125

> <i_lp_mmshare_version>
43012

> <i_f3d_flags>
0

> <s_epik_input>
W0NIMl0xW0NIMl1PW0NIMl1bQ0gyXU4xUyg9TykoPU8pYzJbY0hdYyhbY0hdW2NIXWMyW0NIM10pW05IXUMoPU8pW0NIMl1uM2MoPU8pYyhGKVtjSF1uKGMzPU8pW0NAQEhdNFtDSDJdW0NIMl1bQ0gyXU80

> <s_epik_cmdline>
J2VwaWtfcHl0aG9uJywgJy1waCcsICc3LjAnLCAnLXRuJywgJzgnLCAnLW1hJywgJzIwMCcsICctbWV0YWxfYmluZGluZycsICctaW1hZScsICc8aW5maWxlLm1hZT4nLCAnLW9tYWUnLCAnPG91dGZpbGUubWFlPic=

> <r_lp_tautomer_probability>
1

> <r_epik_Ionization_Penalty>
4.12263e-06

> <r_epik_Ionization_Penalty_Charging>
3.88729e-08

> <r_epik_Ionization_Penalty_Neutral>
4.08376e-06

> <r_epik_State_Penalty>
-0

> <r_epik_Charging_Adjusted_Penalty>
3.88729e-08

> <i_epik_Tot_Q>
0

> <i_epik_Tot_abs_Q>
0

> <r_epik_Metal_State_Penalty>
-0

> <b_epik_Metal_Only>
0

> <s_epik_Chemistry_Notes>
This compound contains an acetal/aminal-like group ( X-CH(R)-Y where X, Y are N, S, or O) that may be acid/base labile, releasing an aldehyde.

> <s_lp_Force_Field>
OPLS_2005

> <r_lp_Energy>
38.7063

> <b_lp_Chiralities_Consistent>
1

> <s_lp_Variant>
AV-unprocessed.smi:125-2

> <Gold.Version>
5.8.1

> <Gold.Id.Protein>
6NUR|6NUR_protein|mol2

> <Gold.PLP.Fitness>
65.0333

> <Gold.PLP.PLP>
-53.8467

> <Gold.PLP.part.hbond>
-5.2727

> <Gold.PLP.part.metal>
0.0000

> <Gold.PLP.part.buried>
-4.3940

> <Gold.PLP.part.nonpolar>
-45.9867

> <Gold.PLP.part.repulsive>
0.2905

> <Gold.PLP.ligand.clash>
0.0000

> <Gold.PLP.ligand.torsion>
2.4757

> <Gold.PLP.Chemscore.Hbond>
2.9924

> <Gold.PLP.Chemscore.CHOScore>
1.0000

> <Gold.PLP.Chemscore.Metal>
0.0000

> <Gold.Chemscore.Hbonds>
donor molecule, donor type, donor heavy atom, donor atom, acceptor molecule, acceptor atom, score
      P1  H  6934  6947       L1    27  0.62
      P1  H  7989  7998       L1    12  0.25
      P1  H  7997  8009       L1    23  0.98
      P1  H 10752 10765       L1     8  0.80
      L1  C    15    43       P1  8028  0.98

> <Gold.PLP.Chemscore.Internal.Correction>
4.1608

> <Gold.Rescore>
     Score         DG    S(hbond)    S(metal)    S(lipo)     H(rot)  DE(clash)    DE(int)     intcor
     13.91     -21.05       2.23        0.00     105.61       1.65       1.03       6.11       ----

> <Gold.Chemscore.Fitness>
13.9142

> <Gold.Chemscore.DG>
-21.0465

> <Gold.Chemscore.ZeroCoef>
-5.4800

> <Gold.Chemscore.Hbond>
2.2266

> <Gold.Chemscore.Metal>
0.0000

> <Gold.Chemscore.Lipo>
105.6074

> <Gold.Chemscore.Internal_Hbond>
0.0000

> <Gold.Chemscore.DEClash>
1.0266

> <Gold.Chemscore.DEInternal>
6.1057

> <Gold.Chemscore.Rot>
1.6510

> <Gold.Chemscore.Internal.Correction>
   9.000000E+99

> <Gold.Chemscore.Hbonds>
donor molecule, donor type, donor heavy atom, donor atom, acceptor molecule, acceptor atom, score
      P1  H  6934  6947       L1    27  0.59
      P1  H  7997  8009       L1    23  0.31
      P1  H 10752 10765       L1     8  0.80

> <Gold.Chemscore.Hbond.Weighted>
-7.4369

> <Gold.Chemscore.Metal.Weighted>
-0.0000

> <Gold.Chemscore.Lipo.Weighted>
-12.3561

> <Gold.Chemscore.Internal_Hbond.Weighted>
0.0000

> <Gold.Chemscore.DEClash.Weighted>
1.0266

> <Gold.Chemscore.DEInternal.Weighted>
6.1057

> <Gold.Chemscore.Rot.Weighted>
4.2265

> <Gold.Chemscore.Internal.Correction.Weighted>
   9.000000E+99

> <Gold.Protein.RotatedTorsions>
[ 6907 6896 6895 6894 ] final   95.04 input  -60.11 | X-H torsion
[ 7974 7965 7964 7962 ] final   72.23 input  175.53 | X-H torsion
[ 8008 7997 7996 7995 ] final  158.91 input   59.86 | X-H torsion
[ 10167 10162 10161 10158 ] final   12.85 input  -65.29 | X-H torsion
[ 10718 10713 10712 10709 ] final  -36.40 input   66.30 | X-H torsion
[ 10763 10752 10751 10750 ] final -135.98 input  -60.55 | X-H torsion
[ 11005 11000 10999 10996 ] final  165.59 input  -57.11 | X-H torsion

> <Gold.Protein.ActiveResidues>
 VAL166  LYS551  ARG553  GLY616  TRP617  ASP618  TYR619  PRO620  LYS621  CYS622 
 ASP623  PHE694  ASN695  SER759  ASP760  ASP761  ALA762  ILE779  LEU786  VAL792 
 PHE793  MET794  SER795  GLU796  ALA797  LYS798  CYS799  TRP800  GLU811  SER814 

> <Gold.Protein.RotatedAtoms>
  152.5446  134.1101  159.8354 H   0  0  0  0  0  0  0  0  0  0  0  0  # atno 6907 bound_to 6896
  151.1168  133.5125  159.2611 H   0  0  0  0  0  0  0  0  0  0  0  0  # atno 6908 bound_to 6896
  151.1823  135.0376  159.8852 H   0  0  0  0  0  0  0  0  0  0  0  0  # atno 6909 bound_to 6896
  145.7560  139.2780  143.1404 H   0  0  0  0  0  0  0  0  0  0  0  0  # atno 7974 bound_to 7965
  156.2273  140.1845  156.7332 H   0  0  0  0  0  0  0  0  0  0  0  0  # atno 8008 bound_to 7997
  154.5962  140.0643  156.9334 H   0  0  0  0  0  0  0  0  0  0  0  0  # atno 8009 bound_to 7997
  155.2252  140.3310  155.4313 H   0  0  0  0  0  0  0  0  0  0  0  0  # atno 8010 bound_to 7997
  140.6041  143.8544  150.6995 H   0  0  0  0  0  0  0  0  0  0  0  0  # atno 10167 bound_to 10162
  156.3273  130.4274  149.7904 H   0  0  0  0  0  0  0  0  0  0  0  0  # atno 10718 bound_to 10713
  154.8693  135.3687  154.4986 H   0  0  0  0  0  0  0  0  0  0  0  0  # atno 10763 bound_to 10752
  153.5628  135.7022  153.5544 H   0  0  0  0  0  0  0  0  0  0  0  0  # atno 10764 bound_to 10752
  153.3612  135.4046  155.1683 H   0  0  0  0  0  0  0  0  0  0  0  0  # atno 10765 bound_to 10752
  140.2577  134.7927  157.3561 H   0  0  0  0  0  0  0  0  0  0  0  0  # atno 11005 bound_to 11000
  146.0311  140.8257  142.9875 LP  0  0  0  0  0  0  0  0  0  0  0  0  # atno 17320 bound_to 7965
  144.6840  140.2770  143.7298 LP  0  0  0  0  0  0  0  0  0  0  0  0  # atno 17321 bound_to 7965
  140.2097  143.3893  152.1727 LP  0  0  0  0  0  0  0  0  0  0  0  0  # atno 17342 bound_to 10162
  139.5312  144.7161  151.5050 LP  0  0  0  0  0  0  0  0  0  0  0  0  # atno 17343 bound_to 10162
  156.5190  130.8206  151.3196 LP  0  0  0  0  0  0  0  0  0  0  0  0  # atno 17370 bound_to 10713
  157.7424  130.9889  150.2512 LP  0  0  0  0  0  0  0  0  0  0  0  0  # atno 17371 bound_to 10713
  140.1495  134.4868  155.7971 LP  0  0  0  0  0  0  0  0  0  0  0  0  # atno 17394 bound_to 11000
  141.2194  133.6857  156.7354 LP  0  0  0  0  0  0  0  0  0  0  0  0  # atno 17395 bound_to 11000

$$$$
