AV-unprocessed.smi:3162|AV-procd|sdf|12065|dock2
  -GOLD-   2272017493D 1   1.00000     0.00000
 Structure written by MMmdl.
 37 37  0  0  0  0  0  0  0  0  2 V2000
  147.2162  141.3704  154.6107 C   0  0  0  0  0  0  0  0  0  0  0  0
  147.0917  140.7402  153.2146 C   0  0  0  0  0  0  0  0  0  0  0  0
  147.2300  139.2021  153.1889 C   0  0  2  0  0  0  0  0  0  0  0  0
  148.6689  138.8449  153.1644 N   0  3  0  0  0  0  0  0  0  0  0  0
  149.4107  138.9918  154.4393 C   0  0  1  0  0  0  0  0  0  0  0  0
  150.4396  137.8600  154.6327 C   0  0  0  0  0  0  0  0  0  0  0  0
  150.0568  140.3915  154.4851 C   0  0  0  0  0  0  0  0  0  0  0  0
  150.7095  140.6732  155.7512 N   0  0  0  0  0  0  0  0  0  0  0  0
  150.5236  141.7541  156.5865 C   0  0  0  0  0  0  0  0  0  0  0  0
  151.3565  141.5947  157.6573 C   0  0  0  0  0  0  0  0  0  0  0  0
  151.5353  142.4934  158.8469 C   0  0  0  0  0  0  0  0  0  0  0  0
  152.0224  140.3672  157.3784 C   0  0  0  0  0  0  0  0  0  0  0  0
  151.6352  139.8196  156.2377 N   0  0  0  0  0  0  0  0  0  0  0  0
  146.5087  138.5947  151.9748 C   0  0  0  0  0  0  0  0  0  0  0  0
  145.1770  138.6920  151.9398 N   0  0  0  0  0  0  0  0  0  0  0  0
  147.1468  138.0483  151.0768 O   0  0  0  0  0  0  0  0  0  0  0  0
  147.1869  142.4584  154.5457 H   0  0  0  0  0  0  0  0  0  0  0  0
  148.1575  141.0931  155.0856 H   0  0  0  0  0  0  0  0  0  0  0  0
  146.4030  141.0630  155.2683 H   0  0  0  0  0  0  0  0  0  0  0  0
  146.1423  141.0393  152.7671 H   0  0  0  0  0  0  0  0  0  0  0  0
  147.8678  141.1736  152.5819 H   0  0  0  0  0  0  0  0  0  0  0  0
  146.7830  138.8095  154.1040 H   0  0  0  0  0  0  0  0  0  0  0  0
  148.7629  137.8983  152.8238 H   0  0  0  0  0  0  0  0  0  0  0  0
  148.6838  138.9398  155.2514 H   0  0  0  0  0  0  0  0  0  0  0  0
  150.9750  137.9609  155.5767 H   0  0  0  0  0  0  0  0  0  0  0  0
  151.1795  137.8567  153.8315 H   0  0  0  0  0  0  0  0  0  0  0  0
  149.9627  136.8805  154.6513 H   0  0  0  0  0  0  0  0  0  0  0  0
  150.7849  140.5010  153.6791 H   0  0  0  0  0  0  0  0  0  0  0  0
  149.2995  141.1601  154.3241 H   0  0  0  0  0  0  0  0  0  0  0  0
  149.8207  142.5401  156.3522 H   0  0  0  0  0  0  0  0  0  0  0  0
  152.3400  142.1506  159.4976 H   0  0  0  0  0  0  0  0  0  0  0  0
  150.6306  142.5424  159.4532 H   0  0  0  0  0  0  0  0  0  0  0  0
  151.7779  143.5132  158.5474 H   0  0  0  0  0  0  0  0  0  0  0  0
  152.7731  139.8615  157.9681 H   0  0  0  0  0  0  0  0  0  0  0  0
  144.6576  138.3016  151.1669 H   0  0  0  0  0  0  0  0  0  0  0  0
  144.6897  139.1523  152.6957 H   0  0  0  0  0  0  0  0  0  0  0  0
  149.1103  139.4633  152.4995 H   0  0  0  0  0  0  0  0  0  0  0  0
  1  2  1  0  0  0  0
  1 17  1  0  0  0  0
  1 18  1  0  0  0  0
  1 19  1  0  0  0  0
  2  3  1  0  0  0  0
  2 20  1  0  0  0  0
  2 21  1  0  0  0  0
  3  4  1  0  0  0  0
  3 14  1  0  0  0  0
  3 22  1  0  0  0  0
  4  5  1  0  0  0  0
  4 23  1  0  0  0  0
  4 37  1  0  0  0  0
  5  6  1  0  0  0  0
  5  7  1  0  0  0  0
  5 24  1  0  0  0  0
  6 25  1  0  0  0  0
  6 26  1  0  0  0  0
  6 27  1  0  0  0  0
  7  8  1  0  0  0  0
  7 28  1  0  0  0  0
  7 29  1  0  0  0  0
  8 13  1  0  0  0  0
  8  9  1  0  0  0  0
  9 10  2  0  0  0  0
  9 30  1  0  0  0  0
 10 11  1  0  0  0  0
 10 12  1  0  0  0  0
 11 31  1  0  0  0  0
 11 32  1  0  0  0  0
 11 33  1  0  0  0  0
 12 13  2  0  0  0  0
 12 34  1  0  0  0  0
 14 15  1  0  0  0  0
 14 16  2  0  0  0  0
 15 35  1  0  0  0  0
 15 36  1  0  0  0  0
M  CHG  1   4   1
M  END
> <s_m_source_file>
AV-unprocessed.smi

> <i_m_source_file_index>
3162

> <i_lp_mmshare_version>
43012

> <i_f3d_flags>
0

> <s_epik_input>
W0NIM11bQ0gyXVtDQEBIXShDKD1PKVtOSDJdKVtOSF1bQ0BIXShbQ0gzXSlbQ0gyXW4xW2NIXWMoW0NIM10pW2NIXW4x

> <s_epik_cmdline>
J2VwaWtfcHl0aG9uJywgJy1waCcsICc3LjAnLCAnLXRuJywgJzgnLCAnLW1hJywgJzIwMCcsICctbWV0YWxfYmluZGluZycsICctaW1hZScsICc8aW5maWxlLm1hZT4nLCAnLW9tYWUnLCAnPG91dGZpbGUubWFlPic=

> <r_lp_tautomer_probability>
1

> <r_epik_Ionization_Penalty>
0.112112

> <r_epik_Ionization_Penalty_Charging>
0.112102

> <r_epik_Ionization_Penalty_Neutral>
9.73799e-06

> <r_epik_State_Penalty>
0.101811

> <r_epik_Charging_Adjusted_Penalty>
0.213914

> <i_epik_Tot_Q>
1

> <i_epik_Tot_abs_Q>
1

> <r_epik_Metal_State_Penalty>
0.101821

> <b_epik_Metal_Only>
0

> <s_lp_Force_Field>
OPLS_2005

> <r_lp_Energy>
6.55783

> <b_lp_Chiralities_Consistent>
1

> <s_lp_Variant>
AV-unprocessed.smi:3162-3

> <Gold.Version>
5.8.1

> <Gold.Id.Protein>
6NUR|6NUR_protein|mol2

> <Gold.PLP.Fitness>
47.8111

> <Gold.PLP.PLP>
-30.4444

> <Gold.PLP.part.hbond>
-4.2011

> <Gold.PLP.part.metal>
0.0000

> <Gold.PLP.part.buried>
-2.6297

> <Gold.PLP.part.nonpolar>
-28.0303

> <Gold.PLP.part.repulsive>
3.6168

> <Gold.PLP.ligand.clash>
0.0000

> <Gold.PLP.ligand.torsion>
1.0275

> <Gold.PLP.Chemscore.Hbond>
5.3920

> <Gold.PLP.Chemscore.CHOScore>
1.0000

> <Gold.PLP.Chemscore.Metal>
0.0000

> <Gold.Chemscore.Hbonds>
donor molecule, donor type, donor heavy atom, donor atom, acceptor molecule, acceptor atom, score
      L1  H     4    23       P1  7948  2.00
      L1  H     4    37       P1  7957  1.00
      L1  H    15    35       P1 10171  0.91
      L1  H    15    36       P1 10175  0.45
      P1  H  7954  7966       L1    16  1.00
      L1  C     9    30       P1  8028  1.00

> <Gold.PLP.Chemscore.Internal.Correction>
0.2458

> <Gold.Rescore>
     Score         DG    S(hbond)    S(metal)    S(lipo)     H(rot)  DE(clash)    DE(int)     intcor
     16.86     -21.56       4.41        0.00      66.43       2.51       2.41       2.30       ----

> <Gold.Chemscore.Fitness>
16.8557

> <Gold.Chemscore.DG>
-21.5567

> <Gold.Chemscore.ZeroCoef>
-5.4800

> <Gold.Chemscore.Hbond>
4.4074

> <Gold.Chemscore.Metal>
0.0000

> <Gold.Chemscore.Lipo>
66.4262

> <Gold.Chemscore.Internal_Hbond>
0.0000

> <Gold.Chemscore.DEClash>
2.4055

> <Gold.Chemscore.DEInternal>
2.2956

> <Gold.Chemscore.Rot>
2.5062

> <Gold.Chemscore.Internal.Correction>
   9.000000E+99

> <Gold.Chemscore.Hbonds>
donor molecule, donor type, donor heavy atom, donor atom, acceptor molecule, acceptor atom, score
      L1  H     4    23       P1  7948  1.00
      L1  H     4    37       P1  7957  0.93
      L1  H    15    35       P1 10171  0.88
      L1  H    15    36       P1 10175  0.46
      P1  H  7954  7966       L1    16  0.97

> <Gold.Chemscore.Hbond.Weighted>
-14.7208

> <Gold.Chemscore.Metal.Weighted>
-0.0000

> <Gold.Chemscore.Lipo.Weighted>
-7.7719

> <Gold.Chemscore.Internal_Hbond.Weighted>
0.0000

> <Gold.Chemscore.DEClash.Weighted>
2.4055

> <Gold.Chemscore.DEInternal.Weighted>
2.2956

> <Gold.Chemscore.Rot.Weighted>
6.4159

> <Gold.Chemscore.Internal.Correction.Weighted>
   9.000000E+99

> <Gold.Protein.RotatedTorsions>
[ 6907 6896 6895 6894 ] final  142.99 input  -60.11 | X-H torsion
[ 7974 7965 7964 7962 ] final  104.69 input  175.53 | X-H torsion
[ 8008 7997 7996 7995 ] final  -13.62 input   59.86 | X-H torsion
[ 10167 10162 10161 10158 ] final -137.66 input  -65.29 | X-H torsion
[ 10718 10713 10712 10709 ] final  171.27 input   66.30 | X-H torsion
[ 10763 10752 10751 10750 ] final  160.83 input  -60.55 | X-H torsion
[ 11005 11000 10999 10996 ] final  -48.13 input  -57.11 | X-H torsion

> <Gold.Protein.ActiveResidues>
 VAL166  LYS551  ARG553  GLY616  TRP617  ASP618  TYR619  PRO620  LYS621  CYS622 
 ASP623  PHE694  ASN695  SER759  ASP760  ASP761  ALA762  ILE779  LEU786  VAL792 
 PHE793  MET794  SER795  GLU796  ALA797  LYS798  CYS799  TRP800  GLU811  SER814 

> <Gold.Protein.RotatedAtoms>
  152.2119  133.4917  159.5114 H   0  0  0  0  0  0  0  0  0  0  0  0  # atno 6907 bound_to 6896
  150.6992  134.1456  159.4130 H   0  0  0  0  0  0  0  0  0  0  0  0  # atno 6908 bound_to 6896
  151.9375  135.0228  160.0584 H   0  0  0  0  0  0  0  0  0  0  0  0  # atno 6909 bound_to 6896
  145.3295  139.2490  143.3668 H   0  0  0  0  0  0  0  0  0  0  0  0  # atno 7974 bound_to 7965
  154.5277  140.2245  155.8860 H   0  0  0  0  0  0  0  0  0  0  0  0  # atno 8008 bound_to 7997
  156.1731  140.3117  155.8974 H   0  0  0  0  0  0  0  0  0  0  0  0  # atno 8009 bound_to 7997
  155.3516  140.0456  157.3037 H   0  0  0  0  0  0  0  0  0  0  0  0  # atno 8010 bound_to 7997
  139.8556  143.7143  152.2654 H   0  0  0  0  0  0  0  0  0  0  0  0  # atno 10167 bound_to 10162
  156.9959  131.0162  151.2844 H   0  0  0  0  0  0  0  0  0  0  0  0  # atno 10718 bound_to 10713
  154.2535  135.2771  155.2807 H   0  0  0  0  0  0  0  0  0  0  0  0  # atno 10763 bound_to 10752
  154.5445  135.5693  153.6871 H   0  0  0  0  0  0  0  0  0  0  0  0  # atno 10764 bound_to 10752
  152.9976  135.6259  154.2683 H   0  0  0  0  0  0  0  0  0  0  0  0  # atno 10765 bound_to 10752
  141.0682  133.6687  156.3396 H   0  0  0  0  0  0  0  0  0  0  0  0  # atno 11005 bound_to 11000
  146.3051  140.3870  142.8690 LP  0  0  0  0  0  0  0  0  0  0  0  0  # atno 17320 bound_to 7965
  144.8875  140.7481  143.5947 LP  0  0  0  0  0  0  0  0  0  0  0  0  # atno 17321 bound_to 7965
  139.7423  144.7556  151.0633 LP  0  0  0  0  0  0  0  0  0  0  0  0  # atno 17342 bound_to 10162
  140.7782  143.4957  150.9835 LP  0  0  0  0  0  0  0  0  0  0  0  0  # atno 17343 bound_to 10162
  157.5425  130.8129  149.8046 LP  0  0  0  0  0  0  0  0  0  0  0  0  # atno 17370 bound_to 10713
  156.0189  130.3803  150.2023 LP  0  0  0  0  0  0  0  0  0  0  0  0  # atno 17371 bound_to 10713
  140.5729  134.5822  157.5462 LP  0  0  0  0  0  0  0  0  0  0  0  0  # atno 17394 bound_to 11000
  139.9497  134.7639  156.0477 LP  0  0  0  0  0  0  0  0  0  0  0  0  # atno 17395 bound_to 11000

$$$$
