#       Name:                AV-unprocessed.smi:304
#       Creating user name   scv26
#       Creation time:       Thu Mar 26 22:17:07 2020


#       File generated by GOLD software.
#

@<TRIPOS>MOLECULE
AV-unprocessed.smi:304
    41    43     1
SMALL
NO_CHARGES


@<TRIPOS>ATOM
      1 ****        -0.4320  -0.2473   1.0474 O.3            1 S1                 0.0000
      2 ****         0.0357   0.2362  -0.1968 C.3            1 S1                 0.0000
      3 ****         1.5714   0.2679  -0.1579 C.3            1 S1                 0.0000
      4 ****         2.0663  -1.0354  -0.4153 O.3            1 S1                 0.0000
      5 ****         3.4834  -1.0964  -0.4017 C.3            1 S1                 0.0000
      6 ****         3.8809  -2.5062  -0.7017 C.2            1 S1                 0.0000
      7 ****         5.0277  -2.9248  -1.3272 C.2            1 S1                 0.0000
      8 ****         5.1182  -4.3426  -1.4491 C.2            1 S1                 0.0000
      9 ****         4.0421  -4.9919  -0.9057 C.2            1 S1                 0.0000
     10 ****         2.8931  -3.8700  -0.2303 S.3            1 S1                 0.0000
     11 ****        -0.5609   1.6342  -0.4511 C.3            1 S1                 0.0000
     12 ****        -2.0127   1.6232  -0.4915 N.pl3          1 S1                 0.0000
     13 ****        -2.7902   1.2759  -1.5348 C.2            1 S1                 0.0000
     14 ****        -4.1073   1.3387  -1.3610 N.2            1 S1                 0.0000
     15 ****        -4.1955   1.7768  -0.0507 C.ar           1 S1                 0.0000
     16 ****        -5.3272   2.0486   0.7508 C.ar           1 S1                 0.0000
     17 ****        -5.1716   2.4918   2.0807 C.ar           1 S1                 0.0000
     18 ****        -6.2669   2.7479   2.8349 F              1 S1                 0.0000
     19 ****        -3.8838   2.6690   2.6288 C.ar           1 S1                 0.0000
     20 ****        -3.7435   3.0933   3.9070 F              1 S1                 0.0000
     21 ****        -2.7415   2.4050   1.8492 C.ar           1 S1                 0.0000
     22 ****        -2.9015   1.9644   0.5225 C.ar           1 S1                 0.0000
     23 ****        -0.0760  -1.1123   1.1834 H              1 S1                 0.0000
     24 ****        -0.2966  -0.4394  -0.9865 H              1 S1                 0.0000
     25 ****         1.9444   0.9337  -0.9379 H              1 S1                 0.0000
     26 ****         1.9354   0.6529   0.7964 H              1 S1                 0.0000
     27 ****         3.9016  -0.4187  -1.1477 H              1 S1                 0.0000
     28 ****         3.8676  -0.8000   0.5752 H              1 S1                 0.0000
     29 ****         5.7981  -2.2668  -1.7011 H              1 S1                 0.0000
     30 ****         5.9583  -4.8293  -1.9223 H              1 S1                 0.0000
     31 ****         3.8558  -6.0546  -0.8587 H              1 S1                 0.0000
     32 ****        -0.2366   2.3350   0.3192 H              1 S1                 0.0000
     33 ****        -0.1997   2.0296  -1.4015 H              1 S1                 0.0000
     34 ****        -2.3641   0.9585  -2.4755 H              1 S1                 0.0000
     35 ****        -6.3178   1.9156   0.3421 H              1 S1                 0.0000
     36 ****        -1.7546   2.5368   2.2671 H              1 S1                 0.0000
     37 ****        -1.4310  -0.2905   1.0393 LP             1 S1                 0.0000
     38 ****        -0.1307   0.3614   1.7814 LP             1 S1                 0.0000
     39 ****         1.7422  -1.3286  -1.3147 LP             1 S1                 0.0000
     40 ****         1.7128  -1.6557   0.2849 LP             1 S1                 0.0000
     41 ****        -4.8406   1.1256  -2.0066 LP             1 S1                 0.0000
@<TRIPOS>BOND
    1    1    2 1     
    2    1   23 1     
    3    2    3 1     
    4    2   11 1     
    5    2   24 1     
    6    3    4 1     
    7    3   25 1     
    8    3   26 1     
    9    4    5 1     
   10    5    6 1     
   11    5   27 1     
   12    5   28 1     
   13    6   10 1     
   14    6    7 2     
   15    7    8 1     
   16    7   29 1     
   17    8    9 2     
   18    8   30 1     
   19    9   10 1     
   20    9   31 1     
   21   11   12 1     
   22   11   32 1     
   23   11   33 1     
   24   12   22 1     
   25   12   13 1     
   26   13   14 2     
   27   13   34 1     
   28   14   15 1     
   29   15   22 ar    
   30   15   16 ar    
   31   16   17 ar    
   32   16   35 1     
   33   17   18 1     
   34   17   19 ar    
   35   19   20 1     
   36   19   21 ar    
   37   21   22 ar    
   38   21   36 1     
   39    1   37 1     
   40    1   38 1     
   41    4   39 1     
   42    4   40 1     
   43   14   41 1     
@<TRIPOS>SUBSTRUCTURE
      1 S1             1
@<TRIPOS>SET
LONE_PAIRS      STATIC     ATOMS    <user>   **** ""
5 37 38 39 40 41
DONOR_HYDROGENS      STATIC     ATOMS    <user>   **** ""
1 23
ATOM$BLUE        STATIC     ATOMS    COLORGROUP SYSTEM
5 37 38 39 40 41
ATOM$RED        STATIC     ATOMS    COLORGROUP SYSTEM
1 23
