#       Name:                AV-unprocessed.smi:2658
#       Creating user name   scv26
#       Creation time:       Fri Mar 27 14:32:37 2020


#       File generated by GOLD software.
#

@<TRIPOS>MOLECULE
AV-unprocessed.smi:2658
    53    55     1
SMALL
NO_CHARGES


@<TRIPOS>ATOM
      1 ****        -6.4444   0.3846   2.0322 C.3            1 S1                 0.0000
      2 ****        -5.2511   0.3640   1.0932 C.ar           1 S1                 0.0000
      3 ****        -5.4724   0.4462  -0.2999 C.ar           1 S1                 0.0000
      4 ****        -4.3906   0.4361  -1.2070 C.ar           1 S1                 0.0000
      5 ****        -4.3771   0.5085  -2.5894 N.2            1 S1                 0.0000
      6 ****        -3.0734   0.4583  -2.8468 C.2            1 S1                 0.0000
      7 ****        -2.2397   0.3612  -1.7933 N.pl3          1 S1                 0.0000
      8 ****        -0.7895   0.2994  -1.8264 C.3            1 S1                 0.0000
      9 ****        -0.2525  -1.1377  -1.6786 C.3            1 S1                 0.0000
     10 ****        -0.7560  -1.9493  -2.7215 O.3            1 S1                 0.0000
     11 ****         1.2816  -1.1919  -1.7184 C.3            1 S1                 0.0000
     12 ****         1.7999  -0.5747  -0.5433 O.3            1 S1                 0.0000
     13 ****         3.1678  -0.4474  -0.4167 C.ar           1 S1                 0.0000
     14 ****         3.6915   0.1417   0.7497 C.ar           1 S1                 0.0000
     15 ****         5.0898   0.2661   0.8517 C.ar           1 S1                 0.0000
     16 ****         5.7261   0.8892   2.0800 C.3            1 S1                 0.0000
     17 ****         5.8597  -0.2113  -0.2326 C.ar           1 S1                 0.0000
     18 ****         7.3747  -0.1244  -0.2353 C.3            1 S1                 0.0000
     19 ****         5.2974  -0.7716  -1.3287 N.ar           1 S1                 0.0000
     20 ****         3.9689  -0.8900  -1.4203 N.ar           1 S1                 0.0000
     21 ****        -3.0700   0.3411  -0.6783 C.ar           1 S1                 0.0000
     22 ****        -2.8366   0.2545   0.7056 C.ar           1 S1                 0.0000
     23 ****        -3.9294   0.2656   1.5981 C.ar           1 S1                 0.0000
     24 ****        -3.6686   0.1718   3.0910 C.3            1 S1                 0.0000
     25 ****        -7.3825   0.4665   1.4825 H              1 S1                 0.0000
     26 ****        -6.3810   1.2348   2.7116 H              1 S1                 0.0000
     27 ****        -6.4820  -0.5304   2.6237 H              1 S1                 0.0000
     28 ****        -6.4786   0.5205  -0.6852 H              1 S1                 0.0000
     29 ****        -2.7022   0.4943  -3.8606 H              1 S1                 0.0000
     30 ****        -0.4440   0.7414  -2.7622 H              1 S1                 0.0000
     31 ****        -0.4051   0.9307  -1.0245 H              1 S1                 0.0000
     32 ****        -0.6004  -1.5638  -0.7367 H              1 S1                 0.0000
     33 ****        -0.4461  -1.6061  -3.5455 H              1 S1                 0.0000
     34 ****         1.6160  -2.2305  -1.7526 H              1 S1                 0.0000
     35 ****         1.6462  -0.6934  -2.6188 H              1 S1                 0.0000
     36 ****         3.0373   0.4850   1.5377 H              1 S1                 0.0000
     37 ****         6.4208   0.1900   2.5464 H              1 S1                 0.0000
     38 ****         4.9722   1.1594   2.8201 H              1 S1                 0.0000
     39 ****         6.2736   1.7922   1.8087 H              1 S1                 0.0000
     40 ****         7.6970   0.9108  -0.1235 H              1 S1                 0.0000
     41 ****         7.7955  -0.5080  -1.1658 H              1 S1                 0.0000
     42 ****         7.7897  -0.7070   0.5874 H              1 S1                 0.0000
     43 ****        -1.8244   0.1812   1.0755 H              1 S1                 0.0000
     44 ****        -2.6012   0.1154   3.3064 H              1 S1                 0.0000
     45 ****        -4.1416  -0.7187   3.5055 H              1 S1                 0.0000
     46 ****        -4.0673   1.0471   3.6044 H              1 S1                 0.0000
     47 ****        -5.1448   0.5797  -3.2262 LP             1 S1                 0.0000
     48 ****        -1.7558  -1.9369  -2.7057 LP             1 S1                 0.0000
     49 ****        -0.4324  -2.8882  -2.6042 LP             1 S1                 0.0000
     50 ****         1.4796  -1.1107   0.2378 LP             1 S1                 0.0000
     51 ****         1.4121   0.3458  -0.4975 LP             1 S1                 0.0000
     52 ****         5.8786  -1.0987  -2.0738 LP             1 S1                 0.0000
     53 ****         3.5623  -1.3072  -2.2331 LP             1 S1                 0.0000
@<TRIPOS>BOND
    1    1    2 1     
    2    1   25 1     
    3    1   26 1     
    4    1   27 1     
    5    2   23 ar    
    6    2    3 ar    
    7    3    4 ar    
    8    3   28 1     
    9    4   21 ar    
   10    4    5 1     
   11    5    6 2     
   12    6    7 1     
   13    6   29 1     
   14    7    8 1     
   15    7   21 1     
   16    8    9 1     
   17    8   30 1     
   18    8   31 1     
   19    9   10 1     
   20    9   11 1     
   21    9   32 1     
   22   10   33 1     
   23   11   12 1     
   24   11   34 1     
   25   11   35 1     
   26   12   13 1     
   27   13   20 ar    
   28   13   14 ar    
   29   14   15 ar    
   30   14   36 1     
   31   15   16 1     
   32   15   17 ar    
   33   16   37 1     
   34   16   38 1     
   35   16   39 1     
   36   17   18 1     
   37   17   19 ar    
   38   18   40 1     
   39   18   41 1     
   40   18   42 1     
   41   19   20 ar    
   42   21   22 ar    
   43   22   23 ar    
   44   22   43 1     
   45   23   24 1     
   46   24   44 1     
   47   24   45 1     
   48   24   46 1     
   49    5   47 1     
   50   10   48 1     
   51   10   49 1     
   52   12   50 1     
   53   12   51 1     
   54   19   52 1     
   55   20   53 1     
@<TRIPOS>SUBSTRUCTURE
      1 S1             1
@<TRIPOS>SET
LONE_PAIRS      STATIC     ATOMS    <user>   **** ""
7 47 48 49 50 51 52 53
DONOR_HYDROGENS      STATIC     ATOMS    <user>   **** ""
1 33
ATOM$BLUE        STATIC     ATOMS    COLORGROUP SYSTEM
7 47 48 49 50 51 52 53
ATOM$RED        STATIC     ATOMS    COLORGROUP SYSTEM
1 33
